# generated using pymatgen
data_ZnH12C12NO4
_symmetry_space_group_name_H-M   'P 1'
_cell_length_a   14.35470000
_cell_length_b   14.35470000
_cell_length_c   14.35470000
_cell_angle_alpha   63.29200000
_cell_angle_beta   84.19680000
_cell_angle_gamma   116.70800000
_symmetry_Int_Tables_number   1
_chemical_formula_structural   ZnH12C12NO4
_chemical_formula_sum   'Zn4 H48 C48 N4 O16'
_cell_volume   2183.49345960
_cell_formula_units_Z   4
loop_
 _symmetry_equiv_pos_site_id
 _symmetry_equiv_pos_as_xyz
  1  'x, y, z'
loop_
 _atom_site_type_symbol
 _atom_site_label
 _atom_site_symmetry_multiplicity
 _atom_site_fract_x
 _atom_site_fract_y
 _atom_site_fract_z
 _atom_site_occupancy
 _atom_site_charge
  Zn  Zn1  1  0.423310  0.000000  0.576690  1.0  0.9311
  Zn  Zn2  1  0.076690  0.000000  0.923310  1.0  0.9315
  Zn  Zn3  1  0.576690  0.000000  0.423310  1.0  0.9315
  Zn  Zn4  1  0.923310  0.000000  0.076690  1.0  0.9311
  H  H5  1  0.246600  0.093200  0.362600  1.0  0.096
  H  H6  1  0.425000  0.073000  0.742000  1.0  0.1182
  H  H7  1  0.331000  0.917000  0.818000  1.0  0.07
  H  H8  1  0.544200  0.906800  0.846600  1.0  0.1008
  H  H9  1  0.185000  0.927000  0.648000  1.0  0.1214
  H  H10  1  0.265000  0.083000  0.586000  1.0  0.0702
  H  H11  1  0.153400  0.609200  0.753400  1.0  0.095
  H  H12  1  0.352000  0.167000  0.575000  1.0  0.1205
  H  H13  1  0.414000  0.149000  0.669000  1.0  0.0737
  H  H14  1  0.637400  0.390800  0.455800  1.0  0.0974
  H  H15  1  0.258000  0.833000  0.815000  1.0  0.1215
  H  H16  1  0.182000  0.851000  0.735000  1.0  0.0717
  H  H17  1  0.955800  0.609200  0.137400  1.0  0.0955
  H  H18  1  0.315000  0.167000  0.758000  1.0  0.1213
  H  H19  1  0.235000  0.149000  0.682000  1.0  0.0751
  H  H20  1  0.253400  0.390800  0.653400  1.0  0.096
  H  H21  1  0.075000  0.833000  0.852000  1.0  0.1176
  H  H22  1  0.169000  0.851000  0.914000  1.0  0.0695
  H  H23  1  0.862600  0.906800  0.746600  1.0  0.0975
  H  H24  1  0.242000  0.927000  0.925000  1.0  0.1194
  H  H25  1  0.318000  0.083000  0.831000  1.0  0.0684
  H  H26  1  0.346600  0.093200  0.044200  1.0  0.0953
  H  H27  1  0.148000  0.073000  0.685000  1.0  0.1202
  H  H28  1  0.086000  0.917000  0.765000  1.0  0.068
  H  H29  1  0.753400  0.906800  0.637400  1.0  0.0953
  H  H30  1  0.575000  0.927000  0.258000  1.0  0.1198
  H  H31  1  0.669000  0.083000  0.182000  1.0  0.069
  H  H32  1  0.455800  0.093200  0.153400  1.0  0.0977
  H  H33  1  0.815000  0.073000  0.352000  1.0  0.1182
  H  H34  1  0.735000  0.917000  0.414000  1.0  0.0707
  H  H35  1  0.846600  0.390800  0.246600  1.0  0.0946
  H  H36  1  0.648000  0.833000  0.425000  1.0  0.1187
  H  H37  1  0.586000  0.851000  0.331000  1.0  0.0735
  H  H38  1  0.362600  0.609200  0.544200  1.0  0.0972
  H  H39  1  0.742000  0.167000  0.185000  1.0  0.1208
  H  H40  1  0.818000  0.149000  0.265000  1.0  0.071
  H  H41  1  0.044200  0.390800  0.862600  1.0  0.0959
  H  H42  1  0.685000  0.833000  0.242000  1.0  0.1234
  H  H43  1  0.765000  0.851000  0.318000  1.0  0.0735
  H  H44  1  0.746600  0.609200  0.346600  1.0  0.0963
  H  H45  1  0.925000  0.167000  0.148000  1.0  0.1185
  H  H46  1  0.831000  0.149000  0.086000  1.0  0.0712
  H  H47  1  0.137400  0.093200  0.253400  1.0  0.1003
  H  H48  1  0.758000  0.073000  0.075000  1.0  0.1208
  H  H49  1  0.682000  0.917000  0.169000  1.0  0.0687
  H  H50  1  0.653400  0.906800  0.955800  1.0  0.0964
  H  H51  1  0.852000  0.927000  0.315000  1.0  0.1192
  H  H52  1  0.914000  0.083000  0.235000  1.0  0.0683
  C  C53  1  0.265800  0.091020  0.299400  1.0  -0.0664
  C  C54  1  0.366900  0.028500  0.755600  1.0  -0.1176
  C  C55  1  0.609580  0.908980  0.825220  1.0  -0.0645
  C  C56  1  0.215900  0.971500  0.661600  1.0  -0.1208
  C  C57  1  0.174780  0.565200  0.734200  1.0  -0.0658
  C  C58  1  0.338400  0.122500  0.633100  1.0  -0.117
  C  C59  1  0.700600  0.434800  0.390420  1.0  -0.064
  C  C60  1  0.244400  0.877500  0.784100  1.0  -0.1189
  C  C61  1  0.890420  0.565200  0.200600  1.0  -0.0629
  C  C62  1  0.284100  0.122500  0.744400  1.0  -0.1208
  C  C63  1  0.234200  0.434800  0.674780  1.0  -0.0664
  C  C64  1  0.133100  0.877500  0.838400  1.0  -0.1194
  C  C65  1  0.799400  0.908980  0.765800  1.0  -0.062
  C  C66  1  0.255600  0.971500  0.866900  1.0  -0.1192
  C  C67  1  0.325220  0.091020  0.109580  1.0  -0.0676
  C  C68  1  0.161600  0.028500  0.715900  1.0  -0.1192
  C  C69  1  0.734200  0.908980  0.700600  1.0  -0.0656
  C  C70  1  0.633100  0.971500  0.244400  1.0  -0.1176
  C  C71  1  0.390420  0.091020  0.174780  1.0  -0.0637
  C  C72  1  0.784100  0.028500  0.338400  1.0  -0.1217
  C  C73  1  0.825220  0.434800  0.265800  1.0  -0.0653
  C  C74  1  0.661600  0.877500  0.366900  1.0  -0.1185
  C  C75  1  0.299400  0.565200  0.609580  1.0  -0.0645
  C  C76  1  0.755600  0.122500  0.215900  1.0  -0.1206
  C  C77  1  0.109580  0.434800  0.799400  1.0  -0.0635
  C  C78  1  0.715900  0.877500  0.255600  1.0  -0.1164
  C  C79  1  0.765800  0.565200  0.325220  1.0  -0.0656
  C  C80  1  0.866900  0.122500  0.161600  1.0  -0.1189
  C  C81  1  0.200600  0.091020  0.234200  1.0  -0.0637
  C  C82  1  0.744400  0.028500  0.133100  1.0  -0.1221
  C  C83  1  0.674780  0.908980  0.890420  1.0  -0.0683
  C  C84  1  0.838400  0.971500  0.284100  1.0  -0.1174
  C  C85  1  0.359120  0.087810  0.271310  1.0  -0.1292
  C  C86  1  0.421220  0.071680  0.349540  1.0  0.6937
  C  C87  1  0.640880  0.912190  0.728690  1.0  -0.1292
  C  C88  1  0.578780  0.928320  0.650460  1.0  0.6943
  C  C89  1  0.271310  0.630430  0.640880  1.0  -0.1261
  C  C90  1  0.349540  0.770760  0.578780  1.0  0.6923
  C  C91  1  0.728690  0.369570  0.359120  1.0  -0.1274
  C  C92  1  0.650460  0.229240  0.421220  1.0  0.6922
  C  C93  1  0.859120  0.630430  0.228690  1.0  -0.1265
  C  C94  1  0.921220  0.770760  0.150460  1.0  0.6925
  C  C95  1  0.140880  0.369570  0.771310  1.0  -0.1283
  C  C96  1  0.078780  0.229240  0.849540  1.0  0.6921
  C  C97  1  0.771310  0.912190  0.859120  1.0  -0.1296
  C  C98  1  0.849540  0.928320  0.921220  1.0  0.6936
  C  C99  1  0.228690  0.087810  0.140880  1.0  -0.1289
  C  C100  1  0.150460  0.071680  0.078780  1.0  0.6945
  N  N101  1  0.317110  0.000000  0.682890  1.0  -0.039
  N  N102  1  0.182890  0.000000  0.817110  1.0  -0.0481
  N  N103  1  0.682890  0.000000  0.317110  1.0  -0.0481
  N  N104  1  0.817110  0.000000  0.182890  1.0  -0.039
  O  O105  1  0.386740  0.064770  0.437210  1.0  -0.6069
  O  O106  1  0.498020  0.935230  0.678030  1.0  -0.6076
  O  O107  1  0.321970  0.823950  0.613260  1.0  -0.608
  O  O108  1  0.562790  0.176050  0.501980  1.0  -0.6087
  O  O109  1  0.001980  0.823950  0.062790  1.0  -0.6065
  O  O110  1  0.113260  0.176050  0.821970  1.0  -0.609
  O  O111  1  0.937210  0.935230  0.886740  1.0  -0.6072
  O  O112  1  0.178030  0.064770  0.998020  1.0  -0.6076
  O  O113  1  0.613260  0.935230  0.562790  1.0  -0.6079
  O  O114  1  0.501980  0.064770  0.321970  1.0  -0.6065
  O  O115  1  0.678030  0.176050  0.386740  1.0  -0.6093
  O  O116  1  0.437210  0.823950  0.498020  1.0  -0.6072
  O  O117  1  0.998020  0.176050  0.937210  1.0  -0.6086
  O  O118  1  0.886740  0.823950  0.178030  1.0  -0.6082
  O  O119  1  0.062790  0.064770  0.113260  1.0  -0.6077
  O  O120  1  0.821970  0.935230  0.001980  1.0  -0.6073
