# generated using pymatgen
data_CsU4P8H16C24O27F2
_symmetry_space_group_name_H-M   'P 1'
_cell_length_a   21.55540000
_cell_length_b   23.93670000
_cell_length_c   10.37870000
_cell_angle_alpha   90.00000000
_cell_angle_beta   99.83800000
_cell_angle_gamma   90.00000000
_symmetry_Int_Tables_number   1
_chemical_formula_structural   CsU4P8H16C24O27F2
_chemical_formula_sum   'Cs4 U16 P32 H64 C96 O108 F8'
_cell_volume   5276.30035886
_cell_formula_units_Z   4
loop_
 _symmetry_equiv_pos_site_id
 _symmetry_equiv_pos_as_xyz
  1  'x, y, z'
loop_
 _atom_site_type_symbol
 _atom_site_label
 _atom_site_symmetry_multiplicity
 _atom_site_fract_x
 _atom_site_fract_y
 _atom_site_fract_z
 _atom_site_occupancy
 _atom_site_charge
  Cs  Cs1  1  0.361210  0.500000  0.212830  1.0  0.9241
  Cs  Cs2  1  0.861210  0.000000  0.212830  1.0  0.9241
  Cs  Cs3  1  0.638790  0.500000  0.787170  1.0  0.9241
  Cs  Cs4  1  0.138790  0.000000  0.787170  1.0  0.9241
  U  U5  1  0.509830  0.366620  0.792950  1.0  2.3494
  U  U6  1  0.009830  0.866620  0.792950  1.0  2.3494
  U  U7  1  0.490170  0.366620  0.207050  1.0  2.3513
  U  U8  1  0.990170  0.866620  0.207050  1.0  2.3513
  U  U9  1  0.490170  0.633380  0.207050  1.0  2.3482
  U  U10  1  0.990170  0.133380  0.207050  1.0  2.3482
  U  U11  1  0.509830  0.633380  0.792950  1.0  2.3466
  U  U12  1  0.009830  0.133380  0.792950  1.0  2.3466
  U  U13  1  0.327620  0.000000  0.631850  1.0  2.2622
  U  U14  1  0.342150  0.000000  0.221000  1.0  1.6554
  U  U15  1  0.827620  0.500000  0.631850  1.0  2.2622
  U  U16  1  0.842150  0.500000  0.221000  1.0  1.6554
  U  U17  1  0.672380  0.000000  0.368150  1.0  2.2675
  U  U18  1  0.657850  0.000000  0.779000  1.0  1.6551
  U  U19  1  0.172380  0.500000  0.368150  1.0  2.2675
  U  U20  1  0.157850  0.500000  0.779000  1.0  1.6551
  P  P21  1  0.398000  0.371600  0.469400  1.0  1.4979
  P  P22  1  0.307100  0.117140  0.411900  1.0  1.5057
  P  P23  1  0.365000  0.350760  0.927500  1.0  1.5321
  P  P24  1  0.326000  0.085410  0.929300  1.0  1.5461
  P  P25  1  0.898000  0.871600  0.469400  1.0  1.4979
  P  P26  1  0.807100  0.617140  0.411900  1.0  1.5057
  P  P27  1  0.865000  0.850760  0.927500  1.0  1.5321
  P  P28  1  0.826000  0.585410  0.929300  1.0  1.5461
  P  P29  1  0.602000  0.371600  0.530600  1.0  1.4977
  P  P30  1  0.692900  0.117140  0.588100  1.0  1.5054
  P  P31  1  0.635000  0.350760  0.072500  1.0  1.5298
  P  P32  1  0.674000  0.085410  0.070700  1.0  1.5447
  P  P33  1  0.102000  0.871600  0.530600  1.0  1.4977
  P  P34  1  0.192900  0.617140  0.588100  1.0  1.5054
  P  P35  1  0.135000  0.850760  0.072500  1.0  1.5298
  P  P36  1  0.174000  0.585410  0.070700  1.0  1.5447
  P  P37  1  0.602000  0.628400  0.530600  1.0  1.4965
  P  P38  1  0.692900  0.882860  0.588100  1.0  1.5071
  P  P39  1  0.635000  0.649240  0.072500  1.0  1.5302
  P  P40  1  0.674000  0.914590  0.070700  1.0  1.5434
  P  P41  1  0.102000  0.128400  0.530600  1.0  1.4965
  P  P42  1  0.192900  0.382860  0.588100  1.0  1.5071
  P  P43  1  0.135000  0.149240  0.072500  1.0  1.5302
  P  P44  1  0.174000  0.414590  0.070700  1.0  1.5434
  P  P45  1  0.398000  0.628400  0.469400  1.0  1.4966
  P  P46  1  0.307100  0.882860  0.411900  1.0  1.5071
  P  P47  1  0.365000  0.649240  0.927500  1.0  1.5325
  P  P48  1  0.326000  0.914590  0.929300  1.0  1.5448
  P  P49  1  0.898000  0.128400  0.469400  1.0  1.4966
  P  P50  1  0.807100  0.382860  0.411900  1.0  1.5071
  P  P51  1  0.865000  0.149240  0.927500  1.0  1.5325
  P  P52  1  0.826000  0.414590  0.929300  1.0  1.5448
  H  H53  1  0.451700  0.264400  0.552100  1.0  0.1441
  H  H54  1  0.418700  0.173700  0.526500  1.0  0.1433
  H  H55  1  0.252100  0.225200  0.325000  1.0  0.1362
  H  H56  1  0.284900  0.316500  0.349100  1.0  0.1564
  H  H57  1  0.366900  0.263100  0.741900  1.0  0.1348
  H  H58  1  0.347800  0.166100  0.738400  1.0  0.1488
  H  H59  1  0.333000  0.172100  0.122400  1.0  0.1528
  H  H60  1  0.340800  0.268600  0.117200  1.0  0.1319
  H  H61  1  0.951700  0.764400  0.552100  1.0  0.1441
  H  H62  1  0.918700  0.673700  0.526500  1.0  0.1433
  H  H63  1  0.752100  0.725200  0.325000  1.0  0.1362
  H  H64  1  0.784900  0.816500  0.349100  1.0  0.1564
  H  H65  1  0.866900  0.763100  0.741900  1.0  0.1348
  H  H66  1  0.847800  0.666100  0.738400  1.0  0.1488
  H  H67  1  0.833000  0.672100  0.122400  1.0  0.1528
  H  H68  1  0.840800  0.768600  0.117200  1.0  0.1319
  H  H69  1  0.548300  0.264400  0.447900  1.0  0.1441
  H  H70  1  0.581300  0.173700  0.473500  1.0  0.1435
  H  H71  1  0.747900  0.225200  0.675000  1.0  0.136
  H  H72  1  0.715100  0.316500  0.650900  1.0  0.156
  H  H73  1  0.633100  0.263100  0.258100  1.0  0.1357
  H  H74  1  0.652200  0.166100  0.261600  1.0  0.1492
  H  H75  1  0.667000  0.172100  0.877600  1.0  0.1527
  H  H76  1  0.659200  0.268600  0.882800  1.0  0.1319
  H  H77  1  0.048300  0.764400  0.447900  1.0  0.1441
  H  H78  1  0.081300  0.673700  0.473500  1.0  0.1435
  H  H79  1  0.247900  0.725200  0.675000  1.0  0.136
  H  H80  1  0.215100  0.816500  0.650900  1.0  0.156
  H  H81  1  0.133100  0.763100  0.258100  1.0  0.1357
  H  H82  1  0.152200  0.666100  0.261600  1.0  0.1492
  H  H83  1  0.167000  0.672100  0.877600  1.0  0.1527
  H  H84  1  0.159200  0.768600  0.882800  1.0  0.1319
  H  H85  1  0.548300  0.735600  0.447900  1.0  0.1444
  H  H86  1  0.581300  0.826300  0.473500  1.0  0.1438
  H  H87  1  0.747900  0.774800  0.675000  1.0  0.1357
  H  H88  1  0.715100  0.683500  0.650900  1.0  0.1556
  H  H89  1  0.633100  0.736900  0.258100  1.0  0.135
  H  H90  1  0.652200  0.833900  0.261600  1.0  0.1489
  H  H91  1  0.667000  0.827900  0.877600  1.0  0.1531
  H  H92  1  0.659200  0.731400  0.882800  1.0  0.1321
  H  H93  1  0.048300  0.235600  0.447900  1.0  0.1444
  H  H94  1  0.081300  0.326300  0.473500  1.0  0.1438
  H  H95  1  0.247900  0.274800  0.675000  1.0  0.1357
  H  H96  1  0.215100  0.183500  0.650900  1.0  0.1556
  H  H97  1  0.133100  0.236900  0.258100  1.0  0.135
  H  H98  1  0.152200  0.333900  0.261600  1.0  0.1489
  H  H99  1  0.167000  0.327900  0.877600  1.0  0.1531
  H  H100  1  0.159200  0.231400  0.882800  1.0  0.1321
  H  H101  1  0.451700  0.735600  0.552100  1.0  0.144
  H  H102  1  0.418700  0.826300  0.526500  1.0  0.1432
  H  H103  1  0.252100  0.774800  0.325000  1.0  0.1364
  H  H104  1  0.284900  0.683500  0.349100  1.0  0.1554
  H  H105  1  0.366900  0.736900  0.741900  1.0  0.1339
  H  H106  1  0.347800  0.833900  0.738400  1.0  0.1491
  H  H107  1  0.333000  0.827900  0.122400  1.0  0.1528
  H  H108  1  0.340800  0.731400  0.117200  1.0  0.1324
  H  H109  1  0.951700  0.235600  0.552100  1.0  0.144
  H  H110  1  0.918700  0.326300  0.526500  1.0  0.1432
  H  H111  1  0.752100  0.274800  0.325000  1.0  0.1364
  H  H112  1  0.784900  0.183500  0.349100  1.0  0.1554
  H  H113  1  0.866900  0.236900  0.741900  1.0  0.1339
  H  H114  1  0.847800  0.333900  0.738400  1.0  0.1491
  H  H115  1  0.833000  0.327900  0.122400  1.0  0.1528
  H  H116  1  0.840800  0.231400  0.117200  1.0  0.1324
  C  C117  1  0.373200  0.299800  0.453100  1.0  -0.2695
  C  C118  1  0.410800  0.256600  0.505200  1.0  -0.0176
  C  C119  1  0.391000  0.202800  0.491100  1.0  -0.0455
  C  C120  1  0.331800  0.189200  0.427200  1.0  -0.2152
  C  C121  1  0.292800  0.233300  0.372200  1.0  0.0189
  C  C122  1  0.312200  0.287300  0.385400  1.0  -0.0323
  C  C123  1  0.354400  0.276100  0.928700  1.0  -0.3193
  C  C124  1  0.357700  0.245000  0.818000  1.0  0.0145
  C  C125  1  0.347600  0.186900  0.816200  1.0  0.0102
  C  C126  1  0.337100  0.160000  0.930600  1.0  -0.2448
  C  C127  1  0.337300  0.190500  0.043200  1.0  -0.0191
  C  C128  1  0.343700  0.247800  0.040600  1.0  0.0143
  C  C129  1  0.873200  0.799800  0.453100  1.0  -0.2695
  C  C130  1  0.910800  0.756600  0.505200  1.0  -0.0176
  C  C131  1  0.891000  0.702800  0.491100  1.0  -0.0455
  C  C132  1  0.831800  0.689200  0.427200  1.0  -0.2152
  C  C133  1  0.792800  0.733300  0.372200  1.0  0.0189
  C  C134  1  0.812200  0.787300  0.385400  1.0  -0.0323
  C  C135  1  0.854400  0.776100  0.928700  1.0  -0.3193
  C  C136  1  0.857700  0.745000  0.818000  1.0  0.0145
  C  C137  1  0.847600  0.686900  0.816200  1.0  0.0102
  C  C138  1  0.837100  0.660000  0.930600  1.0  -0.2448
  C  C139  1  0.837300  0.690500  0.043200  1.0  -0.0191
  C  C140  1  0.843700  0.747800  0.040600  1.0  0.0143
  C  C141  1  0.626800  0.299800  0.546900  1.0  -0.2692
  C  C142  1  0.589200  0.256600  0.494800  1.0  -0.0178
  C  C143  1  0.609000  0.202800  0.508900  1.0  -0.045
  C  C144  1  0.668200  0.189200  0.572800  1.0  -0.2153
  C  C145  1  0.707200  0.233300  0.627800  1.0  0.0167
  C  C146  1  0.687800  0.287300  0.614600  1.0  -0.0328
  C  C147  1  0.645600  0.276100  0.071300  1.0  -0.319
  C  C148  1  0.642300  0.245000  0.182000  1.0  0.0142
  C  C149  1  0.652400  0.186900  0.183800  1.0  0.0099
  C  C150  1  0.662900  0.160000  0.069400  1.0  -0.2427
  C  C151  1  0.662700  0.190500  0.956800  1.0  -0.0178
  C  C152  1  0.656300  0.247800  0.959400  1.0  0.0135
  C  C153  1  0.126800  0.799800  0.546900  1.0  -0.2692
  C  C154  1  0.089200  0.756600  0.494800  1.0  -0.0178
  C  C155  1  0.109000  0.702800  0.508900  1.0  -0.045
  C  C156  1  0.168200  0.689200  0.572800  1.0  -0.2153
  C  C157  1  0.207200  0.733300  0.627800  1.0  0.0167
  C  C158  1  0.187800  0.787300  0.614600  1.0  -0.0328
  C  C159  1  0.145600  0.776100  0.071300  1.0  -0.319
  C  C160  1  0.142300  0.745000  0.182000  1.0  0.0142
  C  C161  1  0.152400  0.686900  0.183800  1.0  0.0099
  C  C162  1  0.162900  0.660000  0.069400  1.0  -0.2427
  C  C163  1  0.162700  0.690500  0.956800  1.0  -0.0178
  C  C164  1  0.156300  0.747800  0.959400  1.0  0.0135
  C  C165  1  0.626800  0.700200  0.546900  1.0  -0.2689
  C  C166  1  0.589200  0.743400  0.494800  1.0  -0.0175
  C  C167  1  0.609000  0.797200  0.508900  1.0  -0.0448
  C  C168  1  0.668200  0.810800  0.572800  1.0  -0.215
  C  C169  1  0.707200  0.766700  0.627800  1.0  0.0174
  C  C170  1  0.687800  0.712700  0.614600  1.0  -0.0319
  C  C171  1  0.645600  0.723900  0.071300  1.0  -0.3201
  C  C172  1  0.642300  0.755000  0.182000  1.0  0.0142
  C  C173  1  0.652400  0.813100  0.183800  1.0  0.0105
  C  C174  1  0.662900  0.840000  0.069400  1.0  -0.243
  C  C175  1  0.662700  0.809500  0.956800  1.0  -0.0176
  C  C176  1  0.656300  0.752200  0.959400  1.0  0.0129
  C  C177  1  0.126800  0.200200  0.546900  1.0  -0.2689
  C  C178  1  0.089200  0.243400  0.494800  1.0  -0.0175
  C  C179  1  0.109000  0.297200  0.508900  1.0  -0.0448
  C  C180  1  0.168200  0.310800  0.572800  1.0  -0.215
  C  C181  1  0.207200  0.266700  0.627800  1.0  0.0174
  C  C182  1  0.187800  0.212700  0.614600  1.0  -0.0319
  C  C183  1  0.145600  0.223900  0.071300  1.0  -0.3201
  C  C184  1  0.142300  0.255000  0.182000  1.0  0.0142
  C  C185  1  0.152400  0.313100  0.183800  1.0  0.0105
  C  C186  1  0.162900  0.340000  0.069400  1.0  -0.243
  C  C187  1  0.162700  0.309500  0.956800  1.0  -0.0176
  C  C188  1  0.156300  0.252200  0.959400  1.0  0.0129
  C  C189  1  0.373200  0.700200  0.453100  1.0  -0.269
  C  C190  1  0.410800  0.743400  0.505200  1.0  -0.0176
  C  C191  1  0.391000  0.797200  0.491100  1.0  -0.045
  C  C192  1  0.331800  0.810800  0.427200  1.0  -0.2152
  C  C193  1  0.292800  0.766700  0.372200  1.0  0.0191
  C  C194  1  0.312200  0.712700  0.385400  1.0  -0.0317
  C  C195  1  0.354400  0.723900  0.928700  1.0  -0.3207
  C  C196  1  0.357700  0.755000  0.818000  1.0  0.0138
  C  C197  1  0.347600  0.813100  0.816200  1.0  0.0111
  C  C198  1  0.337100  0.840000  0.930600  1.0  -0.2459
  C  C199  1  0.337300  0.809500  0.043200  1.0  -0.0192
  C  C200  1  0.343700  0.752200  0.040600  1.0  0.014
  C  C201  1  0.873200  0.200200  0.453100  1.0  -0.269
  C  C202  1  0.910800  0.243400  0.505200  1.0  -0.0176
  C  C203  1  0.891000  0.297200  0.491100  1.0  -0.045
  C  C204  1  0.831800  0.310800  0.427200  1.0  -0.2152
  C  C205  1  0.792800  0.266700  0.372200  1.0  0.0191
  C  C206  1  0.812200  0.212700  0.385400  1.0  -0.0317
  C  C207  1  0.854400  0.223900  0.928700  1.0  -0.3207
  C  C208  1  0.857700  0.255000  0.818000  1.0  0.0138
  C  C209  1  0.847600  0.313100  0.816200  1.0  0.0111
  C  C210  1  0.837100  0.340000  0.930600  1.0  -0.2459
  C  C211  1  0.837300  0.309500  0.043200  1.0  -0.0192
  C  C212  1  0.843700  0.252200  0.040600  1.0  0.014
  O  O213  1  0.417900  0.390300  0.342200  1.0  -0.9645
  O  O214  1  0.338800  0.407300  0.482800  1.0  -0.5397
  O  O215  1  0.448300  0.376800  0.588100  1.0  -0.883
  O  O216  1  0.322900  0.092400  0.547100  1.0  -0.8155
  O  O217  1  0.344000  0.090500  0.312900  1.0  -0.8144
  O  O218  1  0.236200  0.116000  0.357200  1.0  -0.6134
  O  O219  1  0.391300  0.370200  0.064400  1.0  -0.8795
  O  O220  1  0.298200  0.377300  0.886700  1.0  -0.5532
  O  O221  1  0.402600  0.364500  0.819500  1.0  -0.8578
  O  O222  1  0.361200  0.061600  0.057500  1.0  -0.8315
  O  O223  1  0.254300  0.078000  0.917500  1.0  -0.6684
  O  O224  1  0.347800  0.060400  0.811100  1.0  -0.8442
  O  O225  1  0.504700  0.438600  0.827100  1.0  -0.748
  O  O226  1  0.917900  0.890300  0.342200  1.0  -0.9645
  O  O227  1  0.838800  0.907300  0.482800  1.0  -0.5397
  O  O228  1  0.948300  0.876800  0.588100  1.0  -0.883
  O  O229  1  0.822900  0.592400  0.547100  1.0  -0.8155
  O  O230  1  0.844000  0.590500  0.312900  1.0  -0.8144
  O  O231  1  0.736200  0.616000  0.357200  1.0  -0.6134
  O  O232  1  0.891300  0.870200  0.064400  1.0  -0.8795
  O  O233  1  0.798200  0.877300  0.886700  1.0  -0.5532
  O  O234  1  0.902600  0.864500  0.819500  1.0  -0.8578
  O  O235  1  0.861200  0.561600  0.057500  1.0  -0.8315
  O  O236  1  0.754300  0.578000  0.917500  1.0  -0.6684
  O  O237  1  0.847800  0.560400  0.811100  1.0  -0.8442
  O  O238  1  0.004700  0.938600  0.827100  1.0  -0.748
  O  O239  1  0.582100  0.390300  0.657800  1.0  -0.9663
  O  O240  1  0.661200  0.407300  0.517200  1.0  -0.541
  O  O241  1  0.551700  0.376800  0.411900  1.0  -0.8834
  O  O242  1  0.677100  0.092400  0.452900  1.0  -0.8181
  O  O243  1  0.656000  0.090500  0.687100  1.0  -0.8145
  O  O244  1  0.763800  0.116000  0.642800  1.0  -0.6135
  O  O245  1  0.608700  0.370200  0.935600  1.0  -0.8806
  O  O246  1  0.701800  0.377300  0.113300  1.0  -0.5545
  O  O247  1  0.597400  0.364500  0.180500  1.0  -0.8571
  O  O248  1  0.638800  0.061600  0.942500  1.0  -0.8299
  O  O249  1  0.745700  0.078000  0.082500  1.0  -0.6704
  O  O250  1  0.652200  0.060400  0.188900  1.0  -0.8433
  O  O251  1  0.495300  0.438600  0.172900  1.0  -0.748
  O  O252  1  0.082100  0.890300  0.657800  1.0  -0.9663
  O  O253  1  0.161200  0.907300  0.517200  1.0  -0.541
  O  O254  1  0.051700  0.876800  0.411900  1.0  -0.8834
  O  O255  1  0.177100  0.592400  0.452900  1.0  -0.8181
  O  O256  1  0.156000  0.590500  0.687100  1.0  -0.8145
  O  O257  1  0.263800  0.616000  0.642800  1.0  -0.6135
  O  O258  1  0.108700  0.870200  0.935600  1.0  -0.8806
  O  O259  1  0.201800  0.877300  0.113300  1.0  -0.5545
  O  O260  1  0.097400  0.864500  0.180500  1.0  -0.8571
  O  O261  1  0.138800  0.561600  0.942500  1.0  -0.8299
  O  O262  1  0.245700  0.578000  0.082500  1.0  -0.6704
  O  O263  1  0.152200  0.560400  0.188900  1.0  -0.8433
  O  O264  1  0.995300  0.938600  0.172900  1.0  -0.748
  O  O265  1  0.582100  0.609700  0.657800  1.0  -0.963
  O  O266  1  0.661200  0.592700  0.517200  1.0  -0.5432
  O  O267  1  0.551700  0.623200  0.411900  1.0  -0.8818
  O  O268  1  0.677100  0.907600  0.452900  1.0  -0.8182
  O  O269  1  0.656000  0.909500  0.687100  1.0  -0.8136
  O  O270  1  0.763800  0.884000  0.642800  1.0  -0.6128
  O  O271  1  0.608700  0.629800  0.935600  1.0  -0.8798
  O  O272  1  0.701800  0.622700  0.113300  1.0  -0.554
  O  O273  1  0.597400  0.635500  0.180500  1.0  -0.8568
  O  O274  1  0.638800  0.938400  0.942500  1.0  -0.8302
  O  O275  1  0.745700  0.922000  0.082500  1.0  -0.6704
  O  O276  1  0.652200  0.939600  0.188900  1.0  -0.8432
  O  O277  1  0.495300  0.561400  0.172900  1.0  -0.748
  O  O278  1  0.082100  0.109700  0.657800  1.0  -0.963
  O  O279  1  0.161200  0.092700  0.517200  1.0  -0.5432
  O  O280  1  0.051700  0.123200  0.411900  1.0  -0.8818
  O  O281  1  0.177100  0.407600  0.452900  1.0  -0.8182
  O  O282  1  0.156000  0.409500  0.687100  1.0  -0.8136
  O  O283  1  0.263800  0.384000  0.642800  1.0  -0.6128
  O  O284  1  0.108700  0.129800  0.935600  1.0  -0.8798
  O  O285  1  0.201800  0.122700  0.113300  1.0  -0.554
  O  O286  1  0.097400  0.135500  0.180500  1.0  -0.8568
  O  O287  1  0.138800  0.438400  0.942500  1.0  -0.8302
  O  O288  1  0.245700  0.422000  0.082500  1.0  -0.6704
  O  O289  1  0.152200  0.439600  0.188900  1.0  -0.8432
  O  O290  1  0.995300  0.061400  0.172900  1.0  -0.748
  O  O291  1  0.417900  0.609700  0.342200  1.0  -0.9622
  O  O292  1  0.338800  0.592700  0.482800  1.0  -0.5421
  O  O293  1  0.448300  0.623200  0.588100  1.0  -0.8835
  O  O294  1  0.322900  0.907600  0.547100  1.0  -0.8151
  O  O295  1  0.344000  0.909500  0.312900  1.0  -0.8128
  O  O296  1  0.236200  0.884000  0.357200  1.0  -0.6135
  O  O297  1  0.391300  0.629800  0.064400  1.0  -0.8796
  O  O298  1  0.298200  0.622700  0.886700  1.0  -0.553
  O  O299  1  0.402600  0.635500  0.819500  1.0  -0.8581
  O  O300  1  0.361200  0.938400  0.057500  1.0  -0.8313
  O  O301  1  0.254300  0.922000  0.917500  1.0  -0.6691
  O  O302  1  0.347800  0.939600  0.811100  1.0  -0.8431
  O  O303  1  0.504700  0.561400  0.827100  1.0  -0.7482
  O  O304  1  0.917900  0.109700  0.342200  1.0  -0.9622
  O  O305  1  0.838800  0.092700  0.482800  1.0  -0.5421
  O  O306  1  0.948300  0.123200  0.588100  1.0  -0.8835
  O  O307  1  0.822900  0.407600  0.547100  1.0  -0.8151
  O  O308  1  0.844000  0.409500  0.312900  1.0  -0.8128
  O  O309  1  0.736200  0.384000  0.357200  1.0  -0.6135
  O  O310  1  0.891300  0.129800  0.064400  1.0  -0.8796
  O  O311  1  0.798200  0.122700  0.886700  1.0  -0.553
  O  O312  1  0.902600  0.135500  0.819500  1.0  -0.8581
  O  O313  1  0.861200  0.438400  0.057500  1.0  -0.8313
  O  O314  1  0.754300  0.422000  0.917500  1.0  -0.6691
  O  O315  1  0.847800  0.439600  0.811100  1.0  -0.8431
  O  O316  1  0.004700  0.061400  0.827100  1.0  -0.7482
  O  O317  1  0.247000  0.000000  0.646300  1.0  -0.6933
  O  O318  1  0.747000  0.500000  0.646300  1.0  -0.6933
  O  O319  1  0.753000  0.000000  0.353700  1.0  -0.6939
  O  O320  1  0.253000  0.500000  0.353700  1.0  -0.6939
  F  F321  1  0.295400  0.000000  0.408700  1.0  -0.5127
  F  F322  1  0.795400  0.500000  0.408700  1.0  -0.5127
  F  F323  1  0.704600  0.000000  0.591300  1.0  -0.5124
  F  F324  1  0.204600  0.500000  0.591300  1.0  -0.5124
  F  F325  1  0.500000  0.333500  0.000000  1.0  -0.5508
  F  F326  1  0.000000  0.833500  0.000000  1.0  -0.5508
  F  F327  1  0.500000  0.666500  0.000000  1.0  -0.5506
  F  F328  1  0.000000  0.166500  0.000000  1.0  -0.5506
