# generated using pymatgen
data_CdH18C18S(N3O2)2
_symmetry_space_group_name_H-M   'P 1'
_cell_length_a   8.85700000
_cell_length_b   10.02100000
_cell_length_c   12.99300000
_cell_angle_alpha   82.28400000
_cell_angle_beta   84.14500000
_cell_angle_gamma   89.89600000
_symmetry_Int_Tables_number   1
_chemical_formula_structural   CdH18C18S(N3O2)2
_chemical_formula_sum   'Cd2 H36 C36 S2 N12 O8'
_cell_volume   1136.72114143
_cell_formula_units_Z   2
loop_
 _symmetry_equiv_pos_site_id
 _symmetry_equiv_pos_as_xyz
  1  'x, y, z'
loop_
 _atom_site_type_symbol
 _atom_site_label
 _atom_site_symmetry_multiplicity
 _atom_site_fract_x
 _atom_site_fract_y
 _atom_site_fract_z
 _atom_site_occupancy
 _atom_site_charge
  Cd  Cd1  1  0.000000  0.000000  0.000000  1.0  0.7413
  Cd  Cd2  1  0.000000  0.000000  0.500000  1.0  0.9571
  H  H3  1  0.578300  0.367500  0.708600  1.0  0.1058
  H  H4  1  0.810400  0.663200  0.805100  1.0  0.0928
  H  H5  1  0.357900  0.686000  0.806900  1.0  0.0967
  H  H6  1  0.232200  0.533500  0.708300  1.0  0.0936
  H  H7  1  0.315000  0.403600  0.678300  1.0  0.107
  H  H8  1  0.946900  0.504100  0.719600  1.0  0.1016
  H  H9  1  0.885600  0.375800  0.794600  1.0  0.0881
  H  H10  1  0.688500  0.838200  0.882400  1.0  0.1164
  H  H11  1  0.592200  0.900900  0.793500  1.0  0.116
  H  H12  1  0.167900  0.516300  0.930200  1.0  0.1178
  H  H13  1  0.037200  0.326700  0.043400  1.0  0.1002
  H  H14  1  0.203300  0.191800  0.786400  1.0  0.1017
  H  H15  1  0.814200  0.495200  0.520100  1.0  0.1245
  H  H16  1  0.865000  0.310300  0.414600  1.0  0.0955
  H  H17  1  0.940900  0.174100  0.701600  1.0  0.0869
  H  H18  1  0.279800  0.831600  0.144500  1.0  0.1004
  H  H19  1  0.526300  0.757100  0.070600  1.0  0.1126
  H  H20  1  0.318800  0.958200  0.845600  1.0  0.0968
  H  H21  1  0.421700  0.632500  0.291400  1.0  0.1055
  H  H22  1  0.189600  0.336800  0.194900  1.0  0.0931
  H  H23  1  0.642100  0.314000  0.193100  1.0  0.0967
  H  H24  1  0.767800  0.466500  0.291700  1.0  0.0943
  H  H25  1  0.685000  0.596400  0.321700  1.0  0.1076
  H  H26  1  0.053100  0.495900  0.280400  1.0  0.1021
  H  H27  1  0.114400  0.624200  0.205400  1.0  0.087
  H  H28  1  0.311500  0.161800  0.117600  1.0  0.1165
  H  H29  1  0.407800  0.099100  0.206500  1.0  0.1172
  H  H30  1  0.832100  0.483700  0.069800  1.0  0.1169
  H  H31  1  0.962800  0.673300  0.956600  1.0  0.0989
  H  H32  1  0.796700  0.808200  0.213600  1.0  0.104
  H  H33  1  0.185800  0.504800  0.479900  1.0  0.124
  H  H34  1  0.135000  0.689700  0.585400  1.0  0.0946
  H  H35  1  0.059100  0.825900  0.298400  1.0  0.0872
  H  H36  1  0.720200  0.168400  0.855500  1.0  0.1001
  H  H37  1  0.473700  0.242900  0.929400  1.0  0.1128
  H  H38  1  0.681200  0.041800  0.154400  1.0  0.0971
  C  C39  1  0.445500  0.517500  0.754700  1.0  0.0834
  C  C40  1  0.580000  0.449500  0.734500  1.0  -0.1205
  C  C41  1  0.717300  0.504600  0.753200  1.0  0.0872
  C  C42  1  0.718400  0.626700  0.792900  1.0  -0.1837
  C  C43  1  0.585200  0.695100  0.814600  1.0  0.0746
  C  C44  1  0.448000  0.640400  0.794200  1.0  -0.1354
  C  C45  1  0.296400  0.460200  0.733200  1.0  -0.1038
  C  C46  1  0.866700  0.436400  0.732600  1.0  -0.1075
  C  C47  1  0.593200  0.830700  0.852600  1.0  -0.0832
  C  C48  1  0.159100  0.428800  0.915000  1.0  -0.1605
  C  C49  1  0.087100  0.323200  0.977300  1.0  0.0013
  C  C50  1  0.177800  0.248400  0.836500  1.0  0.137
  C  C51  1  0.845700  0.408900  0.543700  1.0  -0.1531
  C  C52  1  0.874200  0.306100  0.485600  1.0  0.0246
  C  C53  1  0.916100  0.230700  0.643200  1.0  0.13
  C  C54  1  0.318000  0.847600  0.074500  1.0  0.029
  C  C55  1  0.455000  0.806700  0.034300  1.0  -0.1744
  C  C56  1  0.338900  0.917200  0.911300  1.0  0.1258
  C  C57  1  0.554500  0.482500  0.245300  1.0  0.0825
  C  C58  1  0.420000  0.550500  0.265500  1.0  -0.1206
  C  C59  1  0.282700  0.495400  0.246800  1.0  0.0884
  C  C60  1  0.281600  0.373300  0.207100  1.0  -0.1839
  C  C61  1  0.414800  0.304900  0.185400  1.0  0.0732
  C  C62  1  0.552000  0.359600  0.205800  1.0  -0.1353
  C  C63  1  0.703600  0.539800  0.266800  1.0  -0.1052
  C  C64  1  0.133300  0.563600  0.267400  1.0  -0.1048
  C  C65  1  0.406800  0.169300  0.147400  1.0  -0.0842
  C  C66  1  0.840900  0.571200  0.085000  1.0  -0.1609
  C  C67  1  0.912900  0.676800  0.022700  1.0  0.0022
  C  C68  1  0.822200  0.751600  0.163500  1.0  0.1372
  C  C69  1  0.154300  0.591100  0.456300  1.0  -0.1519
  C  C70  1  0.125800  0.693900  0.514400  1.0  0.026
  C  C71  1  0.083900  0.769300  0.356800  1.0  0.1306
  C  C72  1  0.682000  0.152400  0.925500  1.0  0.0293
  C  C73  1  0.545000  0.193300  0.965700  1.0  -0.1757
  C  C74  1  0.661100  0.082800  0.088700  1.0  0.1264
  S  S75  1  0.953990  0.110620  0.255900  1.0  1.6255
  S  S76  1  0.046010  0.889380  0.744100  1.0  1.6246
  N  N77  1  0.099700  0.210300  0.927400  1.0  -0.3681
  N  N78  1  0.216200  0.380600  0.825500  1.0  0.0293
  N  N79  1  0.918600  0.195400  0.549200  1.0  -0.3658
  N  N80  1  0.872800  0.359800  0.643600  1.0  0.0418
  N  N81  1  0.244900  0.915700  0.996500  1.0  -0.3984
  N  N82  1  0.467500  0.852100  0.931200  1.0  0.0443
  N  N83  1  0.900300  0.789700  0.072600  1.0  -0.3672
  N  N84  1  0.783800  0.619400  0.174500  1.0  0.0291
  N  N85  1  0.081400  0.804600  0.450800  1.0  -0.3677
  N  N86  1  0.127200  0.640200  0.356400  1.0  0.0419
  N  N87  1  0.755100  0.084300  0.003500  1.0  -0.4001
  N  N88  1  0.532500  0.147900  0.068800  1.0  0.0442
  O  O89  1  0.023300  0.045000  0.169800  1.0  -0.7163
  O  O90  1  0.818200  0.032000  0.300600  1.0  -0.6881
  O  O91  1  0.061700  0.106600  0.334200  1.0  -0.7431
  O  O92  1  0.913600  0.248500  0.221500  1.0  -0.634
  O  O93  1  0.976700  0.955000  0.830200  1.0  -0.7157
  O  O94  1  0.181800  0.968000  0.699400  1.0  -0.6902
  O  O95  1  0.938300  0.893400  0.665800  1.0  -0.744
  O  O96  1  0.086400  0.751500  0.778500  1.0  -0.6343
