# generated using pymatgen
data_NdH7C14NO7
_symmetry_space_group_name_H-M   'P 1'
_cell_length_a   9.09700000
_cell_length_b   10.92300000
_cell_length_c   17.87700000
_cell_angle_alpha   90.00000000
_cell_angle_beta   90.00000000
_cell_angle_gamma   111.26400000
_symmetry_Int_Tables_number   1
_chemical_formula_structural   NdH7C14NO7
_chemical_formula_sum   'Nd4 H28 C56 N4 O28'
_cell_volume   1655.43855541
_cell_formula_units_Z   4
loop_
 _symmetry_equiv_pos_site_id
 _symmetry_equiv_pos_as_xyz
  1  'x, y, z'
loop_
 _atom_site_type_symbol
 _atom_site_label
 _atom_site_symmetry_multiplicity
 _atom_site_fract_x
 _atom_site_fract_y
 _atom_site_fract_z
 _atom_site_occupancy
 _atom_site_charge
  Nd  Nd1  1  0.432300  0.392990  0.698670  1.0  2.2969
  Nd  Nd2  1  0.067700  0.607010  0.198670  1.0  2.2968
  Nd  Nd3  1  0.567700  0.607010  0.301330  1.0  2.2966
  Nd  Nd4  1  0.932300  0.392990  0.801330  1.0  2.2969
  H  H5  1  0.203600  0.177500  0.450200  1.0  0.1098
  H  H6  1  0.962700  0.981300  0.627900  1.0  0.1131
  H  H7  1  0.449000  0.872100  0.472100  1.0  0.1086
  H  H8  1  0.127600  0.771600  0.633500  1.0  0.1043
  H  H9  1  0.245300  0.906900  0.533300  1.0  0.1159
  H  H10  1  0.793000  0.571300  0.522500  1.0  0.1103
  H  H11  1  0.040900  0.346600  0.578200  1.0  0.0956
  H  H12  1  0.296400  0.822500  0.950200  1.0  0.1093
  H  H13  1  0.537300  0.018700  0.127900  1.0  0.113
  H  H14  1  0.051000  0.127900  0.972100  1.0  0.1083
  H  H15  1  0.372400  0.228400  0.133500  1.0  0.1046
  H  H16  1  0.254700  0.093100  0.033300  1.0  0.1159
  H  H17  1  0.707000  0.428700  0.022500  1.0  0.111
  H  H18  1  0.459100  0.653400  0.078200  1.0  0.0952
  H  H19  1  0.796400  0.822500  0.549800  1.0  0.1101
  H  H20  1  0.037300  0.018700  0.372100  1.0  0.1134
  H  H21  1  0.551000  0.127900  0.527900  1.0  0.1077
  H  H22  1  0.872400  0.228400  0.366500  1.0  0.1047
  H  H23  1  0.754700  0.093100  0.466700  1.0  0.1159
  H  H24  1  0.207000  0.428700  0.477500  1.0  0.1106
  H  H25  1  0.959100  0.653400  0.421800  1.0  0.0954
  H  H26  1  0.703600  0.177500  0.049800  1.0  0.1099
  H  H27  1  0.462700  0.981300  0.872100  1.0  0.113
  H  H28  1  0.949000  0.872100  0.027900  1.0  0.1078
  H  H29  1  0.627600  0.771600  0.866500  1.0  0.1047
  H  H30  1  0.745300  0.906900  0.966700  1.0  0.1155
  H  H31  1  0.293000  0.571300  0.977500  1.0  0.1103
  H  H32  1  0.540900  0.346600  0.921800  1.0  0.0953
  C  C33  1  0.899200  0.449500  0.560530  1.0  -0.1434
  C  C34  1  0.264300  0.664600  0.634320  1.0  -0.3185
  C  C35  1  0.395500  0.646800  0.597130  1.0  0.5903
  C  C36  1  0.100200  0.095900  0.547310  1.0  -0.1062
  C  C37  1  0.209300  0.196800  0.598720  1.0  0.6596
  C  C38  1  0.122000  0.106400  0.470390  1.0  -0.0573
  C  C39  1  0.977800  0.989000  0.576420  1.0  -0.056
  C  C40  1  0.402200  0.821000  0.513300  1.0  0.1563
  C  C41  1  0.177000  0.573900  0.695430  1.0  0.7539
  C  C42  1  0.212200  0.760300  0.609200  1.0  0.0442
  C  C43  1  0.281100  0.841300  0.548800  1.0  -0.1762
  C  C44  1  0.875800  0.542400  0.513530  1.0  -0.0437
  C  C45  1  0.024200  0.408100  0.546740  1.0  -0.0377
  C  C46  1  0.791000  0.395500  0.626040  1.0  0.7698
  C  C47  1  0.600800  0.550500  0.060530  1.0  -0.1444
  C  C48  1  0.235700  0.335400  0.134320  1.0  -0.3187
  C  C49  1  0.104500  0.353200  0.097130  1.0  0.5909
  C  C50  1  0.399800  0.904100  0.047310  1.0  -0.1057
  C  C51  1  0.290700  0.803200  0.098720  1.0  0.6582
  C  C52  1  0.378000  0.893600  0.970390  1.0  -0.0611
  C  C53  1  0.522200  0.011000  0.076420  1.0  -0.051
  C  C54  1  0.097800  0.179000  0.013300  1.0  0.1553
  C  C55  1  0.323000  0.426100  0.195430  1.0  0.7507
  C  C56  1  0.287800  0.239700  0.109200  1.0  0.0404
  C  C57  1  0.218900  0.158700  0.048800  1.0  -0.1772
  C  C58  1  0.624200  0.457600  0.013530  1.0  -0.0444
  C  C59  1  0.475800  0.591900  0.046740  1.0  -0.0358
  C  C60  1  0.709000  0.604500  0.126040  1.0  0.7712
  C  C61  1  0.100800  0.550500  0.439470  1.0  -0.1443
  C  C62  1  0.735700  0.335400  0.365680  1.0  -0.3169
  C  C63  1  0.604500  0.353200  0.402870  1.0  0.5913
  C  C64  1  0.899800  0.904100  0.452690  1.0  -0.1075
  C  C65  1  0.790700  0.803200  0.401280  1.0  0.6641
  C  C66  1  0.878000  0.893600  0.529610  1.0  -0.0634
  C  C67  1  0.022200  0.011000  0.423580  1.0  -0.0501
  C  C68  1  0.597800  0.179000  0.486700  1.0  0.1553
  C  C69  1  0.823000  0.426100  0.304570  1.0  0.7554
  C  C70  1  0.787800  0.239700  0.390800  1.0  0.0351
  C  C71  1  0.718900  0.158700  0.451200  1.0  -0.178
  C  C72  1  0.124200  0.457600  0.486470  1.0  -0.0435
  C  C73  1  0.975800  0.591900  0.453260  1.0  -0.0366
  C  C74  1  0.209000  0.604500  0.373960  1.0  0.7672
  C  C75  1  0.399200  0.449500  0.939470  1.0  -0.145
  C  C76  1  0.764300  0.664600  0.865680  1.0  -0.3175
  C  C77  1  0.895500  0.646800  0.902870  1.0  0.5897
  C  C78  1  0.600200  0.095900  0.952690  1.0  -0.1058
  C  C79  1  0.709300  0.196800  0.901280  1.0  0.6614
  C  C80  1  0.622000  0.106400  0.029610  1.0  -0.0556
  C  C81  1  0.477800  0.989000  0.923580  1.0  -0.0557
  C  C82  1  0.902200  0.821000  0.986700  1.0  0.1559
  C  C83  1  0.677000  0.573900  0.804570  1.0  0.7614
  C  C84  1  0.712200  0.760300  0.890800  1.0  0.0411
  C  C85  1  0.781100  0.841300  0.951200  1.0  -0.1761
  C  C86  1  0.375800  0.542400  0.986470  1.0  -0.043
  C  C87  1  0.524200  0.408100  0.953260  1.0  -0.0386
  C  C88  1  0.291000  0.395500  0.873960  1.0  0.7697
  N  N89  1  0.455500  0.727200  0.537290  1.0  -0.2489
  N  N90  1  0.044500  0.272800  0.037290  1.0  -0.2497
  N  N91  1  0.544500  0.272800  0.462710  1.0  -0.248
  N  N92  1  0.955500  0.727200  0.962710  1.0  -0.2509
  O  O93  1  0.662400  0.411600  0.626570  1.0  -0.7163
  O  O94  1  0.207300  0.473100  0.712240  1.0  -0.801
  O  O95  1  0.172200  0.201300  0.665620  1.0  -0.6646
  O  O96  1  0.458400  0.565700  0.612860  1.0  -0.6049
  O  O97  1  0.337600  0.276100  0.574010  1.0  -0.6239
  O  O98  1  0.836800  0.335200  0.675920  1.0  -0.757
  O  O99  1  0.067800  0.597900  0.728090  1.0  -0.6687
  O  O100  1  0.837600  0.588400  0.126570  1.0  -0.7158
  O  O101  1  0.292700  0.526900  0.212240  1.0  -0.8018
  O  O102  1  0.327800  0.798700  0.165620  1.0  -0.6658
  O  O103  1  0.041600  0.434300  0.112860  1.0  -0.6071
  O  O104  1  0.162400  0.723900  0.074010  1.0  -0.6236
  O  O105  1  0.663200  0.664800  0.175920  1.0  -0.7555
  O  O106  1  0.432200  0.402100  0.228090  1.0  -0.669
  O  O107  1  0.337600  0.588400  0.373430  1.0  -0.7165
  O  O108  1  0.792700  0.526900  0.287760  1.0  -0.8011
  O  O109  1  0.827800  0.798700  0.334380  1.0  -0.6667
  O  O110  1  0.541600  0.434300  0.387140  1.0  -0.6075
  O  O111  1  0.662400  0.723900  0.425990  1.0  -0.6236
  O  O112  1  0.163200  0.664800  0.324080  1.0  -0.7556
  O  O113  1  0.932200  0.402100  0.271910  1.0  -0.6703
  O  O114  1  0.162400  0.411600  0.873430  1.0  -0.7175
  O  O115  1  0.707300  0.473100  0.787760  1.0  -0.8012
  O  O116  1  0.672200  0.201300  0.834380  1.0  -0.6647
  O  O117  1  0.958400  0.565700  0.887140  1.0  -0.6043
  O  O118  1  0.837600  0.276100  0.925990  1.0  -0.6241
  O  O119  1  0.336800  0.335200  0.824080  1.0  -0.7557
  O  O120  1  0.567800  0.597900  0.771910  1.0  -0.6686
