# generated using pymatgen
data_CuH11C18N5O6
_symmetry_space_group_name_H-M   'P 1'
_cell_length_a   10.78200000
_cell_length_b   8.78100000
_cell_length_c   25.01700000
_cell_angle_alpha   90.00000000
_cell_angle_beta   98.13900000
_cell_angle_gamma   90.00000000
_symmetry_Int_Tables_number   1
_chemical_formula_structural   CuH11C18N5O6
_chemical_formula_sum   'Cu4 H44 C72 N20 O24'
_cell_volume   2344.67110303
_cell_formula_units_Z   4
loop_
 _symmetry_equiv_pos_site_id
 _symmetry_equiv_pos_as_xyz
  1  'x, y, z'
loop_
 _atom_site_type_symbol
 _atom_site_label
 _atom_site_symmetry_multiplicity
 _atom_site_fract_x
 _atom_site_fract_y
 _atom_site_fract_z
 _atom_site_occupancy
 _atom_site_charge
  Cu  Cu1  1  0.161070  0.220600  0.736500  1.0  0.8693
  Cu  Cu2  1  0.661070  0.279400  0.236500  1.0  0.8689
  Cu  Cu3  1  0.338930  0.720600  0.763500  1.0  0.8696
  Cu  Cu4  1  0.838930  0.779400  0.263500  1.0  0.8691
  H  H5  1  0.441900  0.317000  0.903200  1.0  0.1413
  H  H6  1  0.188100  0.994800  0.921400  1.0  0.1477
  H  H7  1  0.356800  0.336600  0.814400  1.0  0.0944
  H  H8  1  0.790200  0.212400  0.787100  1.0  0.1006
  H  H9  1  0.739500  0.954800  0.653900  1.0  0.1319
  H  H10  1  0.111500  0.020200  0.831200  1.0  0.0965
  H  H11  1  0.576800  0.221000  0.787700  1.0  0.1099
  H  H12  1  0.382900  0.063900  0.079100  1.0  0.1509
  H  H13  1  0.471200  0.084300  0.168200  1.0  0.0914
  H  H14  1  0.717000  0.376600  0.130900  1.0  0.0828
  H  H15  1  0.635200  0.365400  0.041600  1.0  0.1436
  H  H16  1  0.941900  0.183000  0.403200  1.0  0.1416
  H  H17  1  0.688100  0.505200  0.421400  1.0  0.1474
  H  H18  1  0.856800  0.163400  0.314400  1.0  0.0947
  H  H19  1  0.290200  0.287600  0.287100  1.0  0.101
  H  H20  1  0.239500  0.545200  0.153900  1.0  0.1315
  H  H21  1  0.611500  0.479800  0.331200  1.0  0.0963
  H  H22  1  0.076800  0.279000  0.287700  1.0  0.1101
  H  H23  1  0.882900  0.436100  0.579100  1.0  0.1509
  H  H24  1  0.971200  0.415700  0.668200  1.0  0.0909
  H  H25  1  0.217000  0.123400  0.630900  1.0  0.083
  H  H26  1  0.135200  0.134600  0.541600  1.0  0.1436
  H  H27  1  0.058100  0.817000  0.596800  1.0  0.1415
  H  H28  1  0.311900  0.494800  0.578600  1.0  0.1471
  H  H29  1  0.143200  0.836600  0.685600  1.0  0.0936
  H  H30  1  0.709800  0.712400  0.712900  1.0  0.1002
  H  H31  1  0.760500  0.454800  0.846100  1.0  0.1312
  H  H32  1  0.388500  0.520200  0.668800  1.0  0.0959
  H  H33  1  0.923200  0.721000  0.712300  1.0  0.1105
  H  H34  1  0.117100  0.563900  0.420900  1.0  0.1507
  H  H35  1  0.028800  0.584300  0.331800  1.0  0.0919
  H  H36  1  0.783000  0.876600  0.369100  1.0  0.0828
  H  H37  1  0.864800  0.865400  0.458400  1.0  0.1454
  H  H38  1  0.558100  0.683000  0.096800  1.0  0.1412
  H  H39  1  0.811900  0.005200  0.078600  1.0  0.1472
  H  H40  1  0.643200  0.663400  0.185600  1.0  0.094
  H  H41  1  0.209800  0.787600  0.212900  1.0  0.1004
  H  H42  1  0.260500  0.045200  0.346100  1.0  0.1312
  H  H43  1  0.888500  0.979800  0.168800  1.0  0.0959
  H  H44  1  0.423200  0.779000  0.212300  1.0  0.1103
  H  H45  1  0.617100  0.936100  0.920900  1.0  0.1506
  H  H46  1  0.528800  0.915700  0.831800  1.0  0.0919
  H  H47  1  0.283000  0.623400  0.869100  1.0  0.0825
  H  H48  1  0.364800  0.634600  0.958400  1.0  0.1455
  C  C49  1  0.580600  0.011900  0.682400  1.0  0.0365
  C  C50  1  0.787800  0.085700  0.719950  1.0  -0.163
  C  C51  1  0.373900  0.256700  0.889390  1.0  -0.1716
  C  C52  1  0.223500  0.065100  0.900170  1.0  -0.1426
  C  C53  1  0.526900  0.090800  0.721580  1.0  -0.026
  C  C54  1  0.322500  0.267400  0.836330  1.0  0.1638
  C  C55  1  0.322700  0.154500  0.922140  1.0  0.1851
  C  C56  1  0.499200  0.214600  0.050740  1.0  0.2272
  C  C57  1  0.737200  0.162600  0.760060  1.0  -0.0129
  C  C58  1  0.707600  0.008600  0.680940  1.0  -0.1036
  C  C59  1  0.177700  0.081600  0.846180  1.0  0.1577
  C  C60  1  0.926700  0.083800  0.717190  1.0  0.6758
  C  C61  1  0.608600  0.166800  0.760750  1.0  -0.0699
  C  C62  1  0.450400  0.128800  0.088940  1.0  -0.1581
  C  C63  1  0.504100  0.141500  0.142230  1.0  0.1724
  C  C64  1  0.648500  0.313600  0.120420  1.0  0.1773
  C  C65  1  0.600200  0.307500  0.066780  1.0  -0.2467
  C  C66  1  0.389000  0.091600  0.726900  1.0  0.6743
  C  C67  1  0.080600  0.488100  0.182400  1.0  0.0354
  C  C68  1  0.287800  0.414300  0.219950  1.0  -0.1632
  C  C69  1  0.873900  0.243300  0.389390  1.0  -0.1715
  C  C70  1  0.723500  0.434900  0.400170  1.0  -0.143
  C  C71  1  0.026900  0.409200  0.221580  1.0  -0.0266
  C  C72  1  0.822500  0.232600  0.336330  1.0  0.1643
  C  C73  1  0.822700  0.345500  0.422140  1.0  0.1852
  C  C74  1  0.999200  0.285400  0.550740  1.0  0.2264
  C  C75  1  0.237200  0.337400  0.260060  1.0  -0.0133
  C  C76  1  0.207600  0.491400  0.180940  1.0  -0.1034
  C  C77  1  0.677700  0.418400  0.346180  1.0  0.1572
  C  C78  1  0.426700  0.416200  0.217190  1.0  0.6762
  C  C79  1  0.108600  0.333200  0.260750  1.0  -0.0702
  C  C80  1  0.950400  0.371200  0.588940  1.0  -0.1592
  C  C81  1  0.004100  0.358500  0.642230  1.0  0.1724
  C  C82  1  0.148500  0.186400  0.620420  1.0  0.1774
  C  C83  1  0.100200  0.192500  0.566780  1.0  -0.2456
  C  C84  1  0.889000  0.408400  0.226900  1.0  0.6745
  C  C85  1  0.919400  0.511900  0.817600  1.0  0.0414
  C  C86  1  0.712200  0.585700  0.780050  1.0  -0.1642
  C  C87  1  0.126100  0.756700  0.610610  1.0  -0.171
  C  C88  1  0.276500  0.565100  0.599830  1.0  -0.1426
  C  C89  1  0.973100  0.590800  0.778420  1.0  -0.0267
  C  C90  1  0.177500  0.767400  0.663670  1.0  0.1636
  C  C91  1  0.177300  0.654500  0.577860  1.0  0.1864
  C  C92  1  0.000800  0.714600  0.449260  1.0  0.224
  C  C93  1  0.762800  0.662600  0.739940  1.0  -0.0123
  C  C94  1  0.792400  0.508600  0.819060  1.0  -0.1047
  C  C95  1  0.322300  0.581600  0.653820  1.0  0.1591
  C  C96  1  0.573300  0.583800  0.782810  1.0  0.6745
  C  C97  1  0.891400  0.666800  0.739250  1.0  -0.0698
  C  C98  1  0.049600  0.628800  0.411060  1.0  -0.1572
  C  C99  1  0.995900  0.641500  0.357770  1.0  0.1713
  C  C100  1  0.851500  0.813600  0.379580  1.0  0.178
  C  C101  1  0.899800  0.807500  0.433220  1.0  -0.2482
  C  C102  1  0.111000  0.591600  0.773100  1.0  0.6745
  C  C103  1  0.419400  0.988100  0.317600  1.0  0.042
  C  C104  1  0.212200  0.914300  0.280050  1.0  -0.1645
  C  C105  1  0.626100  0.743300  0.110610  1.0  -0.1707
  C  C106  1  0.776500  0.934900  0.099830  1.0  -0.1423
  C  C107  1  0.473100  0.909200  0.278420  1.0  -0.0267
  C  C108  1  0.677500  0.732600  0.163670  1.0  0.1646
  C  C109  1  0.677300  0.845500  0.077860  1.0  0.1867
  C  C110  1  0.500800  0.785400  0.949260  1.0  0.2241
  C  C111  1  0.262800  0.837400  0.239940  1.0  -0.0126
  C  C112  1  0.292400  0.991400  0.319060  1.0  -0.1046
  C  C113  1  0.822300  0.918400  0.153820  1.0  0.1584
  C  C114  1  0.073300  0.916200  0.282810  1.0  0.6747
  C  C115  1  0.391400  0.833200  0.239250  1.0  -0.0703
  C  C116  1  0.549600  0.871200  0.911060  1.0  -0.1569
  C  C117  1  0.495900  0.858500  0.857770  1.0  0.1721
  C  C118  1  0.351500  0.686400  0.879580  1.0  0.1781
  C  C119  1  0.399800  0.692500  0.933220  1.0  -0.2469
  C  C120  1  0.611000  0.908400  0.273100  1.0  0.6747
  N  N121  1  0.225200  0.182800  0.814670  1.0  -0.3083
  N  N122  1  0.602100  0.233600  0.158070  1.0  -0.3109
  N  N123  1  0.366800  0.136400  0.979000  1.0  -0.131
  N  N124  1  0.501900  0.929100  0.639750  1.0  0.6175
  N  N125  1  0.452400  0.221200  0.994380  1.0  -0.1568
  N  N126  1  0.725200  0.317200  0.314670  1.0  -0.3084
  N  N127  1  0.102100  0.266400  0.658070  1.0  -0.3112
  N  N128  1  0.866800  0.363600  0.479000  1.0  -0.1309
  N  N129  1  0.001900  0.570900  0.139750  1.0  0.6162
  N  N130  1  0.952400  0.278800  0.494380  1.0  -0.1569
  N  N131  1  0.274800  0.682800  0.685330  1.0  -0.3059
  N  N132  1  0.897900  0.733600  0.341930  1.0  -0.3127
  N  N133  1  0.133200  0.636400  0.521000  1.0  -0.131
  N  N134  1  0.998100  0.429100  0.860250  1.0  0.6196
  N  N135  1  0.047600  0.721200  0.505620  1.0  -0.1571
  N  N136  1  0.774800  0.817200  0.185330  1.0  -0.3057
  N  N137  1  0.397900  0.766400  0.841930  1.0  -0.313
  N  N138  1  0.633200  0.863600  0.021000  1.0  -0.1303
  N  N139  1  0.498100  0.070900  0.360250  1.0  0.621
  N  N140  1  0.547600  0.778800  0.005620  1.0  -0.1573
  O  O141  1  0.989700  0.180100  0.748370  1.0  -0.5812
  O  O142  1  0.968000  0.997300  0.685640  1.0  -0.5499
  O  O143  1  0.395200  0.973300  0.626100  1.0  -0.5106
  O  O144  1  0.546000  0.816700  0.620450  1.0  -0.396
  O  O145  1  0.335620  0.220000  0.719680  1.0  -0.5796
  O  O146  1  0.339900  0.973600  0.740160  1.0  -0.6312
  O  O147  1  0.489700  0.319900  0.248370  1.0  -0.5813
  O  O148  1  0.468000  0.502700  0.185640  1.0  -0.5498
  O  O149  1  0.895200  0.526700  0.126100  1.0  -0.5102
  O  O150  1  0.046000  0.683300  0.120450  1.0  -0.3967
  O  O151  1  0.835620  0.280000  0.219680  1.0  -0.5794
  O  O152  1  0.839900  0.526400  0.240160  1.0  -0.6316
  O  O153  1  0.510300  0.680100  0.751630  1.0  -0.5816
  O  O154  1  0.532000  0.497300  0.814360  1.0  -0.5489
  O  O155  1  0.104800  0.473300  0.873900  1.0  -0.5094
  O  O156  1  0.954000  0.316700  0.879550  1.0  -0.395
  O  O157  1  0.164380  0.720000  0.780320  1.0  -0.5798
  O  O158  1  0.160100  0.473600  0.759840  1.0  -0.6326
  O  O159  1  0.010300  0.819900  0.251630  1.0  -0.582
  O  O160  1  0.032000  0.002700  0.314360  1.0  -0.5491
  O  O161  1  0.604800  0.026700  0.373900  1.0  -0.5089
  O  O162  1  0.454000  0.183300  0.379550  1.0  -0.3946
  O  O163  1  0.664380  0.780000  0.280320  1.0  -0.5788
  O  O164  1  0.660100  0.026400  0.259840  1.0  -0.6328
