# generated using pymatgen
data_CuH13C20N5O6
_symmetry_space_group_name_H-M   'P 1'
_cell_length_a   11.30180000
_cell_length_b   10.35830000
_cell_length_c   21.36610000
_cell_angle_alpha   90.00000000
_cell_angle_beta   95.06600000
_cell_angle_gamma   90.00000000
_symmetry_Int_Tables_number   1
_chemical_formula_structural   CuH13C20N5O6
_chemical_formula_sum   'Cu4 H52 C80 N20 O24'
_cell_volume   2491.50364537
_cell_formula_units_Z   4
loop_
 _symmetry_equiv_pos_site_id
 _symmetry_equiv_pos_as_xyz
  1  'x, y, z'
loop_
 _atom_site_type_symbol
 _atom_site_label
 _atom_site_symmetry_multiplicity
 _atom_site_fract_x
 _atom_site_fract_y
 _atom_site_fract_z
 _atom_site_occupancy
 _atom_site_charge
  Cu  Cu1  1  0.584350  0.159690  0.549350  1.0  0.8505
  Cu  Cu2  1  0.584350  0.340310  0.049350  1.0  0.8503
  Cu  Cu3  1  0.415650  0.659690  0.950650  1.0  0.849
  Cu  Cu4  1  0.415650  0.840310  0.450650  1.0  0.849
  H  H5  1  0.803500  0.069200  0.492500  1.0  0.0776
  H  H6  1  0.932900  0.899500  0.500700  1.0  0.127
  H  H7  1  0.781000  0.782600  0.653000  1.0  0.1336
  H  H8  1  0.652400  0.952000  0.638500  1.0  0.0813
  H  H9  1  0.225300  0.388100  0.606400  1.0  0.1274
  H  H10  1  0.376900  0.241500  0.614200  1.0  0.0907
  H  H11  1  0.477800  0.350000  0.452900  1.0  0.081
  H  H12  1  0.327100  0.496500  0.440600  1.0  0.1185
  H  H13  1  0.673500  0.315100  0.369300  1.0  0.1003
  H  H14  1  0.698200  0.361100  0.265900  1.0  0.1118
  H  H15  1  0.572800  0.954300  0.320800  1.0  0.1201
  H  H16  1  0.160000  0.623000  0.481000  1.0  0.0916
  H  H17  1  0.950000  0.652000  0.621000  1.0  0.113
  H  H18  1  0.803500  0.430800  0.992500  1.0  0.0776
  H  H19  1  0.932900  0.600500  0.000700  1.0  0.1268
  H  H20  1  0.781000  0.717400  0.153000  1.0  0.1335
  H  H21  1  0.652400  0.548000  0.138500  1.0  0.0813
  H  H22  1  0.225300  0.111900  0.106400  1.0  0.1275
  H  H23  1  0.376900  0.258500  0.114200  1.0  0.0905
  H  H24  1  0.477800  0.150000  0.952900  1.0  0.0808
  H  H25  1  0.327100  0.003500  0.940600  1.0  0.1182
  H  H26  1  0.673500  0.184900  0.869300  1.0  0.1007
  H  H27  1  0.698200  0.138900  0.765900  1.0  0.1117
  H  H28  1  0.572800  0.545700  0.820800  1.0  0.1202
  H  H29  1  0.160000  0.877000  0.981000  1.0  0.0914
  H  H30  1  0.950000  0.848000  0.121000  1.0  0.1133
  H  H31  1  0.196500  0.569200  0.007500  1.0  0.0766
  H  H32  1  0.067100  0.399500  0.999300  1.0  0.1268
  H  H33  1  0.219000  0.282600  0.847000  1.0  0.1335
  H  H34  1  0.347600  0.452000  0.861500  1.0  0.0805
  H  H35  1  0.774700  0.888100  0.893600  1.0  0.1276
  H  H36  1  0.623100  0.741500  0.885800  1.0  0.09
  H  H37  1  0.522200  0.850000  0.047100  1.0  0.08
  H  H38  1  0.672900  0.996500  0.059400  1.0  0.1183
  H  H39  1  0.326500  0.815100  0.130700  1.0  0.1008
  H  H40  1  0.301800  0.861100  0.234100  1.0  0.1118
  H  H41  1  0.427200  0.454300  0.179200  1.0  0.12
  H  H42  1  0.840000  0.123000  0.019000  1.0  0.0921
  H  H43  1  0.050000  0.152000  0.879000  1.0  0.1124
  H  H44  1  0.196500  0.930800  0.507500  1.0  0.0774
  H  H45  1  0.067100  0.100500  0.499300  1.0  0.1268
  H  H46  1  0.219000  0.217400  0.347000  1.0  0.1337
  H  H47  1  0.347600  0.048000  0.361500  1.0  0.0805
  H  H48  1  0.774700  0.611900  0.393600  1.0  0.1278
  H  H49  1  0.623100  0.758500  0.385800  1.0  0.0901
  H  H50  1  0.522200  0.650000  0.547100  1.0  0.0799
  H  H51  1  0.672900  0.503500  0.559400  1.0  0.118
  H  H52  1  0.326500  0.684900  0.630700  1.0  0.1007
  H  H53  1  0.301800  0.638900  0.734100  1.0  0.1117
  H  H54  1  0.427200  0.045700  0.679200  1.0  0.1197
  H  H55  1  0.840000  0.377000  0.519000  1.0  0.0918
  H  H56  1  0.050000  0.348000  0.379000  1.0  0.1125
  C  C57  1  0.798100  0.009800  0.524800  1.0  0.1899
  C  C58  1  0.876800  0.908800  0.529800  1.0  -0.1578
  C  C59  1  0.872500  0.820800  0.578100  1.0  0.0312
  C  C60  1  0.786800  0.839000  0.619500  1.0  -0.1571
  C  C61  1  0.710300  0.941200  0.610640  1.0  0.1815
  C  C62  1  0.956100  0.710800  0.584900  1.0  0.2259
  C  C63  1  0.170200  0.564800  0.516900  1.0  0.1539
  C  C64  1  0.260500  0.463200  0.523400  1.0  0.0527
  C  C65  1  0.276500  0.383000  0.574700  1.0  -0.163
  C  C66  1  0.368100  0.295200  0.579200  1.0  0.1788
  C  C67  1  0.426900  0.358400  0.484570  1.0  0.1849
  C  C68  1  0.336800  0.447100  0.477050  1.0  -0.1831
  C  C69  1  0.618000  0.131300  0.355640  1.0  -0.1557
  C  C70  1  0.657200  0.252200  0.338670  1.0  -0.0156
  C  C71  1  0.672100  0.279600  0.276670  1.0  -0.0934
  C  C72  1  0.648700  0.187200  0.230090  1.0  -0.0811
  C  C73  1  0.613500  0.066400  0.248680  1.0  0.0814
  C  C74  1  0.597200  0.036400  0.310060  1.0  -0.0792
  C  C75  1  0.660700  0.221800  0.161810  1.0  0.6884
  C  C76  1  0.596200  0.099600  0.422620  1.0  0.656
  C  C77  1  0.798100  0.490200  0.024800  1.0  0.1893
  C  C78  1  0.876800  0.591200  0.029800  1.0  -0.1574
  C  C79  1  0.872500  0.679200  0.078100  1.0  0.0312
  C  C80  1  0.786800  0.661000  0.119500  1.0  -0.1576
  C  C81  1  0.710300  0.558800  0.110640  1.0  0.1816
  C  C82  1  0.956100  0.789200  0.084900  1.0  0.227
  C  C83  1  0.170200  0.935200  0.016900  1.0  0.1544
  C  C84  1  0.260500  0.036800  0.023400  1.0  0.0526
  C  C85  1  0.276500  0.117000  0.074700  1.0  -0.1635
  C  C86  1  0.368100  0.204800  0.079200  1.0  0.1785
  C  C87  1  0.426900  0.141600  0.984570  1.0  0.1856
  C  C88  1  0.336800  0.052900  0.977050  1.0  -0.1837
  C  C89  1  0.618000  0.368700  0.855640  1.0  -0.1558
  C  C90  1  0.657200  0.247800  0.838670  1.0  -0.0154
  C  C91  1  0.672100  0.220400  0.776670  1.0  -0.0946
  C  C92  1  0.648700  0.312800  0.730090  1.0  -0.0813
  C  C93  1  0.613500  0.433600  0.748680  1.0  0.0809
  C  C94  1  0.597200  0.463600  0.810060  1.0  -0.08
  C  C95  1  0.660700  0.278200  0.661810  1.0  0.6883
  C  C96  1  0.596200  0.400400  0.922620  1.0  0.6559
  C  C97  1  0.201900  0.509800  0.975200  1.0  0.1912
  C  C98  1  0.123200  0.408800  0.970200  1.0  -0.156
  C  C99  1  0.127500  0.320800  0.921900  1.0  0.029
  C  C100  1  0.213200  0.339000  0.880500  1.0  -0.1556
  C  C101  1  0.289700  0.441200  0.889360  1.0  0.1806
  C  C102  1  0.043900  0.210800  0.915100  1.0  0.2261
  C  C103  1  0.829800  0.064800  0.983100  1.0  0.1541
  C  C104  1  0.739500  0.963200  0.976600  1.0  0.0523
  C  C105  1  0.723500  0.883000  0.925300  1.0  -0.1629
  C  C106  1  0.631900  0.795200  0.920800  1.0  0.1795
  C  C107  1  0.573100  0.858400  0.015430  1.0  0.1851
  C  C108  1  0.663200  0.947100  0.022950  1.0  -0.1847
  C  C109  1  0.382000  0.631300  0.144360  1.0  -0.1557
  C  C110  1  0.342800  0.752200  0.161330  1.0  -0.0159
  C  C111  1  0.327900  0.779600  0.223330  1.0  -0.0937
  C  C112  1  0.351300  0.687200  0.269910  1.0  -0.0809
  C  C113  1  0.386500  0.566400  0.251320  1.0  0.0818
  C  C114  1  0.402800  0.536400  0.189940  1.0  -0.0781
  C  C115  1  0.339300  0.721800  0.338190  1.0  0.6886
  C  C116  1  0.403800  0.599600  0.077380  1.0  0.6552
  C  C117  1  0.201900  0.990200  0.475200  1.0  0.1907
  C  C118  1  0.123200  0.091200  0.470200  1.0  -0.1559
  C  C119  1  0.127500  0.179200  0.421900  1.0  0.0302
  C  C120  1  0.213200  0.161000  0.380500  1.0  -0.1561
  C  C121  1  0.289700  0.058800  0.389360  1.0  0.1801
  C  C122  1  0.043900  0.289200  0.415100  1.0  0.2261
  C  C123  1  0.829800  0.435200  0.483100  1.0  0.155
  C  C124  1  0.739500  0.536800  0.476600  1.0  0.0521
  C  C125  1  0.723500  0.617000  0.425300  1.0  -0.1625
  C  C126  1  0.631900  0.704800  0.420800  1.0  0.1788
  C  C127  1  0.573100  0.641600  0.515430  1.0  0.1849
  C  C128  1  0.663200  0.552900  0.522950  1.0  -0.1852
  C  C129  1  0.382000  0.868700  0.644360  1.0  -0.1556
  C  C130  1  0.342800  0.747800  0.661330  1.0  -0.0163
  C  C131  1  0.327900  0.720400  0.723330  1.0  -0.0945
  C  C132  1  0.351300  0.812800  0.769910  1.0  -0.0812
  C  C133  1  0.386500  0.933600  0.751320  1.0  0.0811
  C  C134  1  0.402800  0.963600  0.689940  1.0  -0.0787
  C  C135  1  0.339300  0.778200  0.838190  1.0  0.6886
  C  C136  1  0.403800  0.900400  0.577380  1.0  0.6551
  N  N137  1  0.715000  0.026400  0.563780  1.0  -0.3229
  N  N138  1  0.029300  0.693400  0.545300  1.0  -0.2056
  N  N139  1  0.104100  0.586900  0.560120  1.0  -0.2065
  N  N140  1  0.444900  0.283500  0.535500  1.0  -0.3155
  N  N141  1  0.588500  0.964400  0.202500  1.0  0.5716
  N  N142  1  0.715000  0.473600  0.063780  1.0  -0.323
  N  N143  1  0.029300  0.806600  0.045300  1.0  -0.2063
  N  N144  1  0.104100  0.913100  0.060120  1.0  -0.2073
  N  N145  1  0.444900  0.216500  0.035500  1.0  -0.3161
  N  N146  1  0.588500  0.535600  0.702500  1.0  0.5715
  N  N147  1  0.285000  0.526400  0.936220  1.0  -0.3223
  N  N148  1  0.970700  0.193400  0.954700  1.0  -0.2084
  N  N149  1  0.895900  0.086900  0.939880  1.0  -0.2076
  N  N150  1  0.555100  0.783500  0.964500  1.0  -0.3169
  N  N151  1  0.411500  0.464400  0.297500  1.0  0.5708
  N  N152  1  0.285000  0.973600  0.436220  1.0  -0.3224
  N  N153  1  0.970700  0.306600  0.454700  1.0  -0.2082
  N  N154  1  0.895900  0.413100  0.439880  1.0  -0.2071
  N  N155  1  0.555100  0.716500  0.464500  1.0  -0.3168
  N  N156  1  0.411500  0.035600  0.797500  1.0  0.5705
  O  O157  1  0.620800  0.188500  0.462790  1.0  -0.5913
  O  O158  1  0.557400  0.992100  0.434350  1.0  -0.6525
  O  O159  1  0.589900  0.308100  0.140120  1.0  -0.5854
  O  O160  1  0.735500  0.166400  0.132960  1.0  -0.5452
  O  O161  1  0.538000  0.991900  0.151480  1.0  -0.474
  O  O162  1  0.615500  0.853500  0.216500  1.0  -0.4307
  O  O163  1  0.620800  0.311500  0.962790  1.0  -0.5905
  O  O164  1  0.557400  0.507900  0.934350  1.0  -0.6526
  O  O165  1  0.589900  0.191900  0.640120  1.0  -0.5854
  O  O166  1  0.735500  0.333600  0.632960  1.0  -0.5447
  O  O167  1  0.538000  0.508100  0.651480  1.0  -0.474
  O  O168  1  0.615500  0.646500  0.716500  1.0  -0.4303
  O  O169  1  0.379200  0.688500  0.037210  1.0  -0.5912
  O  O170  1  0.442600  0.492100  0.065650  1.0  -0.6539
  O  O171  1  0.410100  0.808100  0.359880  1.0  -0.5853
  O  O172  1  0.264500  0.666400  0.367040  1.0  -0.5443
  O  O173  1  0.462000  0.491900  0.348520  1.0  -0.4736
  O  O174  1  0.384500  0.353500  0.283500  1.0  -0.4295
  O  O175  1  0.379200  0.811500  0.537210  1.0  -0.5905
  O  O176  1  0.442600  0.007900  0.565650  1.0  -0.654
  O  O177  1  0.410100  0.691900  0.859880  1.0  -0.5851
  O  O178  1  0.264500  0.833600  0.867040  1.0  -0.5432
  O  O179  1  0.462000  0.008100  0.848520  1.0  -0.4735
  O  O180  1  0.384500  0.146500  0.783500  1.0  -0.4291
