# generated using pymatgen
data_TiCu2H40C56(N4F3)2
_symmetry_space_group_name_H-M   'P 1'
_cell_length_a   21.21740000
_cell_length_b   21.21740000
_cell_length_c   21.21740000
_cell_angle_alpha   90.00000000
_cell_angle_beta   90.00000000
_cell_angle_gamma   90.00000000
_symmetry_Int_Tables_number   1
_chemical_formula_structural   TiCu2H40C56(N4F3)2
_chemical_formula_sum   'Ti3 Cu6 H120 C168 N24 F18'
_cell_volume   9551.60802880
_cell_formula_units_Z   3
loop_
 _symmetry_equiv_pos_site_id
 _symmetry_equiv_pos_as_xyz
  1  'x, y, z'
loop_
 _atom_site_type_symbol
 _atom_site_label
 _atom_site_symmetry_multiplicity
 _atom_site_fract_x
 _atom_site_fract_y
 _atom_site_fract_z
 _atom_site_occupancy
 _atom_site_charge
  Ti  Ti1  1  0.500000  0.500000  0.000000  1.0  1.7258
  Ti  Ti2  1  0.000000  0.500000  0.500000  1.0  1.7258
  Ti  Ti3  1  0.500000  0.000000  0.500000  1.0  1.7258
  Cu  Cu4  1  0.500000  0.686970  0.000000  1.0  0.5869
  Cu  Cu5  1  0.500000  0.313030  0.000000  1.0  0.5878
  Cu  Cu6  1  0.000000  0.500000  0.686970  1.0  0.588
  Cu  Cu7  1  0.000000  0.500000  0.313030  1.0  0.5862
  Cu  Cu8  1  0.686970  0.000000  0.500000  1.0  0.5891
  Cu  Cu9  1  0.313030  0.000000  0.500000  1.0  0.5893
  H  H10  1  0.564400  0.789400  0.064100  1.0  0.0851
  H  H11  1  0.637800  0.804800  0.144900  1.0  0.096
  H  H12  1  0.652100  0.615700  0.167900  1.0  0.097
  H  H13  1  0.578700  0.600300  0.087000  1.0  0.0855
  H  H14  1  0.740200  0.643400  0.208300  1.0  0.0834
  H  H15  1  0.435600  0.210600  0.064100  1.0  0.086
  H  H16  1  0.362200  0.195200  0.144900  1.0  0.096
  H  H17  1  0.347900  0.384300  0.167900  1.0  0.0972
  H  H18  1  0.421300  0.399700  0.087000  1.0  0.085
  H  H19  1  0.259800  0.356600  0.208300  1.0  0.0837
  H  H20  1  0.435600  0.789400  0.935900  1.0  0.0858
  H  H21  1  0.362200  0.804800  0.855100  1.0  0.0962
  H  H22  1  0.347900  0.615700  0.832100  1.0  0.0964
  H  H23  1  0.421300  0.600300  0.913000  1.0  0.0848
  H  H24  1  0.259800  0.643400  0.791700  1.0  0.0841
  H  H25  1  0.564400  0.210600  0.935900  1.0  0.0853
  H  H26  1  0.637800  0.195200  0.855100  1.0  0.096
  H  H27  1  0.652100  0.384300  0.832100  1.0  0.0968
  H  H28  1  0.578700  0.399700  0.913000  1.0  0.0849
  H  H29  1  0.740200  0.356600  0.791700  1.0  0.084
  H  H30  1  0.064100  0.564400  0.789400  1.0  0.0862
  H  H31  1  0.144900  0.637800  0.804800  1.0  0.0958
  H  H32  1  0.167900  0.652100  0.615700  1.0  0.0969
  H  H33  1  0.087000  0.578700  0.600300  1.0  0.0858
  H  H34  1  0.208300  0.740200  0.643400  1.0  0.0837
  H  H35  1  0.064100  0.435600  0.210600  1.0  0.087
  H  H36  1  0.144900  0.362200  0.195200  1.0  0.0953
  H  H37  1  0.167900  0.347900  0.384300  1.0  0.0981
  H  H38  1  0.087000  0.421300  0.399700  1.0  0.0857
  H  H39  1  0.208300  0.259800  0.356600  1.0  0.0845
  H  H40  1  0.935900  0.435600  0.789400  1.0  0.086
  H  H41  1  0.855100  0.362200  0.804800  1.0  0.0958
  H  H42  1  0.832100  0.347900  0.615700  1.0  0.0968
  H  H43  1  0.913000  0.421300  0.600300  1.0  0.0855
  H  H44  1  0.791700  0.259800  0.643400  1.0  0.0833
  H  H45  1  0.935900  0.564400  0.210600  1.0  0.0869
  H  H46  1  0.855100  0.637800  0.195200  1.0  0.0956
  H  H47  1  0.832100  0.652100  0.384300  1.0  0.0979
  H  H48  1  0.913000  0.578700  0.399700  1.0  0.0852
  H  H49  1  0.791700  0.740200  0.356600  1.0  0.0835
  H  H50  1  0.789400  0.064100  0.564400  1.0  0.0859
  H  H51  1  0.804800  0.144900  0.637800  1.0  0.0964
  H  H52  1  0.615700  0.167900  0.652100  1.0  0.0962
  H  H53  1  0.600300  0.087000  0.578700  1.0  0.0843
  H  H54  1  0.643400  0.208300  0.740200  1.0  0.0824
  H  H55  1  0.210600  0.064100  0.435600  1.0  0.0851
  H  H56  1  0.195200  0.144900  0.362200  1.0  0.097
  H  H57  1  0.384300  0.167900  0.347900  1.0  0.097
  H  H58  1  0.399700  0.087000  0.421300  1.0  0.0853
  H  H59  1  0.356600  0.208300  0.259800  1.0  0.0822
  H  H60  1  0.789400  0.935900  0.435600  1.0  0.0853
  H  H61  1  0.804800  0.855100  0.362200  1.0  0.0964
  H  H62  1  0.615700  0.832100  0.347900  1.0  0.0966
  H  H63  1  0.600300  0.913000  0.421300  1.0  0.0845
  H  H64  1  0.643400  0.791700  0.259800  1.0  0.0826
  H  H65  1  0.210600  0.935900  0.564400  1.0  0.0856
  H  H66  1  0.195200  0.855100  0.637800  1.0  0.0966
  H  H67  1  0.384300  0.832100  0.652100  1.0  0.097
  H  H68  1  0.399700  0.913000  0.578700  1.0  0.0854
  H  H69  1  0.356600  0.791700  0.740200  1.0  0.0819
  H  H70  1  0.435600  0.210600  0.935900  1.0  0.086
  H  H71  1  0.362200  0.195200  0.855100  1.0  0.0959
  H  H72  1  0.347900  0.384300  0.832100  1.0  0.0968
  H  H73  1  0.421300  0.399700  0.913000  1.0  0.0845
  H  H74  1  0.259800  0.356600  0.791700  1.0  0.0841
  H  H75  1  0.564400  0.789400  0.935900  1.0  0.0851
  H  H76  1  0.637800  0.804800  0.855100  1.0  0.0961
  H  H77  1  0.652100  0.615700  0.832100  1.0  0.0967
  H  H78  1  0.578700  0.600300  0.913000  1.0  0.0852
  H  H79  1  0.740200  0.643400  0.791700  1.0  0.0839
  H  H80  1  0.564400  0.210600  0.064100  1.0  0.0854
  H  H81  1  0.637800  0.195200  0.144900  1.0  0.0961
  H  H82  1  0.652100  0.384300  0.167900  1.0  0.0972
  H  H83  1  0.578700  0.399700  0.087000  1.0  0.0854
  H  H84  1  0.740200  0.356600  0.208300  1.0  0.0836
  H  H85  1  0.435600  0.789400  0.064100  1.0  0.0857
  H  H86  1  0.362200  0.804800  0.144900  1.0  0.0961
  H  H87  1  0.347900  0.615700  0.167900  1.0  0.0968
  H  H88  1  0.421300  0.600300  0.087000  1.0  0.085
  H  H89  1  0.259800  0.643400  0.208300  1.0  0.0834
  H  H90  1  0.935900  0.435600  0.210600  1.0  0.0867
  H  H91  1  0.855100  0.362200  0.195200  1.0  0.0955
  H  H92  1  0.832100  0.347900  0.384300  1.0  0.0981
  H  H93  1  0.913000  0.421300  0.399700  1.0  0.0859
  H  H94  1  0.791700  0.259800  0.356600  1.0  0.0839
  H  H95  1  0.935900  0.564400  0.789400  1.0  0.0864
  H  H96  1  0.855100  0.637800  0.804800  1.0  0.0956
  H  H97  1  0.832100  0.652100  0.615700  1.0  0.0969
  H  H98  1  0.913000  0.578700  0.600300  1.0  0.0854
  H  H99  1  0.791700  0.740200  0.643400  1.0  0.0834
  H  H100  1  0.064100  0.564400  0.210600  1.0  0.087
  H  H101  1  0.144900  0.637800  0.195200  1.0  0.0953
  H  H102  1  0.167900  0.652100  0.384300  1.0  0.098
  H  H103  1  0.087000  0.578700  0.399700  1.0  0.0851
  H  H104  1  0.208300  0.740200  0.356600  1.0  0.084
  H  H105  1  0.064100  0.435600  0.789400  1.0  0.086
  H  H106  1  0.144900  0.362200  0.804800  1.0  0.096
  H  H107  1  0.167900  0.347900  0.615700  1.0  0.0968
  H  H108  1  0.087000  0.421300  0.600300  1.0  0.0857
  H  H109  1  0.208300  0.259800  0.643400  1.0  0.0837
  H  H110  1  0.210600  0.935900  0.435600  1.0  0.0851
  H  H111  1  0.195200  0.855100  0.362200  1.0  0.0968
  H  H112  1  0.384300  0.832100  0.347900  1.0  0.0969
  H  H113  1  0.399700  0.913000  0.421300  1.0  0.0854
  H  H114  1  0.356600  0.791700  0.259800  1.0  0.0821
  H  H115  1  0.789400  0.935900  0.564400  1.0  0.0855
  H  H116  1  0.804800  0.855100  0.637800  1.0  0.0961
  H  H117  1  0.615700  0.832100  0.652100  1.0  0.0967
  H  H118  1  0.600300  0.913000  0.578700  1.0  0.0843
  H  H119  1  0.643400  0.791700  0.740200  1.0  0.0825
  H  H120  1  0.210600  0.064100  0.564400  1.0  0.0857
  H  H121  1  0.195200  0.144900  0.637800  1.0  0.0969
  H  H122  1  0.384300  0.167900  0.652100  1.0  0.0968
  H  H123  1  0.399700  0.087000  0.578700  1.0  0.0852
  H  H124  1  0.356600  0.208300  0.740200  1.0  0.0821
  H  H125  1  0.789400  0.064100  0.435600  1.0  0.0856
  H  H126  1  0.804800  0.144900  0.362200  1.0  0.0964
  H  H127  1  0.615700  0.167900  0.347900  1.0  0.0964
  H  H128  1  0.600300  0.087000  0.421300  1.0  0.0845
  H  H129  1  0.643400  0.208300  0.259800  1.0  0.0824
  C  C130  1  0.582200  0.754200  0.085200  1.0  0.1504
  C  C131  1  0.625800  0.763300  0.133200  1.0  -0.1921
  C  C132  1  0.651900  0.711700  0.164000  1.0  -0.0129
  C  C133  1  0.634300  0.651000  0.146800  1.0  -0.1623
  C  C134  1  0.590700  0.641800  0.098800  1.0  0.1213
  C  C135  1  0.694000  0.724000  0.216700  1.0  0.0741
  C  C136  1  0.738900  0.682300  0.230600  1.0  -0.1799
  C  C137  1  0.417800  0.245800  0.085200  1.0  0.1517
  C  C138  1  0.374200  0.236700  0.133200  1.0  -0.1934
  C  C139  1  0.348100  0.288300  0.164000  1.0  -0.014
  C  C140  1  0.365700  0.349000  0.146800  1.0  -0.1627
  C  C141  1  0.409300  0.358200  0.098800  1.0  0.1206
  C  C142  1  0.306000  0.276000  0.216700  1.0  0.0732
  C  C143  1  0.261100  0.317700  0.230600  1.0  -0.1798
  C  C144  1  0.417800  0.754200  0.914800  1.0  0.1496
  C  C145  1  0.374200  0.763300  0.866800  1.0  -0.1934
  C  C146  1  0.348100  0.711700  0.836000  1.0  -0.0139
  C  C147  1  0.365700  0.651000  0.853200  1.0  -0.1606
  C  C148  1  0.409300  0.641800  0.901200  1.0  0.1214
  C  C149  1  0.306000  0.724000  0.783300  1.0  0.0734
  C  C150  1  0.261100  0.682300  0.769400  1.0  -0.1808
  C  C151  1  0.582200  0.245800  0.914800  1.0  0.1518
  C  C152  1  0.625800  0.236700  0.866800  1.0  -0.1923
  C  C153  1  0.651900  0.288300  0.836000  1.0  -0.013
  C  C154  1  0.634300  0.349000  0.853200  1.0  -0.1618
  C  C155  1  0.590700  0.358200  0.901200  1.0  0.1199
  C  C156  1  0.694000  0.276000  0.783300  1.0  0.0726
  C  C157  1  0.738900  0.317700  0.769400  1.0  -0.1805
  C  C158  1  0.085200  0.582200  0.754200  1.0  0.1486
  C  C159  1  0.133200  0.625800  0.763300  1.0  -0.1939
  C  C160  1  0.164000  0.651900  0.711700  1.0  -0.0126
  C  C161  1  0.146800  0.634300  0.651000  1.0  -0.1632
  C  C162  1  0.098800  0.590700  0.641800  1.0  0.1166
  C  C163  1  0.216700  0.694000  0.724000  1.0  0.0717
  C  C164  1  0.230600  0.738900  0.682300  1.0  -0.1818
  C  C165  1  0.085200  0.417800  0.245800  1.0  0.1499
  C  C166  1  0.133200  0.374200  0.236700  1.0  -0.1913
  C  C167  1  0.164000  0.348100  0.288300  1.0  -0.0124
  C  C168  1  0.146800  0.365700  0.349000  1.0  -0.1619
  C  C169  1  0.098800  0.409300  0.358200  1.0  0.1178
  C  C170  1  0.216700  0.306000  0.276000  1.0  0.0718
  C  C171  1  0.230600  0.261100  0.317700  1.0  -0.1819
  C  C172  1  0.914800  0.417800  0.754200  1.0  0.148
  C  C173  1  0.866800  0.374200  0.763300  1.0  -0.1955
  C  C174  1  0.836000  0.348100  0.711700  1.0  -0.012
  C  C175  1  0.853200  0.365700  0.651000  1.0  -0.162
  C  C176  1  0.901200  0.409300  0.641800  1.0  0.1172
  C  C177  1  0.783300  0.306000  0.724000  1.0  0.0726
  C  C178  1  0.769400  0.261100  0.682300  1.0  -0.1807
  C  C179  1  0.914800  0.582200  0.245800  1.0  0.1496
  C  C180  1  0.866800  0.625800  0.236700  1.0  -0.1938
  C  C181  1  0.836000  0.651900  0.288300  1.0  -0.0119
  C  C182  1  0.853200  0.634300  0.349000  1.0  -0.1627
  C  C183  1  0.901200  0.590700  0.358200  1.0  0.1174
  C  C184  1  0.783300  0.694000  0.276000  1.0  0.0731
  C  C185  1  0.769400  0.738900  0.317700  1.0  -0.1806
  C  C186  1  0.754200  0.085200  0.582200  1.0  0.1527
  C  C187  1  0.763300  0.133200  0.625800  1.0  -0.1918
  C  C188  1  0.711700  0.164000  0.651900  1.0  -0.0121
  C  C189  1  0.651000  0.146800  0.634300  1.0  -0.1597
  C  C190  1  0.641800  0.098800  0.590700  1.0  0.1197
  C  C191  1  0.724000  0.216700  0.694000  1.0  0.0708
  C  C192  1  0.682300  0.230600  0.738900  1.0  -0.1832
  C  C193  1  0.245800  0.085200  0.417800  1.0  0.1532
  C  C194  1  0.236700  0.133200  0.374200  1.0  -0.1935
  C  C195  1  0.288300  0.164000  0.348100  1.0  -0.0121
  C  C196  1  0.349000  0.146800  0.365700  1.0  -0.1594
  C  C197  1  0.358200  0.098800  0.409300  1.0  0.1228
  C  C198  1  0.276000  0.216700  0.306000  1.0  0.0704
  C  C199  1  0.317700  0.230600  0.261100  1.0  -0.1825
  C  C200  1  0.754200  0.914800  0.417800  1.0  0.1535
  C  C201  1  0.763300  0.866800  0.374200  1.0  -0.1916
  C  C202  1  0.711700  0.836000  0.348100  1.0  -0.0124
  C  C203  1  0.651000  0.853200  0.365700  1.0  -0.159
  C  C204  1  0.641800  0.901200  0.409300  1.0  0.1206
  C  C205  1  0.724000  0.783300  0.306000  1.0  0.0726
  C  C206  1  0.682300  0.769400  0.261100  1.0  -0.1833
  C  C207  1  0.245800  0.914800  0.582200  1.0  0.1523
  C  C208  1  0.236700  0.866800  0.625800  1.0  -0.1931
  C  C209  1  0.288300  0.836000  0.651900  1.0  -0.0119
  C  C210  1  0.349000  0.853200  0.634300  1.0  -0.1596
  C  C211  1  0.358200  0.901200  0.590700  1.0  0.1218
  C  C212  1  0.276000  0.783300  0.694000  1.0  0.0725
  C  C213  1  0.317700  0.769400  0.738900  1.0  -0.1833
  C  C214  1  0.417800  0.245800  0.914800  1.0  0.152
  C  C215  1  0.374200  0.236700  0.866800  1.0  -0.1925
  C  C216  1  0.348100  0.288300  0.836000  1.0  -0.014
  C  C217  1  0.365700  0.349000  0.853200  1.0  -0.1617
  C  C218  1  0.409300  0.358200  0.901200  1.0  0.1201
  C  C219  1  0.306000  0.276000  0.783300  1.0  0.0729
  C  C220  1  0.261100  0.317700  0.769400  1.0  -0.1806
  C  C221  1  0.582200  0.754200  0.914800  1.0  0.1501
  C  C222  1  0.625800  0.763300  0.866800  1.0  -0.1913
  C  C223  1  0.651900  0.711700  0.836000  1.0  -0.0129
  C  C224  1  0.634300  0.651000  0.853200  1.0  -0.1617
  C  C225  1  0.590700  0.641800  0.901200  1.0  0.1216
  C  C226  1  0.694000  0.724000  0.783300  1.0  0.073
  C  C227  1  0.738900  0.682300  0.769400  1.0  -0.1804
  C  C228  1  0.582200  0.245800  0.085200  1.0  0.1516
  C  C229  1  0.625800  0.236700  0.133200  1.0  -0.1931
  C  C230  1  0.651900  0.288300  0.164000  1.0  -0.013
  C  C231  1  0.634300  0.349000  0.146800  1.0  -0.1624
  C  C232  1  0.590700  0.358200  0.098800  1.0  0.1201
  C  C233  1  0.694000  0.276000  0.216700  1.0  0.073
  C  C234  1  0.738900  0.317700  0.230600  1.0  -0.1797
  C  C235  1  0.417800  0.754200  0.085200  1.0  0.15
  C  C236  1  0.374200  0.763300  0.133200  1.0  -0.1941
  C  C237  1  0.348100  0.711700  0.164000  1.0  -0.014
  C  C238  1  0.365700  0.651000  0.146800  1.0  -0.1614
  C  C239  1  0.409300  0.641800  0.098800  1.0  0.1214
  C  C240  1  0.306000  0.724000  0.216700  1.0  0.0742
  C  C241  1  0.261100  0.682300  0.230600  1.0  -0.1803
  C  C242  1  0.914800  0.417800  0.245800  1.0  0.1493
  C  C243  1  0.866800  0.374200  0.236700  1.0  -0.1929
  C  C244  1  0.836000  0.348100  0.288300  1.0  -0.0118
  C  C245  1  0.853200  0.365700  0.349000  1.0  -0.1625
  C  C246  1  0.901200  0.409300  0.358200  1.0  0.1181
  C  C247  1  0.783300  0.306000  0.276000  1.0  0.0729
  C  C248  1  0.769400  0.261100  0.317700  1.0  -0.1804
  C  C249  1  0.914800  0.582200  0.754200  1.0  0.1489
  C  C250  1  0.866800  0.625800  0.763300  1.0  -0.1952
  C  C251  1  0.836000  0.651900  0.711700  1.0  -0.012
  C  C252  1  0.853200  0.634300  0.651000  1.0  -0.1618
  C  C253  1  0.901200  0.590700  0.641800  1.0  0.1172
  C  C254  1  0.783300  0.694000  0.724000  1.0  0.0728
  C  C255  1  0.769400  0.738900  0.682300  1.0  -0.1807
  C  C256  1  0.085200  0.582200  0.245800  1.0  0.1501
  C  C257  1  0.133200  0.625800  0.236700  1.0  -0.1924
  C  C258  1  0.164000  0.651900  0.288300  1.0  -0.0125
  C  C259  1  0.146800  0.634300  0.349000  1.0  -0.1622
  C  C260  1  0.098800  0.590700  0.358200  1.0  0.1172
  C  C261  1  0.216700  0.694000  0.276000  1.0  0.0718
  C  C262  1  0.230600  0.738900  0.317700  1.0  -0.1821
  C  C263  1  0.085200  0.417800  0.754200  1.0  0.1479
  C  C264  1  0.133200  0.374200  0.763300  1.0  -0.1941
  C  C265  1  0.164000  0.348100  0.711700  1.0  -0.0125
  C  C266  1  0.146800  0.365700  0.651000  1.0  -0.1629
  C  C267  1  0.098800  0.409300  0.641800  1.0  0.1167
  C  C268  1  0.216700  0.306000  0.724000  1.0  0.0715
  C  C269  1  0.230600  0.261100  0.682300  1.0  -0.1818
  C  C270  1  0.245800  0.914800  0.417800  1.0  0.1529
  C  C271  1  0.236700  0.866800  0.374200  1.0  -0.1929
  C  C272  1  0.288300  0.836000  0.348100  1.0  -0.0122
  C  C273  1  0.349000  0.853200  0.365700  1.0  -0.1594
  C  C274  1  0.358200  0.901200  0.409300  1.0  0.123
  C  C275  1  0.276000  0.783300  0.306000  1.0  0.0725
  C  C276  1  0.317700  0.769400  0.261100  1.0  -0.1832
  C  C277  1  0.754200  0.914800  0.582200  1.0  0.1527
  C  C278  1  0.763300  0.866800  0.625800  1.0  -0.1913
  C  C279  1  0.711700  0.836000  0.651900  1.0  -0.0121
  C  C280  1  0.651000  0.853200  0.634300  1.0  -0.1595
  C  C281  1  0.641800  0.901200  0.590700  1.0  0.1197
  C  C282  1  0.724000  0.783300  0.694000  1.0  0.0726
  C  C283  1  0.682300  0.769400  0.738900  1.0  -0.1834
  C  C284  1  0.245800  0.085200  0.582200  1.0  0.1527
  C  C285  1  0.236700  0.133200  0.625800  1.0  -0.1936
  C  C286  1  0.288300  0.164000  0.651900  1.0  -0.0119
  C  C287  1  0.349000  0.146800  0.634300  1.0  -0.1598
  C  C288  1  0.358200  0.098800  0.590700  1.0  0.1218
  C  C289  1  0.276000  0.216700  0.694000  1.0  0.0704
  C  C290  1  0.317700  0.230600  0.738900  1.0  -0.1827
  C  C291  1  0.754200  0.085200  0.417800  1.0  0.1533
  C  C292  1  0.763300  0.133200  0.374200  1.0  -0.1921
  C  C293  1  0.711700  0.164000  0.348100  1.0  -0.0123
  C  C294  1  0.651000  0.146800  0.365700  1.0  -0.1588
  C  C295  1  0.641800  0.098800  0.409300  1.0  0.1201
  C  C296  1  0.724000  0.216700  0.306000  1.0  0.0708
  C  C297  1  0.682300  0.230600  0.261100  1.0  -0.1831
  N  N298  1  0.564600  0.693400  0.068000  1.0  -0.3066
  N  N299  1  0.435400  0.306600  0.068000  1.0  -0.3058
  N  N300  1  0.435400  0.693400  0.932000  1.0  -0.3063
  N  N301  1  0.564600  0.306600  0.932000  1.0  -0.3071
  N  N302  1  0.068000  0.564600  0.693400  1.0  -0.3071
  N  N303  1  0.068000  0.435400  0.306600  1.0  -0.3062
  N  N304  1  0.932000  0.435400  0.693400  1.0  -0.3053
  N  N305  1  0.932000  0.564600  0.306600  1.0  -0.3064
  N  N306  1  0.693400  0.068000  0.564600  1.0  -0.3074
  N  N307  1  0.306600  0.068000  0.435400  1.0  -0.3063
  N  N308  1  0.693400  0.932000  0.435400  1.0  -0.3064
  N  N309  1  0.306600  0.932000  0.564600  1.0  -0.3056
  N  N310  1  0.435400  0.306600  0.932000  1.0  -0.3063
  N  N311  1  0.564600  0.693400  0.932000  1.0  -0.307
  N  N312  1  0.564600  0.306600  0.068000  1.0  -0.3064
  N  N313  1  0.435400  0.693400  0.068000  1.0  -0.3062
  N  N314  1  0.932000  0.435400  0.306600  1.0  -0.3054
  N  N315  1  0.932000  0.564600  0.693400  1.0  -0.3067
  N  N316  1  0.068000  0.564600  0.306600  1.0  -0.3068
  N  N317  1  0.068000  0.435400  0.693400  1.0  -0.306
  N  N318  1  0.306600  0.932000  0.435400  1.0  -0.3054
  N  N319  1  0.693400  0.932000  0.564600  1.0  -0.3062
  N  N320  1  0.306600  0.068000  0.564600  1.0  -0.3069
  N  N321  1  0.693400  0.068000  0.435400  1.0  -0.307
  F  F322  1  0.500000  0.587600  0.000000  1.0  -0.3751
  F  F323  1  0.500000  0.412400  0.000000  1.0  -0.3752
  F  F324  1  0.000000  0.500000  0.587600  1.0  -0.3744
  F  F325  1  0.000000  0.500000  0.412400  1.0  -0.3745
  F  F326  1  0.587600  0.000000  0.500000  1.0  -0.3759
  F  F327  1  0.412400  0.000000  0.500000  1.0  -0.3758
  F  F328  1  0.539500  0.500000  0.066100  1.0  -0.4098
  F  F329  1  0.460500  0.500000  0.066100  1.0  -0.4091
  F  F330  1  0.460500  0.500000  0.933900  1.0  -0.4093
  F  F331  1  0.539500  0.500000  0.933900  1.0  -0.4111
  F  F332  1  0.066100  0.539500  0.500000  1.0  -0.4116
  F  F333  1  0.066100  0.460500  0.500000  1.0  -0.4106
  F  F334  1  0.933900  0.460500  0.500000  1.0  -0.4092
  F  F335  1  0.933900  0.539500  0.500000  1.0  -0.4107
  F  F336  1  0.500000  0.066100  0.539500  1.0  -0.4075
  F  F337  1  0.500000  0.066100  0.460500  1.0  -0.4085
  F  F338  1  0.500000  0.933900  0.460500  1.0  -0.407
  F  F339  1  0.500000  0.933900  0.539500  1.0  -0.408
