# generated using pymatgen
data_FeH8Au2(C2N)8
_symmetry_space_group_name_H-M   'P 1'
_cell_length_a   7.01300000
_cell_length_b   15.79000000
_cell_length_c   15.79000000
_cell_angle_alpha   120.00000000
_cell_angle_beta   90.00000000
_cell_angle_gamma   90.00000000
_symmetry_Int_Tables_number   1
_chemical_formula_structural   FeH8Au2(C2N)8
_chemical_formula_sum   'Fe3 H24 Au6 C48 N24'
_cell_volume   1514.25400369
_cell_formula_units_Z   3
loop_
 _symmetry_equiv_pos_site_id
 _symmetry_equiv_pos_as_xyz
  1  'x, y, z'
loop_
 _atom_site_type_symbol
 _atom_site_label
 _atom_site_symmetry_multiplicity
 _atom_site_fract_x
 _atom_site_fract_y
 _atom_site_fract_z
 _atom_site_occupancy
 _atom_site_charge
  Fe  Fe1  1  0.500000  0.500000  0.500000  1.0  0.3812
  Fe  Fe2  1  0.500000  0.000000  0.500000  1.0  0.3812
  Fe  Fe3  1  0.500000  0.500000  0.000000  1.0  0.3812
  H  H4  1  0.640260  0.733000  0.575310  1.0  0.1127
  H  H5  1  0.814890  0.837890  0.878180  1.0  0.1086
  H  H6  1  0.747550  0.670610  0.856370  1.0  0.1209
  H  H7  1  0.625030  0.534720  0.693970  1.0  0.1046
  H  H8  1  0.640260  0.842310  0.267000  1.0  0.1132
  H  H9  1  0.814890  0.040290  0.162110  1.0  0.1073
  H  H10  1  0.747550  0.185760  0.329390  1.0  0.1206
  H  H11  1  0.625030  0.159250  0.465280  1.0  0.1045
  H  H12  1  0.640260  0.424690  0.157690  1.0  0.1133
  H  H13  1  0.814890  0.121820  0.959710  1.0  0.1094
  H  H14  1  0.747550  0.143630  0.814240  1.0  0.1203
  H  H15  1  0.625030  0.306030  0.840750  1.0  0.1039
  H  H16  1  0.359740  0.267000  0.424690  1.0  0.1121
  H  H17  1  0.185110  0.162110  0.121820  1.0  0.1092
  H  H18  1  0.252450  0.329390  0.143630  1.0  0.1203
  H  H19  1  0.374970  0.465280  0.306030  1.0  0.1044
  H  H20  1  0.359740  0.157690  0.733000  1.0  0.1131
  H  H21  1  0.185110  0.959710  0.837890  1.0  0.1088
  H  H22  1  0.252450  0.814240  0.670610  1.0  0.1211
  H  H23  1  0.374970  0.840750  0.534720  1.0  0.1042
  H  H24  1  0.359740  0.575310  0.842310  1.0  0.1123
  H  H25  1  0.185110  0.878180  0.040290  1.0  0.1102
  H  H26  1  0.252450  0.856370  0.185760  1.0  0.1188
  H  H27  1  0.374970  0.693970  0.159250  1.0  0.1043
  Au  Au28  1  0.000080  0.738860  0.477780  1.0  0.0463
  Au  Au29  1  0.000080  0.738920  0.261140  1.0  0.0454
  Au  Au30  1  0.000080  0.522220  0.261080  1.0  0.0448
  Au  Au31  1  0.999920  0.261140  0.522220  1.0  0.0449
  Au  Au32  1  0.999920  0.261080  0.738860  1.0  0.0456
  Au  Au33  1  0.999920  0.477780  0.738920  1.0  0.0457
  C  C34  1  0.196000  0.648900  0.481600  1.0  0.0478
  C  C35  1  0.193000  0.482300  0.650300  1.0  0.0364
  C  C36  1  0.664000  0.719000  0.638700  1.0  0.1126
  C  C37  1  0.730000  0.793700  0.727900  1.0  -0.0503
  C  C38  1  0.760000  0.776600  0.805100  1.0  -0.0034
  C  C39  1  0.723000  0.684700  0.793100  1.0  -0.1595
  C  C40  1  0.656000  0.610000  0.703800  1.0  0.1151
  C  C41  1  0.759000  0.885800  0.745800  1.0  0.2563
  C  C42  1  0.196000  0.832700  0.351100  1.0  0.0458
  C  C43  1  0.193000  0.168000  0.517700  1.0  0.0352
  C  C44  1  0.664000  0.919700  0.281000  1.0  0.114
  C  C45  1  0.730000  0.934200  0.206300  1.0  -0.0513
  C  C46  1  0.760000  0.028500  0.223400  1.0  0.0012
  C  C47  1  0.723000  0.108400  0.315300  1.0  -0.1631
  C  C48  1  0.656000  0.093800  0.390000  1.0  0.1177
  C  C49  1  0.759000  0.860000  0.114200  1.0  0.2573
  C  C50  1  0.196000  0.518400  0.167300  1.0  0.0457
  C  C51  1  0.193000  0.349700  0.832000  1.0  0.0372
  C  C52  1  0.664000  0.361300  0.080300  1.0  0.1133
  C  C53  1  0.730000  0.272100  0.065800  1.0  -0.0494
  C  C54  1  0.760000  0.194900  0.971500  1.0  -0.0018
  C  C55  1  0.723000  0.206900  0.891600  1.0  -0.1631
  C  C56  1  0.656000  0.296200  0.906200  1.0  0.1156
  C  C57  1  0.759000  0.254200  0.140000  1.0  0.2562
  C  C58  1  0.804000  0.351100  0.518400  1.0  0.0462
  C  C59  1  0.807000  0.517700  0.349700  1.0  0.0345
  C  C60  1  0.336000  0.281000  0.361300  1.0  0.1124
  C  C61  1  0.270000  0.206300  0.272100  1.0  -0.0488
  C  C62  1  0.240000  0.223400  0.194900  1.0  -1e-04
  C  C63  1  0.277000  0.315300  0.206900  1.0  -0.1628
  C  C64  1  0.344000  0.390000  0.296200  1.0  0.1139
  C  C65  1  0.241000  0.114200  0.254200  1.0  0.258
  C  C66  1  0.804000  0.167300  0.648900  1.0  0.0466
  C  C67  1  0.807000  0.832000  0.482300  1.0  0.0353
  C  C68  1  0.336000  0.080300  0.719000  1.0  0.1133
  C  C69  1  0.270000  0.065800  0.793700  1.0  -0.0503
  C  C70  1  0.240000  0.971500  0.776600  1.0  1e-04
  C  C71  1  0.277000  0.891600  0.684700  1.0  -0.1624
  C  C72  1  0.344000  0.906200  0.610000  1.0  0.1176
  C  C73  1  0.241000  0.140000  0.885800  1.0  0.2564
  C  C74  1  0.804000  0.481600  0.832700  1.0  0.0454
  C  C75  1  0.807000  0.650300  0.168000  1.0  0.0367
  C  C76  1  0.336000  0.638700  0.919700  1.0  0.1147
  C  C77  1  0.270000  0.727900  0.934200  1.0  -0.0481
  C  C78  1  0.240000  0.805100  0.028500  1.0  -0.0006
  C  C79  1  0.277000  0.793100  0.108400  1.0  -0.1635
  C  C80  1  0.344000  0.703800  0.093800  1.0  0.1174
  C  C81  1  0.241000  0.745800  0.860000  1.0  0.2575
  N  N82  1  0.305000  0.597400  0.484800  1.0  -0.2538
  N  N83  1  0.307300  0.484700  0.596900  1.0  -0.2654
  N  N84  1  0.626900  0.627200  0.626700  1.0  -0.1575
  N  N85  1  0.772000  0.974200  0.769200  1.0  -0.3613
  N  N86  1  0.305000  0.887400  0.402600  1.0  -0.2545
  N  N87  1  0.307300  0.112200  0.515300  1.0  -0.2664
  N  N88  1  0.626900  0.999500  0.372800  1.0  -0.1582
  N  N89  1  0.772000  0.795000  0.025800  1.0  -0.3594
  N  N90  1  0.305000  0.515200  0.112600  1.0  -0.2514
  N  N91  1  0.307300  0.403100  0.887800  1.0  -0.2682
  N  N92  1  0.626900  0.373300  0.000500  1.0  -0.1563
  N  N93  1  0.772000  0.230800  0.205000  1.0  -0.3598
  N  N94  1  0.695000  0.402600  0.515200  1.0  -0.2537
  N  N95  1  0.692700  0.515300  0.403100  1.0  -0.2677
  N  N96  1  0.373100  0.372800  0.373300  1.0  -0.1577
  N  N97  1  0.228000  0.025800  0.230800  1.0  -0.3587
  N  N98  1  0.695000  0.112600  0.597400  1.0  -0.2538
  N  N99  1  0.692700  0.887800  0.484700  1.0  -0.2663
  N  N100  1  0.373100  0.000500  0.627200  1.0  -0.1637
  N  N101  1  0.228000  0.205000  0.974200  1.0  -0.3583
  N  N102  1  0.695000  0.484800  0.887400  1.0  -0.2545
  N  N103  1  0.692700  0.596900  0.112200  1.0  -0.2675
  N  N104  1  0.373100  0.626700  0.999500  1.0  -0.1575
  N  N105  1  0.228000  0.769200  0.795000  1.0  -0.3578
