# generated using pymatgen
data_FeAu2(C2N)8
_symmetry_space_group_name_H-M   'P 1'
_cell_length_a   15.67300000
_cell_length_b   15.67300000
_cell_length_c   6.95000000
_cell_angle_alpha   90.00000000
_cell_angle_beta   90.00000000
_cell_angle_gamma   120.00000000
_symmetry_Int_Tables_number   1
_chemical_formula_structural   FeAu2(C2N)8
_chemical_formula_sum   'Fe3 Au6 C48 N24'
_cell_volume   1478.49446658
_cell_formula_units_Z   3
loop_
 _symmetry_equiv_pos_site_id
 _symmetry_equiv_pos_as_xyz
  1  'x, y, z'
loop_
 _atom_site_type_symbol
 _atom_site_label
 _atom_site_symmetry_multiplicity
 _atom_site_fract_x
 _atom_site_fract_y
 _atom_site_fract_z
 _atom_site_occupancy
 _atom_site_charge
  Fe  Fe1  1  0.500000  0.000000  0.500000  1.0  0.9465
  Fe  Fe2  1  0.000000  0.500000  0.500000  1.0  0.9465
  Fe  Fe3  1  0.500000  0.500000  0.500000  1.0  0.9465
  Au  Au4  1  0.261000  0.738750  0.999810  1.0  0.1811
  Au  Au5  1  0.261250  0.522250  0.999810  1.0  0.182
  Au  Au6  1  0.477750  0.739000  0.999810  1.0  0.1816
  Au  Au7  1  0.739000  0.261250  0.000190  1.0  0.1817
  Au  Au8  1  0.738750  0.477750  0.000190  1.0  0.1819
  Au  Au9  1  0.522250  0.261000  0.000190  1.0  0.1814
  C  C10  1  0.350000  0.830700  0.799000  1.0  0.0031
  C  C11  1  0.519700  0.166500  0.802000  1.0  0.0813
  C  C12  1  0.285700  0.914700  0.339000  1.0  0.0731
  C  C13  1  0.206000  0.920200  0.266000  1.0  0.2126
  C  C14  1  0.214200  0.011500  0.233000  1.0  0.0831
  C  C15  1  0.302100  0.097300  0.273000  1.0  0.0588
  C  C16  1  0.381900  0.091800  0.346000  1.0  0.0781
  C  C17  1  0.109400  0.852000  0.247000  1.0  0.1784
  C  C18  1  0.169300  0.519300  0.799000  1.0  0.0055
  C  C19  1  0.833500  0.353200  0.802000  1.0  0.0825
  C  C20  1  0.085300  0.371000  0.339000  1.0  0.0738
  C  C21  1  0.079800  0.285800  0.266000  1.0  0.2135
  C  C22  1  0.988500  0.202700  0.233000  1.0  0.0809
  C  C23  1  0.902700  0.204800  0.273000  1.0  0.0591
  C  C24  1  0.908200  0.290100  0.346000  1.0  0.0758
  C  C25  1  0.148000  0.257400  0.247000  1.0  0.1798
  C  C26  1  0.480700  0.650000  0.799000  1.0  0.003
  C  C27  1  0.646800  0.480300  0.802000  1.0  0.0823
  C  C28  1  0.629000  0.714300  0.339000  1.0  0.0716
  C  C29  1  0.714200  0.794000  0.266000  1.0  0.2148
  C  C30  1  0.797300  0.785800  0.233000  1.0  0.0831
  C  C31  1  0.795200  0.697900  0.273000  1.0  0.0588
  C  C32  1  0.709900  0.618100  0.346000  1.0  0.0765
  C  C33  1  0.742600  0.890600  0.247000  1.0  0.1759
  C  C34  1  0.650000  0.169300  0.201000  1.0  0.0024
  C  C35  1  0.480300  0.833500  0.198000  1.0  0.0824
  C  C36  1  0.714300  0.085300  0.661000  1.0  0.0728
  C  C37  1  0.794000  0.079800  0.734000  1.0  0.2122
  C  C38  1  0.785800  0.988500  0.767000  1.0  0.0803
  C  C39  1  0.697900  0.902700  0.727000  1.0  0.0561
  C  C40  1  0.618100  0.908200  0.654000  1.0  0.0766
  C  C41  1  0.890600  0.148000  0.753000  1.0  0.1734
  C  C42  1  0.830700  0.480700  0.201000  1.0  0.0056
  C  C43  1  0.166500  0.646800  0.198000  1.0  0.08
  C  C44  1  0.914700  0.629000  0.661000  1.0  0.0712
  C  C45  1  0.920200  0.714200  0.734000  1.0  0.2135
  C  C46  1  0.011500  0.797300  0.767000  1.0  0.0792
  C  C47  1  0.097300  0.795200  0.727000  1.0  0.0573
  C  C48  1  0.091800  0.709900  0.654000  1.0  0.0778
  C  C49  1  0.852000  0.742600  0.753000  1.0  0.1746
  C  C50  1  0.519300  0.350000  0.201000  1.0  0.0033
  C  C51  1  0.353200  0.519700  0.198000  1.0  0.084
  C  C52  1  0.371000  0.285700  0.661000  1.0  0.0736
  C  C53  1  0.285800  0.206000  0.734000  1.0  0.2147
  C  C54  1  0.202700  0.214200  0.767000  1.0  0.0807
  C  C55  1  0.204800  0.302100  0.727000  1.0  0.0579
  C  C56  1  0.290100  0.381900  0.654000  1.0  0.0761
  C  C57  1  0.257400  0.109400  0.753000  1.0  0.1747
  N  N58  1  0.405900  0.891400  0.694000  1.0  -0.4269
  N  N59  1  0.515000  0.109800  0.693000  1.0  -0.4291
  N  N60  1  0.373600  0.000500  0.379000  1.0  -0.2272
  N  N61  1  0.020700  0.787000  0.227000  1.0  -0.3348
  N  N62  1  0.108600  0.514500  0.694000  1.0  -0.4261
  N  N63  1  0.890200  0.405200  0.693000  1.0  -0.428
  N  N64  1  0.999500  0.373100  0.379000  1.0  -0.2308
  N  N65  1  0.213000  0.233700  0.227000  1.0  -0.3343
  N  N66  1  0.485500  0.594100  0.694000  1.0  -0.4261
  N  N67  1  0.594800  0.485000  0.693000  1.0  -0.4287
  N  N68  1  0.626900  0.626400  0.379000  1.0  -0.2313
  N  N69  1  0.766300  0.979300  0.227000  1.0  -0.3361
  N  N70  1  0.594100  0.108600  0.306000  1.0  -0.4266
  N  N71  1  0.485000  0.890200  0.307000  1.0  -0.43
  N  N72  1  0.626400  0.999500  0.621000  1.0  -0.2277
  N  N73  1  0.979300  0.213000  0.773000  1.0  -0.3343
  N  N74  1  0.891400  0.485500  0.306000  1.0  -0.4244
  N  N75  1  0.109800  0.594800  0.307000  1.0  -0.4298
  N  N76  1  0.000500  0.626900  0.621000  1.0  -0.2307
  N  N77  1  0.787000  0.766300  0.773000  1.0  -0.3344
  N  N78  1  0.514500  0.405900  0.306000  1.0  -0.4258
  N  N79  1  0.405200  0.515000  0.307000  1.0  -0.4282
  N  N80  1  0.373100  0.373600  0.621000  1.0  -0.2303
  N  N81  1  0.233700  0.020700  0.773000  1.0  -0.3338
