# generated using pymatgen
data_Zn5Co6H144C204(N11O8)6
_symmetry_space_group_name_H-M   'P 1'
_cell_length_a   14.49450000
_cell_length_b   22.98130000
_cell_length_c   22.98130000
_cell_angle_alpha   64.29730000
_cell_angle_beta   77.86380000
_cell_angle_gamma   102.13600000
_symmetry_Int_Tables_number   1
_chemical_formula_structural   Zn5Co6H144C204(N11O8)6
_chemical_formula_sum   'Zn5 Co6 H144 C204 N66 O48'
_cell_volume   6336.52133113
_cell_formula_units_Z   1
loop_
 _symmetry_equiv_pos_site_id
 _symmetry_equiv_pos_as_xyz
  1  'x, y, z'
loop_
 _atom_site_type_symbol
 _atom_site_label
 _atom_site_symmetry_multiplicity
 _atom_site_fract_x
 _atom_site_fract_y
 _atom_site_fract_z
 _atom_site_occupancy
 _atom_site_charge
  Zn  Zn1  1  0.500000  0.000000  0.500000  1.0  0.7701
  Zn  Zn2  1  0.000000  0.500000  0.500000  1.0  0.7701
  Zn  Zn3  1  0.500000  0.500000  0.000000  1.0  0.7701
  Zn  Zn4  1  0.689100  0.000000  0.000000  1.0  0.3337
  Zn  Zn5  1  0.310900  0.000000  0.000000  1.0  0.3374
  Co  Co6  1  0.911750  0.117600  0.618250  1.0  0.4799
  Co  Co7  1  0.530000  0.618250  0.264150  1.0  0.4805
  Co  Co8  1  0.794150  0.264150  0.117600  1.0  0.4795
  Co  Co9  1  0.088250  0.882400  0.381750  1.0  0.4802
  Co  Co10  1  0.470000  0.381750  0.735850  1.0  0.4798
  Co  Co11  1  0.205850  0.735850  0.882400  1.0  0.4802
  H  H12  1  0.278400  0.325700  0.467400  1.0  0.1175
  H  H13  1  0.228700  0.266300  0.586500  1.0  0.1318
  H  H14  1  0.176100  0.297200  0.412200  1.0  0.1279
  H  H15  1  0.972800  0.039300  0.808000  1.0  0.1227
  H  H16  1  0.868000  0.987100  0.918400  1.0  0.0768
  H  H17  1  0.675600  0.065600  0.865200  1.0  0.0914
  H  H18  1  0.768800  0.119100  0.750700  1.0  0.1301
  H  H19  1  0.821500  0.009100  0.561800  1.0  0.1378
  H  H20  1  0.672400  0.962400  0.555600  1.0  0.0802
  H  H21  1  0.659300  0.143900  0.445200  1.0  0.0907
  H  H22  1  0.803100  0.195800  0.454500  1.0  0.1341
  H  H23  1  0.203600  0.638100  0.113300  1.0  0.1361
  H  H24  1  0.009900  0.611200  0.907000  1.0  0.1462
  H  H25  1  0.855700  0.592900  0.894400  1.0  0.0884
  H  H26  1  0.771100  0.676600  0.999100  1.0  0.0805
  H  H27  1  0.924500  0.702100  0.012000  1.0  0.1396
  H  H28  1  0.507700  0.855900  0.606900  1.0  0.0978
  H  H29  1  0.454000  0.780700  0.723700  1.0  0.1196
  H  H30  1  0.317900  0.903700  0.754000  1.0  0.1277
  H  H31  1  0.381700  0.978000  0.638400  1.0  0.0849
  H  H32  1  0.478400  0.733700  0.968000  1.0  0.1286
  H  H33  1  0.376700  0.670800  0.083000  1.0  0.0998
  H  H34  1  0.479000  0.104000  0.525000  1.0  0.4348
  H  H35  1  0.387000  0.063000  0.535000  1.0  0.4263
  H  H36  1  0.745800  0.467400  0.206900  1.0  0.1181
  H  H37  1  0.815200  0.586500  0.147200  1.0  0.1321
  H  H38  1  0.588300  0.412200  0.290600  1.0  0.1274
  H  H39  1  0.780800  0.808000  0.152700  1.0  0.1201
  H  H40  1  0.786400  0.918400  0.094500  1.0  0.0755
  H  H41  1  0.540800  0.865200  0.069200  1.0  0.0898
  H  H42  1  0.519500  0.750700  0.130200  1.0  0.1271
  H  H43  1  0.383300  0.561800  0.429100  1.0  0.1371
  H  H44  1  0.228000  0.555600  0.482000  1.0  0.0801
  H  H45  1  0.104500  0.445200  0.410900  1.0  0.0917
  H  H46  1  0.257600  0.454500  0.349700  1.0  0.1332
  H  H47  1  0.316900  0.113300  0.248600  1.0  0.1356
  H  H48  1  0.916900  0.907000  0.481800  1.0  0.1464
  H  H49  1  0.750100  0.894400  0.512700  1.0  0.0882
  H  H50  1  0.770200  0.999100  0.324300  1.0  0.08
  H  H51  1  0.936500  0.012000  0.285900  1.0  0.1392
  H  H52  1  0.114600  0.606900  0.537200  1.0  0.0991
  H  H53  1  0.177700  0.723700  0.495600  1.0  0.1181
  H  H54  1  0.071900  0.754000  0.342300  1.0  0.129
  H  H55  1  0.020100  0.638400  0.383600  1.0  0.0857
  H  H56  1  0.446400  0.968000  0.298300  1.0  0.1289
  H  H57  1  0.459700  0.083000  0.246200  1.0  0.1002
  H  H58  1  0.004000  0.525000  0.371000  1.0  0.433
  H  H59  1  0.922000  0.535000  0.402000  1.0  0.4293
  H  H60  1  0.952700  0.206900  0.325700  1.0  0.1177
  H  H61  1  0.962400  0.147200  0.266300  1.0  0.1326
  H  H62  1  0.878900  0.290600  0.297200  1.0  0.1269
  H  H63  1  0.933500  0.152700  0.039300  1.0  0.1223
  H  H64  1  0.880900  0.094500  0.987100  1.0  0.0806
  H  H65  1  0.610000  0.069200  0.065600  1.0  0.0899
  H  H66  1  0.649700  0.130200  0.119100  1.0  0.1288
  H  H67  1  0.812400  0.429100  0.009100  1.0  0.1388
  H  H68  1  0.710000  0.482000  0.962400  1.0  0.0826
  H  H69  1  0.515400  0.410900  0.143900  1.0  0.0913
  H  H70  1  0.607300  0.349700  0.195800  1.0  0.1333
  H  H71  1  0.565500  0.248600  0.638100  1.0  0.1353
  H  H72  1  0.398700  0.481800  0.611200  1.0  0.1464
  H  H73  1  0.262800  0.512700  0.592900  1.0  0.0874
  H  H74  1  0.094500  0.324300  0.676600  1.0  0.0809
  H  H75  1  0.222400  0.285900  0.702100  1.0  0.1406
  H  H76  1  0.651800  0.537200  0.855900  1.0  0.1001
  H  H77  1  0.673300  0.495600  0.780700  1.0  0.1207
  H  H78  1  0.414200  0.342300  0.903700  1.0  0.1292
  H  H79  1  0.403700  0.383600  0.978000  1.0  0.0846
  H  H80  1  0.744700  0.298300  0.733700  1.0  0.1279
  H  H81  1  0.705900  0.246200  0.670800  1.0  0.0997
  H  H82  1  0.375000  0.371000  0.104000  1.0  0.432
  H  H83  1  0.324000  0.402000  0.063000  1.0  0.4254
  H  H84  1  0.721600  0.674300  0.532600  1.0  0.1175
  H  H85  1  0.771300  0.733700  0.413500  1.0  0.1317
  H  H86  1  0.823900  0.702800  0.587800  1.0  0.1278
  H  H87  1  0.027200  0.960700  0.192000  1.0  0.1219
  H  H88  1  0.132000  0.012900  0.081600  1.0  0.0765
  H  H89  1  0.324400  0.934400  0.134800  1.0  0.0903
  H  H90  1  0.231200  0.880900  0.249300  1.0  0.1311
  H  H91  1  0.178500  0.990900  0.438200  1.0  0.1387
  H  H92  1  0.327600  0.037600  0.444400  1.0  0.0796
  H  H93  1  0.340700  0.856100  0.554800  1.0  0.0907
  H  H94  1  0.196900  0.804200  0.545500  1.0  0.1331
  H  H95  1  0.796400  0.361900  0.886700  1.0  0.1353
  H  H96  1  0.990100  0.388800  0.093000  1.0  0.1462
  H  H97  1  0.144300  0.407100  0.105600  1.0  0.088
  H  H98  1  0.228900  0.323400  0.000900  1.0  0.0799
  H  H99  1  0.075500  0.297900  0.988000  1.0  0.1397
  H  H100  1  0.492300  0.144100  0.393100  1.0  0.099
  H  H101  1  0.546000  0.219300  0.276300  1.0  0.1197
  H  H102  1  0.682100  0.096300  0.246000  1.0  0.1273
  H  H103  1  0.618300  0.022000  0.361600  1.0  0.0848
  H  H104  1  0.521600  0.266300  0.032000  1.0  0.1291
  H  H105  1  0.623300  0.329200  0.917000  1.0  0.0996
  H  H106  1  0.521000  0.896000  0.475000  1.0  0.4308
  H  H107  1  0.613000  0.937000  0.465000  1.0  0.4285
  H  H108  1  0.254200  0.532600  0.793100  1.0  0.1176
  H  H109  1  0.184800  0.413500  0.852800  1.0  0.1317
  H  H110  1  0.411700  0.587800  0.709400  1.0  0.1262
  H  H111  1  0.219200  0.192000  0.847300  1.0  0.1198
  H  H112  1  0.213600  0.081600  0.905500  1.0  0.0751
  H  H113  1  0.459200  0.134800  0.930800  1.0  0.0894
  H  H114  1  0.480500  0.249300  0.869800  1.0  0.1272
  H  H115  1  0.616700  0.438200  0.570900  1.0  0.1372
  H  H116  1  0.772000  0.444400  0.518000  1.0  0.0803
  H  H117  1  0.895500  0.554800  0.589100  1.0  0.0916
  H  H118  1  0.742400  0.545500  0.650300  1.0  0.1319
  H  H119  1  0.683100  0.886700  0.751400  1.0  0.1356
  H  H120  1  0.083100  0.093000  0.518200  1.0  0.1465
  H  H121  1  0.249900  0.105600  0.487300  1.0  0.088
  H  H122  1  0.229800  0.000900  0.675700  1.0  0.0799
  H  H123  1  0.063500  0.988000  0.714100  1.0  0.1398
  H  H124  1  0.885400  0.393100  0.462800  1.0  0.0995
  H  H125  1  0.822300  0.276300  0.504400  1.0  0.1179
  H  H126  1  0.928100  0.246000  0.657700  1.0  0.1294
  H  H127  1  0.979900  0.361600  0.616400  1.0  0.0851
  H  H128  1  0.553600  0.032000  0.701700  1.0  0.1296
  H  H129  1  0.540300  0.917000  0.753800  1.0  0.1011
  H  H130  1  0.996000  0.475000  0.629000  1.0  0.4329
  H  H131  1  0.078000  0.465000  0.598000  1.0  0.4292
  H  H132  1  0.047300  0.793100  0.674300  1.0  0.1178
  H  H133  1  0.037600  0.852800  0.733700  1.0  0.1317
  H  H134  1  0.121100  0.709400  0.702800  1.0  0.1267
  H  H135  1  0.066500  0.847300  0.960700  1.0  0.1218
  H  H136  1  0.119100  0.905500  0.012900  1.0  0.0801
  H  H137  1  0.390000  0.930800  0.934400  1.0  0.0889
  H  H138  1  0.350300  0.869800  0.880900  1.0  0.1293
  H  H139  1  0.187600  0.570900  0.990900  1.0  0.1385
  H  H140  1  0.290000  0.518000  0.037600  1.0  0.0826
  H  H141  1  0.484600  0.589100  0.856100  1.0  0.0901
  H  H142  1  0.392700  0.650300  0.804200  1.0  0.1332
  H  H143  1  0.434500  0.751400  0.361900  1.0  0.1352
  H  H144  1  0.601300  0.518200  0.388800  1.0  0.1463
  H  H145  1  0.737200  0.487300  0.407100  1.0  0.0883
  H  H146  1  0.905500  0.675700  0.323400  1.0  0.0807
  H  H147  1  0.777600  0.714100  0.297900  1.0  0.1401
  H  H148  1  0.348200  0.462800  0.144100  1.0  0.0983
  H  H149  1  0.326700  0.504400  0.219300  1.0  0.1194
  H  H150  1  0.585800  0.657700  0.096300  1.0  0.1285
  H  H151  1  0.596300  0.616400  0.022000  1.0  0.0852
  H  H152  1  0.255300  0.701700  0.266300  1.0  0.1275
  H  H153  1  0.294100  0.753800  0.329200  1.0  0.0998
  H  H154  1  0.625000  0.629000  0.896000  1.0  0.4322
  H  H155  1  0.676000  0.598000  0.937000  1.0  0.4269
  C  C156  1  0.216900  0.290400  0.493000  1.0  -0.107
  C  C157  1  0.187600  0.255400  0.563900  1.0  -0.0845
  C  C158  1  0.093210  0.202880  0.600450  1.0  0.152
  C  C159  1  0.064080  0.219730  0.499190  1.0  0.1753
  C  C160  1  0.156100  0.273300  0.460000  1.0  -0.0942
  C  C161  1  0.042600  0.162400  0.677300  1.0  0.5671
  C  C162  1  0.988440  0.193430  0.473310  1.0  0.5611
  C  C163  1  0.887900  0.088000  0.764900  1.0  0.2908
  C  C164  1  0.912900  0.047800  0.817100  1.0  -0.1952
  C  C165  1  0.851400  0.018700  0.884000  1.0  0.1893
  C  C166  1  0.739800  0.063700  0.852800  1.0  0.172
  C  C167  1  0.794100  0.094600  0.783800  1.0  -0.2062
  C  C168  1  0.828170  0.108790  0.512180  1.0  0.1723
  C  C169  1  0.787840  0.037490  0.539970  1.0  -0.2076
  C  C170  1  0.699180  0.010010  0.534870  1.0  0.1736
  C  C171  1  0.690670  0.116460  0.470950  1.0  0.1812
  C  C172  1  0.777820  0.148240  0.475580  1.0  -0.2021
  C  C173  1  0.244400  0.663100  0.067200  1.0  -0.0455
  C  C174  1  0.203400  0.681300  0.016100  1.0  0.1455
  C  C175  1  0.094000  0.660000  0.023900  1.0  0.6183
  C  C176  1  0.986500  0.660300  0.959700  1.0  0.2577
  C  C177  1  0.963200  0.626100  0.925800  1.0  -0.2115
  C  C178  1  0.869000  0.614100  0.919800  1.0  0.1798
  C  C179  1  0.820200  0.663300  0.980100  1.0  0.201
  C  C180  1  0.912500  0.679200  0.987900  1.0  -0.2144
  C  C181  1  0.470060  0.866220  0.636840  1.0  0.1392
  C  C182  1  0.437030  0.820290  0.707400  1.0  -0.169
  C  C183  1  0.381050  0.833070  0.751620  1.0  0.2724
  C  C184  1  0.357870  0.893510  0.725000  1.0  -0.2374
  C  C185  1  0.395340  0.937250  0.655130  1.0  0.1769
  C  C186  1  0.413740  0.775480  0.856060  1.0  0.5575
  C  C187  1  0.363230  0.736030  0.931540  1.0  0.1798
  C  C188  1  0.408800  0.719900  0.980600  1.0  -0.0461
  C  C189  1  0.347800  0.682800  0.048800  1.0  -0.0916
  C  C190  1  0.709900  0.493000  0.216600  1.0  -0.1061
  C  C191  1  0.751500  0.563900  0.180700  1.0  -0.0861
  C  C192  1  0.693660  0.600450  0.196670  1.0  0.153
  C  C193  1  0.563270  0.499190  0.281080  1.0  0.1733
  C  C194  1  0.616100  0.460000  0.266700  1.0  -0.1002
  C  C195  1  0.719900  0.677300  0.160300  1.0  0.5663
  C  C196  1  0.461750  0.473310  0.333260  1.0  0.56
  C  C197  1  0.652800  0.764900  0.147100  1.0  0.2865
  C  C198  1  0.730000  0.817100  0.135100  1.0  -0.192
  C  C199  1  0.735400  0.884000  0.097300  1.0  0.1871
  C  C200  1  0.592600  0.852800  0.083500  1.0  0.1703
  C  C201  1  0.577900  0.783800  0.121600  1.0  -0.2075
  C  C202  1  0.340350  0.512180  0.379030  1.0  0.1741
  C  C203  1  0.327810  0.539970  0.422540  1.0  -0.2063
  C  C204  1  0.234050  0.534870  0.455120  1.0  0.1726
  C  C205  1  0.161620  0.470950  0.412590  1.0  0.1837
  C  C206  1  0.253400  0.475580  0.376180  1.0  -0.1999
  C  C207  1  0.311600  0.067200  0.269700  1.0  -0.0475
  C  C208  1  0.219500  0.016100  0.302600  1.0  0.1434
  C  C209  1  0.117900  0.023900  0.316100  1.0  0.6225
  C  C210  1  0.946200  0.959700  0.380000  1.0  0.2585
  C  C211  1  0.889000  0.925800  0.448100  1.0  -0.207
  C  C212  1  0.788800  0.919800  0.466100  1.0  0.1788
  C  C213  1  0.800300  0.980100  0.356600  1.0  0.201
  C  C214  1  0.900400  0.987900  0.332900  1.0  -0.2145
  C  C215  1  0.106900  0.636840  0.496940  1.0  0.1423
  C  C216  1  0.144430  0.707400  0.472310  1.0  -0.1636
  C  C217  1  0.132670  0.751620  0.415310  1.0  0.2736
  C  C218  1  0.082870  0.725000  0.381490  1.0  -0.238
  C  C219  1  0.050470  0.655130  0.407620  1.0  0.1746
  C  C220  1  0.269800  0.856060  0.368460  1.0  0.5577
  C  C221  1  0.294770  0.931540  0.332430  1.0  0.1788
  C  C222  1  0.389400  0.980600  0.299500  1.0  -0.0465
  C  C223  1  0.396600  0.048800  0.268400  1.0  -0.0913
  C  C224  1  0.926500  0.216600  0.290400  1.0  -0.1073
  C  C225  1  0.932200  0.180700  0.255400  1.0  -0.0865
  C  C226  1  0.890330  0.196670  0.202880  1.0  0.1528
  C  C227  1  0.844350  0.281080  0.219730  1.0  0.1759
  C  C228  1  0.882800  0.266700  0.273300  1.0  -0.1047
  C  C229  1  0.880200  0.160300  0.162400  1.0  0.5659
  C  C230  1  0.795010  0.333260  0.193430  1.0  0.5584
  C  C231  1  0.799900  0.147100  0.088000  1.0  0.2878
  C  C232  1  0.865100  0.135100  0.047800  1.0  -0.1921
  C  C233  1  0.832700  0.097300  0.018700  1.0  0.1911
  C  C234  1  0.676100  0.083500  0.063700  1.0  0.1714
  C  C235  1  0.699500  0.121600  0.094600  1.0  -0.2083
  C  C236  1  0.719380  0.379030  0.108790  1.0  0.1726
  C  C237  1  0.750350  0.422540  0.037490  1.0  -0.2108
  C  C238  1  0.689170  0.455120  0.010010  1.0  0.1738
  C  C239  1  0.574210  0.412590  0.116460  1.0  0.1814
  C  C240  1  0.629580  0.376180  0.148240  1.0  -0.2013
  C  C241  1  0.581300  0.269700  0.663100  1.0  -0.0442
  C  C242  1  0.522100  0.302600  0.681300  1.0  0.1431
  C  C243  1  0.434000  0.316100  0.660000  1.0  0.6286
  C  C244  1  0.326200  0.380000  0.660300  1.0  0.2593
  C  C245  1  0.337100  0.448100  0.626100  1.0  -0.2135
  C  C246  1  0.254900  0.466100  0.614100  1.0  0.1764
  C  C247  1  0.156900  0.356600  0.663300  1.0  0.201
  C  C248  1  0.233300  0.332900  0.679200  1.0  -0.2155
  C  C249  1  0.603840  0.496940  0.866220  1.0  0.1382
  C  C250  1  0.616740  0.472310  0.820290  1.0  -0.1698
  C  C251  1  0.547980  0.415310  0.833070  1.0  0.2752
  C  C252  1  0.464360  0.381490  0.893510  1.0  -0.2354
  C  C253  1  0.458090  0.407620  0.937250  1.0  0.1758
  C  C254  1  0.638260  0.368460  0.775480  1.0  0.5578
  C  C255  1  0.627200  0.332430  0.736030  1.0  0.1789
  C  C256  1  0.688900  0.299500  0.719900  1.0  -0.0441
  C  C257  1  0.665000  0.268400  0.682800  1.0  -0.0921
  C  C258  1  0.783100  0.709600  0.507000  1.0  -0.1081
  C  C259  1  0.812400  0.744600  0.436100  1.0  -0.0847
  C  C260  1  0.906790  0.797120  0.399550  1.0  0.1514
  C  C261  1  0.935920  0.780270  0.500810  1.0  0.1767
  C  C262  1  0.843900  0.726700  0.540000  1.0  -0.0987
  C  C263  1  0.957400  0.837600  0.322700  1.0  0.5665
  C  C264  1  0.011560  0.806570  0.526690  1.0  0.5588
  C  C265  1  0.112100  0.912000  0.235100  1.0  0.2906
  C  C266  1  0.087100  0.952200  0.182900  1.0  -0.1958
  C  C267  1  0.148600  0.981300  0.116000  1.0  0.1887
  C  C268  1  0.260200  0.936300  0.147200  1.0  0.1708
  C  C269  1  0.205900  0.905400  0.216200  1.0  -0.2064
  C  C270  1  0.171830  0.891210  0.487820  1.0  0.1719
  C  C271  1  0.212160  0.962510  0.460030  1.0  -0.2064
  C  C272  1  0.300820  0.989990  0.465130  1.0  0.1739
  C  C273  1  0.309330  0.883540  0.529050  1.0  0.1805
  C  C274  1  0.222180  0.851760  0.524420  1.0  -0.2001
  C  C275  1  0.755600  0.336900  0.932800  1.0  -0.0452
  C  C276  1  0.796600  0.318700  0.983900  1.0  0.1452
  C  C277  1  0.906000  0.340000  0.976100  1.0  0.623
  C  C278  1  0.013500  0.339700  0.040300  1.0  0.2585
  C  C279  1  0.036800  0.373900  0.074200  1.0  -0.2111
  C  C280  1  0.131000  0.385900  0.080200  1.0  0.1804
  C  C281  1  0.179800  0.336700  0.019900  1.0  0.201
  C  C282  1  0.087500  0.320800  0.012100  1.0  -0.2141
  C  C283  1  0.529940  0.133780  0.363160  1.0  0.1385
  C  C284  1  0.562970  0.179710  0.292600  1.0  -0.1696
  C  C285  1  0.618950  0.166930  0.248380  1.0  0.2723
  C  C286  1  0.642130  0.106490  0.275000  1.0  -0.2368
  C  C287  1  0.604660  0.062750  0.344870  1.0  0.1772
  C  C288  1  0.586260  0.224520  0.143940  1.0  0.5552
  C  C289  1  0.636770  0.263970  0.068460  1.0  0.1794
  C  C290  1  0.591200  0.280100  0.019400  1.0  -0.0486
  C  C291  1  0.652200  0.317200  0.951200  1.0  -0.0907
  C  C292  1  0.290100  0.507000  0.783400  1.0  -0.1072
  C  C293  1  0.248500  0.436100  0.819300  1.0  -0.0857
  C  C294  1  0.306340  0.399550  0.803330  1.0  0.1511
  C  C295  1  0.436730  0.500810  0.718920  1.0  0.1733
  C  C296  1  0.383900  0.540000  0.733300  1.0  -0.0994
  C  C297  1  0.280100  0.322700  0.839700  1.0  0.5685
  C  C298  1  0.538250  0.526690  0.666740  1.0  0.5581
  C  C299  1  0.347200  0.235100  0.852900  1.0  0.2861
  C  C300  1  0.270000  0.182900  0.864900  1.0  -0.1926
  C  C301  1  0.264600  0.116000  0.902700  1.0  0.1886
  C  C302  1  0.407400  0.147200  0.916500  1.0  0.1716
  C  C303  1  0.422100  0.216200  0.878400  1.0  -0.208
  C  C304  1  0.659650  0.487820  0.620970  1.0  0.1733
  C  C305  1  0.672190  0.460030  0.577460  1.0  -0.2072
  C  C306  1  0.765950  0.465130  0.544880  1.0  0.1734
  C  C307  1  0.838380  0.529050  0.587410  1.0  0.182
  C  C308  1  0.746600  0.524420  0.623820  1.0  -0.2028
  C  C309  1  0.688400  0.932800  0.730300  1.0  -0.0489
  C  C310  1  0.780500  0.983900  0.697400  1.0  0.1441
  C  C311  1  0.882100  0.976100  0.683900  1.0  0.6241
  C  C312  1  0.053800  0.040300  0.620000  1.0  0.2579
  C  C313  1  0.111000  0.074200  0.551900  1.0  -0.2065
  C  C314  1  0.211200  0.080200  0.533900  1.0  0.1778
  C  C315  1  0.199700  0.019900  0.643400  1.0  0.2005
  C  C316  1  0.099600  0.012100  0.667100  1.0  -0.2141
  C  C317  1  0.893100  0.363160  0.503060  1.0  0.1412
  C  C318  1  0.855570  0.292600  0.527690  1.0  -0.1662
  C  C319  1  0.867330  0.248380  0.584690  1.0  0.273
  C  C320  1  0.917130  0.275000  0.618510  1.0  -0.2379
  C  C321  1  0.949530  0.344870  0.592380  1.0  0.1748
  C  C322  1  0.730200  0.143940  0.631540  1.0  0.558
  C  C323  1  0.705230  0.068460  0.667570  1.0  0.1779
  C  C324  1  0.610600  0.019400  0.700500  1.0  -0.047
  C  C325  1  0.603400  0.951200  0.731600  1.0  -0.0915
  C  C326  1  0.073500  0.783400  0.709600  1.0  -0.1056
  C  C327  1  0.067800  0.819300  0.744600  1.0  -0.0857
  C  C328  1  0.109670  0.803330  0.797120  1.0  0.1514
  C  C329  1  0.155650  0.718920  0.780270  1.0  0.1729
  C  C330  1  0.117200  0.733300  0.726700  1.0  -0.0999
  C  C331  1  0.119800  0.839700  0.837600  1.0  0.5677
  C  C332  1  0.204990  0.666740  0.806570  1.0  0.5613
  C  C333  1  0.200100  0.852900  0.912000  1.0  0.2888
  C  C334  1  0.134900  0.864900  0.952200  1.0  -0.1938
  C  C335  1  0.167300  0.902700  0.981300  1.0  0.19
  C  C336  1  0.323900  0.916500  0.936300  1.0  0.1696
  C  C337  1  0.300500  0.878400  0.905400  1.0  -0.2086
  C  C338  1  0.280620  0.620970  0.891210  1.0  0.173
  C  C339  1  0.249650  0.577460  0.962510  1.0  -0.2086
  C  C340  1  0.310830  0.544880  0.989990  1.0  0.1737
  C  C341  1  0.425790  0.587410  0.883540  1.0  0.1816
  C  C342  1  0.370420  0.623820  0.851760  1.0  -0.2016
  C  C343  1  0.418700  0.730300  0.336900  1.0  -0.0442
  C  C344  1  0.477900  0.697400  0.318700  1.0  0.1436
  C  C345  1  0.566000  0.683900  0.340000  1.0  0.6227
  C  C346  1  0.673800  0.620000  0.339700  1.0  0.2589
  C  C347  1  0.662900  0.551900  0.373900  1.0  -0.2104
  C  C348  1  0.745100  0.533900  0.385900  1.0  0.1776
  C  C349  1  0.843100  0.643400  0.336700  1.0  0.2004
  C  C350  1  0.766700  0.667100  0.320800  1.0  -0.2169
  C  C351  1  0.396160  0.503060  0.133780  1.0  0.1371
  C  C352  1  0.383260  0.527690  0.179710  1.0  -0.1694
  C  C353  1  0.452020  0.584690  0.166930  1.0  0.2735
  C  C354  1  0.535640  0.618510  0.106490  1.0  -0.2363
  C  C355  1  0.541910  0.592380  0.062750  1.0  0.1748
  C  C356  1  0.361740  0.631540  0.224520  1.0  0.5581
  C  C357  1  0.372800  0.667570  0.263970  1.0  0.1785
  C  C358  1  0.311100  0.700500  0.280100  1.0  -0.044
  C  C359  1  0.335000  0.731600  0.317200  1.0  -0.0887
  N  N360  1  0.949300  0.120910  0.695210  1.0  -0.3725
  N  N361  1  0.913260  0.136930  0.525650  1.0  -0.3718
  N  N362  1  0.345440  0.789590  0.823670  1.0  -0.3505
  N  N363  1  0.083790  0.676300  0.962830  1.0  -0.347
  N  N364  1  0.036440  0.187210  0.566990  1.0  -0.2885
  N  N365  1  0.262930  0.716610  0.950520  1.0  -0.2852
  N  N366  1  0.647640  0.047310  0.501790  1.0  -0.3374
  N  N367  1  0.449480  0.925520  0.609980  1.0  -0.3051
  N  N368  1  0.773700  0.032400  0.901300  1.0  -0.2437
  N  N369  1  0.797590  0.630500  0.947030  1.0  -0.3084
  N  N370  1  0.644510  0.695210  0.183880  1.0  -0.3755
  N  N371  1  0.438910  0.525650  0.337420  1.0  -0.3725
  N  N372  1  0.169110  0.823670  0.386740  1.0  -0.35
  N  N373  1  0.046620  0.962830  0.360870  1.0  -0.3469
  N  N374  1  0.603430  0.566990  0.245800  1.0  -0.2882
  N  N375  1  0.213450  0.950520  0.332870  1.0  -0.2833
  N  N376  1  0.149430  0.501790  0.450900  1.0  -0.3367
  N  N377  1  0.059460  0.609980  0.464500  1.0  -0.304
  N  N378  1  0.675000  0.901300  0.066300  1.0  -0.2447
  N  N379  1  0.744620  0.947030  0.422470  1.0  -0.3096
  N  N380  1  0.828390  0.183880  0.120910  1.0  -0.3746
  N  N381  1  0.776330  0.337420  0.136930  1.0  -0.3692
  N  N382  1  0.555850  0.386740  0.789590  1.0  -0.3505
  N  N383  1  0.407490  0.360870  0.676300  1.0  -0.3454
  N  N384  1  0.849230  0.245800  0.187210  1.0  -0.2883
  N  N385  1  0.546320  0.332870  0.716610  1.0  -0.2842
  N  N386  1  0.600330  0.450900  0.047310  1.0  -0.338
  N  N387  1  0.523960  0.464500  0.925520  1.0  -0.3064
  N  N388  1  0.741300  0.066300  0.032400  1.0  -0.2482
  N  N389  1  0.167090  0.422470  0.630500  1.0  -0.31
  N  N390  1  0.050700  0.879090  0.304790  1.0  -0.3727
  N  N391  1  0.086740  0.863070  0.474350  1.0  -0.3713
  N  N392  1  0.654560  0.210410  0.176330  1.0  -0.3505
  N  N393  1  0.916210  0.323700  0.037170  1.0  -0.3441
  N  N394  1  0.963560  0.812790  0.433010  1.0  -0.2894
  N  N395  1  0.737070  0.283390  0.049480  1.0  -0.285
  N  N396  1  0.352360  0.952690  0.498210  1.0  -0.3356
  N  N397  1  0.550520  0.074480  0.390020  1.0  -0.3052
  N  N398  1  0.226300  0.967600  0.098700  1.0  -0.2471
  N  N399  1  0.202410  0.369500  0.052970  1.0  -0.3075
  N  N400  1  0.355490  0.304790  0.816120  1.0  -0.3752
  N  N401  1  0.561090  0.474350  0.662580  1.0  -0.3702
  N  N402  1  0.830890  0.176330  0.613260  1.0  -0.3503
  N  N403  1  0.953380  0.037170  0.639130  1.0  -0.3475
  N  N404  1  0.396570  0.433010  0.754200  1.0  -0.2896
  N  N405  1  0.786550  0.049480  0.667130  1.0  -0.286
  N  N406  1  0.850570  0.498210  0.549100  1.0  -0.3353
  N  N407  1  0.940540  0.390020  0.535500  1.0  -0.3044
  N  N408  1  0.325000  0.098700  0.933700  1.0  -0.2454
  N  N409  1  0.255380  0.052970  0.577530  1.0  -0.3078
  N  N410  1  0.171610  0.816120  0.879090  1.0  -0.3744
  N  N411  1  0.223670  0.662580  0.863070  1.0  -0.3686
  N  N412  1  0.444150  0.613260  0.210410  1.0  -0.3502
  N  N413  1  0.592510  0.639130  0.323700  1.0  -0.3443
  N  N414  1  0.150770  0.754200  0.812790  1.0  -0.2872
  N  N415  1  0.453680  0.667130  0.283390  1.0  -0.286
  N  N416  1  0.399670  0.549100  0.952690  1.0  -0.3361
  N  N417  1  0.476040  0.535500  0.074480  1.0  -0.305
  N  N418  1  0.258700  0.933700  0.967600  1.0  -0.2449
  N  N419  1  0.832910  0.577530  0.369500  1.0  -0.3083
  N  N420  1  0.339000  0.054000  0.757000  1.0  -0.085
  N  N421  1  0.096000  0.757000  0.189000  1.0  -0.083
  N  N422  1  0.285000  0.189000  0.054000  1.0  -0.083
  N  N423  1  0.661000  0.946000  0.243000  1.0  -0.084
  N  N424  1  0.904000  0.243000  0.811000  1.0  -0.0786
  N  N425  1  0.715000  0.811000  0.946000  1.0  -0.085
  O  O426  1  0.084660  0.172740  0.714460  1.0  -0.4968
  O  O427  1  0.999990  0.222200  0.411630  1.0  -0.5567
  O  O428  1  0.505090  0.794980  0.828610  1.0  -0.5147
  O  O429  1  0.027200  0.627700  0.080400  1.0  -0.5137
  O  O430  1  0.449220  0.071530  0.519170  1.0  -0.7319
  O  O431  1  0.799120  0.714460  0.112800  1.0  -0.4937
  O  O432  1  0.411620  0.411630  0.366170  1.0  -0.5544
  O  O433  1  0.333700  0.828610  0.376410  1.0  -0.5154
  O  O434  1  0.107600  0.080400  0.291900  1.0  -0.5104
  O  O435  1  0.968390  0.519170  0.409300  1.0  -0.7304
  O  O436  1  0.911920  0.112800  0.172740  1.0  -0.4943
  O  O437  1  0.777790  0.366170  0.222200  1.0  -0.5523
  O  O438  1  0.710110  0.376410  0.794980  1.0  -0.5144
  O  O439  1  0.399500  0.291900  0.627700  1.0  -0.5164
  O  O440  1  0.377690  0.409300  0.071530  1.0  -0.7297
  O  O441  1  0.915340  0.827260  0.285540  1.0  -0.4964
  O  O442  1  0.000010  0.777800  0.588370  1.0  -0.5547
  O  O443  1  0.494910  0.205020  0.171390  1.0  -0.5143
  O  O444  1  0.972800  0.372300  0.919600  1.0  -0.5133
  O  O445  1  0.550780  0.928470  0.480830  1.0  -0.7327
  O  O446  1  0.200880  0.285540  0.887200  1.0  -0.4938
  O  O447  1  0.588380  0.588370  0.633830  1.0  -0.558
  O  O448  1  0.666300  0.171390  0.623590  1.0  -0.5144
  O  O449  1  0.892400  0.919600  0.708100  1.0  -0.5085
  O  O450  1  0.031610  0.480830  0.590700  1.0  -0.7333
  O  O451  1  0.088080  0.887200  0.827260  1.0  -0.4943
  O  O452  1  0.222210  0.633830  0.777800  1.0  -0.5523
  O  O453  1  0.289890  0.623590  0.205020  1.0  -0.5141
  O  O454  1  0.600500  0.708100  0.372300  1.0  -0.5154
  O  O455  1  0.622310  0.590700  0.928470  1.0  -0.7319
  O  O456  1  0.369200  0.028400  0.736200  1.0  -0.4383
  O  O457  1  0.416500  0.110000  0.763500  1.0  -0.5408
  O  O458  1  0.224700  0.046400  0.785100  1.0  -0.4855
  O  O459  1  0.105400  0.736200  0.235400  1.0  -0.4375
  O  O460  1  0.180000  0.763500  0.126500  1.0  -0.5437
  O  O461  1  0.009800  0.785100  0.168500  1.0  -0.4885
  O  O462  1  0.340800  0.235400  0.028400  1.0  -0.4372
  O  O463  1  0.306500  0.126500  0.110000  1.0  -0.5418
  O  O464  1  0.178300  0.168500  0.046400  1.0  -0.4862
  O  O465  1  0.630800  0.971600  0.263800  1.0  -0.4377
  O  O466  1  0.583500  0.890000  0.236500  1.0  -0.5436
  O  O467  1  0.775300  0.953600  0.214900  1.0  -0.487
  O  O468  1  0.894600  0.263800  0.764600  1.0  -0.441
  O  O469  1  0.820000  0.236500  0.873500  1.0  -0.542
  O  O470  1  0.990200  0.214900  0.831500  1.0  -0.4896
  O  O471  1  0.659200  0.764600  0.971600  1.0  -0.435
  O  O472  1  0.693500  0.873500  0.890000  1.0  -0.5419
  O  O473  1  0.821700  0.831500  0.953600  1.0  -0.489
