# generated using pymatgen
data_ZrCu2H40C56(N4F3)2
_symmetry_space_group_name_H-M   'P 1'
_cell_length_a   21.16500000
_cell_length_b   21.16500000
_cell_length_c   21.16500000
_cell_angle_alpha   90.00000000
_cell_angle_beta   90.00000000
_cell_angle_gamma   90.00000000
_symmetry_Int_Tables_number   1
_chemical_formula_structural   ZrCu2H40C56(N4F3)2
_chemical_formula_sum   'Zr3 Cu6 H120 C168 N24 F18'
_cell_volume   9481.01466712
_cell_formula_units_Z   3
loop_
 _symmetry_equiv_pos_site_id
 _symmetry_equiv_pos_as_xyz
  1  'x, y, z'
loop_
 _atom_site_type_symbol
 _atom_site_label
 _atom_site_symmetry_multiplicity
 _atom_site_fract_x
 _atom_site_fract_y
 _atom_site_fract_z
 _atom_site_occupancy
 _atom_site_charge
  Zr  Zr1  1  0.500000  0.500000  0.000000  1.0  2.0497
  Zr  Zr2  1  0.000000  0.500000  0.500000  1.0  2.0497
  Zr  Zr3  1  0.500000  0.000000  0.500000  1.0  2.0497
  Cu  Cu4  1  0.500000  0.686400  0.000000  1.0  0.6391
  Cu  Cu5  1  0.500000  0.313600  0.000000  1.0  0.6381
  Cu  Cu6  1  0.000000  0.500000  0.686400  1.0  0.6381
  Cu  Cu7  1  0.000000  0.500000  0.313600  1.0  0.638
  Cu  Cu8  1  0.686400  0.000000  0.500000  1.0  0.638
  Cu  Cu9  1  0.313600  0.000000  0.500000  1.0  0.6388
  H  H10  1  0.572500  0.795400  0.068100  1.0  0.0816
  H  H11  1  0.644400  0.803900  0.151700  1.0  0.0923
  H  H12  1  0.650800  0.613100  0.165600  1.0  0.0892
  H  H13  1  0.578900  0.604500  0.082100  1.0  0.0812
  H  H14  1  0.648700  0.797100  0.250800  1.0  0.0769
  H  H15  1  0.427500  0.204600  0.068100  1.0  0.0795
  H  H16  1  0.355600  0.196100  0.151700  1.0  0.0929
  H  H17  1  0.349200  0.386900  0.165600  1.0  0.0891
  H  H18  1  0.421100  0.395500  0.082100  1.0  0.0808
  H  H19  1  0.351300  0.202900  0.250800  1.0  0.0769
  H  H20  1  0.427500  0.795400  0.931900  1.0  0.0809
  H  H21  1  0.355600  0.803900  0.848300  1.0  0.0925
  H  H22  1  0.349200  0.613100  0.834400  1.0  0.0885
  H  H23  1  0.421100  0.604500  0.917900  1.0  0.081
  H  H24  1  0.351300  0.797100  0.749200  1.0  0.0766
  H  H25  1  0.572500  0.204600  0.931900  1.0  0.0796
  H  H26  1  0.644400  0.196100  0.848300  1.0  0.0926
  H  H27  1  0.650800  0.386900  0.834400  1.0  0.0886
  H  H28  1  0.578900  0.395500  0.917900  1.0  0.0812
  H  H29  1  0.648700  0.202900  0.749200  1.0  0.0769
  H  H30  1  0.068100  0.572500  0.795400  1.0  0.0804
  H  H31  1  0.151700  0.644400  0.803900  1.0  0.0932
  H  H32  1  0.165600  0.650800  0.613100  1.0  0.0887
  H  H33  1  0.082100  0.578900  0.604500  1.0  0.0823
  H  H34  1  0.250800  0.648700  0.797100  1.0  0.0756
  H  H35  1  0.068100  0.427500  0.204600  1.0  0.0813
  H  H36  1  0.151700  0.355600  0.196100  1.0  0.0924
  H  H37  1  0.165600  0.349200  0.386900  1.0  0.0889
  H  H38  1  0.082100  0.421100  0.395500  1.0  0.082
  H  H39  1  0.250800  0.351300  0.202900  1.0  0.0762
  H  H40  1  0.931900  0.427500  0.795400  1.0  0.0802
  H  H41  1  0.848300  0.355600  0.803900  1.0  0.093
  H  H42  1  0.834400  0.349200  0.613100  1.0  0.0882
  H  H43  1  0.917900  0.421100  0.604500  1.0  0.082
  H  H44  1  0.749200  0.351300  0.797100  1.0  0.0758
  H  H45  1  0.931900  0.572500  0.204600  1.0  0.0809
  H  H46  1  0.848300  0.644400  0.196100  1.0  0.0931
  H  H47  1  0.834400  0.650800  0.386900  1.0  0.0889
  H  H48  1  0.917900  0.578900  0.395500  1.0  0.0815
  H  H49  1  0.749200  0.648700  0.202900  1.0  0.0762
  H  H50  1  0.795400  0.068100  0.572500  1.0  0.0797
  H  H51  1  0.803900  0.151700  0.644400  1.0  0.0927
  H  H52  1  0.613100  0.165600  0.650800  1.0  0.0884
  H  H53  1  0.604500  0.082100  0.578900  1.0  0.0811
  H  H54  1  0.797100  0.250800  0.648700  1.0  0.0771
  H  H55  1  0.204600  0.068100  0.427500  1.0  0.0796
  H  H56  1  0.196100  0.151700  0.355600  1.0  0.0932
  H  H57  1  0.386900  0.165600  0.349200  1.0  0.0896
  H  H58  1  0.395500  0.082100  0.421100  1.0  0.0818
  H  H59  1  0.202900  0.250800  0.351300  1.0  0.0766
  H  H60  1  0.795400  0.931900  0.427500  1.0  0.0791
  H  H61  1  0.803900  0.848300  0.355600  1.0  0.0929
  H  H62  1  0.613100  0.834400  0.349200  1.0  0.0888
  H  H63  1  0.604500  0.917900  0.421100  1.0  0.0815
  H  H64  1  0.797100  0.749200  0.351300  1.0  0.0761
  H  H65  1  0.204600  0.931900  0.572500  1.0  0.0802
  H  H66  1  0.196100  0.848300  0.644400  1.0  0.0925
  H  H67  1  0.386900  0.834400  0.650800  1.0  0.0893
  H  H68  1  0.395500  0.917900  0.578900  1.0  0.0813
  H  H69  1  0.202900  0.749200  0.648700  1.0  0.077
  H  H70  1  0.427500  0.204600  0.931900  1.0  0.0795
  H  H71  1  0.355600  0.196100  0.848300  1.0  0.0927
  H  H72  1  0.349200  0.386900  0.834400  1.0  0.0887
  H  H73  1  0.421100  0.395500  0.917900  1.0  0.0806
  H  H74  1  0.351300  0.202900  0.749200  1.0  0.0768
  H  H75  1  0.572500  0.795400  0.931900  1.0  0.0815
  H  H76  1  0.644400  0.803900  0.848300  1.0  0.0923
  H  H77  1  0.650800  0.613100  0.834400  1.0  0.0887
  H  H78  1  0.578900  0.604500  0.917900  1.0  0.0811
  H  H79  1  0.648700  0.797100  0.749200  1.0  0.0768
  H  H80  1  0.572500  0.204600  0.068100  1.0  0.0795
  H  H81  1  0.644400  0.196100  0.151700  1.0  0.0929
  H  H82  1  0.650800  0.386900  0.165600  1.0  0.089
  H  H83  1  0.578900  0.395500  0.082100  1.0  0.0813
  H  H84  1  0.648700  0.202900  0.250800  1.0  0.0768
  H  H85  1  0.427500  0.795400  0.068100  1.0  0.081
  H  H86  1  0.355600  0.803900  0.151700  1.0  0.0923
  H  H87  1  0.349200  0.613100  0.165600  1.0  0.0891
  H  H88  1  0.421100  0.604500  0.082100  1.0  0.0811
  H  H89  1  0.351300  0.797100  0.250800  1.0  0.0769
  H  H90  1  0.931900  0.427500  0.204600  1.0  0.0809
  H  H91  1  0.848300  0.355600  0.196100  1.0  0.0931
  H  H92  1  0.834400  0.349200  0.386900  1.0  0.0889
  H  H93  1  0.917900  0.421100  0.395500  1.0  0.0818
  H  H94  1  0.749200  0.351300  0.202900  1.0  0.0762
  H  H95  1  0.931900  0.572500  0.795400  1.0  0.0804
  H  H96  1  0.848300  0.644400  0.803900  1.0  0.0929
  H  H97  1  0.834400  0.650800  0.613100  1.0  0.0885
  H  H98  1  0.917900  0.578900  0.604500  1.0  0.082
  H  H99  1  0.749200  0.648700  0.797100  1.0  0.0758
  H  H100  1  0.068100  0.572500  0.204600  1.0  0.0811
  H  H101  1  0.151700  0.644400  0.196100  1.0  0.0924
  H  H102  1  0.165600  0.650800  0.386900  1.0  0.0889
  H  H103  1  0.082100  0.578900  0.395500  1.0  0.0819
  H  H104  1  0.250800  0.648700  0.202900  1.0  0.0759
  H  H105  1  0.068100  0.427500  0.795400  1.0  0.0805
  H  H106  1  0.151700  0.355600  0.803900  1.0  0.0934
  H  H107  1  0.165600  0.349200  0.613100  1.0  0.0885
  H  H108  1  0.082100  0.421100  0.604500  1.0  0.082
  H  H109  1  0.250800  0.351300  0.797100  1.0  0.0758
  H  H110  1  0.204600  0.931900  0.427500  1.0  0.0796
  H  H111  1  0.196100  0.848300  0.355600  1.0  0.0929
  H  H112  1  0.386900  0.834400  0.349200  1.0  0.0894
  H  H113  1  0.395500  0.917900  0.421100  1.0  0.0816
  H  H114  1  0.202900  0.749200  0.351300  1.0  0.0765
  H  H115  1  0.795400  0.931900  0.572500  1.0  0.0796
  H  H116  1  0.803900  0.848300  0.644400  1.0  0.0922
  H  H117  1  0.613100  0.834400  0.650800  1.0  0.0888
  H  H118  1  0.604500  0.917900  0.578900  1.0  0.0811
  H  H119  1  0.797100  0.749200  0.648700  1.0  0.0772
  H  H120  1  0.204600  0.068100  0.572500  1.0  0.0801
  H  H121  1  0.196100  0.151700  0.644400  1.0  0.093
  H  H122  1  0.386900  0.165600  0.650800  1.0  0.0892
  H  H123  1  0.395500  0.082100  0.578900  1.0  0.0812
  H  H124  1  0.202900  0.250800  0.648700  1.0  0.0768
  H  H125  1  0.795400  0.068100  0.427500  1.0  0.0793
  H  H126  1  0.803900  0.151700  0.355600  1.0  0.0931
  H  H127  1  0.613100  0.165600  0.349200  1.0  0.0886
  H  H128  1  0.604500  0.082100  0.421100  1.0  0.0813
  H  H129  1  0.797100  0.250800  0.351300  1.0  0.0762
  C  C130  1  0.588400  0.758400  0.087900  1.0  0.1348
  C  C131  1  0.631100  0.763500  0.137600  1.0  -0.2498
  C  C132  1  0.654400  0.709300  0.166500  1.0  0.0479
  C  C133  1  0.634900  0.650100  0.145800  1.0  -0.1823
  C  C134  1  0.592200  0.645000  0.096200  1.0  0.1262
  C  C135  1  0.695000  0.723900  0.217200  1.0  0.136
  C  C136  1  0.684800  0.771000  0.256700  1.0  -0.184
  C  C137  1  0.411600  0.241600  0.087900  1.0  0.1368
  C  C138  1  0.368900  0.236500  0.137600  1.0  -0.2527
  C  C139  1  0.345600  0.290700  0.166500  1.0  0.0475
  C  C140  1  0.365100  0.349900  0.145800  1.0  -0.1839
  C  C141  1  0.407800  0.355000  0.096200  1.0  0.1252
  C  C142  1  0.305000  0.276100  0.217200  1.0  0.1372
  C  C143  1  0.315200  0.229000  0.256700  1.0  -0.1844
  C  C144  1  0.411600  0.758400  0.912100  1.0  0.1342
  C  C145  1  0.368900  0.763500  0.862400  1.0  -0.2498
  C  C146  1  0.345600  0.709300  0.833500  1.0  0.0472
  C  C147  1  0.365100  0.650100  0.854200  1.0  -0.1816
  C  C148  1  0.407800  0.645000  0.903800  1.0  0.126
  C  C149  1  0.305000  0.723900  0.782800  1.0  0.1369
  C  C150  1  0.315200  0.771000  0.743300  1.0  -0.1847
  C  C151  1  0.588400  0.241600  0.912100  1.0  0.1361
  C  C152  1  0.631100  0.236500  0.862400  1.0  -0.2522
  C  C153  1  0.654400  0.290700  0.833500  1.0  0.0473
  C  C154  1  0.634900  0.349900  0.854200  1.0  -0.1812
  C  C155  1  0.592200  0.355000  0.903800  1.0  0.1247
  C  C156  1  0.695000  0.276100  0.782800  1.0  0.1364
  C  C157  1  0.684800  0.229000  0.743300  1.0  -0.1844
  C  C158  1  0.087900  0.588400  0.758400  1.0  0.1303
  C  C159  1  0.137600  0.631100  0.763500  1.0  -0.2477
  C  C160  1  0.166500  0.654400  0.709300  1.0  0.0472
  C  C161  1  0.145800  0.634900  0.650100  1.0  -0.1829
  C  C162  1  0.096200  0.592200  0.645000  1.0  0.1228
  C  C163  1  0.217200  0.695000  0.723900  1.0  0.1351
  C  C164  1  0.256700  0.684800  0.771000  1.0  -0.185
  C  C165  1  0.087900  0.411600  0.241600  1.0  0.1313
  C  C166  1  0.137600  0.368900  0.236500  1.0  -0.2477
  C  C167  1  0.166500  0.345600  0.290700  1.0  0.0473
  C  C168  1  0.145800  0.365100  0.349900  1.0  -0.1842
  C  C169  1  0.096200  0.407800  0.355000  1.0  0.1242
  C  C170  1  0.217200  0.305000  0.276100  1.0  0.1357
  C  C171  1  0.256700  0.315200  0.229000  1.0  -0.1847
  C  C172  1  0.912100  0.411600  0.758400  1.0  0.1296
  C  C173  1  0.862400  0.368900  0.763500  1.0  -0.2495
  C  C174  1  0.833500  0.345600  0.709300  1.0  0.0475
  C  C175  1  0.854200  0.365100  0.650100  1.0  -0.1823
  C  C176  1  0.903800  0.407800  0.645000  1.0  0.1235
  C  C177  1  0.782800  0.305000  0.723900  1.0  0.1364
  C  C178  1  0.743300  0.315200  0.771000  1.0  -0.1854
  C  C179  1  0.912100  0.588400  0.241600  1.0  0.1305
  C  C180  1  0.862400  0.631100  0.236500  1.0  -0.2497
  C  C181  1  0.833500  0.654400  0.290700  1.0  0.0477
  C  C182  1  0.854200  0.634900  0.349900  1.0  -0.1854
  C  C183  1  0.903800  0.592200  0.355000  1.0  0.1239
  C  C184  1  0.782800  0.695000  0.276100  1.0  0.1358
  C  C185  1  0.743300  0.684800  0.229000  1.0  -0.1843
  C  C186  1  0.758400  0.087900  0.588400  1.0  0.134
  C  C187  1  0.763500  0.137600  0.631100  1.0  -0.249
  C  C188  1  0.709300  0.166500  0.654400  1.0  0.0468
  C  C189  1  0.650100  0.145800  0.634900  1.0  -0.1803
  C  C190  1  0.645000  0.096200  0.592200  1.0  0.1255
  C  C191  1  0.723900  0.217200  0.695000  1.0  0.1364
  C  C192  1  0.771000  0.256700  0.684800  1.0  -0.1846
  C  C193  1  0.241600  0.087900  0.411600  1.0  0.1343
  C  C194  1  0.236500  0.137600  0.368900  1.0  -0.25
  C  C195  1  0.290700  0.166500  0.345600  1.0  0.0471
  C  C196  1  0.349900  0.145800  0.365100  1.0  -0.1796
  C  C197  1  0.355000  0.096200  0.407800  1.0  0.1265
  C  C198  1  0.276100  0.217200  0.305000  1.0  0.1362
  C  C199  1  0.229000  0.256700  0.315200  1.0  -0.1867
  C  C200  1  0.758400  0.912100  0.411600  1.0  0.1343
  C  C201  1  0.763500  0.862400  0.368900  1.0  -0.2487
  C  C202  1  0.709300  0.833500  0.345600  1.0  0.047
  C  C203  1  0.650100  0.854200  0.365100  1.0  -0.18
  C  C204  1  0.645000  0.903800  0.407800  1.0  0.1249
  C  C205  1  0.723900  0.782800  0.305000  1.0  0.1371
  C  C206  1  0.771000  0.743300  0.315200  1.0  -0.186
  C  C207  1  0.241600  0.912100  0.588400  1.0  0.1341
  C  C208  1  0.236500  0.862400  0.631100  1.0  -0.2487
  C  C209  1  0.290700  0.833500  0.654400  1.0  0.0472
  C  C210  1  0.349900  0.854200  0.634900  1.0  -0.1801
  C  C211  1  0.355000  0.903800  0.592200  1.0  0.1271
  C  C212  1  0.276100  0.782800  0.695000  1.0  0.1372
  C  C213  1  0.229000  0.743300  0.684800  1.0  -0.1848
  C  C214  1  0.411600  0.241600  0.912100  1.0  0.1367
  C  C215  1  0.368900  0.236500  0.862400  1.0  -0.2519
  C  C216  1  0.345600  0.290700  0.833500  1.0  0.047
  C  C217  1  0.365100  0.349900  0.854200  1.0  -0.1828
  C  C218  1  0.407800  0.355000  0.903800  1.0  0.1248
  C  C219  1  0.305000  0.276100  0.782800  1.0  0.1371
  C  C220  1  0.315200  0.229000  0.743300  1.0  -0.1847
  C  C221  1  0.588400  0.758400  0.912100  1.0  0.1344
  C  C222  1  0.631100  0.763500  0.862400  1.0  -0.2488
  C  C223  1  0.654400  0.709300  0.833500  1.0  0.0475
  C  C224  1  0.634900  0.650100  0.854200  1.0  -0.1818
  C  C225  1  0.592200  0.645000  0.903800  1.0  0.1259
  C  C226  1  0.695000  0.723900  0.782800  1.0  0.1362
  C  C227  1  0.684800  0.771000  0.743300  1.0  -0.1846
  C  C228  1  0.588400  0.241600  0.087900  1.0  0.1362
  C  C229  1  0.631100  0.236500  0.137600  1.0  -0.2531
  C  C230  1  0.654400  0.290700  0.166500  1.0  0.0478
  C  C231  1  0.634900  0.349900  0.145800  1.0  -0.1819
  C  C232  1  0.592200  0.355000  0.096200  1.0  0.1249
  C  C233  1  0.695000  0.276100  0.217200  1.0  0.1364
  C  C234  1  0.684800  0.229000  0.256700  1.0  -0.184
  C  C235  1  0.411600  0.758400  0.087900  1.0  0.1345
  C  C236  1  0.368900  0.763500  0.137600  1.0  -0.2509
  C  C237  1  0.345600  0.709300  0.166500  1.0  0.0476
  C  C238  1  0.365100  0.650100  0.145800  1.0  -0.1824
  C  C239  1  0.407800  0.645000  0.096200  1.0  0.1263
  C  C240  1  0.305000  0.723900  0.217200  1.0  0.1369
  C  C241  1  0.315200  0.771000  0.256700  1.0  -0.1841
  C  C242  1  0.912100  0.411600  0.241600  1.0  0.1306
  C  C243  1  0.862400  0.368900  0.236500  1.0  -0.2497
  C  C244  1  0.833500  0.345600  0.290700  1.0  0.0476
  C  C245  1  0.854200  0.365100  0.349900  1.0  -0.1852
  C  C246  1  0.903800  0.407800  0.355000  1.0  0.1244
  C  C247  1  0.782800  0.305000  0.276100  1.0  0.1364
  C  C248  1  0.743300  0.315200  0.229000  1.0  -0.1843
  C  C249  1  0.912100  0.588400  0.758400  1.0  0.1304
  C  C250  1  0.862400  0.631100  0.763500  1.0  -0.2491
  C  C251  1  0.833500  0.654400  0.709300  1.0  0.0475
  C  C252  1  0.854200  0.634900  0.650100  1.0  -0.1823
  C  C253  1  0.903800  0.592200  0.645000  1.0  0.1236
  C  C254  1  0.782800  0.695000  0.723900  1.0  0.136
  C  C255  1  0.743300  0.684800  0.771000  1.0  -0.1842
  C  C256  1  0.087900  0.588400  0.241600  1.0  0.1317
  C  C257  1  0.137600  0.631100  0.236500  1.0  -0.2476
  C  C258  1  0.166500  0.654400  0.290700  1.0  0.0473
  C  C259  1  0.145800  0.634900  0.349900  1.0  -0.1843
  C  C260  1  0.096200  0.592200  0.355000  1.0  0.1234
  C  C261  1  0.217200  0.695000  0.276100  1.0  0.1349
  C  C262  1  0.256700  0.684800  0.229000  1.0  -0.1848
  C  C263  1  0.087900  0.411600  0.758400  1.0  0.1295
  C  C264  1  0.137600  0.368900  0.763500  1.0  -0.2479
  C  C265  1  0.166500  0.345600  0.709300  1.0  0.0471
  C  C266  1  0.145800  0.365100  0.650100  1.0  -0.1827
  C  C267  1  0.096200  0.407800  0.645000  1.0  0.1228
  C  C268  1  0.217200  0.305000  0.723900  1.0  0.1359
  C  C269  1  0.256700  0.315200  0.771000  1.0  -0.1862
  C  C270  1  0.241600  0.912100  0.411600  1.0  0.1341
  C  C271  1  0.236500  0.862400  0.368900  1.0  -0.2489
  C  C272  1  0.290700  0.833500  0.345600  1.0  0.0472
  C  C273  1  0.349900  0.854200  0.365100  1.0  -0.1798
  C  C274  1  0.355000  0.903800  0.407800  1.0  0.1265
  C  C275  1  0.276100  0.782800  0.305000  1.0  0.137
  C  C276  1  0.229000  0.743300  0.315200  1.0  -0.1866
  C  C277  1  0.758400  0.912100  0.588400  1.0  0.1339
  C  C278  1  0.763500  0.862400  0.631100  1.0  -0.2485
  C  C279  1  0.709300  0.833500  0.654400  1.0  0.047
  C  C280  1  0.650100  0.854200  0.634900  1.0  -0.1805
  C  C281  1  0.645000  0.903800  0.592200  1.0  0.1257
  C  C282  1  0.723900  0.782800  0.695000  1.0  0.1374
  C  C283  1  0.771000  0.743300  0.684800  1.0  -0.1846
  C  C284  1  0.241600  0.087900  0.588400  1.0  0.1345
  C  C285  1  0.236500  0.137600  0.631100  1.0  -0.2498
  C  C286  1  0.290700  0.166500  0.654400  1.0  0.0471
  C  C287  1  0.349900  0.145800  0.634900  1.0  -0.1801
  C  C288  1  0.355000  0.096200  0.592200  1.0  0.1269
  C  C289  1  0.276100  0.217200  0.695000  1.0  0.1364
  C  C290  1  0.229000  0.256700  0.684800  1.0  -0.1851
  C  C291  1  0.758400  0.087900  0.411600  1.0  0.1342
  C  C292  1  0.763500  0.137600  0.368900  1.0  -0.2495
  C  C293  1  0.709300  0.166500  0.345600  1.0  0.0468
  C  C294  1  0.650100  0.145800  0.365100  1.0  -0.1797
  C  C295  1  0.645000  0.096200  0.407800  1.0  0.1247
  C  C296  1  0.723900  0.217200  0.305000  1.0  0.1362
  C  C297  1  0.771000  0.256700  0.315200  1.0  -0.1859
  N  N298  1  0.568900  0.699200  0.067200  1.0  -0.322
  N  N299  1  0.431100  0.300800  0.067200  1.0  -0.3216
  N  N300  1  0.431100  0.699200  0.932800  1.0  -0.3211
  N  N301  1  0.568900  0.300800  0.932800  1.0  -0.3202
  N  N302  1  0.067200  0.568900  0.699200  1.0  -0.3224
  N  N303  1  0.067200  0.431100  0.300800  1.0  -0.3209
  N  N304  1  0.932800  0.431100  0.699200  1.0  -0.3207
  N  N305  1  0.932800  0.568900  0.300800  1.0  -0.3221
  N  N306  1  0.699200  0.067200  0.568900  1.0  -0.3225
  N  N307  1  0.300800  0.067200  0.431100  1.0  -0.3231
  N  N308  1  0.699200  0.932800  0.431100  1.0  -0.321
  N  N309  1  0.300800  0.932800  0.568900  1.0  -0.3221
  N  N310  1  0.431100  0.300800  0.932800  1.0  -0.3202
  N  N311  1  0.568900  0.699200  0.932800  1.0  -0.321
  N  N312  1  0.568900  0.300800  0.067200  1.0  -0.3215
  N  N313  1  0.431100  0.699200  0.067200  1.0  -0.3224
  N  N314  1  0.932800  0.431100  0.300800  1.0  -0.3203
  N  N315  1  0.932800  0.568900  0.699200  1.0  -0.3225
  N  N316  1  0.067200  0.568900  0.300800  1.0  -0.322
  N  N317  1  0.067200  0.431100  0.699200  1.0  -0.3213
  N  N318  1  0.300800  0.932800  0.431100  1.0  -0.3219
  N  N319  1  0.699200  0.932800  0.568900  1.0  -0.3214
  N  N320  1  0.300800  0.067200  0.568900  1.0  -0.3236
  N  N321  1  0.699200  0.067200  0.431100  1.0  -0.3219
  F  F322  1  0.500000  0.590200  0.000000  1.0  -0.4961
  F  F323  1  0.500000  0.409800  0.000000  1.0  -0.4962
  F  F324  1  0.000000  0.500000  0.590200  1.0  -0.4949
  F  F325  1  0.000000  0.500000  0.409800  1.0  -0.495
  F  F326  1  0.590200  0.000000  0.500000  1.0  -0.4936
  F  F327  1  0.409800  0.000000  0.500000  1.0  -0.4942
  F  F328  1  0.540800  0.500000  0.077700  1.0  -0.431
  F  F329  1  0.459200  0.500000  0.077700  1.0  -0.4321
  F  F330  1  0.459200  0.500000  0.922300  1.0  -0.4326
  F  F331  1  0.540800  0.500000  0.922300  1.0  -0.4327
  F  F332  1  0.077700  0.540800  0.500000  1.0  -0.4297
  F  F333  1  0.077700  0.459200  0.500000  1.0  -0.4304
  F  F334  1  0.922300  0.459200  0.500000  1.0  -0.4321
  F  F335  1  0.922300  0.540800  0.500000  1.0  -0.4317
  F  F336  1  0.500000  0.077700  0.540800  1.0  -0.4299
  F  F337  1  0.500000  0.077700  0.459200  1.0  -0.4316
  F  F338  1  0.500000  0.922300  0.459200  1.0  -0.4326
  F  F339  1  0.500000  0.922300  0.540800  1.0  -0.4304
