# generated using pymatgen
data_CuH20(C7N)4
_symmetry_space_group_name_H-M   'P 1'
_cell_length_a   21.23790000
_cell_length_b   21.23790000
_cell_length_c   21.23790000
_cell_angle_alpha   90.00000000
_cell_angle_beta   90.00000000
_cell_angle_gamma   90.00000000
_symmetry_Int_Tables_number   1
_chemical_formula_structural   CuH20(C7N)4
_chemical_formula_sum   'Cu6 H120 C168 N24'
_cell_volume   9579.32073812
_cell_formula_units_Z   6
loop_
 _symmetry_equiv_pos_site_id
 _symmetry_equiv_pos_as_xyz
  1  'x, y, z'
loop_
 _atom_site_type_symbol
 _atom_site_label
 _atom_site_symmetry_multiplicity
 _atom_site_fract_x
 _atom_site_fract_y
 _atom_site_fract_z
 _atom_site_occupancy
 _atom_site_charge
  Cu  Cu1  1  0.500000  0.699000  0.000000  1.0  0.4871
  Cu  Cu2  1  0.500000  0.301000  0.000000  1.0  0.488
  Cu  Cu3  1  0.000000  0.500000  0.699000  1.0  0.488
  Cu  Cu4  1  0.000000  0.500000  0.301000  1.0  0.4881
  Cu  Cu5  1  0.699000  0.000000  0.500000  1.0  0.487
  Cu  Cu6  1  0.301000  0.000000  0.500000  1.0  0.4864
  H  H7  1  0.566300  0.800000  0.068500  1.0  0.0816
  H  H8  1  0.642500  0.811200  0.147300  1.0  0.0938
  H  H9  1  0.656100  0.621400  0.161100  1.0  0.0956
  H  H10  1  0.579900  0.610200  0.082300  1.0  0.079
  H  H11  1  0.742300  0.645300  0.203400  1.0  0.0816
  H  H12  1  0.433700  0.200000  0.068500  1.0  0.0807
  H  H13  1  0.357500  0.188800  0.147300  1.0  0.0939
  H  H14  1  0.343900  0.378600  0.161100  1.0  0.0953
  H  H15  1  0.420100  0.389800  0.082300  1.0  0.0794
  H  H16  1  0.257700  0.354700  0.203400  1.0  0.0817
  H  H17  1  0.433700  0.800000  0.931500  1.0  0.0818
  H  H18  1  0.357500  0.811200  0.852700  1.0  0.0937
  H  H19  1  0.343900  0.621400  0.838900  1.0  0.0951
  H  H20  1  0.420100  0.610200  0.917700  1.0  0.0798
  H  H21  1  0.257700  0.645300  0.796600  1.0  0.0821
  H  H22  1  0.566300  0.200000  0.931500  1.0  0.0805
  H  H23  1  0.642500  0.188800  0.852700  1.0  0.0935
  H  H24  1  0.656100  0.378600  0.838900  1.0  0.095
  H  H25  1  0.579900  0.389800  0.917700  1.0  0.0789
  H  H26  1  0.742300  0.354700  0.796600  1.0  0.0819
  H  H27  1  0.068500  0.566300  0.800000  1.0  0.0807
  H  H28  1  0.147300  0.642500  0.811200  1.0  0.0939
  H  H29  1  0.161100  0.656100  0.621400  1.0  0.0972
  H  H30  1  0.082300  0.579900  0.610200  1.0  0.0787
  H  H31  1  0.203400  0.742300  0.645300  1.0  0.0828
  H  H32  1  0.068500  0.433700  0.200000  1.0  0.0816
  H  H33  1  0.147300  0.357500  0.188800  1.0  0.0936
  H  H34  1  0.161100  0.343900  0.378600  1.0  0.0978
  H  H35  1  0.082300  0.420100  0.389800  1.0  0.0789
  H  H36  1  0.203400  0.257700  0.354700  1.0  0.0833
  H  H37  1  0.931500  0.433700  0.800000  1.0  0.0807
  H  H38  1  0.852700  0.357500  0.811200  1.0  0.0938
  H  H39  1  0.838900  0.343900  0.621400  1.0  0.0973
  H  H40  1  0.917700  0.420100  0.610200  1.0  0.0787
  H  H41  1  0.796600  0.257700  0.645300  1.0  0.0827
  H  H42  1  0.931500  0.566300  0.200000  1.0  0.0815
  H  H43  1  0.852700  0.642500  0.188800  1.0  0.0936
  H  H44  1  0.838900  0.656100  0.378600  1.0  0.0977
  H  H45  1  0.917700  0.579900  0.389800  1.0  0.0793
  H  H46  1  0.796600  0.742300  0.354700  1.0  0.0831
  H  H47  1  0.800000  0.068500  0.566300  1.0  0.0794
  H  H48  1  0.811200  0.147300  0.642500  1.0  0.0941
  H  H49  1  0.621400  0.161100  0.656100  1.0  0.0952
  H  H50  1  0.610200  0.082300  0.579900  1.0  0.0797
  H  H51  1  0.645300  0.203400  0.742300  1.0  0.0827
  H  H52  1  0.200000  0.068500  0.433700  1.0  0.0796
  H  H53  1  0.188800  0.147300  0.357500  1.0  0.0947
  H  H54  1  0.378600  0.161100  0.343900  1.0  0.0953
  H  H55  1  0.389800  0.082300  0.420100  1.0  0.079
  H  H56  1  0.354700  0.203400  0.257700  1.0  0.0828
  H  H57  1  0.800000  0.931500  0.433700  1.0  0.08
  H  H58  1  0.811200  0.852700  0.357500  1.0  0.0943
  H  H59  1  0.621400  0.838900  0.343900  1.0  0.0955
  H  H60  1  0.610200  0.917700  0.420100  1.0  0.0796
  H  H61  1  0.645300  0.796600  0.257700  1.0  0.0831
  H  H62  1  0.200000  0.931500  0.566300  1.0  0.0799
  H  H63  1  0.188800  0.852700  0.642500  1.0  0.0939
  H  H64  1  0.378600  0.838900  0.656100  1.0  0.0953
  H  H65  1  0.389800  0.917700  0.579900  1.0  0.0786
  H  H66  1  0.354700  0.796600  0.742300  1.0  0.0827
  H  H67  1  0.433700  0.200000  0.931500  1.0  0.0809
  H  H68  1  0.357500  0.188800  0.852700  1.0  0.0935
  H  H69  1  0.343900  0.378600  0.838900  1.0  0.0953
  H  H70  1  0.420100  0.389800  0.917700  1.0  0.0797
  H  H71  1  0.257700  0.354700  0.796600  1.0  0.0818
  H  H72  1  0.566300  0.800000  0.931500  1.0  0.082
  H  H73  1  0.642500  0.811200  0.852700  1.0  0.0938
  H  H74  1  0.656100  0.621400  0.838900  1.0  0.0954
  H  H75  1  0.579900  0.610200  0.917700  1.0  0.0799
  H  H76  1  0.742300  0.645300  0.796600  1.0  0.0822
  H  H77  1  0.566300  0.200000  0.068500  1.0  0.0804
  H  H78  1  0.642500  0.188800  0.147300  1.0  0.0938
  H  H79  1  0.656100  0.378600  0.161100  1.0  0.0951
  H  H80  1  0.579900  0.389800  0.082300  1.0  0.0791
  H  H81  1  0.742300  0.354700  0.203400  1.0  0.0817
  H  H82  1  0.433700  0.800000  0.068500  1.0  0.0815
  H  H83  1  0.357500  0.811200  0.147300  1.0  0.0938
  H  H84  1  0.343900  0.621400  0.161100  1.0  0.0953
  H  H85  1  0.420100  0.610200  0.082300  1.0  0.0798
  H  H86  1  0.257700  0.645300  0.203400  1.0  0.0816
  H  H87  1  0.931500  0.433700  0.200000  1.0  0.0814
  H  H88  1  0.852700  0.357500  0.188800  1.0  0.0936
  H  H89  1  0.838900  0.343900  0.378600  1.0  0.0979
  H  H90  1  0.917700  0.420100  0.389800  1.0  0.0792
  H  H91  1  0.796600  0.257700  0.354700  1.0  0.0832
  H  H92  1  0.931500  0.566300  0.800000  1.0  0.0808
  H  H93  1  0.852700  0.642500  0.811200  1.0  0.0936
  H  H94  1  0.838900  0.656100  0.621400  1.0  0.0972
  H  H95  1  0.917700  0.579900  0.610200  1.0  0.0791
  H  H96  1  0.796600  0.742300  0.645300  1.0  0.0827
  H  H97  1  0.068500  0.566300  0.200000  1.0  0.0816
  H  H98  1  0.147300  0.642500  0.188800  1.0  0.0936
  H  H99  1  0.161100  0.656100  0.378600  1.0  0.0976
  H  H100  1  0.082300  0.579900  0.389800  1.0  0.0792
  H  H101  1  0.203400  0.742300  0.354700  1.0  0.0831
  H  H102  1  0.068500  0.433700  0.800000  1.0  0.0808
  H  H103  1  0.147300  0.357500  0.811200  1.0  0.0944
  H  H104  1  0.161100  0.343900  0.621400  1.0  0.0972
  H  H105  1  0.082300  0.420100  0.610200  1.0  0.079
  H  H106  1  0.203400  0.257700  0.645300  1.0  0.0826
  H  H107  1  0.200000  0.931500  0.433700  1.0  0.0799
  H  H108  1  0.188800  0.852700  0.357500  1.0  0.0945
  H  H109  1  0.378600  0.838900  0.343900  1.0  0.0954
  H  H110  1  0.389800  0.917700  0.420100  1.0  0.0792
  H  H111  1  0.354700  0.796600  0.257700  1.0  0.0831
  H  H112  1  0.800000  0.931500  0.566300  1.0  0.0795
  H  H113  1  0.811200  0.852700  0.642500  1.0  0.0938
  H  H114  1  0.621400  0.838900  0.656100  1.0  0.0955
  H  H115  1  0.610200  0.917700  0.579900  1.0  0.08
  H  H116  1  0.645300  0.796600  0.742300  1.0  0.0829
  H  H117  1  0.200000  0.068500  0.566300  1.0  0.0793
  H  H118  1  0.188800  0.147300  0.642500  1.0  0.0943
  H  H119  1  0.378600  0.161100  0.656100  1.0  0.0951
  H  H120  1  0.389800  0.082300  0.579900  1.0  0.0794
  H  H121  1  0.354700  0.203400  0.742300  1.0  0.0825
  H  H122  1  0.800000  0.068500  0.433700  1.0  0.0799
  H  H123  1  0.811200  0.147300  0.357500  1.0  0.0944
  H  H124  1  0.621400  0.161100  0.343900  1.0  0.0953
  H  H125  1  0.610200  0.082300  0.420100  1.0  0.0801
  H  H126  1  0.645300  0.203400  0.257700  1.0  0.0827
  C  C127  1  0.584500  0.763800  0.087300  1.0  0.1464
  C  C128  1  0.629800  0.770400  0.134100  1.0  -0.1914
  C  C129  1  0.656500  0.717400  0.161600  1.0  -0.0391
  C  C130  1  0.637900  0.657600  0.142300  1.0  -0.1804
  C  C131  1  0.592600  0.651000  0.095500  1.0  0.1177
  C  C132  1  0.692100  0.725900  0.220300  1.0  0.0936
  C  C133  1  0.739400  0.681800  0.229200  1.0  -0.1815
  C  C134  1  0.415500  0.236200  0.087300  1.0  0.1489
  C  C135  1  0.370200  0.229600  0.134100  1.0  -0.1924
  C  C136  1  0.343500  0.282600  0.161600  1.0  -0.0389
  C  C137  1  0.362100  0.342400  0.142300  1.0  -0.1824
  C  C138  1  0.407400  0.349000  0.095500  1.0  0.1157
  C  C139  1  0.307900  0.274100  0.220300  1.0  0.0934
  C  C140  1  0.260600  0.318200  0.229200  1.0  -0.1813
  C  C141  1  0.415500  0.763800  0.912700  1.0  0.147
  C  C142  1  0.370200  0.770400  0.865900  1.0  -0.1925
  C  C143  1  0.343500  0.717400  0.838400  1.0  -0.0391
  C  C144  1  0.362100  0.657600  0.857700  1.0  -0.1801
  C  C145  1  0.407400  0.651000  0.904500  1.0  0.1166
  C  C146  1  0.307900  0.725900  0.779700  1.0  0.0935
  C  C147  1  0.260600  0.681800  0.770800  1.0  -0.1811
  C  C148  1  0.584500  0.236200  0.912700  1.0  0.1486
  C  C149  1  0.629800  0.229600  0.865900  1.0  -0.1915
  C  C150  1  0.656500  0.282600  0.838400  1.0  -0.0392
  C  C151  1  0.637900  0.342400  0.857700  1.0  -0.1806
  C  C152  1  0.592600  0.349000  0.904500  1.0  0.1142
  C  C153  1  0.692100  0.274100  0.779700  1.0  0.0924
  C  C154  1  0.739400  0.318200  0.770800  1.0  -0.183
  C  C155  1  0.087300  0.584500  0.763800  1.0  0.1433
  C  C156  1  0.134100  0.629800  0.770400  1.0  -0.1953
  C  C157  1  0.161600  0.656500  0.717400  1.0  -0.0411
  C  C158  1  0.142300  0.637900  0.657600  1.0  -0.1841
  C  C159  1  0.095500  0.592600  0.651000  1.0  0.1109
  C  C160  1  0.220300  0.692100  0.725900  1.0  0.0933
  C  C161  1  0.229200  0.739400  0.681800  1.0  -0.1821
  C  C162  1  0.087300  0.415500  0.236200  1.0  0.1447
  C  C163  1  0.134100  0.370200  0.229600  1.0  -0.1956
  C  C164  1  0.161600  0.343500  0.282600  1.0  -0.0417
  C  C165  1  0.142300  0.362100  0.342400  1.0  -0.1843
  C  C166  1  0.095500  0.407400  0.349000  1.0  0.1099
  C  C167  1  0.220300  0.307900  0.274100  1.0  0.0921
  C  C168  1  0.229200  0.260600  0.318200  1.0  -0.1817
  C  C169  1  0.912700  0.415500  0.763800  1.0  0.1429
  C  C170  1  0.865900  0.370200  0.770400  1.0  -0.1955
  C  C171  1  0.838400  0.343500  0.717400  1.0  -0.0408
  C  C172  1  0.857700  0.362100  0.657600  1.0  -0.1841
  C  C173  1  0.904500  0.407400  0.651000  1.0  0.1118
  C  C174  1  0.779700  0.307900  0.725900  1.0  0.0932
  C  C175  1  0.770800  0.260600  0.681800  1.0  -0.1821
  C  C176  1  0.912700  0.584500  0.236200  1.0  0.1442
  C  C177  1  0.865900  0.629800  0.229600  1.0  -0.1973
  C  C178  1  0.838400  0.656500  0.282600  1.0  -0.0405
  C  C179  1  0.857700  0.637900  0.342400  1.0  -0.1843
  C  C180  1  0.904500  0.592600  0.349000  1.0  0.1114
  C  C181  1  0.779700  0.692100  0.274100  1.0  0.0934
  C  C182  1  0.770800  0.739400  0.318200  1.0  -0.1813
  C  C183  1  0.763800  0.087300  0.584500  1.0  0.1481
  C  C184  1  0.770400  0.134100  0.629800  1.0  -0.1918
  C  C185  1  0.717400  0.161600  0.656500  1.0  -0.0392
  C  C186  1  0.657600  0.142300  0.637900  1.0  -0.1803
  C  C187  1  0.651000  0.095500  0.592600  1.0  0.1155
  C  C188  1  0.725900  0.220300  0.692100  1.0  0.0949
  C  C189  1  0.681800  0.229200  0.739400  1.0  -0.1806
  C  C190  1  0.236200  0.087300  0.415500  1.0  0.148
  C  C191  1  0.229600  0.134100  0.370200  1.0  -0.1931
  C  C192  1  0.282600  0.161600  0.343500  1.0  -0.0391
  C  C193  1  0.342400  0.142300  0.362100  1.0  -0.1781
  C  C194  1  0.349000  0.095500  0.407400  1.0  0.115
  C  C195  1  0.274100  0.220300  0.307900  1.0  0.094
  C  C196  1  0.318200  0.229200  0.260600  1.0  -0.1819
  C  C197  1  0.763800  0.912700  0.415500  1.0  0.1486
  C  C198  1  0.770400  0.865900  0.370200  1.0  -0.1919
  C  C199  1  0.717400  0.838400  0.343500  1.0  -0.0388
  C  C200  1  0.657600  0.857700  0.362100  1.0  -0.1797
  C  C201  1  0.651000  0.904500  0.407400  1.0  0.1139
  C  C202  1  0.725900  0.779700  0.307900  1.0  0.0937
  C  C203  1  0.681800  0.770800  0.260600  1.0  -0.1807
  C  C204  1  0.236200  0.912700  0.584500  1.0  0.1471
  C  C205  1  0.229600  0.865900  0.629800  1.0  -0.1937
  C  C206  1  0.282600  0.838400  0.656500  1.0  -0.0391
  C  C207  1  0.342400  0.857700  0.637900  1.0  -0.1782
  C  C208  1  0.349000  0.904500  0.592600  1.0  0.1151
  C  C209  1  0.274100  0.779700  0.692100  1.0  0.0936
  C  C210  1  0.318200  0.770800  0.739400  1.0  -0.1833
  C  C211  1  0.415500  0.236200  0.912700  1.0  0.1494
  C  C212  1  0.370200  0.229600  0.865900  1.0  -0.1918
  C  C213  1  0.343500  0.282600  0.838400  1.0  -0.0392
  C  C214  1  0.362100  0.342400  0.857700  1.0  -0.182
  C  C215  1  0.407400  0.349000  0.904500  1.0  0.1149
  C  C216  1  0.307900  0.274100  0.779700  1.0  0.0928
  C  C217  1  0.260600  0.318200  0.770800  1.0  -0.1827
  C  C218  1  0.584500  0.763800  0.912700  1.0  0.1465
  C  C219  1  0.629800  0.770400  0.865900  1.0  -0.1906
  C  C220  1  0.656500  0.717400  0.838400  1.0  -0.0393
  C  C221  1  0.637900  0.657600  0.857700  1.0  -0.1801
  C  C222  1  0.592600  0.651000  0.904500  1.0  0.1166
  C  C223  1  0.692100  0.725900  0.779700  1.0  0.0931
  C  C224  1  0.739400  0.681800  0.770800  1.0  -0.1817
  C  C225  1  0.584500  0.236200  0.087300  1.0  0.1482
  C  C226  1  0.629800  0.229600  0.134100  1.0  -0.192
  C  C227  1  0.656500  0.282600  0.161600  1.0  -0.039
  C  C228  1  0.637900  0.342400  0.142300  1.0  -0.181
  C  C229  1  0.592600  0.349000  0.095500  1.0  0.115
  C  C230  1  0.692100  0.274100  0.220300  1.0  0.0928
  C  C231  1  0.739400  0.318200  0.229200  1.0  -0.1816
  C  C232  1  0.415500  0.763800  0.087300  1.0  0.1466
  C  C233  1  0.370200  0.770400  0.134100  1.0  -0.1934
  C  C234  1  0.343500  0.717400  0.161600  1.0  -0.0388
  C  C235  1  0.362100  0.657600  0.142300  1.0  -0.1806
  C  C236  1  0.407400  0.651000  0.095500  1.0  0.1179
  C  C237  1  0.307900  0.725900  0.220300  1.0  0.0941
  C  C238  1  0.260600  0.681800  0.229200  1.0  -0.1809
  C  C239  1  0.912700  0.415500  0.236200  1.0  0.144
  C  C240  1  0.865900  0.370200  0.229600  1.0  -0.1969
  C  C241  1  0.838400  0.343500  0.282600  1.0  -0.0408
  C  C242  1  0.857700  0.362100  0.342400  1.0  -0.1846
  C  C243  1  0.904500  0.407400  0.349000  1.0  0.1108
  C  C244  1  0.779700  0.307900  0.274100  1.0  0.0928
  C  C245  1  0.770800  0.260600  0.318200  1.0  -0.1813
  C  C246  1  0.912700  0.584500  0.763800  1.0  0.1435
  C  C247  1  0.865900  0.629800  0.770400  1.0  -0.1958
  C  C248  1  0.838400  0.656500  0.717400  1.0  -0.0405
  C  C249  1  0.857700  0.637900  0.657600  1.0  -0.1836
  C  C250  1  0.904500  0.592600  0.651000  1.0  0.1114
  C  C251  1  0.779700  0.692100  0.725900  1.0  0.0939
  C  C252  1  0.770800  0.739400  0.681800  1.0  -0.1819
  C  C253  1  0.087300  0.584500  0.236200  1.0  0.1449
  C  C254  1  0.134100  0.629800  0.229600  1.0  -0.1962
  C  C255  1  0.161600  0.656500  0.282600  1.0  -0.041
  C  C256  1  0.142300  0.637900  0.342400  1.0  -0.1839
  C  C257  1  0.095500  0.592600  0.349000  1.0  0.1104
  C  C258  1  0.220300  0.692100  0.274100  1.0  0.0928
  C  C259  1  0.229200  0.739400  0.318200  1.0  -0.1817
  C  C260  1  0.087300  0.415500  0.763800  1.0  0.143
  C  C261  1  0.134100  0.370200  0.770400  1.0  -0.1947
  C  C262  1  0.161600  0.343500  0.717400  1.0  -0.0416
  C  C263  1  0.142300  0.362100  0.657600  1.0  -0.1845
  C  C264  1  0.095500  0.407400  0.651000  1.0  0.1111
  C  C265  1  0.220300  0.307900  0.725900  1.0  0.0925
  C  C266  1  0.229200  0.260600  0.681800  1.0  -0.1823
  C  C267  1  0.236200  0.912700  0.415500  1.0  0.1473
  C  C268  1  0.229600  0.865900  0.370200  1.0  -0.1936
  C  C269  1  0.282600  0.838400  0.343500  1.0  -0.0389
  C  C270  1  0.342400  0.857700  0.362100  1.0  -0.1781
  C  C271  1  0.349000  0.904500  0.407400  1.0  0.1145
  C  C272  1  0.274100  0.779700  0.307900  1.0  0.0933
  C  C273  1  0.318200  0.770800  0.260600  1.0  -0.183
  C  C274  1  0.763800  0.912700  0.584500  1.0  0.1478
  C  C275  1  0.770400  0.865900  0.629800  1.0  -0.1919
  C  C276  1  0.717400  0.838400  0.656500  1.0  -0.039
  C  C277  1  0.657600  0.857700  0.637900  1.0  -0.1802
  C  C278  1  0.651000  0.904500  0.592600  1.0  0.1152
  C  C279  1  0.725900  0.779700  0.692100  1.0  0.094
  C  C280  1  0.681800  0.770800  0.739400  1.0  -0.1811
  C  C281  1  0.236200  0.087300  0.584500  1.0  0.1477
  C  C282  1  0.229600  0.134100  0.629800  1.0  -0.193
  C  C283  1  0.282600  0.161600  0.656500  1.0  -0.0393
  C  C284  1  0.342400  0.142300  0.637900  1.0  -0.1783
  C  C285  1  0.349000  0.095500  0.592600  1.0  0.1155
  C  C286  1  0.274100  0.220300  0.692100  1.0  0.0943
  C  C287  1  0.318200  0.229200  0.739400  1.0  -0.1821
  C  C288  1  0.763800  0.087300  0.415500  1.0  0.149
  C  C289  1  0.770400  0.134100  0.370200  1.0  -0.192
  C  C290  1  0.717400  0.161600  0.343500  1.0  -0.039
  C  C291  1  0.657600  0.142300  0.362100  1.0  -0.1796
  C  C292  1  0.651000  0.095500  0.407400  1.0  0.1143
  C  C293  1  0.725900  0.220300  0.307900  1.0  0.0947
  C  C294  1  0.681800  0.229200  0.260600  1.0  -0.1802
  N  N295  1  0.566000  0.704000  0.068000  1.0  -0.312
  N  N296  1  0.434000  0.296000  0.068000  1.0  -0.3119
  N  N297  1  0.434000  0.704000  0.932000  1.0  -0.3115
  N  N298  1  0.566000  0.296000  0.932000  1.0  -0.3111
  N  N299  1  0.068000  0.566000  0.704000  1.0  -0.3115
  N  N300  1  0.068000  0.434000  0.296000  1.0  -0.3104
  N  N301  1  0.932000  0.434000  0.704000  1.0  -0.3108
  N  N302  1  0.932000  0.566000  0.296000  1.0  -0.3118
  N  N303  1  0.704000  0.068000  0.566000  1.0  -0.3132
  N  N304  1  0.296000  0.068000  0.434000  1.0  -0.3134
  N  N305  1  0.704000  0.932000  0.434000  1.0  -0.3122
  N  N306  1  0.296000  0.932000  0.566000  1.0  -0.3127
  N  N307  1  0.434000  0.296000  0.932000  1.0  -0.3111
  N  N308  1  0.566000  0.704000  0.932000  1.0  -0.3113
  N  N309  1  0.566000  0.296000  0.068000  1.0  -0.3117
  N  N310  1  0.434000  0.704000  0.068000  1.0  -0.3123
  N  N311  1  0.932000  0.434000  0.296000  1.0  -0.3108
  N  N312  1  0.932000  0.566000  0.704000  1.0  -0.3118
  N  N313  1  0.068000  0.566000  0.296000  1.0  -0.3113
  N  N314  1  0.068000  0.434000  0.704000  1.0  -0.3106
  N  N315  1  0.296000  0.932000  0.434000  1.0  -0.3127
  N  N316  1  0.704000  0.932000  0.566000  1.0  -0.3121
  N  N317  1  0.296000  0.068000  0.566000  1.0  -0.3134
  N  N318  1  0.704000  0.068000  0.434000  1.0  -0.3132
