# generated using pymatgen
data_CuH20(C7N)4
_symmetry_space_group_name_H-M   'P 1'
_cell_length_a   21.18820000
_cell_length_b   21.18820000
_cell_length_c   21.18820000
_cell_angle_alpha   90.00000000
_cell_angle_beta   90.00000000
_cell_angle_gamma   90.00000000
_symmetry_Int_Tables_number   1
_chemical_formula_structural   CuH20(C7N)4
_chemical_formula_sum   'Cu6 H120 C168 N24'
_cell_volume   9512.22667802
_cell_formula_units_Z   6
loop_
 _symmetry_equiv_pos_site_id
 _symmetry_equiv_pos_as_xyz
  1  'x, y, z'
loop_
 _atom_site_type_symbol
 _atom_site_label
 _atom_site_symmetry_multiplicity
 _atom_site_fract_x
 _atom_site_fract_y
 _atom_site_fract_z
 _atom_site_occupancy
 _atom_site_charge
  Cu  Cu1  1  0.500000  0.686970  0.000000  1.0  0.6401
  Cu  Cu2  1  0.500000  0.313030  0.000000  1.0  0.6362
  Cu  Cu3  1  0.000000  0.500000  0.686970  1.0  0.6408
  Cu  Cu4  1  0.000000  0.500000  0.313030  1.0  0.6414
  Cu  Cu5  1  0.686970  0.000000  0.500000  1.0  0.6406
  Cu  Cu6  1  0.313030  0.000000  0.500000  1.0  0.64
  H  H7  1  0.565100  0.789100  0.064900  1.0  0.0693
  H  H8  1  0.638000  0.803600  0.145300  1.0  0.0818
  H  H9  1  0.654200  0.615600  0.164600  1.0  0.0838
  H  H10  1  0.581400  0.601100  0.084200  1.0  0.0689
  H  H11  1  0.743700  0.645100  0.204600  1.0  0.0798
  H  H12  1  0.434900  0.210900  0.064900  1.0  0.0681
  H  H13  1  0.362000  0.196400  0.145300  1.0  0.0818
  H  H14  1  0.345800  0.384400  0.164600  1.0  0.0836
  H  H15  1  0.418600  0.398900  0.084200  1.0  0.0689
  H  H16  1  0.256300  0.354900  0.204600  1.0  0.0805
  H  H17  1  0.434900  0.789100  0.935100  1.0  0.0691
  H  H18  1  0.362000  0.803600  0.854700  1.0  0.0815
  H  H19  1  0.345800  0.615600  0.835400  1.0  0.0837
  H  H20  1  0.418600  0.601100  0.915800  1.0  0.0689
  H  H21  1  0.256300  0.645100  0.795400  1.0  0.08
  H  H22  1  0.565100  0.210900  0.935100  1.0  0.0682
  H  H23  1  0.638000  0.196400  0.854700  1.0  0.0818
  H  H24  1  0.654200  0.384400  0.835400  1.0  0.0839
  H  H25  1  0.581400  0.398900  0.915800  1.0  0.069
  H  H26  1  0.743700  0.354900  0.795400  1.0  0.0802
  H  H27  1  0.064900  0.565100  0.789100  1.0  0.0697
  H  H28  1  0.145300  0.638000  0.803600  1.0  0.082
  H  H29  1  0.164600  0.654200  0.615600  1.0  0.0846
  H  H30  1  0.084200  0.581400  0.601100  1.0  0.0685
  H  H31  1  0.204600  0.743700  0.645100  1.0  0.0816
  H  H32  1  0.064900  0.434900  0.210900  1.0  0.0699
  H  H33  1  0.145300  0.362000  0.196400  1.0  0.0812
  H  H34  1  0.164600  0.345800  0.384400  1.0  0.0853
  H  H35  1  0.084200  0.418600  0.398900  1.0  0.0681
  H  H36  1  0.204600  0.256300  0.354900  1.0  0.0817
  H  H37  1  0.935100  0.434900  0.789100  1.0  0.0692
  H  H38  1  0.854700  0.362000  0.803600  1.0  0.0819
  H  H39  1  0.835400  0.345800  0.615600  1.0  0.0843
  H  H40  1  0.915800  0.418600  0.601100  1.0  0.0688
  H  H41  1  0.795400  0.256300  0.645100  1.0  0.0815
  H  H42  1  0.935100  0.565100  0.210900  1.0  0.0699
  H  H43  1  0.854700  0.638000  0.196400  1.0  0.0818
  H  H44  1  0.835400  0.654200  0.384400  1.0  0.0854
  H  H45  1  0.915800  0.581400  0.398900  1.0  0.068
  H  H46  1  0.795400  0.743700  0.354900  1.0  0.0809
  H  H47  1  0.789100  0.064900  0.565100  1.0  0.0691
  H  H48  1  0.803600  0.145300  0.638000  1.0  0.082
  H  H49  1  0.615600  0.164600  0.654200  1.0  0.0844
  H  H50  1  0.601100  0.084200  0.581400  1.0  0.0685
  H  H51  1  0.645100  0.204600  0.743700  1.0  0.082
  H  H52  1  0.210900  0.064900  0.434900  1.0  0.0679
  H  H53  1  0.196400  0.145300  0.362000  1.0  0.0819
  H  H54  1  0.384400  0.164600  0.345800  1.0  0.0846
  H  H55  1  0.398900  0.084200  0.418600  1.0  0.0683
  H  H56  1  0.354900  0.204600  0.256300  1.0  0.0815
  H  H57  1  0.789100  0.935100  0.434900  1.0  0.0689
  H  H58  1  0.803600  0.854700  0.362000  1.0  0.0822
  H  H59  1  0.615600  0.835400  0.345800  1.0  0.0846
  H  H60  1  0.601100  0.915800  0.418600  1.0  0.0688
  H  H61  1  0.645100  0.795400  0.256300  1.0  0.0823
  H  H62  1  0.210900  0.935100  0.565100  1.0  0.0683
  H  H63  1  0.196400  0.854700  0.638000  1.0  0.0817
  H  H64  1  0.384400  0.835400  0.654200  1.0  0.0841
  H  H65  1  0.398900  0.915800  0.581400  1.0  0.0678
  H  H66  1  0.354900  0.795400  0.743700  1.0  0.0813
  H  H67  1  0.434900  0.210900  0.935100  1.0  0.0685
  H  H68  1  0.362000  0.196400  0.854700  1.0  0.0818
  H  H69  1  0.345800  0.384400  0.835400  1.0  0.084
  H  H70  1  0.418600  0.398900  0.915800  1.0  0.0695
  H  H71  1  0.256300  0.354900  0.795400  1.0  0.0806
  H  H72  1  0.565100  0.789100  0.935100  1.0  0.0692
  H  H73  1  0.638000  0.803600  0.854700  1.0  0.0818
  H  H74  1  0.654200  0.615600  0.835400  1.0  0.0838
  H  H75  1  0.581400  0.601100  0.915800  1.0  0.0694
  H  H76  1  0.743700  0.645100  0.795400  1.0  0.0796
  H  H77  1  0.565100  0.210900  0.064900  1.0  0.068
  H  H78  1  0.638000  0.196400  0.145300  1.0  0.0819
  H  H79  1  0.654200  0.384400  0.164600  1.0  0.0836
  H  H80  1  0.581400  0.398900  0.084200  1.0  0.069
  H  H81  1  0.743700  0.354900  0.204600  1.0  0.0802
  H  H82  1  0.434900  0.789100  0.064900  1.0  0.0689
  H  H83  1  0.362000  0.803600  0.145300  1.0  0.0815
  H  H84  1  0.345800  0.615600  0.164600  1.0  0.0835
  H  H85  1  0.418600  0.601100  0.084200  1.0  0.069
  H  H86  1  0.256300  0.645100  0.204600  1.0  0.0799
  H  H87  1  0.935100  0.434900  0.210900  1.0  0.0698
  H  H88  1  0.854700  0.362000  0.196400  1.0  0.0816
  H  H89  1  0.835400  0.345800  0.384400  1.0  0.0855
  H  H90  1  0.915800  0.418600  0.398900  1.0  0.0685
  H  H91  1  0.795400  0.256300  0.354900  1.0  0.0811
  H  H92  1  0.935100  0.565100  0.789100  1.0  0.0695
  H  H93  1  0.854700  0.638000  0.803600  1.0  0.0818
  H  H94  1  0.835400  0.654200  0.615600  1.0  0.0844
  H  H95  1  0.915800  0.581400  0.601100  1.0  0.069
  H  H96  1  0.795400  0.743700  0.645100  1.0  0.0815
  H  H97  1  0.064900  0.565100  0.210900  1.0  0.07
  H  H98  1  0.145300  0.638000  0.196400  1.0  0.0812
  H  H99  1  0.164600  0.654200  0.384400  1.0  0.0852
  H  H100  1  0.084200  0.581400  0.398900  1.0  0.068
  H  H101  1  0.204600  0.743700  0.354900  1.0  0.0816
  H  H102  1  0.064900  0.434900  0.789100  1.0  0.0695
  H  H103  1  0.145300  0.362000  0.803600  1.0  0.0823
  H  H104  1  0.164600  0.345800  0.615600  1.0  0.0845
  H  H105  1  0.084200  0.418600  0.601100  1.0  0.0691
  H  H106  1  0.204600  0.256300  0.645100  1.0  0.0815
  H  H107  1  0.210900  0.935100  0.434900  1.0  0.0679
  H  H108  1  0.196400  0.854700  0.362000  1.0  0.0818
  H  H109  1  0.384400  0.835400  0.345800  1.0  0.0844
  H  H110  1  0.398900  0.915800  0.418600  1.0  0.0684
  H  H111  1  0.354900  0.795400  0.256300  1.0  0.0816
  H  H112  1  0.789100  0.935100  0.565100  1.0  0.0689
  H  H113  1  0.803600  0.854700  0.638000  1.0  0.0817
  H  H114  1  0.615600  0.835400  0.654200  1.0  0.0846
  H  H115  1  0.601100  0.915800  0.581400  1.0  0.0689
  H  H116  1  0.645100  0.795400  0.743700  1.0  0.0822
  H  H117  1  0.210900  0.064900  0.565100  1.0  0.0683
  H  H118  1  0.196400  0.145300  0.638000  1.0  0.0819
  H  H119  1  0.384400  0.164600  0.654200  1.0  0.0843
  H  H120  1  0.398900  0.084200  0.581400  1.0  0.0681
  H  H121  1  0.354900  0.204600  0.743700  1.0  0.0813
  H  H122  1  0.789100  0.064900  0.434900  1.0  0.069
  H  H123  1  0.803600  0.145300  0.362000  1.0  0.0823
  H  H124  1  0.615600  0.164600  0.345800  1.0  0.0846
  H  H125  1  0.601100  0.084200  0.418600  1.0  0.0688
  H  H126  1  0.645100  0.204600  0.256300  1.0  0.082
  C  C127  1  0.583000  0.754300  0.084900  1.0  0.1257
  C  C128  1  0.626700  0.763000  0.133000  1.0  -0.214
  C  C129  1  0.653300  0.711100  0.162900  1.0  0.1037
  C  C130  1  0.636400  0.650400  0.144600  1.0  -0.2354
  C  C131  1  0.592700  0.641700  0.096400  1.0  0.1011
  C  C132  1  0.689800  0.721100  0.213800  1.0  0.0529
  C  C133  1  0.739600  0.681300  0.229100  1.0  -0.1616
  C  C134  1  0.417000  0.245700  0.084900  1.0  0.126
  C  C135  1  0.373300  0.237000  0.133000  1.0  -0.2127
  C  C136  1  0.346700  0.288900  0.162900  1.0  0.1028
  C  C137  1  0.363600  0.349600  0.144600  1.0  -0.2372
  C  C138  1  0.407300  0.358300  0.096400  1.0  0.1005
  C  C139  1  0.310200  0.278900  0.213800  1.0  0.0528
  C  C140  1  0.260400  0.318700  0.229100  1.0  -0.1606
  C  C141  1  0.417000  0.754300  0.915100  1.0  0.1256
  C  C142  1  0.373300  0.763000  0.867000  1.0  -0.213
  C  C143  1  0.346700  0.711100  0.837100  1.0  0.103
  C  C144  1  0.363600  0.650400  0.855400  1.0  -0.235
  C  C145  1  0.407300  0.641700  0.903600  1.0  0.1006
  C  C146  1  0.310200  0.721100  0.786200  1.0  0.053
  C  C147  1  0.260400  0.681300  0.770900  1.0  -0.1615
  C  C148  1  0.583000  0.245700  0.915100  1.0  0.1254
  C  C149  1  0.626700  0.237000  0.867000  1.0  -0.2132
  C  C150  1  0.653300  0.288900  0.837100  1.0  0.1037
  C  C151  1  0.636400  0.349600  0.855400  1.0  -0.2359
  C  C152  1  0.592700  0.358300  0.903600  1.0  0.1002
  C  C153  1  0.689800  0.278900  0.786200  1.0  0.0524
  C  C154  1  0.739600  0.318700  0.770900  1.0  -0.1612
  C  C155  1  0.084900  0.583000  0.754300  1.0  0.1254
  C  C156  1  0.133000  0.626700  0.763000  1.0  -0.2165
  C  C157  1  0.162900  0.653300  0.711100  1.0  0.1031
  C  C158  1  0.144600  0.636400  0.650400  1.0  -0.2361
  C  C159  1  0.096400  0.592700  0.641700  1.0  0.0973
  C  C160  1  0.213800  0.689800  0.721100  1.0  0.0527
  C  C161  1  0.229100  0.739600  0.681300  1.0  -0.1641
  C  C162  1  0.084900  0.417000  0.245700  1.0  0.1268
  C  C163  1  0.133000  0.373300  0.237000  1.0  -0.2143
  C  C164  1  0.162900  0.346700  0.288900  1.0  0.1029
  C  C165  1  0.144600  0.363600  0.349600  1.0  -0.2362
  C  C166  1  0.096400  0.407300  0.358300  1.0  0.0959
  C  C167  1  0.213800  0.310200  0.278900  1.0  0.0529
  C  C168  1  0.229100  0.260400  0.318700  1.0  -0.1619
  C  C169  1  0.915100  0.417000  0.754300  1.0  0.1258
  C  C170  1  0.867000  0.373300  0.763000  1.0  -0.2169
  C  C171  1  0.837100  0.346700  0.711100  1.0  0.1035
  C  C172  1  0.855400  0.363600  0.650400  1.0  -0.2351
  C  C173  1  0.903600  0.407300  0.641700  1.0  0.0978
  C  C174  1  0.786200  0.310200  0.721100  1.0  0.0523
  C  C175  1  0.770900  0.260400  0.681300  1.0  -0.1639
  C  C176  1  0.915100  0.583000  0.245700  1.0  0.1269
  C  C177  1  0.867000  0.626700  0.237000  1.0  -0.2153
  C  C178  1  0.837100  0.653300  0.288900  1.0  0.1038
  C  C179  1  0.855400  0.636400  0.349600  1.0  -0.2371
  C  C180  1  0.903600  0.592700  0.358300  1.0  0.0964
  C  C181  1  0.786200  0.689800  0.278900  1.0  0.0523
  C  C182  1  0.770900  0.739600  0.318700  1.0  -0.1617
  C  C183  1  0.754300  0.084900  0.583000  1.0  0.1303
  C  C184  1  0.763000  0.133000  0.626700  1.0  -0.2149
  C  C185  1  0.711100  0.162900  0.653300  1.0  0.1034
  C  C186  1  0.650400  0.144600  0.636400  1.0  -0.2361
  C  C187  1  0.641700  0.096400  0.592700  1.0  0.1021
  C  C188  1  0.721100  0.213800  0.689800  1.0  0.054
  C  C189  1  0.681300  0.229100  0.739600  1.0  -0.1648
  C  C190  1  0.245700  0.084900  0.417000  1.0  0.1305
  C  C191  1  0.237000  0.133000  0.373300  1.0  -0.216
  C  C192  1  0.288900  0.162900  0.346700  1.0  0.104
  C  C193  1  0.349600  0.144600  0.363600  1.0  -0.2337
  C  C194  1  0.358300  0.096400  0.407300  1.0  0.1017
  C  C195  1  0.278900  0.213800  0.310200  1.0  0.0533
  C  C196  1  0.318700  0.229100  0.260400  1.0  -0.1645
  C  C197  1  0.754300  0.915100  0.417000  1.0  0.1304
  C  C198  1  0.763000  0.867000  0.373300  1.0  -0.2152
  C  C199  1  0.711100  0.837100  0.346700  1.0  0.1038
  C  C200  1  0.650400  0.855400  0.363600  1.0  -0.2356
  C  C201  1  0.641700  0.903600  0.407300  1.0  0.101
  C  C202  1  0.721100  0.786200  0.310200  1.0  0.0536
  C  C203  1  0.681300  0.770900  0.260400  1.0  -0.1635
  C  C204  1  0.245700  0.915100  0.583000  1.0  0.1306
  C  C205  1  0.237000  0.867000  0.626700  1.0  -0.2161
  C  C206  1  0.288900  0.837100  0.653300  1.0  0.1039
  C  C207  1  0.349600  0.855400  0.636400  1.0  -0.2339
  C  C208  1  0.358300  0.903600  0.592700  1.0  0.1007
  C  C209  1  0.278900  0.786200  0.689800  1.0  0.0537
  C  C210  1  0.318700  0.770900  0.739600  1.0  -0.1642
  C  C211  1  0.417000  0.245700  0.915100  1.0  0.1258
  C  C212  1  0.373300  0.237000  0.867000  1.0  -0.2122
  C  C213  1  0.346700  0.288900  0.837100  1.0  0.1029
  C  C214  1  0.363600  0.349600  0.855400  1.0  -0.2369
  C  C215  1  0.407300  0.358300  0.903600  1.0  0.1005
  C  C216  1  0.310200  0.278900  0.786200  1.0  0.0526
  C  C217  1  0.260400  0.318700  0.770900  1.0  -0.1608
  C  C218  1  0.583000  0.754300  0.915100  1.0  0.1255
  C  C219  1  0.626700  0.763000  0.867000  1.0  -0.2135
  C  C220  1  0.653300  0.711100  0.837100  1.0  0.1037
  C  C221  1  0.636400  0.650400  0.855400  1.0  -0.2353
  C  C222  1  0.592700  0.641700  0.903600  1.0  0.1007
  C  C223  1  0.689800  0.721100  0.786200  1.0  0.0527
  C  C224  1  0.739600  0.681300  0.770900  1.0  -0.1617
  C  C225  1  0.583000  0.245700  0.084900  1.0  0.1255
  C  C226  1  0.626700  0.237000  0.133000  1.0  -0.2136
  C  C227  1  0.653300  0.288900  0.162900  1.0  0.1036
  C  C228  1  0.636400  0.349600  0.144600  1.0  -0.236
  C  C229  1  0.592700  0.358300  0.096400  1.0  0.1001
  C  C230  1  0.689800  0.278900  0.213800  1.0  0.0526
  C  C231  1  0.739600  0.318700  0.229100  1.0  -0.1612
  C  C232  1  0.417000  0.754300  0.084900  1.0  0.1259
  C  C233  1  0.373300  0.763000  0.133000  1.0  -0.2138
  C  C234  1  0.346700  0.711100  0.162900  1.0  0.1029
  C  C235  1  0.363600  0.650400  0.144600  1.0  -0.2352
  C  C236  1  0.407300  0.641700  0.096400  1.0  0.1011
  C  C237  1  0.310200  0.721100  0.213800  1.0  0.0531
  C  C238  1  0.260400  0.681300  0.229100  1.0  -0.161
  C  C239  1  0.915100  0.417000  0.245700  1.0  0.1268
  C  C240  1  0.867000  0.373300  0.237000  1.0  -0.2152
  C  C241  1  0.837100  0.346700  0.288900  1.0  0.1036
  C  C242  1  0.855400  0.363600  0.349600  1.0  -0.2364
  C  C243  1  0.903600  0.407300  0.358300  1.0  0.096
  C  C244  1  0.786200  0.310200  0.278900  1.0  0.0524
  C  C245  1  0.770900  0.260400  0.318700  1.0  -0.1615
  C  C246  1  0.915100  0.583000  0.754300  1.0  0.1259
  C  C247  1  0.867000  0.626700  0.763000  1.0  -0.2167
  C  C248  1  0.837100  0.653300  0.711100  1.0  0.1036
  C  C249  1  0.855400  0.636400  0.650400  1.0  -0.2356
  C  C250  1  0.903600  0.592700  0.641700  1.0  0.0972
  C  C251  1  0.786200  0.689800  0.721100  1.0  0.0522
  C  C252  1  0.770900  0.739600  0.681300  1.0  -0.1638
  C  C253  1  0.084900  0.583000  0.245700  1.0  0.1268
  C  C254  1  0.133000  0.626700  0.237000  1.0  -0.2148
  C  C255  1  0.162900  0.653300  0.288900  1.0  0.1032
  C  C256  1  0.144600  0.636400  0.349600  1.0  -0.2367
  C  C257  1  0.096400  0.592700  0.358300  1.0  0.0963
  C  C258  1  0.213800  0.689800  0.278900  1.0  0.0528
  C  C259  1  0.229100  0.739600  0.318700  1.0  -0.1619
  C  C260  1  0.084900  0.417000  0.754300  1.0  0.1255
  C  C261  1  0.133000  0.373300  0.763000  1.0  -0.2164
  C  C262  1  0.162900  0.346700  0.711100  1.0  0.1029
  C  C263  1  0.144600  0.363600  0.650400  1.0  -0.2356
  C  C264  1  0.096400  0.407300  0.641700  1.0  0.0976
  C  C265  1  0.213800  0.310200  0.721100  1.0  0.0528
  C  C266  1  0.229100  0.260400  0.681300  1.0  -0.1643
  C  C267  1  0.245700  0.915100  0.417000  1.0  0.1302
  C  C268  1  0.237000  0.867000  0.373300  1.0  -0.2159
  C  C269  1  0.288900  0.837100  0.346700  1.0  0.1042
  C  C270  1  0.349600  0.855400  0.363600  1.0  -0.2338
  C  C271  1  0.358300  0.903600  0.407300  1.0  0.1014
  C  C272  1  0.278900  0.786200  0.310200  1.0  0.0534
  C  C273  1  0.318700  0.770900  0.260400  1.0  -0.1638
  C  C274  1  0.754300  0.915100  0.583000  1.0  0.1304
  C  C275  1  0.763000  0.867000  0.626700  1.0  -0.2145
  C  C276  1  0.711100  0.837100  0.653300  1.0  0.1035
  C  C277  1  0.650400  0.855400  0.636400  1.0  -0.2362
  C  C278  1  0.641700  0.903600  0.592700  1.0  0.1021
  C  C279  1  0.721100  0.786200  0.689800  1.0  0.0539
  C  C280  1  0.681300  0.770900  0.739600  1.0  -0.1639
  C  C281  1  0.245700  0.084900  0.583000  1.0  0.1306
  C  C282  1  0.237000  0.133000  0.626700  1.0  -0.2162
  C  C283  1  0.288900  0.162900  0.653300  1.0  0.1038
  C  C284  1  0.349600  0.144600  0.636400  1.0  -0.2338
  C  C285  1  0.358300  0.096400  0.592700  1.0  0.1008
  C  C286  1  0.278900  0.213800  0.689800  1.0  0.0538
  C  C287  1  0.318700  0.229100  0.739600  1.0  -0.165
  C  C288  1  0.754300  0.084900  0.417000  1.0  0.1306
  C  C289  1  0.763000  0.133000  0.373300  1.0  -0.2157
  C  C290  1  0.711100  0.162900  0.346700  1.0  0.1036
  C  C291  1  0.650400  0.144600  0.363600  1.0  -0.2355
  C  C292  1  0.641700  0.096400  0.407300  1.0  0.1013
  C  C293  1  0.721100  0.213800  0.310200  1.0  0.0535
  C  C294  1  0.681300  0.229100  0.260400  1.0  -0.1642
  N  N295  1  0.566000  0.693600  0.066600  1.0  -0.3161
  N  N296  1  0.434000  0.306400  0.066600  1.0  -0.3168
  N  N297  1  0.434000  0.693600  0.933400  1.0  -0.3149
  N  N298  1  0.566000  0.306400  0.933400  1.0  -0.3136
  N  N299  1  0.066600  0.566000  0.693600  1.0  -0.315
  N  N300  1  0.066600  0.434000  0.306400  1.0  -0.3137
  N  N301  1  0.933400  0.434000  0.693600  1.0  -0.3145
  N  N302  1  0.933400  0.566000  0.306400  1.0  -0.3144
  N  N303  1  0.693600  0.066600  0.566000  1.0  -0.3171
  N  N304  1  0.306400  0.066600  0.434000  1.0  -0.3149
  N  N305  1  0.693600  0.933400  0.434000  1.0  -0.3154
  N  N306  1  0.306400  0.933400  0.566000  1.0  -0.3153
  N  N307  1  0.434000  0.306400  0.933400  1.0  -0.3147
  N  N308  1  0.566000  0.693600  0.933400  1.0  -0.3139
  N  N309  1  0.566000  0.306400  0.066600  1.0  -0.3156
  N  N310  1  0.434000  0.693600  0.066600  1.0  -0.3172
  N  N311  1  0.933400  0.434000  0.306400  1.0  -0.3138
  N  N312  1  0.933400  0.566000  0.693600  1.0  -0.3152
  N  N313  1  0.066600  0.566000  0.306400  1.0  -0.3141
  N  N314  1  0.066600  0.434000  0.693600  1.0  -0.3145
  N  N315  1  0.306400  0.933400  0.434000  1.0  -0.3146
  N  N316  1  0.693600  0.933400  0.566000  1.0  -0.3164
  N  N317  1  0.306400  0.066600  0.566000  1.0  -0.3161
  N  N318  1  0.693600  0.066600  0.434000  1.0  -0.3159
