# generated using pymatgen
data_Co2H26C51(O2F3)6
_symmetry_space_group_name_H-M   'P 1'
_cell_length_a   7.19920000
_cell_length_b   18.95030000
_cell_length_c   20.40430000
_cell_angle_alpha   106.64800000
_cell_angle_beta   90.00000000
_cell_angle_gamma   90.00000000
_symmetry_Int_Tables_number   1
_chemical_formula_structural   Co2H26C51(O2F3)6
_chemical_formula_sum   'Co4 H52 C102 O24 F36'
_cell_volume   2667.01290892
_cell_formula_units_Z   2
loop_
 _symmetry_equiv_pos_site_id
 _symmetry_equiv_pos_as_xyz
  1  'x, y, z'
loop_
 _atom_site_type_symbol
 _atom_site_label
 _atom_site_symmetry_multiplicity
 _atom_site_fract_x
 _atom_site_fract_y
 _atom_site_fract_z
 _atom_site_occupancy
 _atom_site_charge
  Co  Co1  1  0.668670  0.026180  0.475480  1.0  1.0152
  Co  Co2  1  0.668670  0.473820  0.024520  1.0  1.0152
  Co  Co3  1  0.331330  0.973820  0.524520  1.0  1.0152
  Co  Co4  1  0.331330  0.526180  0.975480  1.0  1.0149
  H  H5  1  0.985200  0.169700  0.583100  1.0  0.116
  H  H6  1  0.438500  0.254000  0.520800  1.0  0.092
  H  H7  1  0.971400  0.411600  0.834200  1.0  0.1097
  H  H8  1  0.855400  0.285800  0.617000  1.0  0.1137
  H  H9  1  0.310500  0.370900  0.557700  1.0  0.1053
  H  H10  1  0.499300  0.481700  0.769300  1.0  0.1122
  H  H11  1  0.095000  0.389700  0.727100  1.0  0.1181
  H  H12  1  0.141400  0.088900  0.366900  1.0  0.0978
  H  H13  1  0.830400  0.269400  0.389900  1.0  0.1044
  H  H14  1  0.030700  0.308600  0.321400  1.0  0.1044
  H  H15  1  0.342500  0.130800  0.298600  1.0  0.1009
  H  H16  1  0.627500  0.461700  0.662000  1.0  0.0937
  H  H17  1  0.619700  0.170300  0.468800  1.0  0.4003
  H  H18  1  0.985200  0.330300  0.916900  1.0  0.1163
  H  H19  1  0.438500  0.246000  0.979200  1.0  0.0929
  H  H20  1  0.971400  0.088400  0.665800  1.0  0.1091
  H  H21  1  0.855400  0.214200  0.883000  1.0  0.1138
  H  H22  1  0.310500  0.129100  0.942300  1.0  0.1051
  H  H23  1  0.499300  0.018300  0.730700  1.0  0.1122
  H  H24  1  0.095000  0.110300  0.772900  1.0  0.1189
  H  H25  1  0.141400  0.411100  0.133100  1.0  0.0981
  H  H26  1  0.830400  0.230600  0.110100  1.0  0.1044
  H  H27  1  0.030700  0.191400  0.178600  1.0  0.1038
  H  H28  1  0.342500  0.369200  0.201400  1.0  0.1006
  H  H29  1  0.627500  0.038300  0.838000  1.0  0.095
  H  H30  1  0.619700  0.329700  0.031200  1.0  0.399
  H  H31  1  0.014800  0.830300  0.416900  1.0  0.1161
  H  H32  1  0.561500  0.746000  0.479200  1.0  0.0926
  H  H33  1  0.028600  0.588400  0.165800  1.0  0.1093
  H  H34  1  0.144600  0.714200  0.383000  1.0  0.1134
  H  H35  1  0.689500  0.629100  0.442300  1.0  0.1053
  H  H36  1  0.500700  0.518300  0.230700  1.0  0.1131
  H  H37  1  0.905000  0.610300  0.272900  1.0  0.1192
  H  H38  1  0.858600  0.911100  0.633100  1.0  0.0984
  H  H39  1  0.169600  0.730600  0.610100  1.0  0.1046
  H  H40  1  0.969300  0.691400  0.678600  1.0  0.1038
  H  H41  1  0.657500  0.869200  0.701400  1.0  0.101
  H  H42  1  0.372500  0.538300  0.338000  1.0  0.0945
  H  H43  1  0.380300  0.829700  0.531200  1.0  0.399
  H  H44  1  0.014800  0.669700  0.083100  1.0  0.1159
  H  H45  1  0.561500  0.754000  0.020800  1.0  0.0921
  H  H46  1  0.028600  0.911600  0.334200  1.0  0.1095
  H  H47  1  0.144600  0.785800  0.117000  1.0  0.1133
  H  H48  1  0.689500  0.870900  0.057700  1.0  0.1052
  H  H49  1  0.500700  0.981700  0.269300  1.0  0.1133
  H  H50  1  0.905000  0.889700  0.227100  1.0  0.1185
  H  H51  1  0.858600  0.588900  0.866900  1.0  0.0981
  H  H52  1  0.169600  0.769400  0.889900  1.0  0.104
  H  H53  1  0.969300  0.808600  0.821400  1.0  0.1041
  H  H54  1  0.657500  0.630800  0.798600  1.0  0.1003
  H  H55  1  0.372500  0.961700  0.162000  1.0  0.0931
  H  H56  1  0.380300  0.670300  0.968800  1.0  0.4004
  C  C57  1  0.639100  0.463110  0.882010  1.0  0.6761
  C  C58  1  0.314600  0.126200  0.531400  1.0  0.7008
  C  C59  1  0.051400  0.210010  0.578210  1.0  -0.032
  C  C60  1  0.231600  0.201000  0.550300  1.0  -0.1482
  C  C61  1  0.322200  0.260300  0.541500  1.0  -0.0132
  C  C62  1  0.827600  0.145000  0.423300  1.0  0.6806
  C  C63  1  0.839900  0.418300  0.556500  1.0  0.688
  C  C64  1  0.113600  0.480600  0.625700  1.0  0.6927
  C  C65  1  0.447700  0.310600  0.295500  1.0  0.6975
  C  C66  1  0.721600  0.447580  0.812180  1.0  -0.1485
  C  C67  1  0.901600  0.421200  0.799400  1.0  -0.011
  C  C68  1  0.975800  0.415770  0.614570  1.0  -0.3087
  C  C69  1  0.068800  0.340430  0.591630  1.0  0.069
  C  C70  1  0.875300  0.425940  0.683240  1.0  0.074
  C  C71  1  0.974300  0.279700  0.598400  1.0  -0.1384
  C  C72  1  0.244400  0.330600  0.562800  1.0  -0.1461
  C  C73  1  0.619500  0.463400  0.760800  1.0  -0.0165
  C  C74  1  0.976000  0.409200  0.735800  1.0  -0.1421
  C  C75  1  0.117300  0.133000  0.357100  1.0  -0.0075
  C  C76  1  0.960900  0.174100  0.384000  1.0  -0.1944
  C  C77  1  0.931800  0.240400  0.370700  1.0  -0.0122
  C  C78  1  0.051100  0.263500  0.329600  1.0  -0.1375
  C  C79  1  0.202700  0.221400  0.299500  1.0  0.092
  C  C80  1  0.236600  0.158000  0.315700  1.0  -0.1433
  C  C81  1  0.697200  0.451730  0.696730  1.0  -0.1478
  C  C82  1  0.639100  0.036890  0.617990  1.0  0.6766
  C  C83  1  0.314600  0.373800  0.968600  1.0  0.7018
  C  C84  1  0.051400  0.289990  0.921790  1.0  -0.032
  C  C85  1  0.231600  0.299000  0.949700  1.0  -0.1481
  C  C86  1  0.322200  0.239700  0.958500  1.0  -0.0141
  C  C87  1  0.827600  0.355000  0.076700  1.0  0.6797
  C  C88  1  0.839900  0.081700  0.943500  1.0  0.6876
  C  C89  1  0.113600  0.019400  0.874300  1.0  0.6947
  C  C90  1  0.447700  0.189400  0.204500  1.0  0.6989
  C  C91  1  0.721600  0.052420  0.687820  1.0  -0.1479
  C  C92  1  0.901600  0.078800  0.700600  1.0  -0.009
  C  C93  1  0.975800  0.084230  0.885430  1.0  -0.3085
  C  C94  1  0.068800  0.159570  0.908370  1.0  0.0689
  C  C95  1  0.875300  0.074060  0.816760  1.0  0.0744
  C  C96  1  0.974300  0.220300  0.901600  1.0  -0.1389
  C  C97  1  0.244400  0.169400  0.937200  1.0  -0.1462
  C  C98  1  0.619500  0.036600  0.739200  1.0  -0.0169
  C  C99  1  0.976000  0.090800  0.764200  1.0  -0.1427
  C  C100  1  0.117300  0.367000  0.142900  1.0  -0.0035
  C  C101  1  0.960900  0.325900  0.116000  1.0  -0.194
  C  C102  1  0.931800  0.259600  0.129300  1.0  -0.0088
  C  C103  1  0.051100  0.236500  0.170400  1.0  -0.1376
  C  C104  1  0.202700  0.278600  0.200500  1.0  0.0919
  C  C105  1  0.236600  0.342000  0.184300  1.0  -0.1436
  C  C106  1  0.697200  0.048270  0.803270  1.0  -0.1478
  C  C107  1  0.360900  0.536890  0.117990  1.0  0.6767
  C  C108  1  0.685400  0.873800  0.468600  1.0  0.7017
  C  C109  1  0.948600  0.789990  0.421790  1.0  -0.0329
  C  C110  1  0.768400  0.799000  0.449700  1.0  -0.1487
  C  C111  1  0.677800  0.739700  0.458500  1.0  -0.0145
  C  C112  1  0.172400  0.855000  0.576700  1.0  0.6805
  C  C113  1  0.160100  0.581700  0.443500  1.0  0.6886
  C  C114  1  0.886400  0.519400  0.374300  1.0  0.695
  C  C115  1  0.552300  0.689400  0.704500  1.0  0.6981
  C  C116  1  0.278400  0.552420  0.187820  1.0  -0.1449
  C  C117  1  0.098400  0.578800  0.200600  1.0  -0.0089
  C  C118  1  0.024200  0.584230  0.385430  1.0  -0.3084
  C  C119  1  0.931200  0.659570  0.408370  1.0  0.0682
  C  C120  1  0.124700  0.574060  0.316760  1.0  0.075
  C  C121  1  0.025700  0.720300  0.401600  1.0  -0.14
  C  C122  1  0.755600  0.669400  0.437200  1.0  -0.1455
  C  C123  1  0.380500  0.536600  0.239200  1.0  -0.0168
  C  C124  1  0.024000  0.590800  0.264200  1.0  -0.1407
  C  C125  1  0.882700  0.867000  0.642900  1.0  -0.0053
  C  C126  1  0.039100  0.825900  0.616000  1.0  -0.1933
  C  C127  1  0.068200  0.759600  0.629300  1.0  -0.0082
  C  C128  1  0.948900  0.736500  0.670400  1.0  -0.1379
  C  C129  1  0.797300  0.778600  0.700500  1.0  0.0919
  C  C130  1  0.763400  0.842000  0.684300  1.0  -0.1428
  C  C131  1  0.302800  0.548270  0.303270  1.0  -0.1485
  C  C132  1  0.360900  0.963110  0.382010  1.0  0.6765
  C  C133  1  0.685400  0.626200  0.031400  1.0  0.7005
  C  C134  1  0.948600  0.710010  0.078210  1.0  -0.0325
  C  C135  1  0.768400  0.701000  0.050300  1.0  -0.1486
  C  C136  1  0.677800  0.760300  0.041500  1.0  -0.0142
  C  C137  1  0.172400  0.645000  0.923300  1.0  0.681
  C  C138  1  0.160100  0.918300  0.056500  1.0  0.6873
  C  C139  1  0.886400  0.980600  0.125700  1.0  0.6944
  C  C140  1  0.552300  0.810600  0.795500  1.0  0.6988
  C  C141  1  0.278400  0.947580  0.312180  1.0  -0.1456
  C  C142  1  0.098400  0.921200  0.299400  1.0  -0.0107
  C  C143  1  0.024200  0.915770  0.114570  1.0  -0.3088
  C  C144  1  0.931200  0.840430  0.091630  1.0  0.0686
  C  C145  1  0.124700  0.925940  0.183240  1.0  0.0747
  C  C146  1  0.025700  0.779700  0.098400  1.0  -0.1401
  C  C147  1  0.755600  0.830600  0.062800  1.0  -0.1449
  C  C148  1  0.380500  0.963400  0.260800  1.0  -0.017
  C  C149  1  0.024000  0.909200  0.235800  1.0  -0.14
  C  C150  1  0.882700  0.633000  0.857100  1.0  -0.0096
  C  C151  1  0.039100  0.674100  0.884000  1.0  -0.1935
  C  C152  1  0.068200  0.740400  0.870700  1.0  -0.0112
  C  C153  1  0.948900  0.763500  0.829600  1.0  -0.1379
  C  C154  1  0.797300  0.721400  0.799500  1.0  0.092
  C  C155  1  0.763400  0.658000  0.815700  1.0  -0.1423
  C  C156  1  0.302800  0.951730  0.196730  1.0  -0.1484
  C  C157  1  0.324400  0.250000  0.250000  1.0  -0.311
  C  C158  1  0.675600  0.750000  0.750000  1.0  -0.3123
  O  O159  1  0.734500  0.445940  0.927140  1.0  -0.5662
  O  O160  1  0.484400  0.494490  0.891790  1.0  -0.5855
  O  O161  1  0.473400  0.117280  0.503620  1.0  -0.6613
  O  O162  1  0.226800  0.075410  0.543240  1.0  -0.5654
  O  O163  1  0.683500  0.187130  0.443530  1.0  -0.5025
  O  O164  1  0.847500  0.086510  0.435690  1.0  -0.5141
  O  O165  1  0.734500  0.054060  0.572860  1.0  -0.566
  O  O166  1  0.484400  0.005510  0.608210  1.0  -0.5849
  O  O167  1  0.473400  0.382720  0.996380  1.0  -0.6624
  O  O168  1  0.226800  0.424590  0.956760  1.0  -0.5647
  O  O169  1  0.683500  0.312870  0.056470  1.0  -0.5011
  O  O170  1  0.847500  0.413490  0.064310  1.0  -0.5149
  O  O171  1  0.265500  0.554060  0.072860  1.0  -0.566
  O  O172  1  0.515600  0.505510  0.108210  1.0  -0.5855
  O  O173  1  0.526600  0.882720  0.496380  1.0  -0.6622
  O  O174  1  0.773200  0.924590  0.456760  1.0  -0.5648
  O  O175  1  0.316500  0.812870  0.556470  1.0  -0.5019
  O  O176  1  0.152500  0.913490  0.564310  1.0  -0.515
  O  O177  1  0.265500  0.945940  0.427140  1.0  -0.5664
  O  O178  1  0.515600  0.994490  0.391790  1.0  -0.5857
  O  O179  1  0.526600  0.617280  0.003620  1.0  -0.6615
  O  O180  1  0.773200  0.575410  0.043240  1.0  -0.5654
  O  O181  1  0.316500  0.687130  0.943530  1.0  -0.5024
  O  O182  1  0.152500  0.586510  0.935690  1.0  -0.5138
  F  F183  1  0.701000  0.371940  0.551590  1.0  -0.184
  F  F184  1  0.924900  0.400260  0.496450  1.0  -0.2002
  F  F185  1  0.765000  0.484160  0.564670  1.0  -0.2029
  F  F186  1  0.184700  0.486730  0.567770  1.0  -0.2014
  F  F187  1  0.251400  0.474580  0.665580  1.0  -0.1769
  F  F188  1  0.029700  0.544360  0.656180  1.0  -0.2065
  F  F189  1  0.353800  0.371030  0.325230  1.0  -0.1771
  F  F190  1  0.588500  0.330430  0.259980  1.0  -0.212
  F  F191  1  0.525500  0.288960  0.346510  1.0  -0.2035
  F  F192  1  0.701000  0.128060  0.948410  1.0  -0.1845
  F  F193  1  0.924900  0.099740  0.003550  1.0  -0.2001
  F  F194  1  0.765000  0.015840  0.935330  1.0  -0.202
  F  F195  1  0.184700  0.013270  0.932230  1.0  -0.2014
  F  F196  1  0.251400  0.025420  0.834420  1.0  -0.1766
  F  F197  1  0.029700  0.955640  0.843820  1.0  -0.2068
  F  F198  1  0.353800  0.128970  0.174770  1.0  -0.1777
  F  F199  1  0.588500  0.169570  0.240020  1.0  -0.2115
  F  F200  1  0.525500  0.211040  0.153490  1.0  -0.2028
  F  F201  1  0.299000  0.628060  0.448410  1.0  -0.1847
  F  F202  1  0.075100  0.599740  0.503550  1.0  -0.2003
  F  F203  1  0.235000  0.515840  0.435330  1.0  -0.2022
  F  F204  1  0.815300  0.513270  0.432230  1.0  -0.2014
  F  F205  1  0.748600  0.525420  0.334420  1.0  -0.1767
  F  F206  1  0.970300  0.455640  0.343820  1.0  -0.2069
  F  F207  1  0.646200  0.628970  0.674770  1.0  -0.1774
  F  F208  1  0.411500  0.669570  0.740020  1.0  -0.2121
  F  F209  1  0.474500  0.711040  0.653490  1.0  -0.2023
  F  F210  1  0.299000  0.871940  0.051590  1.0  -0.1846
  F  F211  1  0.075100  0.900260  0.996450  1.0  -0.2001
  F  F212  1  0.235000  0.984160  0.064670  1.0  -0.2025
  F  F213  1  0.815300  0.986730  0.067770  1.0  -0.2015
  F  F214  1  0.748600  0.974580  0.165580  1.0  -0.1769
  F  F215  1  0.970300  0.044360  0.156180  1.0  -0.207
  F  F216  1  0.646200  0.871030  0.825230  1.0  -0.1771
  F  F217  1  0.411500  0.830430  0.759980  1.0  -0.2129
  F  F218  1  0.474500  0.788960  0.846510  1.0  -0.2034
