# generated using pymatgen
data_K2Mn2H36WC32(N2O)6
_symmetry_space_group_name_H-M   'P 1'
_cell_length_a   10.79900000
_cell_length_b   10.79900000
_cell_length_c   20.89700000
_cell_angle_alpha   90.00000000
_cell_angle_beta   90.00000000
_cell_angle_gamma   90.00000000
_symmetry_Int_Tables_number   1
_chemical_formula_structural   K2Mn2H36WC32(N2O)6
_chemical_formula_sum   'K4 Mn4 H72 W2 C64 N24 O12'
_cell_volume   2436.97472570
_cell_formula_units_Z   2
loop_
 _symmetry_equiv_pos_site_id
 _symmetry_equiv_pos_as_xyz
  1  'x, y, z'
loop_
 _atom_site_type_symbol
 _atom_site_label
 _atom_site_symmetry_multiplicity
 _atom_site_fract_x
 _atom_site_fract_y
 _atom_site_fract_z
 _atom_site_occupancy
 _atom_site_charge
  K  K1  1  0.970300  0.299300  0.500000  1.0  0.9638
  K  K2  1  0.029700  0.700700  0.500000  1.0  0.9638
  K  K3  1  0.700700  0.970300  0.000000  1.0  0.9619
  K  K4  1  0.299300  0.029700  0.000000  1.0  0.9639
  Mn  Mn5  1  0.500000  0.000000  0.706680  1.0  0.9373
  Mn  Mn6  1  0.000000  0.500000  0.206680  1.0  0.9373
  Mn  Mn7  1  0.500000  0.000000  0.293320  1.0  0.9338
  Mn  Mn8  1  0.000000  0.500000  0.793320  1.0  0.9338
  H  H9  1  0.719000  0.351000  0.708000  1.0  -0.0626
  H  H10  1  0.618000  0.236900  0.556700  1.0  0.0973
  H  H11  1  0.740000  0.279300  0.590900  1.0  0.1258
  H  H12  1  0.622600  0.364600  0.592300  1.0  0.1252
  H  H13  1  0.600100  0.254800  0.867900  1.0  0.1163
  H  H14  1  0.598700  0.376300  0.826900  1.0  0.117
  H  H15  1  0.721900  0.301100  0.834900  1.0  0.1237
  H  H16  1  0.545900  0.093800  0.873700  1.0  0.0874
  H  H17  1  0.410400  0.084200  0.847100  1.0  0.089
  H  H18  1  0.281000  0.649000  0.708000  1.0  -0.0613
  H  H19  1  0.382000  0.763100  0.556700  1.0  0.0966
  H  H20  1  0.260000  0.720700  0.590900  1.0  0.1273
  H  H21  1  0.377400  0.635400  0.592300  1.0  0.1248
  H  H22  1  0.399900  0.745200  0.867900  1.0  0.117
  H  H23  1  0.401300  0.623700  0.826900  1.0  0.1155
  H  H24  1  0.278100  0.698900  0.834900  1.0  0.1248
  H  H25  1  0.454100  0.906200  0.873700  1.0  0.087
  H  H26  1  0.589600  0.915800  0.847100  1.0  0.091
  H  H27  1  0.649000  0.719000  0.208000  1.0  -0.0629
  H  H28  1  0.763100  0.618000  0.056700  1.0  0.0977
  H  H29  1  0.720700  0.740000  0.090900  1.0  0.1321
  H  H30  1  0.635400  0.622600  0.092300  1.0  0.1195
  H  H31  1  0.745200  0.600100  0.367900  1.0  0.1155
  H  H32  1  0.623700  0.598700  0.326900  1.0  0.1134
  H  H33  1  0.698900  0.721900  0.334900  1.0  0.1235
  H  H34  1  0.906200  0.545900  0.373700  1.0  0.0859
  H  H35  1  0.915800  0.410400  0.347100  1.0  0.0886
  H  H36  1  0.351000  0.281000  0.208000  1.0  -0.063
  H  H37  1  0.236900  0.382000  0.056700  1.0  0.0972
  H  H38  1  0.279300  0.260000  0.090900  1.0  0.1283
  H  H39  1  0.364600  0.377400  0.092300  1.0  0.1175
  H  H40  1  0.254800  0.399900  0.367900  1.0  0.116
  H  H41  1  0.376300  0.401300  0.326900  1.0  0.1151
  H  H42  1  0.301100  0.278100  0.334900  1.0  0.1226
  H  H43  1  0.093800  0.454100  0.373700  1.0  0.0857
  H  H44  1  0.084200  0.589600  0.347100  1.0  0.0903
  H  H45  1  0.281000  0.649000  0.292000  1.0  -0.0609
  H  H46  1  0.382000  0.763100  0.443300  1.0  0.0979
  H  H47  1  0.260000  0.720700  0.409100  1.0  0.1275
  H  H48  1  0.377400  0.635400  0.407700  1.0  0.1249
  H  H49  1  0.399900  0.745200  0.132100  1.0  0.117
  H  H50  1  0.401300  0.623700  0.173100  1.0  0.1153
  H  H51  1  0.278100  0.698900  0.165100  1.0  0.1239
  H  H52  1  0.454100  0.906200  0.126300  1.0  0.0863
  H  H53  1  0.589600  0.915800  0.152900  1.0  0.0904
  H  H54  1  0.719000  0.351000  0.292000  1.0  -0.0624
  H  H55  1  0.618000  0.236900  0.443300  1.0  0.0979
  H  H56  1  0.740000  0.279300  0.409100  1.0  0.1257
  H  H57  1  0.622600  0.364600  0.407700  1.0  0.1245
  H  H58  1  0.600100  0.254800  0.132100  1.0  0.1174
  H  H59  1  0.598700  0.376300  0.173100  1.0  0.1173
  H  H60  1  0.721900  0.301100  0.165100  1.0  0.1264
  H  H61  1  0.545900  0.093800  0.126300  1.0  0.0872
  H  H62  1  0.410400  0.084200  0.152900  1.0  0.0879
  H  H63  1  0.351000  0.281000  0.792000  1.0  -0.0628
  H  H64  1  0.236900  0.382000  0.943300  1.0  0.0986
  H  H65  1  0.279300  0.260000  0.909100  1.0  0.1286
  H  H66  1  0.364600  0.377400  0.907700  1.0  0.1159
  H  H67  1  0.254800  0.399900  0.632100  1.0  0.116
  H  H68  1  0.376300  0.401300  0.673100  1.0  0.1158
  H  H69  1  0.301100  0.278100  0.665100  1.0  0.1227
  H  H70  1  0.093800  0.454100  0.626300  1.0  0.0852
  H  H71  1  0.084200  0.589600  0.652900  1.0  0.0905
  H  H72  1  0.649000  0.719000  0.792000  1.0  -0.0625
  H  H73  1  0.763100  0.618000  0.943300  1.0  0.0986
  H  H74  1  0.720700  0.740000  0.909100  1.0  0.1309
  H  H75  1  0.635400  0.622600  0.907700  1.0  0.1203
  H  H76  1  0.745200  0.600100  0.632100  1.0  0.1163
  H  H77  1  0.623700  0.598700  0.673100  1.0  0.1124
  H  H78  1  0.698900  0.721900  0.665100  1.0  0.1253
  H  H79  1  0.906200  0.545900  0.626300  1.0  0.0862
  H  H80  1  0.915800  0.410400  0.652900  1.0  0.0879
  W  W81  1  0.000000  0.000000  0.750000  1.0  0.0984
  W  W82  1  0.000000  0.000000  0.250000  1.0  0.0984
  C  C83  1  0.984900  0.116500  0.667000  1.0  0.1362
  C  C84  1  0.194000  0.030200  0.721000  1.0  0.1452
  C  C85  1  0.608800  0.218500  0.653800  1.0  0.323
  C  C86  1  0.643300  0.263300  0.711600  1.0  0.3451
  C  C87  1  0.651200  0.280500  0.592900  1.0  -0.4257
  C  C88  1  0.601900  0.219600  0.771500  1.0  0.1619
  C  C89  1  0.633600  0.294900  0.830800  1.0  -0.3744
  C  C90  1  0.495700  0.060500  0.839200  1.0  0.0088
  C  C91  1  0.015100  0.883500  0.667000  1.0  0.1366
  C  C92  1  0.806000  0.969800  0.721000  1.0  0.1443
  C  C93  1  0.391200  0.781500  0.653800  1.0  0.3247
  C  C94  1  0.356700  0.736700  0.711600  1.0  0.3455
  C  C95  1  0.348800  0.719500  0.592900  1.0  -0.4255
  C  C96  1  0.398100  0.780400  0.771500  1.0  0.1621
  C  C97  1  0.366400  0.705100  0.830800  1.0  -0.3756
  C  C98  1  0.504300  0.939500  0.839200  1.0  0.0065
  C  C99  1  0.883500  0.984900  0.167000  1.0  0.1364
  C  C100  1  0.969800  0.194000  0.221000  1.0  0.1442
  C  C101  1  0.781500  0.608800  0.153800  1.0  0.3233
  C  C102  1  0.736700  0.643300  0.211600  1.0  0.3456
  C  C103  1  0.719500  0.651200  0.092900  1.0  -0.4261
  C  C104  1  0.780400  0.601900  0.271500  1.0  0.1602
  C  C105  1  0.705100  0.633600  0.330800  1.0  -0.3732
  C  C106  1  0.939500  0.495700  0.339200  1.0  0.0077
  C  C107  1  0.116500  0.015100  0.167000  1.0  0.1363
  C  C108  1  0.030200  0.806000  0.221000  1.0  0.1443
  C  C109  1  0.218500  0.391200  0.153800  1.0  0.3229
  C  C110  1  0.263300  0.356700  0.211600  1.0  0.3443
  C  C111  1  0.280500  0.348800  0.092900  1.0  -0.4248
  C  C112  1  0.219600  0.398100  0.271500  1.0  0.1616
  C  C113  1  0.294900  0.366400  0.330800  1.0  -0.3737
  C  C114  1  0.060500  0.504300  0.339200  1.0  0.0079
  C  C115  1  0.015100  0.883500  0.333000  1.0  0.1338
  C  C116  1  0.806000  0.969800  0.279000  1.0  0.1444
  C  C117  1  0.391200  0.781500  0.346200  1.0  0.3237
  C  C118  1  0.356700  0.736700  0.288400  1.0  0.346
  C  C119  1  0.348800  0.719500  0.407100  1.0  -0.4249
  C  C120  1  0.398100  0.780400  0.228500  1.0  0.1619
  C  C121  1  0.366400  0.705100  0.169200  1.0  -0.3735
  C  C122  1  0.504300  0.939500  0.160800  1.0  0.005
  C  C123  1  0.984900  0.116500  0.333000  1.0  0.1349
  C  C124  1  0.194000  0.030200  0.279000  1.0  0.1449
  C  C125  1  0.608800  0.218500  0.346200  1.0  0.323
  C  C126  1  0.643300  0.263300  0.288400  1.0  0.346
  C  C127  1  0.651200  0.280500  0.407100  1.0  -0.4251
  C  C128  1  0.601900  0.219600  0.228500  1.0  0.1616
  C  C129  1  0.633600  0.294900  0.169200  1.0  -0.3747
  C  C130  1  0.495700  0.060500  0.160800  1.0  0.0038
  C  C131  1  0.116500  0.015100  0.833000  1.0  0.135
  C  C132  1  0.030200  0.806000  0.779000  1.0  0.1445
  C  C133  1  0.218500  0.391200  0.846200  1.0  0.3222
  C  C134  1  0.263300  0.356700  0.788400  1.0  0.3449
  C  C135  1  0.280500  0.348800  0.907100  1.0  -0.4248
  C  C136  1  0.219600  0.398100  0.728500  1.0  0.1611
  C  C137  1  0.294900  0.366400  0.669200  1.0  -0.3729
  C  C138  1  0.060500  0.504300  0.660800  1.0  0.0066
  C  C139  1  0.883500  0.984900  0.833000  1.0  0.1341
  C  C140  1  0.969800  0.194000  0.779000  1.0  0.1442
  C  C141  1  0.781500  0.608800  0.846200  1.0  0.3233
  C  C142  1  0.736700  0.643300  0.788400  1.0  0.3463
  C  C143  1  0.719500  0.651200  0.907100  1.0  -0.4243
  C  C144  1  0.780400  0.601900  0.728500  1.0  0.1599
  C  C145  1  0.705100  0.633600  0.669200  1.0  -0.3716
  C  C146  1  0.939500  0.495700  0.660800  1.0  0.0028
  N  N147  1  0.289700  0.050200  0.707800  1.0  -0.4281
  N  N148  1  0.974700  0.174400  0.621700  1.0  -0.4732
  N  N149  1  0.536500  0.114000  0.778700  1.0  -0.3997
  N  N150  1  0.710300  0.949800  0.707800  1.0  -0.4304
  N  N151  1  0.025300  0.825600  0.621700  1.0  -0.4745
  N  N152  1  0.463500  0.886000  0.778700  1.0  -0.4003
  N  N153  1  0.949800  0.289700  0.207800  1.0  -0.4291
  N  N154  1  0.825600  0.974700  0.121700  1.0  -0.4741
  N  N155  1  0.886000  0.536500  0.278700  1.0  -0.4003
  N  N156  1  0.050200  0.710300  0.207800  1.0  -0.4288
  N  N157  1  0.174400  0.025300  0.121700  1.0  -0.4768
  N  N158  1  0.114000  0.463500  0.278700  1.0  -0.3997
  N  N159  1  0.710300  0.949800  0.292200  1.0  -0.4301
  N  N160  1  0.025300  0.825600  0.378300  1.0  -0.4754
  N  N161  1  0.463500  0.886000  0.221300  1.0  -0.3988
  N  N162  1  0.289700  0.050200  0.292200  1.0  -0.4295
  N  N163  1  0.974700  0.174400  0.378300  1.0  -0.475
  N  N164  1  0.536500  0.114000  0.221300  1.0  -0.3976
  N  N165  1  0.050200  0.710300  0.792200  1.0  -0.4306
  N  N166  1  0.174400  0.025300  0.878300  1.0  -0.4777
  N  N167  1  0.114000  0.463500  0.721300  1.0  -0.3977
  N  N168  1  0.949800  0.289700  0.792200  1.0  -0.4305
  N  N169  1  0.825600  0.974700  0.878300  1.0  -0.4748
  N  N170  1  0.886000  0.536500  0.721300  1.0  -0.3986
  O  O171  1  0.538700  0.119400  0.644600  1.0  -0.5662
  O  O172  1  0.461300  0.880600  0.644600  1.0  -0.5652
  O  O173  1  0.880600  0.538700  0.144600  1.0  -0.5652
  O  O174  1  0.119400  0.461300  0.144600  1.0  -0.5636
  O  O175  1  0.461300  0.880600  0.355400  1.0  -0.5629
  O  O176  1  0.538700  0.119400  0.355400  1.0  -0.564
  O  O177  1  0.119400  0.461300  0.855400  1.0  -0.5626
  O  O178  1  0.880600  0.538700  0.855400  1.0  -0.5625
  O  O179  1  0.835000  0.525000  0.500000  1.0  -0.4793
  O  O180  1  0.165000  0.475000  0.500000  1.0  -0.4815
  O  O181  1  0.475000  0.835000  0.000000  1.0  -0.4795
  O  O182  1  0.525000  0.165000  0.000000  1.0  -0.4808
