# generated using pymatgen
data_LiZnH3(C3O2)3
_symmetry_space_group_name_H-M   'P 1'
_cell_length_a   10.78330000
_cell_length_b   16.63320000
_cell_length_c   16.63320000
_cell_angle_alpha   90.00000000
_cell_angle_beta   90.00000000
_cell_angle_gamma   90.00000000
_symmetry_Int_Tables_number   1
_chemical_formula_structural   LiZnH3(C3O2)3
_chemical_formula_sum   'Li8 Zn8 H24 C72 O48'
_cell_volume   2983.34381838
_cell_formula_units_Z   8
loop_
 _symmetry_equiv_pos_site_id
 _symmetry_equiv_pos_as_xyz
  1  'x, y, z'
loop_
 _atom_site_type_symbol
 _atom_site_label
 _atom_site_symmetry_multiplicity
 _atom_site_fract_x
 _atom_site_fract_y
 _atom_site_fract_z
 _atom_site_occupancy
 _atom_site_charge
  Li  Li1  1  0.060700  0.744200  0.432400  1.0  0.9356
  Li  Li2  1  0.560700  0.255800  0.567600  1.0  0.935
  Li  Li3  1  0.810700  0.067600  0.244200  1.0  0.9209
  Li  Li4  1  0.310700  0.932400  0.755800  1.0  0.9201
  Li  Li5  1  0.689300  0.755800  0.932400  1.0  0.93
  Li  Li6  1  0.189300  0.244200  0.067600  1.0  0.9313
  Li  Li7  1  0.939300  0.432400  0.744200  1.0  0.9156
  Li  Li8  1  0.439300  0.567600  0.255800  1.0  0.9154
  Zn  Zn9  1  0.149590  0.847900  0.585200  1.0  1.0488
  Zn  Zn10  1  0.649590  0.152100  0.414800  1.0  1.0489
  Zn  Zn11  1  0.899590  0.914800  0.347900  1.0  1.0493
  Zn  Zn12  1  0.399590  0.085200  0.652100  1.0  1.0493
  Zn  Zn13  1  0.600410  0.652100  0.085200  1.0  1.049
  Zn  Zn14  1  0.100410  0.347900  0.914800  1.0  1.0494
  Zn  Zn15  1  0.850410  0.585200  0.847900  1.0  1.0498
  Zn  Zn16  1  0.350410  0.414800  0.152100  1.0  1.0494
  H  H17  1  0.902200  0.749900  0.634100  1.0  0.0981
  H  H18  1  0.626500  0.831200  0.772100  1.0  0.089
  H  H19  1  0.707200  0.944800  0.567100  1.0  0.0987
  H  H20  1  0.402200  0.250100  0.365900  1.0  0.0984
  H  H21  1  0.126500  0.168800  0.227900  1.0  0.0891
  H  H22  1  0.207200  0.055200  0.432900  1.0  0.0985
  H  H23  1  0.652200  0.865900  0.249900  1.0  0.0975
  H  H24  1  0.376500  0.727900  0.331200  1.0  0.0882
  H  H25  1  0.457200  0.932900  0.444800  1.0  0.0981
  H  H26  1  0.152200  0.134100  0.750100  1.0  0.0985
  H  H27  1  0.876500  0.272100  0.668800  1.0  0.088
  H  H28  1  0.957200  0.067100  0.555200  1.0  0.0988
  H  H29  1  0.847800  0.750100  0.134100  1.0  0.0985
  H  H30  1  0.123500  0.668800  0.272100  1.0  0.0892
  H  H31  1  0.042800  0.555200  0.067100  1.0  0.0984
  H  H32  1  0.347800  0.249900  0.865900  1.0  0.0985
  H  H33  1  0.623500  0.331200  0.727900  1.0  0.0891
  H  H34  1  0.542800  0.444800  0.932900  1.0  0.0982
  H  H35  1  0.097800  0.634100  0.749900  1.0  0.0976
  H  H36  1  0.373500  0.772100  0.831200  1.0  0.088
  H  H37  1  0.292800  0.567100  0.944800  1.0  0.0984
  H  H38  1  0.597800  0.365900  0.250100  1.0  0.0979
  H  H39  1  0.873500  0.227900  0.168800  1.0  0.0881
  H  H40  1  0.792800  0.432900  0.055200  1.0  0.0983
  C  C41  1  0.892000  0.855200  0.513600  1.0  0.7191
  C  C42  1  0.787700  0.712100  0.769000  1.0  0.6811
  C  C43  1  0.550500  0.956000  0.690000  1.0  0.6815
  C  C44  1  0.819100  0.849200  0.589100  1.0  -0.1813
  C  C45  1  0.839600  0.787000  0.643800  1.0  -0.0013
  C  C46  1  0.766800  0.780000  0.713000  1.0  -0.1767
  C  C47  1  0.675100  0.835800  0.726200  1.0  0.0364
  C  C48  1  0.652900  0.897700  0.674100  1.0  -0.1686
  C  C49  1  0.723700  0.904100  0.603900  1.0  0.0269
  C  C50  1  0.392000  0.144800  0.486400  1.0  0.7191
  C  C51  1  0.287700  0.287900  0.231000  1.0  0.6808
  C  C52  1  0.050500  0.044000  0.310000  1.0  0.6828
  C  C53  1  0.319100  0.150800  0.410900  1.0  -0.1815
  C  C54  1  0.339600  0.213000  0.356200  1.0  -0.0016
  C  C55  1  0.266800  0.220000  0.287000  1.0  -0.1757
  C  C56  1  0.175100  0.164200  0.273800  1.0  0.0374
  C  C57  1  0.152900  0.102300  0.325900  1.0  -0.1683
  C  C58  1  0.223700  0.095900  0.396100  1.0  0.0275
  C  C59  1  0.642000  0.986400  0.355200  1.0  0.7169
  C  C60  1  0.537700  0.731000  0.212100  1.0  0.6812
  C  C61  1  0.300500  0.810000  0.456000  1.0  0.6813
  C  C62  1  0.569100  0.910900  0.349200  1.0  -0.1801
  C  C63  1  0.589600  0.856200  0.287000  1.0  -0.003
  C  C64  1  0.516800  0.787000  0.280000  1.0  -0.178
  C  C65  1  0.425100  0.773800  0.335800  1.0  0.0378
  C  C66  1  0.402900  0.825900  0.397700  1.0  -0.1695
  C  C67  1  0.473700  0.896100  0.404100  1.0  0.0277
  C  C68  1  0.142000  0.013600  0.644800  1.0  0.7168
  C  C69  1  0.037700  0.269000  0.787900  1.0  0.6813
  C  C70  1  0.800500  0.190000  0.544000  1.0  0.682
  C  C71  1  0.069100  0.089100  0.650800  1.0  -0.1786
  C  C72  1  0.089600  0.143800  0.713000  1.0  -0.0036
  C  C73  1  0.016800  0.213000  0.720000  1.0  -0.1783
  C  C74  1  0.925100  0.226200  0.664200  1.0  0.0385
  C  C75  1  0.902900  0.174100  0.602300  1.0  -0.1692
  C  C76  1  0.973700  0.103900  0.595900  1.0  0.0265
  C  C77  1  0.858000  0.644800  0.013600  1.0  0.7194
  C  C78  1  0.962300  0.787900  0.269000  1.0  0.681
  C  C79  1  0.199500  0.544000  0.190000  1.0  0.6819
  C  C80  1  0.930900  0.650800  0.089100  1.0  -0.1815
  C  C81  1  0.910400  0.713000  0.143800  1.0  -0.0035
  C  C82  1  0.983200  0.720000  0.213000  1.0  -0.1769
  C  C83  1  0.074900  0.664200  0.226200  1.0  0.0368
  C  C84  1  0.097100  0.602300  0.174100  1.0  -0.1682
  C  C85  1  0.026300  0.595900  0.103900  1.0  0.0269
  C  C86  1  0.358000  0.355200  0.986400  1.0  0.7188
  C  C87  1  0.462300  0.212100  0.731000  1.0  0.6805
  C  C88  1  0.699500  0.456000  0.810000  1.0  0.6834
  C  C89  1  0.430900  0.349200  0.910900  1.0  -0.1821
  C  C90  1  0.410400  0.287000  0.856200  1.0  -0.0038
  C  C91  1  0.483200  0.280000  0.787000  1.0  -0.1769
  C  C92  1  0.574900  0.335800  0.773800  1.0  0.0377
  C  C93  1  0.597100  0.397700  0.825900  1.0  -0.1688
  C  C94  1  0.526300  0.404100  0.896100  1.0  0.028
  C  C95  1  0.108000  0.513600  0.855200  1.0  0.716
  C  C96  1  0.212300  0.769000  0.712100  1.0  0.6815
  C  C97  1  0.449500  0.690000  0.956000  1.0  0.6821
  C  C98  1  0.180900  0.589100  0.849200  1.0  -0.1805
  C  C99  1  0.160400  0.643800  0.787000  1.0  -0.0052
  C  C100  1  0.233200  0.713000  0.780000  1.0  -0.1781
  C  C101  1  0.324900  0.726200  0.835800  1.0  0.0384
  C  C102  1  0.347100  0.674100  0.897700  1.0  -0.1701
  C  C103  1  0.276300  0.603900  0.904100  1.0  0.0276
  C  C104  1  0.608000  0.486400  0.144800  1.0  0.718
  C  C105  1  0.712300  0.231000  0.287900  1.0  0.6811
  C  C106  1  0.949500  0.310000  0.044000  1.0  0.6813
  C  C107  1  0.680900  0.410900  0.150800  1.0  -0.1792
  C  C108  1  0.660400  0.356200  0.213000  1.0  -0.0056
  C  C109  1  0.733200  0.287000  0.220000  1.0  -0.1785
  C  C110  1  0.824900  0.273800  0.164200  1.0  0.0388
  C  C111  1  0.847100  0.325900  0.102300  1.0  -0.1692
  C  C112  1  0.776300  0.396100  0.095900  1.0  0.0277
  O  O113  1  0.999800  0.825700  0.511020  1.0  -0.7189
  O  O114  1  0.838100  0.886100  0.454100  1.0  -0.6028
  O  O115  1  0.859900  0.654600  0.750000  1.0  -0.5916
  O  O116  1  0.733100  0.710000  0.834200  1.0  -0.7022
  O  O117  1  0.485900  0.948500  0.751800  1.0  -0.6612
  O  O118  1  0.536000  0.011700  0.636900  1.0  -0.5998
  O  O119  1  0.499800  0.174300  0.488980  1.0  -0.719
  O  O120  1  0.338100  0.113900  0.545900  1.0  -0.6033
  O  O121  1  0.359900  0.345400  0.250000  1.0  -0.593
  O  O122  1  0.233100  0.290000  0.165800  1.0  -0.7007
  O  O123  1  0.985900  0.051500  0.248200  1.0  -0.6587
  O  O124  1  0.036000  0.988300  0.363100  1.0  -0.599
  O  O125  1  0.749800  0.988980  0.325700  1.0  -0.72
  O  O126  1  0.588100  0.045900  0.386100  1.0  -0.6039
  O  O127  1  0.609900  0.750000  0.154600  1.0  -0.592
  O  O128  1  0.483100  0.665800  0.210000  1.0  -0.7032
  O  O129  1  0.235900  0.748200  0.448500  1.0  -0.6602
  O  O130  1  0.286000  0.863100  0.511700  1.0  -0.5975
  O  O131  1  0.249800  0.011020  0.674300  1.0  -0.7196
  O  O132  1  0.088100  0.954100  0.613900  1.0  -0.6034
  O  O133  1  0.109900  0.250000  0.845400  1.0  -0.5909
  O  O134  1  0.983100  0.334200  0.790000  1.0  -0.7027
  O  O135  1  0.735900  0.251800  0.551500  1.0  -0.6571
  O  O136  1  0.786000  0.136900  0.488300  1.0  -0.5978
  O  O137  1  0.750200  0.674300  0.011020  1.0  -0.7181
  O  O138  1  0.911900  0.613900  0.954100  1.0  -0.6028
  O  O139  1  0.890100  0.845400  0.250000  1.0  -0.5939
  O  O140  1  0.016900  0.790000  0.334200  1.0  -0.7035
  O  O141  1  0.264100  0.551500  0.251800  1.0  -0.6595
  O  O142  1  0.214000  0.488300  0.136900  1.0  -0.5993
  O  O143  1  0.250200  0.325700  0.988980  1.0  -0.7185
  O  O144  1  0.411900  0.386100  0.045900  1.0  -0.6027
  O  O145  1  0.390100  0.154600  0.750000  1.0  -0.5933
  O  O146  1  0.516900  0.210000  0.665800  1.0  -0.7038
  O  O147  1  0.764100  0.448500  0.748200  1.0  -0.6588
  O  O148  1  0.714000  0.511700  0.863100  1.0  -0.5996
  O  O149  1  0.000200  0.511020  0.825700  1.0  -0.7198
  O  O150  1  0.161900  0.454100  0.886100  1.0  -0.6032
  O  O151  1  0.140100  0.750000  0.654600  1.0  -0.5931
  O  O152  1  0.266900  0.834200  0.710000  1.0  -0.7045
  O  O153  1  0.514100  0.751800  0.948500  1.0  -0.6557
  O  O154  1  0.464000  0.636900  0.011700  1.0  -0.5993
  O  O155  1  0.500200  0.488980  0.174300  1.0  -0.7193
  O  O156  1  0.661900  0.545900  0.113900  1.0  -0.6039
  O  O157  1  0.640100  0.250000  0.345400  1.0  -0.5931
  O  O158  1  0.766900  0.165800  0.290000  1.0  -0.7055
  O  O159  1  0.014100  0.248200  0.051500  1.0  -0.6579
  O  O160  1  0.964000  0.363100  0.988300  1.0  -0.5977
