# generated using pymatgen
data_CrCo2H28C36N12ClO8
_symmetry_space_group_name_H-M   'P 1'
_cell_length_a   16.02310000
_cell_length_b   16.02310000
_cell_length_c   18.52000000
_cell_angle_alpha   90.00000000
_cell_angle_beta   90.00000000
_cell_angle_gamma   120.00000000
_symmetry_Int_Tables_number   1
_chemical_formula_structural   CrCo2H28C36N12ClO8
_chemical_formula_sum   'Cr3 Co6 H84 C108 N36 Cl3 O24'
_cell_volume   4117.79479477
_cell_formula_units_Z   3
loop_
 _symmetry_equiv_pos_site_id
 _symmetry_equiv_pos_as_xyz
  1  'x, y, z'
loop_
 _atom_site_type_symbol
 _atom_site_label
 _atom_site_symmetry_multiplicity
 _atom_site_fract_x
 _atom_site_fract_y
 _atom_site_fract_z
 _atom_site_occupancy
 _atom_site_charge
  Cr  Cr1  1  0.563270  0.563270  0.833330  1.0  0.4335
  Cr  Cr2  1  0.000000  0.436730  0.166670  1.0  0.4308
  Cr  Cr3  1  0.436730  0.000000  0.500000  1.0  0.4273
  Co  Co4  1  0.780600  0.503220  0.002330  1.0  0.9312
  Co  Co5  1  0.722620  0.219400  0.335660  1.0  0.9313
  Co  Co6  1  0.496780  0.277380  0.669000  1.0  0.9303
  Co  Co7  1  0.277380  0.496780  0.997670  1.0  0.9304
  Co  Co8  1  0.503220  0.780600  0.664340  1.0  0.9295
  Co  Co9  1  0.219400  0.722620  0.331000  1.0  0.9286
  H  H10  1  0.023200  0.618300  0.750900  1.0  0.1234
  H  H11  1  0.983700  0.722100  0.803100  1.0  0.1476
  H  H12  1  0.890100  0.826600  0.938100  1.0  0.1789
  H  H13  1  0.880500  0.790800  0.856300  1.0  0.1641
  H  H14  1  0.981100  0.832200  0.897800  1.0  0.1684
  H  H15  1  0.662700  0.638100  0.080400  1.0  0.2599
  H  H16  1  0.621700  0.491800  0.176000  1.0  0.1539
  H  H17  1  0.580400  0.454600  0.096600  1.0  0.1464
  H  H18  1  0.750600  0.307400  0.101900  1.0  0.1444
  H  H19  1  0.637400  0.234900  0.090100  1.0  0.1431
  H  H20  1  0.802200  0.238300  0.913500  1.0  0.1599
  H  H21  1  0.911200  0.314100  0.892200  1.0  0.1364
  H  H22  1  0.826900  0.283700  0.834100  1.0  0.1622
  H  H23  1  0.958300  0.455100  0.796800  1.0  0.1492
  H  H24  1  0.595100  0.976800  0.084230  1.0  0.1231
  H  H25  1  0.738400  0.016300  0.136430  1.0  0.1461
  H  H26  1  0.936500  0.109900  0.271430  1.0  0.1776
  H  H27  1  0.910300  0.119500  0.189630  1.0  0.1653
  H  H28  1  0.851100  0.018900  0.231130  1.0  0.1727
  H  H29  1  0.975400  0.337300  0.413730  1.0  0.2629
  H  H30  1  0.870100  0.378300  0.509330  1.0  0.1547
  H  H31  1  0.874200  0.419600  0.429930  1.0  0.1457
  H  H32  1  0.556800  0.249400  0.435230  1.0  0.1448
  H  H33  1  0.597500  0.362600  0.423430  1.0  0.142
  H  H34  1  0.436100  0.197800  0.246830  1.0  0.161
  H  H35  1  0.402900  0.088800  0.225530  1.0  0.1373
  H  H36  1  0.456800  0.173100  0.167430  1.0  0.1635
  H  H37  1  0.496800  0.041700  0.130130  1.0  0.149
  H  H38  1  0.381700  0.404900  0.417570  1.0  0.1234
  H  H39  1  0.277900  0.261600  0.469770  1.0  0.1463
  H  H40  1  0.173400  0.063500  0.604770  1.0  0.1792
  H  H41  1  0.209200  0.089700  0.522970  1.0  0.1657
  H  H42  1  0.167800  0.148900  0.564470  1.0  0.1692
  H  H43  1  0.361900  0.024600  0.747070  1.0  0.2629
  H  H44  1  0.508200  0.129900  0.842670  1.0  0.155
  H  H45  1  0.545400  0.125800  0.763270  1.0  0.1462
  H  H46  1  0.692600  0.443200  0.768570  1.0  0.1451
  H  H47  1  0.765100  0.402500  0.756770  1.0  0.1445
  H  H48  1  0.761700  0.563900  0.580170  1.0  0.1599
  H  H49  1  0.685900  0.597100  0.558870  1.0  0.1412
  H  H50  1  0.716300  0.543200  0.500770  1.0  0.1629
  H  H51  1  0.544900  0.503200  0.463470  1.0  0.1496
  H  H52  1  0.404900  0.381700  0.249100  1.0  0.1234
  H  H53  1  0.261600  0.277900  0.196900  1.0  0.1476
  H  H54  1  0.063500  0.173400  0.061900  1.0  0.1782
  H  H55  1  0.089700  0.209200  0.143700  1.0  0.1638
  H  H56  1  0.148900  0.167800  0.102200  1.0  0.1682
  H  H57  1  0.024600  0.361900  0.919600  1.0  0.2623
  H  H58  1  0.129900  0.508200  0.824000  1.0  0.153
  H  H59  1  0.125800  0.545400  0.903400  1.0  0.1465
  H  H60  1  0.443200  0.692600  0.898100  1.0  0.1443
  H  H61  1  0.402500  0.765100  0.909900  1.0  0.1434
  H  H62  1  0.563900  0.761700  0.086500  1.0  0.1608
  H  H63  1  0.597100  0.685900  0.107800  1.0  0.1363
  H  H64  1  0.543200  0.716300  0.165900  1.0  0.1614
  H  H65  1  0.503200  0.544900  0.203200  1.0  0.1492
  H  H66  1  0.618300  0.023200  0.915770  1.0  0.1232
  H  H67  1  0.722100  0.983700  0.863570  1.0  0.1458
  H  H68  1  0.826600  0.890100  0.728570  1.0  0.1778
  H  H69  1  0.790800  0.880500  0.810370  1.0  0.1643
  H  H70  1  0.832200  0.981100  0.768870  1.0  0.172
  H  H71  1  0.638100  0.662700  0.586270  1.0  0.2638
  H  H72  1  0.491800  0.621700  0.490670  1.0  0.1533
  H  H73  1  0.454600  0.580400  0.570070  1.0  0.1466
  H  H74  1  0.307400  0.750600  0.564770  1.0  0.144
  H  H75  1  0.234900  0.637400  0.576570  1.0  0.1432
  H  H76  1  0.238300  0.802200  0.753170  1.0  0.1603
  H  H77  1  0.314100  0.911200  0.774470  1.0  0.1374
  H  H78  1  0.283700  0.826900  0.832570  1.0  0.1634
  H  H79  1  0.455100  0.958300  0.869870  1.0  0.1486
  H  H80  1  0.976800  0.595100  0.582430  1.0  0.1234
  H  H81  1  0.016300  0.738400  0.530230  1.0  0.1462
  H  H82  1  0.109900  0.936500  0.395230  1.0  0.1783
  H  H83  1  0.119500  0.910300  0.477030  1.0  0.1656
  H  H84  1  0.018900  0.851100  0.435530  1.0  0.1691
  H  H85  1  0.337300  0.975400  0.252930  1.0  0.2621
  H  H86  1  0.378300  0.870100  0.157330  1.0  0.1535
  H  H87  1  0.419600  0.874200  0.236730  1.0  0.1459
  H  H88  1  0.249400  0.556800  0.231430  1.0  0.1444
  H  H89  1  0.362600  0.597500  0.243230  1.0  0.145
  H  H90  1  0.197800  0.436100  0.419830  1.0  0.1594
  H  H91  1  0.088800  0.402900  0.441130  1.0  0.1362
  H  H92  1  0.173100  0.456800  0.499230  1.0  0.1617
  H  H93  1  0.041700  0.496800  0.536530  1.0  0.1493
  C  C94  1  0.622100  0.505700  0.903300  1.0  0.0396
  C  C95  1  0.439900  0.507200  0.894600  1.0  0.0396
  C  C96  1  0.622800  0.688100  0.894800  1.0  0.1227
  C  C97  1  0.982000  0.598100  0.791800  1.0  -0.0583
  C  C98  1  0.960900  0.659700  0.823100  1.0  -0.1522
  C  C99  1  0.905800  0.632500  0.884800  1.0  0.159
  C  C100  1  0.881000  0.692800  0.929800  1.0  0.2363
  C  C101  1  0.910900  0.794900  0.903000  1.0  -0.3467
  C  C102  1  0.808800  0.705300  0.041700  1.0  0.0296
  C  C103  1  0.719000  0.633200  0.074700  1.0  0.1167
  C  C104  1  0.636100  0.472500  0.129000  1.0  -0.0741
  C  C105  1  0.646700  0.396100  0.138600  1.0  0.1737
  C  C106  1  0.694300  0.293800  0.071600  1.0  0.0221
  C  C107  1  0.712000  0.280500  0.998400  1.0  0.0223
  C  C108  1  0.829400  0.376700  0.910100  1.0  0.2473
  C  C109  1  0.843600  0.296300  0.885300  1.0  -0.3352
  C  C110  1  0.884100  0.475200  0.877900  1.0  0.1926
  C  C111  1  0.943200  0.499400  0.818900  1.0  -0.1093
  C  C112  1  0.883600  0.377900  0.236630  1.0  0.0362
  C  C113  1  0.067300  0.560100  0.227930  1.0  0.0402
  C  C114  1  0.065300  0.377200  0.228130  1.0  0.1248
  C  C115  1  0.616100  0.018000  0.125130  1.0  -0.0563
  C  C116  1  0.698800  0.039100  0.156430  1.0  -0.1512
  C  C117  1  0.726700  0.094200  0.218130  1.0  0.1604
  C  C118  1  0.811800  0.119000  0.263130  1.0  0.2365
  C  C119  1  0.884000  0.089100  0.236330  1.0  -0.3431
  C  C120  1  0.896500  0.191200  0.375030  1.0  0.0264
  C  C121  1  0.914200  0.281000  0.408030  1.0  0.1155
  C  C122  1  0.836400  0.363900  0.462330  1.0  -0.0721
  C  C123  1  0.749400  0.353300  0.471930  1.0  0.1727
  C  C124  1  0.599500  0.305700  0.404930  1.0  0.0211
  C  C125  1  0.568500  0.288000  0.331730  1.0  0.0235
  C  C126  1  0.547300  0.170600  0.243430  1.0  0.2485
  C  C127  1  0.452700  0.156400  0.218630  1.0  -0.3368
  C  C128  1  0.591100  0.115900  0.211230  1.0  0.1926
  C  C129  1  0.556200  0.056800  0.152230  1.0  -0.1091
  C  C130  1  0.494300  0.116400  0.569970  1.0  0.0373
  C  C131  1  0.492800  0.932700  0.561270  1.0  0.0362
  C  C132  1  0.311900  0.934700  0.561470  1.0  0.1223
  C  C133  1  0.401900  0.383900  0.458470  1.0  -0.0575
  C  C134  1  0.340300  0.301200  0.489770  1.0  -0.1506
  C  C135  1  0.367500  0.273300  0.551470  1.0  0.1607
  C  C136  1  0.307200  0.188200  0.596470  1.0  0.2351
  C  C137  1  0.205100  0.116000  0.569670  1.0  -0.3479
  C  C138  1  0.294700  0.103500  0.708370  1.0  0.0295
  C  C139  1  0.366800  0.085800  0.741370  1.0  0.1167
  C  C140  1  0.527500  0.163600  0.795670  1.0  -0.0732
  C  C141  1  0.603900  0.250600  0.805270  1.0  0.1739
  C  C142  1  0.706200  0.400500  0.738270  1.0  0.0237
  C  C143  1  0.719500  0.431500  0.665070  1.0  0.023
  C  C144  1  0.623300  0.452700  0.576770  1.0  0.2468
  C  C145  1  0.703700  0.547300  0.551970  1.0  -0.3363
  C  C146  1  0.524800  0.408900  0.544570  1.0  0.1917
  C  C147  1  0.500600  0.443800  0.485570  1.0  -0.1089
  C  C148  1  0.116400  0.494300  0.096700  1.0  0.0374
  C  C149  1  0.932700  0.492800  0.105400  1.0  0.0372
  C  C150  1  0.934700  0.311900  0.105200  1.0  0.1234
  C  C151  1  0.383900  0.401900  0.208200  1.0  -0.0559
  C  C152  1  0.301200  0.340300  0.176900  1.0  -0.1518
  C  C153  1  0.273300  0.367500  0.115200  1.0  0.1585
  C  C154  1  0.188200  0.307200  0.070200  1.0  0.2345
  C  C155  1  0.116000  0.205100  0.097000  1.0  -0.3441
  C  C156  1  0.103500  0.294700  0.958300  1.0  0.0302
  C  C157  1  0.085800  0.366800  0.925300  1.0  0.1161
  C  C158  1  0.163600  0.527500  0.871000  1.0  -0.0729
  C  C159  1  0.250600  0.603900  0.861400  1.0  0.1735
  C  C160  1  0.400500  0.706200  0.928400  1.0  0.0212
  C  C161  1  0.431500  0.719500  0.001600  1.0  0.0244
  C  C162  1  0.452700  0.623300  0.089900  1.0  0.2472
  C  C163  1  0.547300  0.703700  0.114700  1.0  -0.3342
  C  C164  1  0.408900  0.524800  0.122100  1.0  0.1924
  C  C165  1  0.443800  0.500600  0.181100  1.0  -0.1101
  C  C166  1  0.505700  0.622100  0.763370  1.0  0.038
  C  C167  1  0.507200  0.439900  0.772070  1.0  0.0384
  C  C168  1  0.688100  0.622800  0.771870  1.0  0.1252
  C  C169  1  0.598100  0.982000  0.874870  1.0  -0.0559
  C  C170  1  0.659700  0.960900  0.843570  1.0  -0.1528
  C  C171  1  0.632500  0.905800  0.781870  1.0  0.1594
  C  C172  1  0.692800  0.881000  0.736870  1.0  0.237
  C  C173  1  0.794900  0.910900  0.763670  1.0  -0.3433
  C  C174  1  0.705300  0.808800  0.624970  1.0  0.0292
  C  C175  1  0.633200  0.719000  0.591970  1.0  0.1132
  C  C176  1  0.472500  0.636100  0.537670  1.0  -0.0727
  C  C177  1  0.396100  0.646700  0.528070  1.0  0.1735
  C  C178  1  0.293800  0.694300  0.595070  1.0  0.0213
  C  C179  1  0.280500  0.712000  0.668270  1.0  0.0248
  C  C180  1  0.376700  0.829400  0.756570  1.0  0.2483
  C  C181  1  0.296300  0.843600  0.781370  1.0  -0.3362
  C  C182  1  0.475200  0.884100  0.788770  1.0  0.1923
  C  C183  1  0.499400  0.943200  0.847770  1.0  -0.1096
  C  C184  1  0.377900  0.883600  0.430030  1.0  0.0346
  C  C185  1  0.560100  0.067300  0.438730  1.0  0.0374
  C  C186  1  0.377200  0.065300  0.438530  1.0  0.1238
  C  C187  1  0.018000  0.616100  0.541530  1.0  -0.056
  C  C188  1  0.039100  0.698800  0.510230  1.0  -0.1503
  C  C189  1  0.094200  0.726700  0.448530  1.0  0.1595
  C  C190  1  0.119000  0.811800  0.403530  1.0  0.2343
  C  C191  1  0.089100  0.884000  0.430330  1.0  -0.3466
  C  C192  1  0.191200  0.896500  0.291630  1.0  0.0292
  C  C193  1  0.281000  0.914200  0.258630  1.0  0.1188
  C  C194  1  0.363900  0.836400  0.204330  1.0  -0.0718
  C  C195  1  0.353300  0.749400  0.194730  1.0  0.1734
  C  C196  1  0.305700  0.599500  0.261730  1.0  0.0225
  C  C197  1  0.288000  0.568500  0.334930  1.0  0.0249
  C  C198  1  0.170600  0.547300  0.423230  1.0  0.2475
  C  C199  1  0.156400  0.452700  0.448030  1.0  -0.334
  C  C200  1  0.115900  0.591100  0.455430  1.0  0.1917
  C  C201  1  0.056800  0.556200  0.514430  1.0  -0.1094
  N  N202  1  0.662400  0.482800  0.941800  1.0  -0.4075
  N  N203  1  0.372100  0.484400  0.928300  1.0  -0.3925
  N  N204  1  0.654700  0.756100  0.929600  1.0  -0.4027
  N  N205  1  0.867700  0.541200  0.910200  1.0  -0.3192
  N  N206  1  0.836900  0.655700  0.987700  1.0  -0.3326
  N  N207  1  0.773800  0.371500  0.962300  1.0  -0.3985
  N  N208  1  0.820400  0.337600  0.275130  1.0  -0.4111
  N  N209  1  0.112300  0.627900  0.261630  1.0  -0.3875
  N  N210  1  0.101400  0.345300  0.262930  1.0  -0.3998
  N  N211  1  0.673500  0.132300  0.243530  1.0  -0.3184
  N  N212  1  0.818800  0.163100  0.321030  1.0  -0.332
  N  N213  1  0.597700  0.226200  0.295630  1.0  -0.3999
  N  N214  1  0.517200  0.179600  0.608470  1.0  -0.4084
  N  N215  1  0.515600  0.887700  0.594970  1.0  -0.389
  N  N216  1  0.243900  0.898600  0.596270  1.0  -0.3992
  N  N217  1  0.458800  0.326500  0.576870  1.0  -0.3202
  N  N218  1  0.344300  0.181200  0.654370  1.0  -0.3288
  N  N219  1  0.628500  0.402300  0.628970  1.0  -0.3989
  N  N220  1  0.179600  0.517200  0.058200  1.0  -0.4087
  N  N221  1  0.887700  0.515600  0.071700  1.0  -0.3928
  N  N222  1  0.898600  0.243900  0.070400  1.0  -0.4006
  N  N223  1  0.326500  0.458800  0.089800  1.0  -0.3204
  N  N224  1  0.181200  0.344300  0.012300  1.0  -0.3315
  N  N225  1  0.402300  0.628500  0.037700  1.0  -0.3991
  N  N226  1  0.482800  0.662400  0.724870  1.0  -0.4099
  N  N227  1  0.484400  0.372100  0.738370  1.0  -0.3877
  N  N228  1  0.756100  0.654700  0.737070  1.0  -0.3994
  N  N229  1  0.541200  0.867700  0.756470  1.0  -0.3204
  N  N230  1  0.655700  0.836900  0.678970  1.0  -0.3328
  N  N231  1  0.371500  0.773800  0.704370  1.0  -0.4
  N  N232  1  0.337600  0.820400  0.391530  1.0  -0.407
  N  N233  1  0.627900  0.112300  0.405030  1.0  -0.3891
  N  N234  1  0.345300  0.101400  0.403730  1.0  -0.3992
  N  N235  1  0.132300  0.673500  0.423130  1.0  -0.3211
  N  N236  1  0.163100  0.818800  0.345630  1.0  -0.3293
  N  N237  1  0.226200  0.597700  0.371030  1.0  -0.3986
  Cl  Cl238  1  0.390100  0.000000  0.000000  1.0  1.4418
  Cl  Cl239  1  0.609900  0.609900  0.333333  1.0  1.4462
  Cl  Cl240  1  0.000000  0.390100  0.666667  1.0  1.4484
  O  O241  1  0.728800  0.560800  0.095400  1.0  -0.5983
  O  O242  1  0.676500  0.377400  0.073800  1.0  -0.4319
  O  O243  1  0.832000  0.271200  0.428730  1.0  -0.6007
  O  O244  1  0.700900  0.323500  0.407130  1.0  -0.4322
  O  O245  1  0.439200  0.168000  0.762070  1.0  -0.6018
  O  O246  1  0.622600  0.299100  0.740470  1.0  -0.4313
  O  O247  1  0.168000  0.439200  0.904600  1.0  -0.5969
  O  O248  1  0.299100  0.622600  0.926200  1.0  -0.4323
  O  O249  1  0.560800  0.728800  0.571270  1.0  -0.6016
  O  O250  1  0.377400  0.676500  0.592870  1.0  -0.4314
  O  O251  1  0.271200  0.832000  0.237930  1.0  -0.5983
  O  O252  1  0.323500  0.700900  0.259530  1.0  -0.4315
  O  O253  1  0.332600  0.991400  0.937400  1.0  -0.5702
  O  O254  1  0.478000  0.083000  0.988200  1.0  -0.5889
  O  O255  1  0.341200  0.008600  0.062600  1.0  -0.5689
  O  O256  1  0.395000  0.917000  0.011800  1.0  -0.5877
  O  O257  1  0.658800  0.667400  0.270730  1.0  -0.5737
  O  O258  1  0.605000  0.522000  0.321530  1.0  -0.585
  O  O259  1  0.667400  0.658800  0.395930  1.0  -0.5745
  O  O260  1  0.522000  0.605000  0.345130  1.0  -0.5834
  O  O261  1  0.008600  0.341200  0.604070  1.0  -0.5745
  O  O262  1  0.917000  0.395000  0.654870  1.0  -0.5836
  O  O263  1  0.991400  0.332600  0.729270  1.0  -0.5735
  O  O264  1  0.083000  0.478000  0.678470  1.0  -0.5856
