# generated using pymatgen
data_Cd3H22C28(N5O6)2
_symmetry_space_group_name_H-M   'P 1'
_cell_length_a   10.19200000
_cell_length_b   11.61100000
_cell_length_c   16.84800000
_cell_angle_alpha   110.04000000
_cell_angle_beta   97.66000000
_cell_angle_gamma   92.04000000
_symmetry_Int_Tables_number   1
_chemical_formula_structural   Cd3H22C28(N5O6)2
_chemical_formula_sum   'Cd6 H44 C56 N20 O24'
_cell_volume   1849.26428145
_cell_formula_units_Z   2
loop_
 _symmetry_equiv_pos_site_id
 _symmetry_equiv_pos_as_xyz
  1  'x, y, z'
loop_
 _atom_site_type_symbol
 _atom_site_label
 _atom_site_symmetry_multiplicity
 _atom_site_fract_x
 _atom_site_fract_y
 _atom_site_fract_z
 _atom_site_occupancy
 _atom_site_charge
  Cd  Cd1  1  0.477900  0.527500  0.868840  1.0  1.0452
  Cd  Cd2  1  0.554350  0.969010  0.254200  1.0  1.0243
  Cd  Cd3  1  0.447900  0.432260  0.589610  1.0  1.0043
  Cd  Cd4  1  0.522100  0.472500  0.131160  1.0  1.0438
  Cd  Cd5  1  0.445650  0.030990  0.745800  1.0  1.0263
  Cd  Cd6  1  0.552100  0.567740  0.410390  1.0  1.0062
  H  H7  1  0.763400  0.305300  0.611700  1.0  0.0855
  H  H8  1  0.960500  0.285600  0.565100  1.0  0.1283
  H  H9  1  0.115300  0.590200  0.772200  1.0  0.127
  H  H10  1  0.913700  0.597400  0.816600  1.0  0.1028
  H  H11  1  0.082200  0.414500  0.986700  1.0  0.1076
  H  H12  1  0.903000  0.291300  0.978500  1.0  0.0781
  H  H13  1  0.907200  0.125800  0.727500  1.0  0.0912
  H  H14  1  0.105100  0.228900  0.739000  1.0  0.1304
  H  H15  1  0.081100  0.083900  0.196100  1.0  0.1045
  H  H16  1  0.273300  0.215400  0.255000  1.0  0.1093
  H  H17  1  0.110200  0.385900  0.464500  1.0  0.103
  H  H18  1  0.918000  0.254400  0.405600  1.0  0.1024
  H  H19  1  0.720000  0.921900  0.092200  1.0  0.3453
  H  H20  1  0.776900  0.843700  0.944300  1.0  0.3589
  H  H21  1  0.702500  0.726300  0.885300  1.0  0.3451
  H  H22  1  0.417000  0.664900  0.141800  1.0  0.3474
  H  H23  1  0.387100  0.584000  0.050200  1.0  0.3593
  H  H24  1  0.331200  0.147800  0.524800  1.0  0.2717
  H  H25  1  0.679200  0.333500  0.457600  1.0  0.3632
  H  H26  1  0.690300  0.226200  0.379600  1.0  0.3366
  H  H27  1  0.270500  0.935500  0.433300  1.0  0.3387
  H  H28  1  0.340200  0.887300  0.357800  1.0  0.3568
  H  H29  1  0.236600  0.694700  0.388300  1.0  0.0854
  H  H30  1  0.039500  0.714400  0.434900  1.0  0.1286
  H  H31  1  0.884700  0.409800  0.227800  1.0  0.1279
  H  H32  1  0.086300  0.402600  0.183400  1.0  0.1029
  H  H33  1  0.917800  0.585500  0.013300  1.0  0.1082
  H  H34  1  0.097000  0.708700  0.021500  1.0  0.0781
  H  H35  1  0.092800  0.874200  0.272500  1.0  0.0911
  H  H36  1  0.894900  0.771100  0.261000  1.0  0.1307
  H  H37  1  0.918900  0.916100  0.803900  1.0  0.1044
  H  H38  1  0.726700  0.784600  0.745000  1.0  0.1088
  H  H39  1  0.889800  0.614100  0.535500  1.0  0.1035
  H  H40  1  0.082000  0.745600  0.594400  1.0  0.1026
  H  H41  1  0.280000  0.078100  0.907800  1.0  0.3443
  H  H42  1  0.223100  0.156300  0.055700  1.0  0.3597
  H  H43  1  0.297500  0.273700  0.114700  1.0  0.3462
  H  H44  1  0.583000  0.335100  0.858200  1.0  0.3488
  H  H45  1  0.612900  0.416000  0.949800  1.0  0.3589
  H  H46  1  0.668800  0.852200  0.475200  1.0  0.2732
  H  H47  1  0.320800  0.666500  0.542400  1.0  0.362
  H  H48  1  0.309700  0.773800  0.620400  1.0  0.3366
  H  H49  1  0.729500  0.064500  0.566700  1.0  0.3388
  H  H50  1  0.659800  0.112700  0.642200  1.0  0.3575
  C  C51  1  0.810000  0.448300  0.720500  1.0  -0.0978
  C  C52  1  0.835000  0.360700  0.645000  1.0  -0.0422
  C  C53  1  0.951000  0.348500  0.615500  1.0  -0.1374
  C  C54  1  0.066000  0.439500  0.666667  1.0  -0.0922
  C  C55  1  0.046000  0.531100  0.740200  1.0  -0.1724
  C  C56  1  0.924000  0.535000  0.766200  1.0  -0.0782
  C  C57  1  0.680000  0.455000  0.750900  1.0  0.6853
  C  C58  1  0.197000  0.428000  0.641400  1.0  0.6884
  C  C59  1  0.113000  0.335600  0.863900  1.0  -0.0846
  C  C60  1  0.049000  0.353000  0.935000  1.0  -0.0917
  C  C61  1  0.939000  0.280300  0.928800  1.0  -0.0739
  C  C62  1  0.877000  0.192800  0.856200  1.0  0.0185
  C  C63  1  0.946000  0.180700  0.780800  1.0  -0.1118
  C  C64  1  0.061000  0.244800  0.786100  1.0  -0.1538
  C  C65  1  0.245000  0.412400  0.866100  1.0  0.6618
  C  C66  1  0.758000  0.124000  0.848100  1.0  0.6201
  C  C67  1  0.980500  0.156100  0.295000  1.0  -0.1473
  C  C68  1  0.086900  0.144400  0.249900  1.0  -0.049
  C  C69  1  0.202100  0.223200  0.285200  1.0  -0.0114
  C  C70  1  0.210800  0.313700  0.365600  1.0  -0.1385
  C  C71  1  0.104300  0.325400  0.410700  1.0  -0.0184
  C  C72  1  0.989200  0.246600  0.375400  1.0  -0.0074
  C  C73  1  0.833000  0.078300  0.253500  1.0  0.5236
  C  C74  1  0.330000  0.406900  0.400700  1.0  0.6657
  C  C75  1  0.652000  0.778300  0.997500  1.0  0.4735
  C  C76  1  0.510000  0.719300  0.070300  1.0  0.4349
  C  C77  1  0.549000  0.201100  0.436300  1.0  0.6199
  C  C78  1  0.398000  0.053400  0.425900  1.0  0.4067
  C  C79  1  0.190000  0.551700  0.279500  1.0  -0.0981
  C  C80  1  0.165000  0.639300  0.355000  1.0  -0.0443
  C  C81  1  0.049000  0.651500  0.384500  1.0  -0.1337
  C  C82  1  0.934000  0.560500  0.333400  1.0  -0.0956
  C  C83  1  0.954000  0.468900  0.259800  1.0  -0.1699
  C  C84  1  0.076000  0.465000  0.233800  1.0  -0.0758
  C  C85  1  0.320000  0.545000  0.249100  1.0  0.6868
  C  C86  1  0.803000  0.572000  0.358600  1.0  0.69
  C  C87  1  0.887000  0.664400  0.136100  1.0  -0.0836
  C  C88  1  0.951000  0.647000  0.065000  1.0  -0.0918
  C  C89  1  0.061000  0.719700  0.071200  1.0  -0.0745
  C  C90  1  0.123000  0.807200  0.143800  1.0  0.0175
  C  C91  1  0.054000  0.819300  0.219200  1.0  -0.1119
  C  C92  1  0.939000  0.755200  0.213900  1.0  -0.1539
  C  C93  1  0.755000  0.587600  0.133900  1.0  0.6612
  C  C94  1  0.242000  0.876000  0.151900  1.0  0.6197
  C  C95  1  0.019500  0.843900  0.705000  1.0  -0.1451
  C  C96  1  0.913100  0.855600  0.750100  1.0  -0.0475
  C  C97  1  0.797900  0.776800  0.714800  1.0  -0.01
  C  C98  1  0.789200  0.686300  0.634400  1.0  -0.1396
  C  C99  1  0.895700  0.674600  0.589300  1.0  -0.0193
  C  C100  1  0.010800  0.753400  0.624600  1.0  -0.0093
  C  C101  1  0.167000  0.921700  0.746500  1.0  0.5248
  C  C102  1  0.670000  0.593100  0.599300  1.0  0.6648
  C  C103  1  0.348000  0.221700  0.002500  1.0  0.4724
  C  C104  1  0.490000  0.280700  0.929700  1.0  0.4355
  C  C105  1  0.451000  0.798900  0.563700  1.0  0.6199
  C  C106  1  0.602000  0.946600  0.574100  1.0  0.4084
  N  N107  1  0.583000  0.822900  0.122800  1.0  -0.3264
  N  N108  1  0.666000  0.856400  0.073600  1.0  -0.1716
  N  N109  1  0.559000  0.686100  0.989500  1.0  -0.4406
  N  N110  1  0.718000  0.783400  0.934900  1.0  -0.7098
  N  N111  1  0.429000  0.648100  0.089600  1.0  -0.6618
  N  N112  1  0.478000  0.245700  0.503000  1.0  -0.3399
  N  N113  1  0.388000  0.146400  0.491100  1.0  -0.1583
  N  N114  1  0.500000  0.081800  0.385500  1.0  -0.5017
  N  N115  1  0.651000  0.260500  0.423000  1.0  -0.6777
  N  N116  1  0.328000  0.946400  0.403000  1.0  -0.6663
  N  N117  1  0.417000  0.177100  0.877200  1.0  -0.3243
  N  N118  1  0.334000  0.143600  0.926400  1.0  -0.174
  N  N119  1  0.441000  0.313900  0.010500  1.0  -0.4409
  N  N120  1  0.282000  0.216600  0.065100  1.0  -0.7089
  N  N121  1  0.571000  0.351900  0.910400  1.0  -0.6624
  N  N122  1  0.522000  0.754300  0.497000  1.0  -0.338
  N  N123  1  0.612000  0.853600  0.508900  1.0  -0.1577
  N  N124  1  0.500000  0.918200  0.614500  1.0  -0.5032
  N  N125  1  0.349000  0.739500  0.577000  1.0  -0.678
  N  N126  1  0.672000  0.053600  0.597000  1.0  -0.6672
  O  O127  1  0.678000  0.532000  0.825200  1.0  -0.6122
  O  O128  1  0.579000  0.385400  0.705800  1.0  -0.7103
  O  O129  1  0.281000  0.524700  0.660100  1.0  -0.6073
  O  O130  1  0.227000  0.323900  0.595600  1.0  -0.6768
  O  O131  1  0.283000  0.501900  0.932600  1.0  -0.6346
  O  O132  1  0.301000  0.386700  0.801700  1.0  -0.5869
  O  O133  1  0.658800  0.113200  0.779700  1.0  -0.631
  O  O134  1  0.744000  0.077500  0.901400  1.0  -0.5328
  O  O135  1  0.771000  0.061600  0.299100  1.0  -0.6048
  O  O136  1  0.836000  0.043000  0.170200  1.0  -0.6073
  O  O137  1  0.414000  0.395300  0.353200  1.0  -0.5581
  O  O138  1  0.341800  0.481500  0.473000  1.0  -0.6481
  O  O139  1  0.322000  0.468000  0.174800  1.0  -0.6123
  O  O140  1  0.421000  0.614600  0.294200  1.0  -0.7107
  O  O141  1  0.719000  0.475300  0.339900  1.0  -0.6074
  O  O142  1  0.773000  0.676100  0.404400  1.0  -0.678
  O  O143  1  0.717000  0.498100  0.067400  1.0  -0.6316
  O  O144  1  0.699000  0.613300  0.198300  1.0  -0.5883
  O  O145  1  0.341200  0.886800  0.220300  1.0  -0.6319
  O  O146  1  0.256000  0.922500  0.098600  1.0  -0.5327
  O  O147  1  0.229000  0.938400  0.700900  1.0  -0.6044
  O  O148  1  0.164000  0.957000  0.829800  1.0  -0.6062
  O  O149  1  0.586000  0.604700  0.646800  1.0  -0.5579
  O  O150  1  0.658200  0.518500  0.527000  1.0  -0.6482
