# generated using pymatgen
data_ZnH3C3(N2O)2
_symmetry_space_group_name_H-M   'P 1'
_cell_length_a   12.95910000
_cell_length_b   13.79710000
_cell_length_c   16.81530000
_cell_angle_alpha   90.00000000
_cell_angle_beta   90.00000000
_cell_angle_gamma   90.00000000
_symmetry_Int_Tables_number   1
_chemical_formula_structural   ZnH3C3(N2O)2
_chemical_formula_sum   'Zn16 H48 C48 N64 O32'
_cell_volume   3006.54198603
_cell_formula_units_Z   16
loop_
 _symmetry_equiv_pos_site_id
 _symmetry_equiv_pos_as_xyz
  1  'x, y, z'
loop_
 _atom_site_type_symbol
 _atom_site_label
 _atom_site_symmetry_multiplicity
 _atom_site_fract_x
 _atom_site_fract_y
 _atom_site_fract_z
 _atom_site_occupancy
 _atom_site_charge
  Zn  Zn1  1  0.426650  0.977540  0.403920  1.0  0.8207
  Zn  Zn2  1  0.476600  0.907140  0.076100  1.0  0.8209
  Zn  Zn3  1  0.573350  0.522460  0.903920  1.0  0.8209
  Zn  Zn4  1  0.523400  0.592860  0.576100  1.0  0.8216
  Zn  Zn5  1  0.926650  0.022460  0.096080  1.0  0.8206
  Zn  Zn6  1  0.976600  0.092860  0.423900  1.0  0.8209
  Zn  Zn7  1  0.073350  0.477540  0.596080  1.0  0.8209
  Zn  Zn8  1  0.023400  0.407140  0.923900  1.0  0.8224
  Zn  Zn9  1  0.573350  0.022460  0.596080  1.0  0.8209
  Zn  Zn10  1  0.523400  0.092860  0.923900  1.0  0.8217
  Zn  Zn11  1  0.426650  0.477540  0.096080  1.0  0.8206
  Zn  Zn12  1  0.476600  0.407140  0.423900  1.0  0.8215
  Zn  Zn13  1  0.073350  0.977540  0.903920  1.0  0.8209
  Zn  Zn14  1  0.023400  0.907140  0.576100  1.0  0.8217
  Zn  Zn15  1  0.926650  0.522460  0.403920  1.0  0.8207
  Zn  Zn16  1  0.976600  0.592860  0.076100  1.0  0.8208
  H  H17  1  0.251800  0.863400  0.501600  1.0  0.0824
  H  H18  1  0.446600  0.195000  0.352900  1.0  0.0846
  H  H19  1  0.172500  0.169300  0.356300  1.0  0.3676
  H  H20  1  0.281700  0.132500  0.341000  1.0  0.3551
  H  H21  1  0.587100  0.237800  0.625300  1.0  0.3647
  H  H22  1  0.564200  0.333400  0.583500  1.0  0.348
  H  H23  1  0.748200  0.636600  0.001600  1.0  0.0818
  H  H24  1  0.553400  0.305000  0.852900  1.0  0.0846
  H  H25  1  0.827500  0.330700  0.856300  1.0  0.3676
  H  H26  1  0.718300  0.367500  0.841000  1.0  0.3559
  H  H27  1  0.412900  0.262200  0.125300  1.0  0.364
  H  H28  1  0.435800  0.166600  0.083500  1.0  0.3487
  H  H29  1  0.751800  0.136600  0.998400  1.0  0.0824
  H  H30  1  0.946600  0.805000  0.147100  1.0  0.0843
  H  H31  1  0.672500  0.830700  0.143700  1.0  0.3674
  H  H32  1  0.781700  0.867500  0.159000  1.0  0.3551
  H  H33  1  0.087100  0.762200  0.874700  1.0  0.3644
  H  H34  1  0.064200  0.666667  0.916500  1.0  0.3487
  H  H35  1  0.248200  0.363400  0.498400  1.0  0.0823
  H  H36  1  0.053400  0.695000  0.647100  1.0  0.0843
  H  H37  1  0.327500  0.669300  0.643700  1.0  0.3677
  H  H38  1  0.218300  0.632500  0.659000  1.0  0.3553
  H  H39  1  0.912900  0.737800  0.374700  1.0  0.3644
  H  H40  1  0.935800  0.833400  0.416500  1.0  0.3484
  H  H41  1  0.748200  0.136600  0.498400  1.0  0.0825
  H  H42  1  0.553400  0.805000  0.647100  1.0  0.0844
  H  H43  1  0.827500  0.830700  0.643700  1.0  0.3677
  H  H44  1  0.718300  0.867500  0.659000  1.0  0.3552
  H  H45  1  0.412900  0.762200  0.374700  1.0  0.3641
  H  H46  1  0.435800  0.666667  0.416500  1.0  0.3488
  H  H47  1  0.251800  0.363400  0.998400  1.0  0.0824
  H  H48  1  0.446600  0.695000  0.147100  1.0  0.0841
  H  H49  1  0.172500  0.669300  0.143700  1.0  0.3675
  H  H50  1  0.281700  0.632500  0.159000  1.0  0.3548
  H  H51  1  0.587100  0.737800  0.874700  1.0  0.3645
  H  H52  1  0.564200  0.833400  0.916500  1.0  0.3485
  H  H53  1  0.248200  0.863400  0.001600  1.0  0.0822
  H  H54  1  0.053400  0.195000  0.852900  1.0  0.0846
  H  H55  1  0.327500  0.169300  0.856300  1.0  0.3676
  H  H56  1  0.218300  0.132500  0.841000  1.0  0.3561
  H  H57  1  0.912900  0.237800  0.125300  1.0  0.3644
  H  H58  1  0.935800  0.333400  0.083500  1.0  0.348
  H  H59  1  0.751800  0.636600  0.501600  1.0  0.0818
  H  H60  1  0.946600  0.305000  0.352900  1.0  0.0845
  H  H61  1  0.672500  0.330700  0.356300  1.0  0.3675
  H  H62  1  0.781700  0.367500  0.341000  1.0  0.3551
  H  H63  1  0.087100  0.262200  0.625300  1.0  0.3642
  H  H64  1  0.064200  0.166600  0.583500  1.0  0.3486
  C  C65  1  0.423500  0.006000  0.223050  1.0  0.5184
  C  C66  1  0.472400  0.909100  0.246420  1.0  0.5164
  C  C67  1  0.202300  0.047500  0.410990  1.0  0.6476
  C  C68  1  0.222100  0.919500  0.478180  1.0  0.2561
  C  C69  1  0.526900  0.220400  0.519920  1.0  0.6328
  C  C70  1  0.471600  0.188000  0.405690  1.0  0.2717
  C  C71  1  0.576500  0.494000  0.723050  1.0  0.5187
  C  C72  1  0.527600  0.590900  0.746420  1.0  0.5174
  C  C73  1  0.797700  0.452500  0.910990  1.0  0.6473
  C  C74  1  0.777900  0.580500  0.978180  1.0  0.2564
  C  C75  1  0.473100  0.279600  0.019920  1.0  0.6327
  C  C76  1  0.528400  0.312000  0.905690  1.0  0.2691
  C  C77  1  0.923500  0.994000  0.276950  1.0  0.5182
  C  C78  1  0.972400  0.090900  0.253580  1.0  0.5169
  C  C79  1  0.702300  0.952500  0.089010  1.0  0.6477
  C  C80  1  0.722100  0.080500  0.021820  1.0  0.2568
  C  C81  1  0.026900  0.779600  0.980080  1.0  0.6325
  C  C82  1  0.971600  0.812000  0.094310  1.0  0.2709
  C  C83  1  0.076500  0.506000  0.776950  1.0  0.5194
  C  C84  1  0.027600  0.409100  0.753580  1.0  0.517
  C  C85  1  0.297700  0.547500  0.589010  1.0  0.6476
  C  C86  1  0.277900  0.419500  0.521820  1.0  0.2571
  C  C87  1  0.973100  0.720400  0.480080  1.0  0.6325
  C  C88  1  0.028400  0.688000  0.594310  1.0  0.2693
  C  C89  1  0.576500  0.994000  0.776950  1.0  0.5191
  C  C90  1  0.527600  0.090900  0.753580  1.0  0.5175
  C  C91  1  0.797700  0.952500  0.589010  1.0  0.6476
  C  C92  1  0.777900  0.080500  0.521820  1.0  0.2576
  C  C93  1  0.473100  0.779600  0.480080  1.0  0.6325
  C  C94  1  0.528400  0.812000  0.594310  1.0  0.269
  C  C95  1  0.423500  0.506000  0.276950  1.0  0.5186
  C  C96  1  0.472400  0.409100  0.253580  1.0  0.5162
  C  C97  1  0.202300  0.547500  0.089010  1.0  0.6478
  C  C98  1  0.222100  0.419500  0.021820  1.0  0.2565
  C  C99  1  0.526900  0.720400  0.980080  1.0  0.6325
  C  C100  1  0.471600  0.688000  0.094310  1.0  0.2713
  C  C101  1  0.076500  0.006000  0.723050  1.0  0.5192
  C  C102  1  0.027600  0.909100  0.746420  1.0  0.5172
  C  C103  1  0.297700  0.047500  0.910990  1.0  0.6475
  C  C104  1  0.277900  0.919500  0.978180  1.0  0.2566
  C  C105  1  0.973100  0.220400  0.019920  1.0  0.6327
  C  C106  1  0.028400  0.188000  0.905690  1.0  0.2694
  C  C107  1  0.923500  0.494000  0.223050  1.0  0.5178
  C  C108  1  0.972400  0.590900  0.246420  1.0  0.5168
  C  C109  1  0.702300  0.452500  0.410990  1.0  0.6474
  C  C110  1  0.722100  0.580500  0.478180  1.0  0.2559
  C  C111  1  0.026900  0.279600  0.519920  1.0  0.6328
  C  C112  1  0.971600  0.312000  0.405690  1.0  0.2715
  N  N113  1  0.273700  0.978530  0.428000  1.0  -0.543
  N  N114  1  0.127100  0.947170  0.491400  1.0  -0.253
  N  N115  1  0.113600  0.031400  0.447640  1.0  -0.3857
  N  N116  1  0.221000  0.125600  0.363900  1.0  -0.7649
  N  N117  1  0.523300  0.123990  0.515370  1.0  -0.3822
  N  N118  1  0.486700  0.104080  0.439600  1.0  -0.2824
  N  N119  1  0.494800  0.263180  0.452760  1.0  -0.5501
  N  N120  1  0.563700  0.269600  0.583710  1.0  -0.7643
  N  N121  1  0.726300  0.521470  0.928000  1.0  -0.5428
  N  N122  1  0.872900  0.552830  0.991400  1.0  -0.2529
  N  N123  1  0.886400  0.468600  0.947640  1.0  -0.3853
  N  N124  1  0.779000  0.374400  0.863900  1.0  -0.7656
  N  N125  1  0.476700  0.376010  0.015370  1.0  -0.3821
  N  N126  1  0.513300  0.395920  0.939600  1.0  -0.282
  N  N127  1  0.505200  0.236820  0.952760  1.0  -0.5501
  N  N128  1  0.436300  0.230400  0.083710  1.0  -0.7647
  N  N129  1  0.773700  0.021470  0.072000  1.0  -0.543
  N  N130  1  0.627100  0.052830  0.008600  1.0  -0.2521
  N  N131  1  0.613600  0.968600  0.052360  1.0  -0.3856
  N  N132  1  0.721000  0.874400  0.136100  1.0  -0.7657
  N  N133  1  0.023300  0.876010  0.984630  1.0  -0.3813
  N  N134  1  0.986700  0.895920  0.060400  1.0  -0.2822
  N  N135  1  0.994800  0.736820  0.047240  1.0  -0.5498
  N  N136  1  0.063700  0.730400  0.916290  1.0  -0.7641
  N  N137  1  0.226300  0.478530  0.572000  1.0  -0.543
  N  N138  1  0.372900  0.447170  0.508600  1.0  -0.2523
  N  N139  1  0.386400  0.531400  0.552360  1.0  -0.3854
  N  N140  1  0.279000  0.625600  0.636100  1.0  -0.7657
  N  N141  1  0.976700  0.623990  0.484630  1.0  -0.3825
  N  N142  1  0.013300  0.604080  0.560400  1.0  -0.2822
  N  N143  1  0.005200  0.763180  0.547240  1.0  -0.5505
  N  N144  1  0.936300  0.769600  0.416290  1.0  -0.7629
  N  N145  1  0.726300  0.021470  0.572000  1.0  -0.5428
  N  N146  1  0.872900  0.052830  0.508600  1.0  -0.2518
  N  N147  1  0.886400  0.968600  0.552360  1.0  -0.3853
  N  N148  1  0.779000  0.874400  0.636100  1.0  -0.766
  N  N149  1  0.476700  0.876010  0.484630  1.0  -0.3816
  N  N150  1  0.513300  0.895920  0.560400  1.0  -0.282
  N  N151  1  0.505200  0.736820  0.547240  1.0  -0.5501
  N  N152  1  0.436300  0.730400  0.416290  1.0  -0.7638
  N  N153  1  0.273700  0.478530  0.072000  1.0  -0.5428
  N  N154  1  0.127100  0.447170  0.008600  1.0  -0.2527
  N  N155  1  0.113600  0.531400  0.052360  1.0  -0.3857
  N  N156  1  0.221000  0.625600  0.136100  1.0  -0.7653
  N  N157  1  0.523300  0.623990  0.984630  1.0  -0.3823
  N  N158  1  0.486700  0.604080  0.060400  1.0  -0.282
  N  N159  1  0.494800  0.763180  0.047240  1.0  -0.5502
  N  N160  1  0.563700  0.769600  0.916290  1.0  -0.7633
  N  N161  1  0.226300  0.978530  0.928000  1.0  -0.5432
  N  N162  1  0.372900  0.947170  0.991400  1.0  -0.2526
  N  N163  1  0.386400  0.031400  0.947640  1.0  -0.3853
  N  N164  1  0.279000  0.125600  0.863900  1.0  -0.7651
  N  N165  1  0.976700  0.123990  0.015370  1.0  -0.3823
  N  N166  1  0.013300  0.104080  0.939600  1.0  -0.2825
  N  N167  1  0.005200  0.263180  0.952760  1.0  -0.5505
  N  N168  1  0.936300  0.269600  0.083710  1.0  -0.7647
  N  N169  1  0.773700  0.521470  0.428000  1.0  -0.543
  N  N170  1  0.627100  0.552830  0.491400  1.0  -0.2535
  N  N171  1  0.613600  0.468600  0.447640  1.0  -0.3855
  N  N172  1  0.721000  0.374400  0.363900  1.0  -0.7656
  N  N173  1  0.023300  0.376010  0.515370  1.0  -0.382
  N  N174  1  0.986700  0.395920  0.439600  1.0  -0.2822
  N  N175  1  0.994800  0.236820  0.452760  1.0  -0.5498
  N  N176  1  0.063700  0.230400  0.583710  1.0  -0.7644
  O  O177  1  0.394700  0.058250  0.279240  1.0  -0.5549
  O  O178  1  0.482500  0.890530  0.318690  1.0  -0.5277
  O  O179  1  0.417200  0.022900  0.149890  1.0  -0.5533
  O  O180  1  0.502500  0.854840  0.191710  1.0  -0.5258
  O  O181  1  0.605300  0.441750  0.779240  1.0  -0.5555
  O  O182  1  0.517500  0.609470  0.818690  1.0  -0.5278
  O  O183  1  0.582800  0.477100  0.649890  1.0  -0.5529
  O  O184  1  0.497500  0.645160  0.691710  1.0  -0.5271
  O  O185  1  0.894700  0.941750  0.220760  1.0  -0.5538
  O  O186  1  0.982500  0.109470  0.181310  1.0  -0.527
  O  O187  1  0.917200  0.977100  0.350110  1.0  -0.5538
  O  O188  1  0.002500  0.145160  0.308290  1.0  -0.5273
  O  O189  1  0.105300  0.558250  0.720760  1.0  -0.5547
  O  O190  1  0.017500  0.390530  0.681310  1.0  -0.527
  O  O191  1  0.082800  0.522900  0.850110  1.0  -0.5537
  O  O192  1  0.997500  0.354840  0.808290  1.0  -0.5272
  O  O193  1  0.605300  0.941750  0.720760  1.0  -0.5545
  O  O194  1  0.517500  0.109470  0.681310  1.0  -0.527
  O  O195  1  0.582800  0.977100  0.850110  1.0  -0.5535
  O  O196  1  0.497500  0.145160  0.808290  1.0  -0.5276
  O  O197  1  0.394700  0.558250  0.220760  1.0  -0.5541
  O  O198  1  0.482500  0.390530  0.181310  1.0  -0.5267
  O  O199  1  0.417200  0.522900  0.350110  1.0  -0.5538
  O  O200  1  0.502500  0.354840  0.308290  1.0  -0.5269
  O  O201  1  0.105300  0.058250  0.779240  1.0  -0.5556
  O  O202  1  0.017500  0.890530  0.818690  1.0  -0.5278
  O  O203  1  0.082800  0.022900  0.649890  1.0  -0.5531
  O  O204  1  0.997500  0.854840  0.691710  1.0  -0.5261
  O  O205  1  0.894700  0.441750  0.279240  1.0  -0.5547
  O  O206  1  0.982500  0.609470  0.318690  1.0  -0.5279
  O  O207  1  0.917200  0.477100  0.149890  1.0  -0.5533
  O  O208  1  0.002500  0.645160  0.191710  1.0  -0.5268
