# generated using pymatgen
data_ZnH3C3(N2O)2
_symmetry_space_group_name_H-M   'P 1'
_cell_length_a   12.96390000
_cell_length_b   13.80340000
_cell_length_c   16.83180000
_cell_angle_alpha   90.00000000
_cell_angle_beta   90.00000000
_cell_angle_gamma   90.00000000
_symmetry_Int_Tables_number   1
_chemical_formula_structural   ZnH3C3(N2O)2
_chemical_formula_sum   'Zn16 H48 C48 N64 O32'
_cell_volume   3011.98155350
_cell_formula_units_Z   16
loop_
 _symmetry_equiv_pos_site_id
 _symmetry_equiv_pos_as_xyz
  1  'x, y, z'
loop_
 _atom_site_type_symbol
 _atom_site_label
 _atom_site_symmetry_multiplicity
 _atom_site_fract_x
 _atom_site_fract_y
 _atom_site_fract_z
 _atom_site_occupancy
 _atom_site_charge
  Zn  Zn1  1  0.976140  0.407410  0.576030  1.0  0.8194
  Zn  Zn2  1  0.926410  0.478010  0.903850  1.0  0.8307
  Zn  Zn3  1  0.023860  0.092590  0.076030  1.0  0.8202
  Zn  Zn4  1  0.073590  0.021990  0.403850  1.0  0.8302
  Zn  Zn5  1  0.476140  0.592590  0.923970  1.0  0.8194
  Zn  Zn6  1  0.426410  0.521990  0.596150  1.0  0.8306
  Zn  Zn7  1  0.523860  0.907410  0.423970  1.0  0.8201
  Zn  Zn8  1  0.573590  0.978010  0.096150  1.0  0.8303
  Zn  Zn9  1  0.023860  0.592590  0.423970  1.0  0.82
  Zn  Zn10  1  0.073590  0.521990  0.096150  1.0  0.8303
  Zn  Zn11  1  0.976140  0.907410  0.923970  1.0  0.8191
  Zn  Zn12  1  0.926410  0.978010  0.596150  1.0  0.8307
  Zn  Zn13  1  0.523860  0.407410  0.076030  1.0  0.82
  Zn  Zn14  1  0.573590  0.478010  0.403850  1.0  0.8302
  Zn  Zn15  1  0.476140  0.092590  0.576030  1.0  0.8192
  Zn  Zn16  1  0.426410  0.021990  0.903850  1.0  0.8307
  H  H17  1  0.950000  0.192000  0.644600  1.0  0.0695
  H  H18  1  0.751000  0.354000  0.503400  1.0  0.1072
  H  H19  1  0.061000  0.243000  0.369000  1.0  0.3449
  H  H20  1  0.058000  0.330000  0.410500  1.0  0.3464
  H  H21  1  0.726000  0.618000  0.324000  1.0  0.345
  H  H22  1  0.838000  0.660000  0.346000  1.0  0.3421
  H  H23  1  0.050000  0.308000  0.144600  1.0  0.0696
  H  H24  1  0.249000  0.146000  0.003400  1.0  0.1066
  H  H25  1  0.939000  0.257000  0.869000  1.0  0.3446
  H  H26  1  0.942000  0.170000  0.910500  1.0  0.3469
  H  H27  1  0.274000  0.882000  0.824000  1.0  0.344
  H  H28  1  0.162000  0.840000  0.846000  1.0  0.3417
  H  H29  1  0.450000  0.808000  0.855400  1.0  0.0675
  H  H30  1  0.251000  0.646000  0.996600  1.0  0.1073
  H  H31  1  0.561000  0.757000  0.131000  1.0  0.3453
  H  H32  1  0.558000  0.670000  0.089500  1.0  0.3473
  H  H33  1  0.226000  0.382000  0.176000  1.0  0.3429
  H  H34  1  0.338000  0.340000  0.154000  1.0  0.3453
  H  H35  1  0.550000  0.692000  0.355400  1.0  0.0676
  H  H36  1  0.749000  0.854000  0.496600  1.0  0.1066
  H  H37  1  0.439000  0.743000  0.631000  1.0  0.3455
  H  H38  1  0.442000  0.830000  0.589500  1.0  0.346
  H  H39  1  0.774000  0.118000  0.676000  1.0  0.3427
  H  H40  1  0.662000  0.160000  0.654000  1.0  0.3409
  H  H41  1  0.050000  0.808000  0.355400  1.0  0.0673
  H  H42  1  0.249000  0.646000  0.496600  1.0  0.1069
  H  H43  1  0.939000  0.757000  0.631000  1.0  0.3451
  H  H44  1  0.942000  0.670000  0.589500  1.0  0.347
  H  H45  1  0.274000  0.382000  0.676000  1.0  0.3424
  H  H46  1  0.162000  0.340000  0.654000  1.0  0.3425
  H  H47  1  0.950000  0.692000  0.855400  1.0  0.0678
  H  H48  1  0.751000  0.854000  0.996600  1.0  0.1068
  H  H49  1  0.061000  0.743000  0.131000  1.0  0.3458
  H  H50  1  0.058000  0.830000  0.089500  1.0  0.3463
  H  H51  1  0.726000  0.118000  0.176000  1.0  0.3434
  H  H52  1  0.838000  0.160000  0.154000  1.0  0.3432
  H  H53  1  0.550000  0.192000  0.144600  1.0  0.0695
  H  H54  1  0.749000  0.354000  0.003400  1.0  0.1071
  H  H55  1  0.439000  0.243000  0.869000  1.0  0.3449
  H  H56  1  0.442000  0.330000  0.910500  1.0  0.3461
  H  H57  1  0.774000  0.618000  0.824000  1.0  0.3442
  H  H58  1  0.662000  0.660000  0.846000  1.0  0.3399
  H  H59  1  0.450000  0.308000  0.644600  1.0  0.0696
  H  H60  1  0.251000  0.146000  0.503400  1.0  0.1068
  H  H61  1  0.561000  0.257000  0.369000  1.0  0.3448
  H  H62  1  0.558000  0.170000  0.410500  1.0  0.3472
  H  H63  1  0.226000  0.882000  0.324000  1.0  0.3443
  H  H64  1  0.338000  0.840000  0.346000  1.0  0.344
  C  C65  1  0.972200  0.409720  0.746060  1.0  0.5287
  C  C66  1  0.922700  0.506990  0.722520  1.0  0.5137
  C  C67  1  0.027900  0.220360  0.479930  1.0  0.641
  C  C68  1  0.971100  0.188200  0.594130  1.0  0.3002
  C  C69  1  0.797900  0.547910  0.410630  1.0  0.6444
  C  C70  1  0.777900  0.418950  0.476970  1.0  0.237
  C  C71  1  0.027800  0.090280  0.246060  1.0  0.5286
  C  C72  1  0.077300  0.993010  0.222520  1.0  0.5141
  C  C73  1  0.972100  0.279640  0.979930  1.0  0.641
  C  C74  1  0.028900  0.311800  0.094130  1.0  0.2984
  C  C75  1  0.202100  0.952090  0.910630  1.0  0.6446
  C  C76  1  0.222100  0.081050  0.976970  1.0  0.2362
  C  C77  1  0.472200  0.590280  0.753940  1.0  0.5281
  C  C78  1  0.422700  0.493010  0.777480  1.0  0.5135
  C  C79  1  0.527900  0.779640  0.020070  1.0  0.6413
  C  C80  1  0.471100  0.811800  0.905870  1.0  0.2984
  C  C81  1  0.297900  0.452090  0.089370  1.0  0.6443
  C  C82  1  0.277900  0.581050  0.023030  1.0  0.2357
  C  C83  1  0.527800  0.909720  0.253940  1.0  0.5286
  C  C84  1  0.577300  0.006990  0.277480  1.0  0.5144
  C  C85  1  0.472100  0.720360  0.520070  1.0  0.6412
  C  C86  1  0.528900  0.688200  0.405870  1.0  0.2966
  C  C87  1  0.702100  0.047910  0.589370  1.0  0.6446
  C  C88  1  0.722100  0.918950  0.523030  1.0  0.2365
  C  C89  1  0.027800  0.590280  0.253940  1.0  0.5284
  C  C90  1  0.077300  0.493010  0.277480  1.0  0.5143
  C  C91  1  0.972100  0.779640  0.520070  1.0  0.6412
  C  C92  1  0.028900  0.811800  0.405870  1.0  0.2965
  C  C93  1  0.202100  0.452090  0.589370  1.0  0.6446
  C  C94  1  0.222100  0.581050  0.523030  1.0  0.2358
  C  C95  1  0.972200  0.909720  0.753940  1.0  0.5282
  C  C96  1  0.922700  0.006990  0.777480  1.0  0.5138
  C  C97  1  0.027900  0.720360  0.020070  1.0  0.6413
  C  C98  1  0.971100  0.688200  0.905870  1.0  0.2986
  C  C99  1  0.797900  0.047910  0.089370  1.0  0.6443
  C  C100  1  0.777900  0.918950  0.023030  1.0  0.2358
  C  C101  1  0.527800  0.409720  0.246060  1.0  0.529
  C  C102  1  0.577300  0.506990  0.222520  1.0  0.5143
  C  C103  1  0.472100  0.220360  0.979930  1.0  0.6409
  C  C104  1  0.528900  0.188200  0.094130  1.0  0.2984
  C  C105  1  0.702100  0.547910  0.910630  1.0  0.6446
  C  C106  1  0.722100  0.418950  0.976970  1.0  0.2376
  C  C107  1  0.472200  0.090280  0.746060  1.0  0.5283
  C  C108  1  0.422700  0.993010  0.722520  1.0  0.5134
  C  C109  1  0.527900  0.279640  0.479930  1.0  0.6411
  C  C110  1  0.471100  0.311800  0.594130  1.0  0.3
  C  C111  1  0.297900  0.952090  0.410630  1.0  0.6443
  C  C112  1  0.277900  0.081050  0.476970  1.0  0.2359
  N  N113  1  0.995020  0.263410  0.547150  1.0  -0.5428
  N  N114  1  0.987060  0.104050  0.560520  1.0  -0.2914
  N  N115  1  0.024960  0.123950  0.485030  1.0  -0.3811
  N  N116  1  0.066500  0.269110  0.416640  1.0  -0.7645
  N  N117  1  0.872910  0.446630  0.490930  1.0  -0.251
  N  N118  1  0.886790  0.531650  0.447740  1.0  -0.3849
  N  N119  1  0.726580  0.478590  0.427130  1.0  -0.5262
  N  N120  1  0.779000  0.626600  0.364400  1.0  -0.7583
  N  N121  1  0.004980  0.236590  0.047150  1.0  -0.5431
  N  N122  1  0.012940  0.395950  0.060520  1.0  -0.292
  N  N123  1  0.975040  0.376050  0.985030  1.0  -0.3805
  N  N124  1  0.933500  0.230890  0.916640  1.0  -0.7653
  N  N125  1  0.127090  0.053370  0.990930  1.0  -0.251
  N  N126  1  0.113210  0.968350  0.947740  1.0  -0.3845
  N  N127  1  0.273420  0.021410  0.927130  1.0  -0.5265
  N  N128  1  0.221000  0.873400  0.864400  1.0  -0.7577
  N  N129  1  0.495020  0.736590  0.952850  1.0  -0.5428
  N  N130  1  0.487060  0.895950  0.939480  1.0  -0.2921
  N  N131  1  0.524960  0.876050  0.014970  1.0  -0.3813
  N  N132  1  0.566500  0.730890  0.083360  1.0  -0.7649
  N  N133  1  0.372910  0.553370  0.009070  1.0  -0.2516
  N  N134  1  0.386790  0.468350  0.052260  1.0  -0.3849
  N  N135  1  0.226580  0.521410  0.072870  1.0  -0.5264
  N  N136  1  0.279000  0.373400  0.135600  1.0  -0.7584
  N  N137  1  0.504980  0.763410  0.452850  1.0  -0.5426
  N  N138  1  0.512940  0.604050  0.439480  1.0  -0.2922
  N  N139  1  0.475040  0.623950  0.514970  1.0  -0.3814
  N  N140  1  0.433500  0.769110  0.583360  1.0  -0.7646
  N  N141  1  0.627090  0.946630  0.509070  1.0  -0.2508
  N  N142  1  0.613210  0.031650  0.552260  1.0  -0.385
  N  N143  1  0.773420  0.978590  0.572870  1.0  -0.5268
  N  N144  1  0.721000  0.126600  0.635600  1.0  -0.758
  N  N145  1  0.004980  0.736590  0.452850  1.0  -0.5428
  N  N146  1  0.012940  0.895950  0.439480  1.0  -0.2921
  N  N147  1  0.975040  0.876050  0.514970  1.0  -0.3815
  N  N148  1  0.933500  0.730890  0.583360  1.0  -0.7643
  N  N149  1  0.127090  0.553370  0.509070  1.0  -0.2505
  N  N150  1  0.113210  0.468350  0.552260  1.0  -0.3848
  N  N151  1  0.273420  0.521410  0.572870  1.0  -0.5268
  N  N152  1  0.221000  0.373400  0.635600  1.0  -0.7578
  N  N153  1  0.995020  0.763410  0.952850  1.0  -0.5426
  N  N154  1  0.987060  0.604050  0.939480  1.0  -0.2919
  N  N155  1  0.024960  0.623950  0.014970  1.0  -0.3811
  N  N156  1  0.066500  0.769110  0.083360  1.0  -0.764
  N  N157  1  0.872910  0.946630  0.009070  1.0  -0.2517
  N  N158  1  0.886790  0.031650  0.052260  1.0  -0.385
  N  N159  1  0.726580  0.978590  0.072870  1.0  -0.5264
  N  N160  1  0.779000  0.126600  0.135600  1.0  -0.7569
  N  N161  1  0.504980  0.263410  0.047150  1.0  -0.5428
  N  N162  1  0.512940  0.104050  0.060520  1.0  -0.2917
  N  N163  1  0.475040  0.123950  0.985030  1.0  -0.3813
  N  N164  1  0.433500  0.269110  0.916640  1.0  -0.7646
  N  N165  1  0.627090  0.446630  0.990930  1.0  -0.2504
  N  N166  1  0.613210  0.531650  0.947740  1.0  -0.3846
  N  N167  1  0.773420  0.478590  0.927130  1.0  -0.5263
  N  N168  1  0.721000  0.626600  0.864400  1.0  -0.7591
  N  N169  1  0.495020  0.236590  0.547150  1.0  -0.5432
  N  N170  1  0.487060  0.395950  0.560520  1.0  -0.292
  N  N171  1  0.524960  0.376050  0.485030  1.0  -0.3804
  N  N172  1  0.566500  0.230890  0.416640  1.0  -0.7641
  N  N173  1  0.372910  0.053370  0.490930  1.0  -0.2519
  N  N174  1  0.386790  0.968350  0.447740  1.0  -0.3848
  N  N175  1  0.226580  0.021410  0.427130  1.0  -0.5262
  N  N176  1  0.279000  0.873400  0.364400  1.0  -0.759
  O  O177  1  0.000690  0.355180  0.691340  1.0  -0.5307
  O  O178  1  0.916060  0.523120  0.649590  1.0  -0.5455
  O  O179  1  0.894250  0.559020  0.778680  1.0  -0.5549
  O  O180  1  0.982480  0.391390  0.818470  1.0  -0.5334
  O  O181  1  0.999310  0.144820  0.191340  1.0  -0.5313
  O  O182  1  0.083940  0.976880  0.149590  1.0  -0.5449
  O  O183  1  0.105750  0.940980  0.278680  1.0  -0.5548
  O  O184  1  0.017520  0.108610  0.318470  1.0  -0.5347
  O  O185  1  0.500690  0.644820  0.808660  1.0  -0.5319
  O  O186  1  0.416060  0.476880  0.850410  1.0  -0.5455
  O  O187  1  0.394250  0.440980  0.721320  1.0  -0.5537
  O  O188  1  0.482480  0.608610  0.681530  1.0  -0.5333
  O  O189  1  0.499310  0.855180  0.308660  1.0  -0.5313
  O  O190  1  0.583940  0.023120  0.350410  1.0  -0.5461
  O  O191  1  0.605750  0.059020  0.221320  1.0  -0.5555
  O  O192  1  0.517520  0.891390  0.181530  1.0  -0.5329
  O  O193  1  0.999310  0.644820  0.308660  1.0  -0.5318
  O  O194  1  0.083940  0.476880  0.350410  1.0  -0.5457
  O  O195  1  0.105750  0.440980  0.221320  1.0  -0.5544
  O  O196  1  0.017520  0.608610  0.181530  1.0  -0.5337
  O  O197  1  0.000690  0.855180  0.808660  1.0  -0.5314
  O  O198  1  0.916060  0.023120  0.850410  1.0  -0.5463
  O  O199  1  0.894250  0.059020  0.721320  1.0  -0.5549
  O  O200  1  0.982480  0.891390  0.681530  1.0  -0.5322
  O  O201  1  0.499310  0.355180  0.191340  1.0  -0.5307
  O  O202  1  0.583940  0.523120  0.149590  1.0  -0.5454
  O  O203  1  0.605750  0.559020  0.278680  1.0  -0.5555
  O  O204  1  0.517520  0.391390  0.318470  1.0  -0.5338
  O  O205  1  0.500690  0.144820  0.691340  1.0  -0.5314
  O  O206  1  0.416060  0.976880  0.649590  1.0  -0.5455
  O  O207  1  0.394250  0.940980  0.778680  1.0  -0.5541
  O  O208  1  0.482480  0.108610  0.818470  1.0  -0.5346
