# generated using pymatgen
data_ZnH3C3(N2O)2
_symmetry_space_group_name_H-M   'P 1'
_cell_length_a   12.93050000
_cell_length_b   13.79610000
_cell_length_c   16.82950000
_cell_angle_alpha   90.00000000
_cell_angle_beta   90.00000000
_cell_angle_gamma   90.00000000
_symmetry_Int_Tables_number   1
_chemical_formula_structural   ZnH3C3(N2O)2
_chemical_formula_sum   'Zn16 H48 C48 N64 O32'
_cell_volume   3002.22243254
_cell_formula_units_Z   16
loop_
 _symmetry_equiv_pos_site_id
 _symmetry_equiv_pos_as_xyz
  1  'x, y, z'
loop_
 _atom_site_type_symbol
 _atom_site_label
 _atom_site_symmetry_multiplicity
 _atom_site_fract_x
 _atom_site_fract_y
 _atom_site_fract_z
 _atom_site_occupancy
 _atom_site_charge
  Zn  Zn1  1  0.475690  0.407300  0.423900  1.0  0.8235
  Zn  Zn2  1  0.427070  0.477930  0.096490  1.0  0.8238
  Zn  Zn3  1  0.524310  0.092700  0.923900  1.0  0.8247
  Zn  Zn4  1  0.572930  0.022070  0.596490  1.0  0.8241
  Zn  Zn5  1  0.975690  0.592700  0.076100  1.0  0.8233
  Zn  Zn6  1  0.927070  0.522070  0.403510  1.0  0.8239
  Zn  Zn7  1  0.024310  0.907300  0.576100  1.0  0.8245
  Zn  Zn8  1  0.072930  0.977930  0.903510  1.0  0.8243
  Zn  Zn9  1  0.524310  0.592700  0.576100  1.0  0.8244
  Zn  Zn10  1  0.572930  0.522070  0.903510  1.0  0.8243
  Zn  Zn11  1  0.475690  0.907300  0.076100  1.0  0.8234
  Zn  Zn12  1  0.427070  0.977930  0.403510  1.0  0.824
  Zn  Zn13  1  0.024310  0.407300  0.923900  1.0  0.8247
  Zn  Zn14  1  0.072930  0.477930  0.596490  1.0  0.8241
  Zn  Zn15  1  0.975690  0.092700  0.423900  1.0  0.8234
  Zn  Zn16  1  0.927070  0.022070  0.096490  1.0  0.8237
  H  H17  1  0.248300  0.362600  0.500400  1.0  0.0817
  H  H18  1  0.444800  0.195000  0.352800  1.0  0.0876
  H  H19  1  0.327800  0.670100  0.644600  1.0  0.3667
  H  H20  1  0.218800  0.632700  0.660500  1.0  0.3542
  H  H21  1  0.588700  0.237900  0.625200  1.0  0.3638
  H  H22  1  0.564500  0.333600  0.584000  1.0  0.3492
  H  H23  1  0.751700  0.137400  0.000400  1.0  0.0818
  H  H24  1  0.555200  0.305000  0.852800  1.0  0.0874
  H  H25  1  0.672200  0.829900  0.144600  1.0  0.3668
  H  H26  1  0.781200  0.867300  0.160500  1.0  0.3543
  H  H27  1  0.411300  0.262100  0.125200  1.0  0.3628
  H  H28  1  0.435500  0.166400  0.084000  1.0  0.3499
  H  H29  1  0.748300  0.637400  0.999600  1.0  0.0815
  H  H30  1  0.944800  0.805000  0.147200  1.0  0.0881
  H  H31  1  0.827800  0.329900  0.855400  1.0  0.3667
  H  H32  1  0.718800  0.367300  0.839500  1.0  0.3545
  H  H33  1  0.088700  0.762100  0.874800  1.0  0.3634
  H  H34  1  0.064500  0.666400  0.916000  1.0  0.3501
  H  H35  1  0.251700  0.862600  0.499600  1.0  0.082
  H  H36  1  0.055200  0.695000  0.647200  1.0  0.0883
  H  H37  1  0.172200  0.170100  0.355400  1.0  0.3668
  H  H38  1  0.281200  0.132700  0.339500  1.0  0.3542
  H  H39  1  0.911300  0.737900  0.374800  1.0  0.363
  H  H40  1  0.935500  0.833600  0.416000  1.0  0.3496
  H  H41  1  0.751700  0.637400  0.499600  1.0  0.0816
  H  H42  1  0.555200  0.805000  0.647200  1.0  0.0882
  H  H43  1  0.672200  0.329900  0.355400  1.0  0.3668
  H  H44  1  0.781200  0.367300  0.339500  1.0  0.3542
  H  H45  1  0.411300  0.762100  0.374800  1.0  0.363
  H  H46  1  0.435500  0.666400  0.416000  1.0  0.3499
  H  H47  1  0.248300  0.862600  0.999600  1.0  0.0818
  H  H48  1  0.444800  0.695000  0.147200  1.0  0.0882
  H  H49  1  0.327800  0.170100  0.855400  1.0  0.3666
  H  H50  1  0.218800  0.132700  0.839500  1.0  0.3547
  H  H51  1  0.588700  0.737900  0.874800  1.0  0.3634
  H  H52  1  0.564500  0.833600  0.916000  1.0  0.3497
  H  H53  1  0.251700  0.362600  0.000400  1.0  0.0818
  H  H54  1  0.055200  0.195000  0.852800  1.0  0.0876
  H  H55  1  0.172200  0.670100  0.144600  1.0  0.3667
  H  H56  1  0.281200  0.632700  0.160500  1.0  0.354
  H  H57  1  0.911300  0.237900  0.125200  1.0  0.3634
  H  H58  1  0.935500  0.333600  0.084000  1.0  0.3491
  H  H59  1  0.748300  0.137400  0.500400  1.0  0.0818
  H  H60  1  0.944800  0.305000  0.352800  1.0  0.0874
  H  H61  1  0.827800  0.829900  0.644600  1.0  0.3671
  H  H62  1  0.718800  0.867300  0.660500  1.0  0.3541
  H  H63  1  0.088700  0.262100  0.625200  1.0  0.3634
  H  H64  1  0.064500  0.166400  0.584000  1.0  0.35
  C  C65  1  0.423100  0.506200  0.277200  1.0  0.51
  C  C66  1  0.473700  0.408700  0.253200  1.0  0.5201
  C  C67  1  0.298400  0.547500  0.589800  1.0  0.6379
  C  C68  1  0.278000  0.419100  0.523200  1.0  0.2716
  C  C69  1  0.527600  0.221200  0.520900  1.0  0.625
  C  C70  1  0.470600  0.188000  0.405300  1.0  0.2667
  C  C71  1  0.576900  0.993800  0.777200  1.0  0.5105
  C  C72  1  0.526300  0.091300  0.753200  1.0  0.5211
  C  C73  1  0.701600  0.952500  0.089800  1.0  0.6377
  C  C74  1  0.722000  0.080900  0.023200  1.0  0.2705
  C  C75  1  0.472400  0.278800  0.020900  1.0  0.625
  C  C76  1  0.529400  0.312000  0.905300  1.0  0.2642
  C  C77  1  0.923100  0.493800  0.222800  1.0  0.5096
  C  C78  1  0.973700  0.591300  0.246800  1.0  0.5209
  C  C79  1  0.798400  0.452500  0.910200  1.0  0.6377
  C  C80  1  0.778000  0.580900  0.976800  1.0  0.2708
  C  C81  1  0.027600  0.778800  0.979100  1.0  0.6244
  C  C82  1  0.970600  0.812000  0.094700  1.0  0.266
  C  C83  1  0.076900  0.006200  0.722800  1.0  0.5104
  C  C84  1  0.026300  0.908700  0.746800  1.0  0.5215
  C  C85  1  0.201600  0.047500  0.410200  1.0  0.6379
  C  C86  1  0.222000  0.919100  0.476800  1.0  0.2702
  C  C87  1  0.972400  0.721200  0.479100  1.0  0.6245
  C  C88  1  0.029400  0.688000  0.594700  1.0  0.2644
  C  C89  1  0.576900  0.493800  0.722800  1.0  0.5102
  C  C90  1  0.526300  0.591300  0.746800  1.0  0.5214
  C  C91  1  0.701600  0.452500  0.410200  1.0  0.6376
  C  C92  1  0.722000  0.580900  0.476800  1.0  0.2699
  C  C93  1  0.472400  0.778800  0.479100  1.0  0.6245
  C  C94  1  0.529400  0.812000  0.594700  1.0  0.264
  C  C95  1  0.423100  0.006200  0.222800  1.0  0.5097
  C  C96  1  0.473700  0.908700  0.246800  1.0  0.5209
  C  C97  1  0.298400  0.047500  0.910200  1.0  0.6379
  C  C98  1  0.278000  0.919100  0.976800  1.0  0.2715
  C  C99  1  0.527600  0.721200  0.979100  1.0  0.6244
  C  C100  1  0.470600  0.688000  0.094700  1.0  0.2664
  C  C101  1  0.076900  0.506200  0.777200  1.0  0.5106
  C  C102  1  0.026300  0.408700  0.753200  1.0  0.5207
  C  C103  1  0.201600  0.547500  0.089800  1.0  0.6379
  C  C104  1  0.222000  0.419100  0.023200  1.0  0.2704
  C  C105  1  0.972400  0.221200  0.020900  1.0  0.625
  C  C106  1  0.029400  0.188000  0.905300  1.0  0.2645
  C  C107  1  0.923100  0.993800  0.277200  1.0  0.51
  C  C108  1  0.973700  0.091300  0.253200  1.0  0.5205
  C  C109  1  0.798400  0.952500  0.589800  1.0  0.6378
  C  C110  1  0.778000  0.080900  0.523200  1.0  0.2716
  C  C111  1  0.027600  0.278800  0.520900  1.0  0.625
  C  C112  1  0.970600  0.312000  0.405300  1.0  0.2665
  N  N113  1  0.225600  0.478500  0.573500  1.0  -0.5452
  N  N114  1  0.372300  0.446700  0.509300  1.0  -0.2511
  N  N115  1  0.386400  0.531700  0.552800  1.0  -0.3852
  N  N116  1  0.279400  0.626100  0.637300  1.0  -0.7651
  N  N117  1  0.487100  0.104000  0.439600  1.0  -0.2835
  N  N118  1  0.524400  0.123600  0.515300  1.0  -0.3858
  N  N119  1  0.494200  0.263200  0.452800  1.0  -0.549
  N  N120  1  0.564500  0.269800  0.583900  1.0  -0.7575
  N  N121  1  0.774400  0.021500  0.073500  1.0  -0.5452
  N  N122  1  0.627700  0.053300  0.009300  1.0  -0.2509
  N  N123  1  0.613600  0.968300  0.052800  1.0  -0.3845
  N  N124  1  0.720600  0.873900  0.137300  1.0  -0.7648
  N  N125  1  0.512900  0.396000  0.939600  1.0  -0.284
  N  N126  1  0.475600  0.376400  0.015300  1.0  -0.3861
  N  N127  1  0.505800  0.236800  0.952800  1.0  -0.5492
  N  N128  1  0.435500  0.230200  0.083900  1.0  -0.7579
  N  N129  1  0.725600  0.521500  0.926500  1.0  -0.5451
  N  N130  1  0.872300  0.553300  0.990700  1.0  -0.2516
  N  N131  1  0.886400  0.468300  0.947200  1.0  -0.385
  N  N132  1  0.779400  0.373900  0.862700  1.0  -0.7646
  N  N133  1  0.987100  0.896000  0.060400  1.0  -0.284
  N  N134  1  0.024400  0.876400  0.984700  1.0  -0.3853
  N  N135  1  0.994200  0.736800  0.047200  1.0  -0.5491
  N  N136  1  0.064500  0.730200  0.916100  1.0  -0.7573
  N  N137  1  0.274400  0.978500  0.426500  1.0  -0.5452
  N  N138  1  0.127700  0.946700  0.490700  1.0  -0.2518
  N  N139  1  0.113600  0.031700  0.447200  1.0  -0.385
  N  N140  1  0.220600  0.126100  0.362700  1.0  -0.7642
  N  N141  1  0.012900  0.604000  0.560400  1.0  -0.2832
  N  N142  1  0.975600  0.623600  0.484700  1.0  -0.3856
  N  N143  1  0.005800  0.763200  0.547200  1.0  -0.5494
  N  N144  1  0.935500  0.769800  0.416100  1.0  -0.7571
  N  N145  1  0.774400  0.521500  0.426500  1.0  -0.5452
  N  N146  1  0.627700  0.553300  0.490700  1.0  -0.2522
  N  N147  1  0.613600  0.468300  0.447200  1.0  -0.3848
  N  N148  1  0.720600  0.373900  0.362700  1.0  -0.7646
  N  N149  1  0.512900  0.896000  0.560400  1.0  -0.284
  N  N150  1  0.475600  0.876400  0.484700  1.0  -0.3854
  N  N151  1  0.505800  0.736800  0.547200  1.0  -0.5493
  N  N152  1  0.435500  0.730200  0.416100  1.0  -0.7577
  N  N153  1  0.225600  0.978500  0.926500  1.0  -0.5455
  N  N154  1  0.372300  0.946700  0.990700  1.0  -0.2513
  N  N155  1  0.386400  0.031700  0.947200  1.0  -0.3851
  N  N156  1  0.279400  0.126100  0.862700  1.0  -0.7644
  N  N157  1  0.487100  0.604000  0.060400  1.0  -0.283
  N  N158  1  0.524400  0.623600  0.984700  1.0  -0.3856
  N  N159  1  0.494200  0.763200  0.047200  1.0  -0.5491
  N  N160  1  0.564500  0.769800  0.916100  1.0  -0.7577
  N  N161  1  0.274400  0.478500  0.073500  1.0  -0.545
  N  N162  1  0.127700  0.446700  0.009300  1.0  -0.2513
  N  N163  1  0.113600  0.531700  0.052800  1.0  -0.3847
  N  N164  1  0.220600  0.626100  0.137300  1.0  -0.7647
  N  N165  1  0.012900  0.104000  0.939600  1.0  -0.2837
  N  N166  1  0.975600  0.123600  0.015300  1.0  -0.3859
  N  N167  1  0.005800  0.263200  0.952800  1.0  -0.5492
  N  N168  1  0.935500  0.269800  0.083900  1.0  -0.7586
  N  N169  1  0.725600  0.021500  0.573500  1.0  -0.545
  N  N170  1  0.872300  0.053300  0.509300  1.0  -0.2507
  N  N171  1  0.886400  0.968300  0.552800  1.0  -0.3851
  N  N172  1  0.779400  0.873900  0.637300  1.0  -0.7652
  N  N173  1  0.987100  0.396000  0.439600  1.0  -0.284
  N  N174  1  0.024400  0.376400  0.515300  1.0  -0.3861
  N  N175  1  0.994200  0.236800  0.452800  1.0  -0.5491
  N  N176  1  0.064500  0.230200  0.583900  1.0  -0.7579
  O  O177  1  0.484400  0.391100  0.181500  1.0  -0.5219
  O  O178  1  0.395000  0.558600  0.220800  1.0  -0.5506
  O  O179  1  0.501900  0.354300  0.309000  1.0  -0.5344
  O  O180  1  0.415500  0.522300  0.350200  1.0  -0.5515
  O  O181  1  0.515600  0.108900  0.681500  1.0  -0.5219
  O  O182  1  0.605000  0.941400  0.720800  1.0  -0.5511
  O  O183  1  0.498100  0.145700  0.809000  1.0  -0.5349
  O  O184  1  0.584500  0.977700  0.850200  1.0  -0.5514
  O  O185  1  0.984400  0.608900  0.318500  1.0  -0.5228
  O  O186  1  0.895000  0.441400  0.279200  1.0  -0.5512
  O  O187  1  0.001900  0.645700  0.191000  1.0  -0.5345
  O  O188  1  0.915500  0.477700  0.149800  1.0  -0.5505
  O  O189  1  0.015600  0.891100  0.818500  1.0  -0.5226
  O  O190  1  0.105000  0.058600  0.779200  1.0  -0.5514
  O  O191  1  0.998100  0.854300  0.691000  1.0  -0.5339
  O  O192  1  0.084500  0.022300  0.649800  1.0  -0.5511
  O  O193  1  0.515600  0.608900  0.818500  1.0  -0.5225
  O  O194  1  0.605000  0.441400  0.779200  1.0  -0.5516
  O  O195  1  0.498100  0.645700  0.691000  1.0  -0.5348
  O  O196  1  0.584500  0.477700  0.649800  1.0  -0.5509
  O  O197  1  0.484400  0.891100  0.318500  1.0  -0.5226
  O  O198  1  0.395000  0.058600  0.279200  1.0  -0.551
  O  O199  1  0.501900  0.854300  0.191000  1.0  -0.5336
  O  O200  1  0.415500  0.022300  0.149800  1.0  -0.5507
  O  O201  1  0.015600  0.391100  0.681500  1.0  -0.5218
  O  O202  1  0.105000  0.558600  0.720800  1.0  -0.5509
  O  O203  1  0.998100  0.354300  0.809000  1.0  -0.5344
  O  O204  1  0.084500  0.522300  0.850200  1.0  -0.5519
  O  O205  1  0.984400  0.108900  0.181500  1.0  -0.5222
  O  O206  1  0.895000  0.941400  0.220800  1.0  -0.5508
  O  O207  1  0.001900  0.145700  0.309000  1.0  -0.5347
  O  O208  1  0.915500  0.977700  0.350200  1.0  -0.5511
