# generated using pymatgen
data_ZnH3C3(N2O)2
_symmetry_space_group_name_H-M   'P 1'
_cell_length_a   13.00940000
_cell_length_b   13.80330000
_cell_length_c   16.82810000
_cell_angle_alpha   90.00000000
_cell_angle_beta   90.00000000
_cell_angle_gamma   90.00000000
_symmetry_Int_Tables_number   1
_chemical_formula_structural   ZnH3C3(N2O)2
_chemical_formula_sum   'Zn16 H48 C48 N64 O32'
_cell_volume   3021.86652863
_cell_formula_units_Z   16
loop_
 _symmetry_equiv_pos_site_id
 _symmetry_equiv_pos_as_xyz
  1  'x, y, z'
loop_
 _atom_site_type_symbol
 _atom_site_label
 _atom_site_symmetry_multiplicity
 _atom_site_fract_x
 _atom_site_fract_y
 _atom_site_fract_z
 _atom_site_occupancy
 _atom_site_charge
  Zn  Zn1  1  0.425610  0.977870  0.404490  1.0  0.8186
  Zn  Zn2  1  0.476830  0.907300  0.075980  1.0  0.8144
  Zn  Zn3  1  0.574390  0.522130  0.904490  1.0  0.819
  Zn  Zn4  1  0.523170  0.592700  0.575980  1.0  0.8151
  Zn  Zn5  1  0.925610  0.022130  0.095510  1.0  0.8184
  Zn  Zn6  1  0.976830  0.092700  0.424020  1.0  0.8144
  Zn  Zn7  1  0.074390  0.477870  0.595510  1.0  0.8189
  Zn  Zn8  1  0.023170  0.407300  0.924020  1.0  0.8154
  Zn  Zn9  1  0.574390  0.022130  0.595510  1.0  0.8189
  Zn  Zn10  1  0.523170  0.092700  0.924020  1.0  0.8153
  Zn  Zn11  1  0.425610  0.477870  0.095510  1.0  0.8185
  Zn  Zn12  1  0.476830  0.407300  0.424020  1.0  0.8146
  Zn  Zn13  1  0.074390  0.977870  0.904490  1.0  0.8189
  Zn  Zn14  1  0.023170  0.907300  0.575980  1.0  0.8153
  Zn  Zn15  1  0.925610  0.522130  0.404490  1.0  0.8186
  Zn  Zn16  1  0.976830  0.592700  0.075980  1.0  0.8143
  H  H17  1  0.251000  0.865800  0.502200  1.0  0.079
  H  H18  1  0.446300  0.195200  0.354800  1.0  0.0816
  H  H19  1  0.172500  0.167400  0.355900  1.0  0.3663
  H  H20  1  0.279100  0.132400  0.341400  1.0  0.3589
  H  H21  1  0.586200  0.237600  0.624400  1.0  0.362
  H  H22  1  0.564700  0.331300  0.583700  1.0  0.349
  H  H23  1  0.749000  0.634200  0.002200  1.0  0.079
  H  H24  1  0.553700  0.304800  0.854800  1.0  0.0816
  H  H25  1  0.827500  0.332600  0.855900  1.0  0.3659
  H  H26  1  0.720900  0.367600  0.841400  1.0  0.3592
  H  H27  1  0.413800  0.262400  0.124400  1.0  0.3614
  H  H28  1  0.435300  0.168700  0.083700  1.0  0.3497
  H  H29  1  0.751000  0.134200  0.997800  1.0  0.0794
  H  H30  1  0.946300  0.804800  0.145200  1.0  0.0821
  H  H31  1  0.672500  0.832600  0.144100  1.0  0.3659
  H  H32  1  0.779100  0.867600  0.158600  1.0  0.3596
  H  H33  1  0.086200  0.762400  0.875600  1.0  0.3618
  H  H34  1  0.064700  0.668700  0.916300  1.0  0.3495
  H  H35  1  0.249000  0.365800  0.497800  1.0  0.079
  H  H36  1  0.053700  0.695200  0.645200  1.0  0.0823
  H  H37  1  0.327500  0.667400  0.644100  1.0  0.3661
  H  H38  1  0.220900  0.632400  0.658600  1.0  0.3588
  H  H39  1  0.913800  0.737600  0.375600  1.0  0.3616
  H  H40  1  0.935300  0.831300  0.416300  1.0  0.3491
  H  H41  1  0.749000  0.134200  0.497800  1.0  0.0787
  H  H42  1  0.553700  0.804800  0.645200  1.0  0.0824
  H  H43  1  0.827500  0.832600  0.644100  1.0  0.3665
  H  H44  1  0.720900  0.867600  0.658600  1.0  0.3589
  H  H45  1  0.413800  0.762400  0.375600  1.0  0.3613
  H  H46  1  0.435300  0.668700  0.416300  1.0  0.3492
  H  H47  1  0.251000  0.365800  0.997800  1.0  0.0783
  H  H48  1  0.446300  0.695200  0.145200  1.0  0.0821
  H  H49  1  0.172500  0.667400  0.144100  1.0  0.3664
  H  H50  1  0.279100  0.632400  0.158600  1.0  0.3589
  H  H51  1  0.586200  0.737600  0.875600  1.0  0.3618
  H  H52  1  0.564700  0.831300  0.916300  1.0  0.3492
  H  H53  1  0.249000  0.865800  0.002200  1.0  0.0783
  H  H54  1  0.053700  0.195200  0.854800  1.0  0.0817
  H  H55  1  0.327500  0.167400  0.855900  1.0  0.3658
  H  H56  1  0.220900  0.132400  0.841400  1.0  0.3594
  H  H57  1  0.913800  0.237600  0.124400  1.0  0.3619
  H  H58  1  0.935300  0.331300  0.083700  1.0  0.3487
  H  H59  1  0.751000  0.634200  0.502200  1.0  0.0783
  H  H60  1  0.946300  0.304800  0.354800  1.0  0.0815
  H  H61  1  0.672500  0.332600  0.355900  1.0  0.3659
  H  H62  1  0.779100  0.367600  0.341400  1.0  0.3592
  H  H63  1  0.086200  0.262400  0.624400  1.0  0.3616
  H  H64  1  0.064700  0.168700  0.583700  1.0  0.3495
  C  C65  1  0.468400  0.910300  0.245700  1.0  0.5324
  C  C66  1  0.422400  0.008200  0.222290  1.0  0.5214
  C  C67  1  0.202200  0.047400  0.411500  1.0  0.6418
  C  C68  1  0.221800  0.920400  0.479090  1.0  0.2731
  C  C69  1  0.527100  0.220260  0.520090  1.0  0.6339
  C  C70  1  0.471100  0.188210  0.406310  1.0  0.2762
  C  C71  1  0.531600  0.589700  0.745700  1.0  0.5334
  C  C72  1  0.577600  0.491800  0.722290  1.0  0.5223
  C  C73  1  0.797800  0.452600  0.911500  1.0  0.6421
  C  C74  1  0.778200  0.579600  0.979090  1.0  0.2732
  C  C75  1  0.472900  0.279740  0.020090  1.0  0.6337
  C  C76  1  0.528900  0.311790  0.906310  1.0  0.2746
  C  C77  1  0.968400  0.089700  0.254300  1.0  0.5328
  C  C78  1  0.922400  0.991800  0.277710  1.0  0.5214
  C  C79  1  0.702200  0.952600  0.088500  1.0  0.6419
  C  C80  1  0.721800  0.079600  0.020910  1.0  0.2731
  C  C81  1  0.027100  0.779740  0.979910  1.0  0.6337
  C  C82  1  0.971100  0.811790  0.093690  1.0  0.2759
  C  C83  1  0.031600  0.410300  0.754300  1.0  0.5326
  C  C84  1  0.077600  0.508200  0.777710  1.0  0.5226
  C  C85  1  0.297800  0.547400  0.588500  1.0  0.6421
  C  C86  1  0.278200  0.420400  0.520910  1.0  0.2737
  C  C87  1  0.972900  0.720260  0.479910  1.0  0.6336
  C  C88  1  0.028900  0.688210  0.593690  1.0  0.2749
  C  C89  1  0.531600  0.089700  0.754300  1.0  0.5333
  C  C90  1  0.577600  0.991800  0.777710  1.0  0.5225
  C  C91  1  0.797800  0.952600  0.588500  1.0  0.6422
  C  C92  1  0.778200  0.079600  0.520910  1.0  0.274
  C  C93  1  0.472900  0.779740  0.479910  1.0  0.6336
  C  C94  1  0.528900  0.811790  0.593690  1.0  0.2746
  C  C95  1  0.468400  0.410300  0.254300  1.0  0.5321
  C  C96  1  0.422400  0.508200  0.277710  1.0  0.5214
  C  C97  1  0.202200  0.547400  0.088500  1.0  0.6419
  C  C98  1  0.221800  0.420400  0.020910  1.0  0.2729
  C  C99  1  0.527100  0.720260  0.979910  1.0  0.6337
  C  C100  1  0.471100  0.688210  0.093690  1.0  0.2761
  C  C101  1  0.031600  0.910300  0.745700  1.0  0.533
  C  C102  1  0.077600  0.008200  0.722290  1.0  0.5226
  C  C103  1  0.297800  0.047400  0.911500  1.0  0.6421
  C  C104  1  0.278200  0.920400  0.979090  1.0  0.2738
  C  C105  1  0.972900  0.220260  0.020090  1.0  0.6337
  C  C106  1  0.028900  0.188210  0.906310  1.0  0.2747
  C  C107  1  0.968400  0.589700  0.245700  1.0  0.5329
  C  C108  1  0.922400  0.491800  0.222290  1.0  0.5212
  C  C109  1  0.702200  0.452600  0.411500  1.0  0.6418
  C  C110  1  0.721800  0.579600  0.479090  1.0  0.2728
  C  C111  1  0.027100  0.279740  0.520090  1.0  0.6339
  C  C112  1  0.971100  0.311790  0.406310  1.0  0.2761
  N  N113  1  0.272890  0.979240  0.429020  1.0  -0.5432
  N  N114  1  0.127370  0.947550  0.492000  1.0  -0.2509
  N  N115  1  0.113610  0.031450  0.447980  1.0  -0.3858
  N  N116  1  0.220100  0.125300  0.363700  1.0  -0.7653
  N  N117  1  0.523000  0.124010  0.515520  1.0  -0.3882
  N  N118  1  0.485950  0.104160  0.440060  1.0  -0.2855
  N  N119  1  0.495110  0.263190  0.453020  1.0  -0.5521
  N  N120  1  0.563800  0.269000  0.583810  1.0  -0.7618
  N  N121  1  0.727110  0.520760  0.929020  1.0  -0.5435
  N  N122  1  0.872630  0.552450  0.992000  1.0  -0.2509
  N  N123  1  0.886390  0.468550  0.947980  1.0  -0.3851
  N  N124  1  0.779900  0.374700  0.863700  1.0  -0.7659
  N  N125  1  0.477000  0.375990  0.015520  1.0  -0.3883
  N  N126  1  0.514050  0.395840  0.940060  1.0  -0.2851
  N  N127  1  0.504890  0.236810  0.953020  1.0  -0.5515
  N  N128  1  0.436200  0.231000  0.083810  1.0  -0.7621
  N  N129  1  0.772890  0.020760  0.070980  1.0  -0.5432
  N  N130  1  0.627370  0.052450  0.008000  1.0  -0.2504
  N  N131  1  0.613610  0.968550  0.052020  1.0  -0.3858
  N  N132  1  0.720100  0.874700  0.136300  1.0  -0.7661
  N  N133  1  0.023000  0.875990  0.984480  1.0  -0.3878
  N  N134  1  0.985950  0.895840  0.059940  1.0  -0.2849
  N  N135  1  0.995110  0.736810  0.046980  1.0  -0.5517
  N  N136  1  0.063800  0.731000  0.916190  1.0  -0.7609
  N  N137  1  0.227110  0.479240  0.570980  1.0  -0.5438
  N  N138  1  0.372630  0.447550  0.508000  1.0  -0.2509
  N  N139  1  0.386390  0.531450  0.552020  1.0  -0.3853
  N  N140  1  0.279900  0.625300  0.636300  1.0  -0.7661
  N  N141  1  0.977000  0.624010  0.484480  1.0  -0.3887
  N  N142  1  0.014050  0.604160  0.559940  1.0  -0.2851
  N  N143  1  0.004890  0.763190  0.546980  1.0  -0.5522
  N  N144  1  0.936200  0.769000  0.416190  1.0  -0.7609
  N  N145  1  0.727110  0.020760  0.570980  1.0  -0.5436
  N  N146  1  0.872630  0.052450  0.508000  1.0  -0.2504
  N  N147  1  0.886390  0.968550  0.552020  1.0  -0.3852
  N  N148  1  0.779900  0.874700  0.636300  1.0  -0.7664
  N  N149  1  0.477000  0.875990  0.484480  1.0  -0.3879
  N  N150  1  0.514050  0.895840  0.559940  1.0  -0.2849
  N  N151  1  0.504890  0.736810  0.546980  1.0  -0.5516
  N  N152  1  0.436200  0.731000  0.416190  1.0  -0.7607
  N  N153  1  0.272890  0.479240  0.070980  1.0  -0.543
  N  N154  1  0.127370  0.447550  0.008000  1.0  -0.251
  N  N155  1  0.113610  0.531450  0.052020  1.0  -0.3857
  N  N156  1  0.220100  0.625300  0.136300  1.0  -0.7657
  N  N157  1  0.523000  0.624010  0.984480  1.0  -0.3886
  N  N158  1  0.485950  0.604160  0.059940  1.0  -0.2849
  N  N159  1  0.495110  0.763190  0.046980  1.0  -0.5523
  N  N160  1  0.563800  0.769000  0.916190  1.0  -0.7611
  N  N161  1  0.227110  0.979240  0.929020  1.0  -0.544
  N  N162  1  0.372630  0.947550  0.992000  1.0  -0.2506
  N  N163  1  0.386390  0.031450  0.947980  1.0  -0.3852
  N  N164  1  0.279900  0.125300  0.863700  1.0  -0.7654
  N  N165  1  0.977000  0.124010  0.015520  1.0  -0.3882
  N  N166  1  0.014050  0.104160  0.940060  1.0  -0.2858
  N  N167  1  0.004890  0.263190  0.953020  1.0  -0.5521
  N  N168  1  0.936200  0.269000  0.083810  1.0  -0.7621
  N  N169  1  0.772890  0.520760  0.429020  1.0  -0.5432
  N  N170  1  0.627370  0.552450  0.492000  1.0  -0.2513
  N  N171  1  0.613610  0.468550  0.447980  1.0  -0.3859
  N  N172  1  0.720100  0.374700  0.363700  1.0  -0.7658
  N  N173  1  0.023000  0.375990  0.515520  1.0  -0.3883
  N  N174  1  0.985950  0.395840  0.440060  1.0  -0.285
  N  N175  1  0.995110  0.236810  0.453020  1.0  -0.5516
  N  N176  1  0.063800  0.231000  0.583810  1.0  -0.762
  O  O177  1  0.476200  0.891110  0.317910  1.0  -0.5323
  O  O178  1  0.394600  0.060390  0.278320  1.0  -0.5584
  O  O179  1  0.497700  0.855810  0.191340  1.0  -0.5299
  O  O180  1  0.418200  0.024520  0.149530  1.0  -0.5563
  O  O181  1  0.523800  0.608890  0.817910  1.0  -0.5326
  O  O182  1  0.605400  0.439610  0.778320  1.0  -0.5589
  O  O183  1  0.502300  0.644190  0.691340  1.0  -0.531
  O  O184  1  0.581800  0.475480  0.649530  1.0  -0.5564
  O  O185  1  0.976200  0.108890  0.182090  1.0  -0.5308
  O  O186  1  0.894600  0.939610  0.221680  1.0  -0.5569
  O  O187  1  0.997700  0.144190  0.308660  1.0  -0.5309
  O  O188  1  0.918200  0.975480  0.350470  1.0  -0.5567
  O  O189  1  0.023800  0.391110  0.682090  1.0  -0.5307
  O  O190  1  0.105400  0.560390  0.721680  1.0  -0.5584
  O  O191  1  0.002300  0.355810  0.808660  1.0  -0.5311
  O  O192  1  0.081800  0.524520  0.850470  1.0  -0.557
  O  O193  1  0.523800  0.108890  0.682090  1.0  -0.531
  O  O194  1  0.605400  0.939610  0.721680  1.0  -0.5579
  O  O195  1  0.502300  0.144190  0.808660  1.0  -0.5315
  O  O196  1  0.581800  0.975480  0.850470  1.0  -0.5568
  O  O197  1  0.476200  0.391110  0.182090  1.0  -0.5303
  O  O198  1  0.394600  0.560390  0.221680  1.0  -0.5575
  O  O199  1  0.497700  0.355810  0.308660  1.0  -0.5308
  O  O200  1  0.418200  0.524520  0.350470  1.0  -0.5567
  O  O201  1  0.023800  0.891110  0.817910  1.0  -0.5324
  O  O202  1  0.105400  0.060390  0.778320  1.0  -0.5593
  O  O203  1  0.002300  0.855810  0.691340  1.0  -0.5304
  O  O204  1  0.081800  0.024520  0.649530  1.0  -0.5565
  O  O205  1  0.976200  0.608890  0.317910  1.0  -0.5326
  O  O206  1  0.894600  0.439610  0.278320  1.0  -0.5581
  O  O207  1  0.997700  0.644190  0.191340  1.0  -0.5309
  O  O208  1  0.918200  0.475480  0.149530  1.0  -0.5564
