# generated using pymatgen
data_NiH14C24(NO2)4
_symmetry_space_group_name_H-M   'P 1'
_cell_length_a   7.36100000
_cell_length_b   15.64500000
_cell_length_c   26.95700000
_cell_angle_alpha   90.00000000
_cell_angle_beta   90.00000000
_cell_angle_gamma   90.00000000
_symmetry_Int_Tables_number   1
_chemical_formula_structural   NiH14C24(NO2)4
_chemical_formula_sum   'Ni4 H56 C96 N16 O32'
_cell_volume   3104.44481266
_cell_formula_units_Z   4
loop_
 _symmetry_equiv_pos_site_id
 _symmetry_equiv_pos_as_xyz
  1  'x, y, z'
loop_
 _atom_site_type_symbol
 _atom_site_label
 _atom_site_symmetry_multiplicity
 _atom_site_fract_x
 _atom_site_fract_y
 _atom_site_fract_z
 _atom_site_occupancy
 _atom_site_charge
  Ni  Ni1  1  0.489500  0.655870  0.687170  1.0  0.8019
  Ni  Ni2  1  0.010500  0.344130  0.187170  1.0  0.8023
  Ni  Ni3  1  0.510500  0.155870  0.812830  1.0  0.8021
  Ni  Ni4  1  0.989500  0.844130  0.312830  1.0  0.7984
  H  H5  1  0.420700  0.764600  0.779200  1.0  0.0885
  H  H6  1  0.237000  0.783200  0.644600  1.0  0.1003
  H  H7  1  0.238900  0.872200  0.805000  1.0  0.1361
  H  H8  1  0.036400  0.885700  0.667300  1.0  0.1332
  H  H9  1  0.767700  0.911100  0.714600  1.0  0.1501
  H  H10  1  0.132100  0.017800  0.805200  1.0  0.1455
  H  H11  1  0.554100  0.009000  0.742200  1.0  0.0971
  H  H12  1  0.910500  0.114200  0.829400  1.0  0.0924
  H  H13  1  0.724900  0.467400  0.570600  1.0  0.129
  H  H14  1  0.749500  0.411800  0.491400  1.0  0.1205
  H  H15  1  0.275300  0.589400  0.531000  1.0  0.1323
  H  H16  1  0.436700  0.308300  0.319900  1.0  0.117
  H  H17  1  0.801800  0.495300  0.408200  1.0  0.1254
  H  H18  1  0.898700  0.438000  0.331900  1.0  0.1096
  H  H19  1  0.079300  0.235400  0.279200  1.0  0.0879
  H  H20  1  0.263000  0.216800  0.144600  1.0  0.1006
  H  H21  1  0.261100  0.127800  0.305000  1.0  0.1363
  H  H22  1  0.463600  0.114300  0.167300  1.0  0.1335
  H  H23  1  0.732300  0.088900  0.214600  1.0  0.1497
  H  H24  1  0.367900  0.982200  0.305200  1.0  0.1451
  H  H25  1  0.945900  0.991000  0.242200  1.0  0.0975
  H  H26  1  0.589500  0.885800  0.329400  1.0  0.0927
  H  H27  1  0.775100  0.532600  0.070600  1.0  0.1287
  H  H28  1  0.750500  0.588200  0.991400  1.0  0.1203
  H  H29  1  0.224700  0.410600  0.031000  1.0  0.1325
  H  H30  1  0.063300  0.691700  0.819900  1.0  0.1166
  H  H31  1  0.698200  0.504700  0.908200  1.0  0.1258
  H  H32  1  0.601300  0.562000  0.831900  1.0  0.1097
  H  H33  1  0.579300  0.264600  0.720800  1.0  0.0877
  H  H34  1  0.763000  0.283200  0.855400  1.0  0.0998
  H  H35  1  0.761100  0.372200  0.695000  1.0  0.1372
  H  H36  1  0.963600  0.385700  0.832700  1.0  0.1336
  H  H37  1  0.232300  0.411100  0.785400  1.0  0.1502
  H  H38  1  0.867900  0.517800  0.694800  1.0  0.1441
  H  H39  1  0.445900  0.509000  0.757800  1.0  0.0977
  H  H40  1  0.089500  0.614200  0.670600  1.0  0.0921
  H  H41  1  0.275100  0.967400  0.929400  1.0  0.1292
  H  H42  1  0.250500  0.911800  0.008600  1.0  0.1202
  H  H43  1  0.724700  0.089400  0.969000  1.0  0.133
  H  H44  1  0.563300  0.808300  0.180100  1.0  0.1162
  H  H45  1  0.198200  0.995300  0.091800  1.0  0.1256
  H  H46  1  0.101300  0.938000  0.168100  1.0  0.1089
  H  H47  1  0.920700  0.735400  0.220800  1.0  0.0879
  H  H48  1  0.737000  0.716800  0.355400  1.0  0.0994
  H  H49  1  0.738900  0.627800  0.195000  1.0  0.1371
  H  H50  1  0.536400  0.614300  0.332700  1.0  0.1333
  H  H51  1  0.267700  0.588900  0.285400  1.0  0.15
  H  H52  1  0.632100  0.482200  0.194800  1.0  0.1444
  H  H53  1  0.054100  0.491000  0.257800  1.0  0.0974
  H  H54  1  0.410500  0.385800  0.170600  1.0  0.0926
  H  H55  1  0.224900  0.032600  0.429400  1.0  0.1294
  H  H56  1  0.249500  0.088200  0.508600  1.0  0.1209
  H  H57  1  0.775300  0.910600  0.469000  1.0  0.1324
  H  H58  1  0.936700  0.191700  0.680100  1.0  0.1163
  H  H59  1  0.301800  0.004700  0.591800  1.0  0.1257
  H  H60  1  0.398700  0.062000  0.668100  1.0  0.1091
  C  C61  1  0.342000  0.789600  0.756400  1.0  0.1948
  C  C62  1  0.232600  0.799800  0.677700  1.0  0.1873
  C  C63  1  0.231600  0.853300  0.772300  1.0  -0.1868
  C  C64  1  0.113600  0.862000  0.690900  1.0  -0.1829
  C  C65  1  0.107200  0.890600  0.739900  1.0  0.1259
  C  C66  1  0.972200  0.955400  0.756640  1.0  0.0618
  C  C67  1  0.799500  0.952000  0.738000  1.0  -0.2018
  C  C68  1  0.016100  0.015300  0.791600  1.0  -0.1876
  C  C69  1  0.671300  0.011500  0.755000  1.0  0.1835
  C  C70  1  0.880500  0.072600  0.806100  1.0  0.1878
  C  C71  1  0.496800  0.581700  0.607800  1.0  0.6657
  C  C72  1  0.506600  0.539200  0.556840  1.0  -0.1233
  C  C73  1  0.641200  0.482800  0.546320  1.0  -0.0359
  C  C74  1  0.653100  0.448000  0.498900  1.0  -0.123
  C  C75  1  0.525900  0.465800  0.462540  1.0  0.0257
  C  C76  1  0.383900  0.518000  0.476500  1.0  0.071
  C  C77  1  0.373100  0.554500  0.522900  1.0  -0.0407
  C  C78  1  0.735600  0.332200  0.269360  1.0  0.6976
  C  C79  1  0.676700  0.368800  0.318010  1.0  -0.1113
  C  C80  1  0.512200  0.345200  0.337440  1.0  -0.0455
  C  C81  1  0.457900  0.376700  0.383800  1.0  -0.0383
  C  C82  1  0.563900  0.431800  0.410900  1.0  -0.002
  C  C83  1  0.728500  0.456700  0.391200  1.0  -0.1378
  C  C84  1  0.785500  0.422900  0.344500  1.0  -0.0052
  C  C85  1  0.158000  0.210400  0.256400  1.0  0.1954
  C  C86  1  0.267400  0.200200  0.177700  1.0  0.1878
  C  C87  1  0.268400  0.146700  0.272300  1.0  -0.1874
  C  C88  1  0.386400  0.138000  0.190900  1.0  -0.1859
  C  C89  1  0.392800  0.109400  0.239900  1.0  0.1259
  C  C90  1  0.527800  0.044600  0.256640  1.0  0.062
  C  C91  1  0.700500  0.048000  0.238000  1.0  -0.2009
  C  C92  1  0.483900  0.984700  0.291600  1.0  -0.1889
  C  C93  1  0.828700  0.988500  0.255000  1.0  0.1835
  C  C94  1  0.619500  0.927400  0.306100  1.0  0.1862
  C  C95  1  0.003200  0.418300  0.107800  1.0  0.6661
  C  C96  1  0.993400  0.460800  0.056840  1.0  -0.1229
  C  C97  1  0.858800  0.517200  0.046320  1.0  -0.0369
  C  C98  1  0.846900  0.552000  0.998900  1.0  -0.1246
  C  C99  1  0.974100  0.534200  0.962540  1.0  0.0262
  C  C100  1  0.116100  0.482000  0.976500  1.0  0.0719
  C  C101  1  0.126900  0.445500  0.022900  1.0  -0.0418
  C  C102  1  0.764400  0.667800  0.769360  1.0  0.6975
  C  C103  1  0.823300  0.631200  0.818010  1.0  -0.1108
  C  C104  1  0.987800  0.654800  0.837440  1.0  -0.0464
  C  C105  1  0.042100  0.623300  0.883800  1.0  -0.0368
  C  C106  1  0.936100  0.568200  0.910900  1.0  -0.0022
  C  C107  1  0.771500  0.543300  0.891200  1.0  -0.1389
  C  C108  1  0.714500  0.577100  0.844500  1.0  -0.0033
  C  C109  1  0.658000  0.289600  0.743600  1.0  0.1954
  C  C110  1  0.767400  0.299800  0.822300  1.0  0.1862
  C  C111  1  0.768400  0.353300  0.727700  1.0  -0.1868
  C  C112  1  0.886400  0.362000  0.809100  1.0  -0.1848
  C  C113  1  0.892800  0.390600  0.760100  1.0  0.1264
  C  C114  1  0.027800  0.455400  0.743360  1.0  0.0627
  C  C115  1  0.200500  0.452000  0.762000  1.0  -0.2001
  C  C116  1  0.983900  0.515300  0.708400  1.0  -0.1881
  C  C117  1  0.328700  0.511500  0.745000  1.0  0.1835
  C  C118  1  0.119500  0.572600  0.693900  1.0  0.1868
  C  C119  1  0.503200  0.081700  0.892200  1.0  0.6657
  C  C120  1  0.493400  0.039200  0.943160  1.0  -0.1226
  C  C121  1  0.358800  0.982800  0.953680  1.0  -0.0351
  C  C122  1  0.346900  0.948000  0.001100  1.0  -0.123
  C  C123  1  0.474100  0.965800  0.037460  1.0  0.0254
  C  C124  1  0.616100  0.018000  0.023500  1.0  0.0716
  C  C125  1  0.626900  0.054500  0.977100  1.0  -0.0415
  C  C126  1  0.264400  0.832200  0.230640  1.0  0.6963
  C  C127  1  0.323300  0.868800  0.181990  1.0  -0.1112
  C  C128  1  0.487800  0.845200  0.162560  1.0  -0.0468
  C  C129  1  0.542100  0.876700  0.116200  1.0  -0.0391
  C  C130  1  0.436100  0.931800  0.089100  1.0  -0.0029
  C  C131  1  0.271500  0.956700  0.108800  1.0  -0.1381
  C  C132  1  0.214500  0.922900  0.155500  1.0  -0.0039
  C  C133  1  0.842000  0.710400  0.243600  1.0  0.1945
  C  C134  1  0.732600  0.700200  0.322300  1.0  0.1859
  C  C135  1  0.731600  0.646700  0.227700  1.0  -0.1874
  C  C136  1  0.613600  0.638000  0.309100  1.0  -0.1841
  C  C137  1  0.607200  0.609400  0.260100  1.0  0.1258
  C  C138  1  0.472200  0.544600  0.243360  1.0  0.0619
  C  C139  1  0.299500  0.548000  0.262000  1.0  -0.2009
  C  C140  1  0.516100  0.484700  0.208400  1.0  -0.1882
  C  C141  1  0.171300  0.488500  0.245000  1.0  0.1832
  C  C142  1  0.380500  0.427400  0.193900  1.0  0.1865
  C  C143  1  0.996800  0.918300  0.392200  1.0  0.6654
  C  C144  1  0.006600  0.960800  0.443160  1.0  -0.1231
  C  C145  1  0.141200  0.017200  0.453680  1.0  -0.0351
  C  C146  1  0.153100  0.052000  0.501100  1.0  -0.1236
  C  C147  1  0.025900  0.034200  0.537460  1.0  0.0254
  C  C148  1  0.883900  0.982000  0.523500  1.0  0.071
  C  C149  1  0.873100  0.945500  0.477100  1.0  -0.0399
  C  C150  1  0.235600  0.167800  0.730640  1.0  0.6966
  C  C151  1  0.176700  0.131200  0.681990  1.0  -0.1114
  C  C152  1  0.012200  0.154800  0.662560  1.0  -0.0471
  C  C153  1  0.957900  0.123300  0.616200  1.0  -0.038
  C  C154  1  0.063900  0.068200  0.589100  1.0  -0.0028
  C  C155  1  0.228500  0.043300  0.608800  1.0  -0.1387
  C  C156  1  0.285500  0.077100  0.655500  1.0  -0.0044
  N  N157  1  0.344000  0.760900  0.709960  1.0  -0.2945
  N  N158  1  0.709300  0.071600  0.788590  1.0  -0.2978
  N  N159  1  0.241300  0.540100  0.440400  1.0  0.5834
  N  N160  1  0.284500  0.344000  0.403400  1.0  0.5872
  N  N161  1  0.156000  0.239100  0.209960  1.0  -0.2943
  N  N162  1  0.790700  0.928400  0.288590  1.0  -0.2976
  N  N163  1  0.258700  0.459900  0.940400  1.0  0.5797
  N  N164  1  0.215500  0.656000  0.903400  1.0  0.5884
  N  N165  1  0.656000  0.260900  0.790040  1.0  -0.294
  N  N166  1  0.290700  0.571600  0.711410  1.0  -0.298
  N  N167  1  0.758700  0.040100  0.059600  1.0  0.581
  N  N168  1  0.715500  0.844000  0.096600  1.0  0.5857
  N  N169  1  0.844000  0.739100  0.290040  1.0  -0.2942
  N  N170  1  0.209300  0.428400  0.211410  1.0  -0.2983
  N  N171  1  0.741300  0.959900  0.559600  1.0  0.5821
  N  N172  1  0.784500  0.156000  0.596600  1.0  0.5867
  O  O173  1  0.388700  0.643000  0.614040  1.0  -0.5441
  O  O174  1  0.601400  0.556200  0.642090  1.0  -0.5614
  O  O175  1  0.879000  0.364300  0.251920  1.0  -0.5824
  O  O176  1  0.643700  0.277200  0.250000  1.0  -0.4863
  O  O177  1  0.086900  0.557100  0.458200  1.0  -0.485
  O  O178  1  0.280600  0.546800  0.396480  1.0  -0.5473
  O  O179  1  0.174900  0.318700  0.372200  1.0  -0.4371
  O  O180  1  0.234300  0.356900  0.443800  1.0  -0.385
  O  O181  1  0.111300  0.357000  0.114040  1.0  -0.544
  O  O182  1  0.898600  0.443800  0.142090  1.0  -0.5617
  O  O183  1  0.621000  0.635700  0.751920  1.0  -0.5811
  O  O184  1  0.856300  0.722800  0.750000  1.0  -0.486
  O  O185  1  0.413100  0.442900  0.958200  1.0  -0.4844
  O  O186  1  0.219400  0.453200  0.896480  1.0  -0.5461
  O  O187  1  0.325100  0.681300  0.872200  1.0  -0.4372
  O  O188  1  0.265700  0.643100  0.943800  1.0  -0.3838
  O  O189  1  0.611300  0.143000  0.885960  1.0  -0.5431
  O  O190  1  0.398600  0.056200  0.857910  1.0  -0.5607
  O  O191  1  0.121000  0.864300  0.248080  1.0  -0.5825
  O  O192  1  0.356300  0.777200  0.250000  1.0  -0.4857
  O  O193  1  0.913100  0.057100  0.041800  1.0  -0.4878
  O  O194  1  0.719400  0.046800  0.103520  1.0  -0.5517
  O  O195  1  0.825100  0.818700  0.127800  1.0  -0.4382
  O  O196  1  0.765700  0.856900  0.056200  1.0  -0.383
  O  O197  1  0.888700  0.857000  0.385960  1.0  -0.5456
  O  O198  1  0.101400  0.943800  0.357910  1.0  -0.5607
  O  O199  1  0.379000  0.135700  0.748080  1.0  -0.582
  O  O200  1  0.143700  0.222800  0.750000  1.0  -0.4858
  O  O201  1  0.586900  0.942900  0.541800  1.0  -0.485
  O  O202  1  0.780600  0.953200  0.603520  1.0  -0.5504
  O  O203  1  0.674900  0.181300  0.627800  1.0  -0.4388
  O  O204  1  0.734300  0.143100  0.556200  1.0  -0.3822
