# generated using pymatgen
data_TbH6(C4O3)3
_symmetry_space_group_name_H-M   'P 1'
_cell_length_a   10.64000000
_cell_length_b   11.23900000
_cell_length_c   15.23200000
_cell_angle_alpha   99.35100000
_cell_angle_beta   99.51100000
_cell_angle_gamma   92.48200000
_symmetry_Int_Tables_number   1
_chemical_formula_structural   TbH6(C4O3)3
_chemical_formula_sum   'Tb4 H24 C48 O36'
_cell_volume   1767.96520813
_cell_formula_units_Z   4
loop_
 _symmetry_equiv_pos_site_id
 _symmetry_equiv_pos_as_xyz
  1  'x, y, z'
loop_
 _atom_site_type_symbol
 _atom_site_label
 _atom_site_symmetry_multiplicity
 _atom_site_fract_x
 _atom_site_fract_y
 _atom_site_fract_z
 _atom_site_occupancy
 _atom_site_charge
  Tb  Tb1  1  0.602970  0.237680  0.131810  1.0  2.2627
  Tb  Tb2  1  0.709950  0.306900  0.405640  1.0  2.2614
  Tb  Tb3  1  0.397030  0.762320  0.868190  1.0  2.2638
  Tb  Tb4  1  0.290050  0.693100  0.594360  1.0  2.2623
  H  H5  1  0.278000  0.217100  0.157700  1.0  0.1135
  H  H6  1  0.037700  0.333400  0.377600  1.0  0.1137
  H  H7  1  0.345100  0.336000  0.453200  1.0  0.3678
  H  H8  1  0.715800  0.452600  0.725400  1.0  0.0979
  H  H9  1  0.634500  0.085500  0.813200  1.0  0.1115
  H  H10  1  0.623800  0.067100  0.594500  1.0  0.385
  H  H11  1  0.736300  0.466300  0.945400  1.0  0.4047
  H  H12  1  0.967300  0.192900  0.083200  1.0  0.4082
  H  H13  1  0.658400  0.846400  0.134800  1.0  0.1113
  H  H14  1  0.651100  0.984800  0.429000  1.0  0.364
  H  H15  1  0.670100  0.701100  0.402500  1.0  0.0953
  H  H16  1  0.635500  0.549000  0.112800  1.0  0.3678
  H  H17  1  0.722000  0.782900  0.842300  1.0  0.114
  H  H18  1  0.962300  0.666667  0.622400  1.0  0.1137
  H  H19  1  0.654900  0.664000  0.546800  1.0  0.3692
  H  H20  1  0.284200  0.547400  0.274600  1.0  0.0979
  H  H21  1  0.365500  0.914500  0.186800  1.0  0.1122
  H  H22  1  0.376200  0.932900  0.405500  1.0  0.3842
  H  H23  1  0.263700  0.533700  0.054600  1.0  0.4058
  H  H24  1  0.032700  0.807100  0.916800  1.0  0.4086
  H  H25  1  0.341600  0.153600  0.865200  1.0  0.1112
  H  H26  1  0.348900  0.015200  0.571000  1.0  0.3615
  H  H27  1  0.329900  0.298900  0.597500  1.0  0.0947
  H  H28  1  0.364500  0.451000  0.887200  1.0  0.3676
  C  C29  1  0.642300  0.514100  0.269100  1.0  0.7162
  C  C30  1  0.432500  0.275200  0.314800  1.0  0.6979
  C  C31  1  0.290100  0.273200  0.291400  1.0  -0.2063
  C  C32  1  0.229100  0.239800  0.202200  1.0  -0.1262
  C  C33  1  0.097700  0.239300  0.177300  1.0  0.2849
  C  C34  1  0.214800  0.307100  0.357600  1.0  0.3049
  C  C35  1  0.086000  0.308100  0.333333  1.0  -0.111
  C  C36  1  0.678100  0.281200  0.582200  1.0  0.6971
  C  C37  1  0.675100  0.273600  0.678400  1.0  -0.2553
  C  C38  1  0.698300  0.379100  0.743000  1.0  -0.1274
  C  C39  1  0.695600  0.375200  0.833000  1.0  0.3014
  C  C40  1  0.670500  0.264500  0.859600  1.0  -0.2218
  C  C41  1  0.649900  0.159300  0.795300  1.0  -0.1313
  C  C42  1  0.651800  0.162900  0.705900  1.0  0.2554
  C  C43  1  0.654700  0.259800  0.954200  1.0  0.7039
  C  C44  1  0.881600  0.269500  0.221400  1.0  0.7266
  C  C45  1  0.023700  0.272500  0.244000  1.0  -0.2644
  C  C46  1  0.676200  0.030800  0.267300  1.0  0.7003
  C  C47  1  0.673800  0.900200  0.270500  1.0  -0.1894
  C  C48  1  0.659700  0.817200  0.188600  1.0  -0.0903
  C  C49  1  0.648000  0.694500  0.186500  1.0  0.2625
  C  C50  1  0.679700  0.854500  0.350800  1.0  0.3006
  C  C51  1  0.667700  0.730000  0.348500  1.0  -0.1014
  C  C52  1  0.652500  0.647400  0.268300  1.0  -0.2125
  C  C53  1  0.357700  0.485900  0.730900  1.0  0.7175
  C  C54  1  0.567500  0.724800  0.685200  1.0  0.6985
  C  C55  1  0.709900  0.726800  0.708600  1.0  -0.2068
  C  C56  1  0.770900  0.760200  0.797800  1.0  -0.1273
  C  C57  1  0.902300  0.760700  0.822700  1.0  0.285
  C  C58  1  0.785200  0.692900  0.642400  1.0  0.3063
  C  C59  1  0.914000  0.691900  0.666667  1.0  -0.1118
  C  C60  1  0.321900  0.718800  0.417800  1.0  0.6974
  C  C61  1  0.324900  0.726400  0.321600  1.0  -0.2549
  C  C62  1  0.301700  0.620900  0.257000  1.0  -0.1265
  C  C63  1  0.304400  0.624800  0.167000  1.0  0.3008
  C  C64  1  0.329500  0.735500  0.140400  1.0  -0.2241
  C  C65  1  0.350100  0.840700  0.204700  1.0  -0.1318
  C  C66  1  0.348200  0.837100  0.294100  1.0  0.2571
  C  C67  1  0.345300  0.740200  0.045800  1.0  0.7036
  C  C68  1  0.118400  0.730500  0.778600  1.0  0.7262
  C  C69  1  0.976300  0.727500  0.756000  1.0  -0.2646
  C  C70  1  0.323800  0.969200  0.732700  1.0  0.6982
  C  C71  1  0.326200  0.099800  0.729500  1.0  -0.1896
  C  C72  1  0.340300  0.182800  0.811400  1.0  -0.0901
  C  C73  1  0.352000  0.305500  0.813500  1.0  0.2635
  C  C74  1  0.320300  0.145500  0.649200  1.0  0.2996
  C  C75  1  0.332300  0.270000  0.651500  1.0  -0.105
  C  C76  1  0.347500  0.352600  0.731700  1.0  -0.212
  O  O77  1  0.632000  0.445300  0.193000  1.0  -0.6759
  O  O78  1  0.644200  0.479300  0.342100  1.0  -0.6752
  O  O79  1  0.703700  0.382200  0.560200  1.0  -0.6315
  O  O80  1  0.690700  0.102800  0.342400  1.0  -0.6227
  O  O81  1  0.662300  0.065300  0.191900  1.0  -0.7276
  O  O82  1  0.816200  0.296600  0.281600  1.0  -0.7984
  O  O83  1  0.483700  0.302100  0.397800  1.0  -0.6809
  O  O84  1  0.499500  0.252900  0.254600  1.0  -0.7716
  O  O85  1  0.267600  0.340600  0.446900  1.0  -0.5376
  O  O86  1  0.630800  0.054200  0.646500  1.0  -0.5312
  O  O87  1  0.720200  0.481500  0.894100  1.0  -0.5189
  O  O88  1  0.655900  0.186600  0.523100  1.0  -0.6736
  O  O89  1  0.045000  0.204600  0.088100  1.0  -0.4939
  O  O90  1  0.829500  0.238400  0.139200  1.0  -0.6721
  O  O91  1  0.692900  0.925700  0.433000  1.0  -0.5124
  O  O92  1  0.635300  0.619400  0.104900  1.0  -0.512
  O  O93  1  0.675000  0.356700  0.012600  1.0  -0.6993
  O  O94  1  0.619600  0.162900  0.977000  1.0  -0.6417
  O  O95  1  0.368000  0.554700  0.807000  1.0  -0.6764
  O  O96  1  0.355800  0.520700  0.657900  1.0  -0.6754
  O  O97  1  0.296300  0.617800  0.439800  1.0  -0.631
  O  O98  1  0.309300  0.897200  0.657600  1.0  -0.6232
  O  O99  1  0.337700  0.934700  0.808100  1.0  -0.7278
  O  O100  1  0.183800  0.703400  0.718400  1.0  -0.7983
  O  O101  1  0.516300  0.697900  0.602200  1.0  -0.6822
  O  O102  1  0.500500  0.747100  0.745400  1.0  -0.7719
  O  O103  1  0.732400  0.659400  0.553100  1.0  -0.5389
  O  O104  1  0.369200  0.945800  0.353500  1.0  -0.5298
  O  O105  1  0.279800  0.518500  0.105900  1.0  -0.5173
  O  O106  1  0.344100  0.813400  0.476900  1.0  -0.6722
  O  O107  1  0.955000  0.795400  0.911900  1.0  -0.4939
  O  O108  1  0.170500  0.761600  0.860800  1.0  -0.6736
  O  O109  1  0.307100  0.074300  0.567000  1.0  -0.5103
  O  O110  1  0.364700  0.380600  0.895100  1.0  -0.5137
  O  O111  1  0.325000  0.643300  0.987400  1.0  -0.701
  O  O112  1  0.380400  0.837100  0.023000  1.0  -0.6421
