# generated using pymatgen
data_Cu2H15C34(NO4)2
_symmetry_space_group_name_H-M   'P 1'
_cell_length_a   22.42610000
_cell_length_b   22.42610000
_cell_length_c   22.42610000
_cell_angle_alpha   92.82450000
_cell_angle_beta   118.38300000
_cell_angle_gamma   118.38300000
_symmetry_Int_Tables_number   1
_chemical_formula_structural   Cu2H15C34(NO4)2
_chemical_formula_sum   'Cu8 H60 C136 N8 O32'
_cell_volume   8159.47189403
_cell_formula_units_Z   4
loop_
 _symmetry_equiv_pos_site_id
 _symmetry_equiv_pos_as_xyz
  1  'x, y, z'
loop_
 _atom_site_type_symbol
 _atom_site_label
 _atom_site_symmetry_multiplicity
 _atom_site_fract_x
 _atom_site_fract_y
 _atom_site_fract_z
 _atom_site_occupancy
 _atom_site_charge
  Cu  Cu1  1  0.425800  0.979920  0.979920  1.0  0.925
  Cu  Cu2  1  0.574200  0.554120  0.554120  1.0  0.9233
  Cu  Cu3  1  0.000000  0.979920  0.554120  1.0  0.9247
  Cu  Cu4  1  0.000000  0.554120  0.979920  1.0  0.9284
  Cu  Cu5  1  0.000000  0.445880  0.020080  1.0  0.928
  Cu  Cu6  1  0.000000  0.020080  0.445880  1.0  0.9265
  Cu  Cu7  1  0.425800  0.445880  0.445880  1.0  0.9234
  Cu  Cu8  1  0.574200  0.020080  0.020080  1.0  0.9249
  H  H9  1  0.517400  0.956800  0.811400  1.0  0.1427
  H  H10  1  0.484400  0.931800  0.693600  1.0  0.1367
  H  H11  1  0.337300  0.979300  0.763000  1.0  0.1253
  H  H12  1  0.482600  0.294000  0.439400  1.0  0.1413
  H  H13  1  0.515600  0.209200  0.447400  1.0  0.1371
  H  H14  1  0.662700  0.425700  0.642000  1.0  0.1243
  H  H15  1  0.854600  0.811400  0.294000  1.0  0.1413
  H  H16  1  0.761800  0.693600  0.209200  1.0  0.1347
  H  H17  1  0.783700  0.763000  0.425700  1.0  0.1244
  H  H18  1  0.145400  0.439400  0.956800  1.0  0.1395
  H  H19  1  0.238200  0.447400  0.931800  1.0  0.1369
  H  H20  1  0.216300  0.642000  0.979300  1.0  0.1256
  H  H21  1  0.145400  0.706000  0.188600  1.0  0.1424
  H  H22  1  0.238200  0.790800  0.306400  1.0  0.1377
  H  H23  1  0.216300  0.574300  0.237000  1.0  0.1243
  H  H24  1  0.854600  0.043200  0.560600  1.0  0.1429
  H  H25  1  0.761800  0.068200  0.552600  1.0  0.1347
  H  H26  1  0.783700  0.020700  0.358000  1.0  0.1255
  H  H27  1  0.517400  0.560600  0.706000  1.0  0.1383
  H  H28  1  0.484400  0.552600  0.790800  1.0  0.1386
  H  H29  1  0.337300  0.358000  0.574300  1.0  0.1255
  H  H30  1  0.482600  0.188600  0.043200  1.0  0.1446
  H  H31  1  0.515600  0.306400  0.068200  1.0  0.137
  H  H32  1  0.662700  0.237000  0.020700  1.0  0.1237
  H  H33  1  0.482600  0.043200  0.188600  1.0  0.1441
  H  H34  1  0.515600  0.068200  0.306400  1.0  0.1374
  H  H35  1  0.662700  0.020700  0.237000  1.0  0.1243
  H  H36  1  0.517400  0.706000  0.560600  1.0  0.1395
  H  H37  1  0.484400  0.790800  0.552600  1.0  0.1369
  H  H38  1  0.337300  0.574300  0.358000  1.0  0.1254
  H  H39  1  0.145400  0.188600  0.706000  1.0  0.1413
  H  H40  1  0.238200  0.306400  0.790800  1.0  0.1355
  H  H41  1  0.216300  0.237000  0.574300  1.0  0.1241
  H  H42  1  0.854600  0.560600  0.043200  1.0  0.1406
  H  H43  1  0.761800  0.552600  0.068200  1.0  0.1386
  H  H44  1  0.783700  0.358000  0.020700  1.0  0.1256
  H  H45  1  0.854600  0.294000  0.811400  1.0  0.141
  H  H46  1  0.761800  0.209200  0.693600  1.0  0.1374
  H  H47  1  0.783700  0.425700  0.763000  1.0  0.1251
  H  H48  1  0.145400  0.956800  0.439400  1.0  0.1433
  H  H49  1  0.238200  0.931800  0.447400  1.0  0.1348
  H  H50  1  0.216300  0.979300  0.642000  1.0  0.1253
  H  H51  1  0.482600  0.439400  0.294000  1.0  0.1395
  H  H52  1  0.515600  0.447400  0.209200  1.0  0.1379
  H  H53  1  0.662700  0.642000  0.425700  1.0  0.1251
  H  H54  1  0.517400  0.811400  0.956800  1.0  0.1433
  H  H55  1  0.484400  0.693600  0.931800  1.0  0.1364
  H  H56  1  0.337300  0.763000  0.979300  1.0  0.1244
  H  H57  1  0.458600  0.024100  0.565500  1.0  0.1429
  H  H58  1  0.541400  0.106900  0.565500  1.0  0.1425
  H  H59  1  0.541400  0.565500  0.106900  1.0  0.1414
  H  H60  1  0.458600  0.565500  0.024100  1.0  0.1427
  H  H61  1  0.458600  0.893100  0.434500  1.0  0.1431
  H  H62  1  0.541400  0.975900  0.434500  1.0  0.1433
  H  H63  1  0.458600  0.434500  0.893100  1.0  0.1414
  H  H64  1  0.541400  0.434500  0.975900  1.0  0.1424
  H  H65  1  0.305300  0.805300  0.500000  1.0  0.1443
  H  H66  1  0.694700  0.194700  0.500000  1.0  0.1445
  H  H67  1  0.694700  0.500000  0.194700  1.0  0.1419
  H  H68  1  0.305300  0.500000  0.805300  1.0  0.1413
  C  C69  1  0.470500  0.984400  0.879900  1.0  0.4121
  C  C70  1  0.433900  0.971100  0.803400  1.0  -0.0242
  C  C71  1  0.471500  0.956500  0.776200  1.0  -0.0738
  C  C72  1  0.454200  0.941200  0.706600  1.0  -0.0505
  C  C73  1  0.386400  0.942000  0.659000  1.0  0.0861
  C  C74  1  0.342200  0.955900  0.678100  1.0  -0.0852
  C  C75  1  0.367400  0.970000  0.749800  1.0  -0.0487
  C  C76  1  0.529500  0.409400  0.513900  1.0  0.4112
  C  C77  1  0.566100  0.369500  0.537200  1.0  -0.0231
  C  C78  1  0.528500  0.304700  0.485000  1.0  -0.0708
  C  C79  1  0.545800  0.252400  0.487000  1.0  -0.0505
  C  C80  1  0.613600  0.272600  0.555600  1.0  0.0766
  C  C81  1  0.657800  0.335900  0.613700  1.0  -0.0842
  C  C82  1  0.632600  0.382400  0.602600  1.0  -0.0484
  C  C83  1  0.895500  0.879900  0.409400  1.0  0.4146
  C  C84  1  0.832300  0.803400  0.369500  1.0  -0.023
  C  C85  1  0.819700  0.776200  0.304700  1.0  -0.0756
  C  C86  1  0.765400  0.706600  0.252400  1.0  -0.0485
  C  C87  1  0.717000  0.659000  0.272600  1.0  0.0864
  C  C88  1  0.722200  0.678100  0.335900  1.0  -0.0785
  C  C89  1  0.779800  0.749800  0.382400  1.0  -0.0452
  C  C90  1  0.104500  0.513900  0.984400  1.0  0.411
  C  C91  1  0.167700  0.537200  0.971100  1.0  -0.0208
  C  C92  1  0.180300  0.485000  0.956500  1.0  -0.0767
  C  C93  1  0.234600  0.487000  0.941200  1.0  -0.0516
  C  C94  1  0.283000  0.555600  0.942000  1.0  0.0761
  C  C95  1  0.277800  0.613700  0.955900  1.0  -0.0869
  C  C96  1  0.220200  0.602600  0.970000  1.0  -0.0463
  C  C97  1  0.104500  0.590600  0.120100  1.0  0.4148
  C  C98  1  0.167700  0.630500  0.196600  1.0  -0.0224
  C  C99  1  0.180300  0.695300  0.223800  1.0  -0.0699
  C  C100  1  0.234600  0.747600  0.293400  1.0  -0.0506
  C  C101  1  0.283000  0.727400  0.341000  1.0  0.0867
  C  C102  1  0.277800  0.664100  0.321900  1.0  -0.0792
  C  C103  1  0.220200  0.617600  0.250200  1.0  -0.0431
  C  C104  1  0.895500  0.015600  0.486100  1.0  0.4118
  C  C105  1  0.832300  0.028900  0.462800  1.0  -0.02
  C  C106  1  0.819700  0.043500  0.515000  1.0  -0.0728
  C  C107  1  0.765400  0.058800  0.513000  1.0  -0.0515
  C  C108  1  0.717000  0.058000  0.444400  1.0  0.0771
  C  C109  1  0.722200  0.044100  0.386300  1.0  -0.085
  C  C110  1  0.779800  0.030000  0.397400  1.0  -0.0455
  C  C111  1  0.470500  0.486100  0.590600  1.0  0.4149
  C  C112  1  0.433900  0.462800  0.630500  1.0  -0.0241
  C  C113  1  0.471500  0.515000  0.695300  1.0  -0.0762
  C  C114  1  0.454200  0.513000  0.747600  1.0  -0.0506
  C  C115  1  0.386400  0.444400  0.727400  1.0  0.0781
  C  C116  1  0.342200  0.386300  0.664100  1.0  -0.0852
  C  C117  1  0.367400  0.397400  0.617600  1.0  -0.0465
  C  C118  1  0.529500  0.120100  0.015600  1.0  0.411
  C  C119  1  0.566100  0.196600  0.028900  1.0  -0.023
  C  C120  1  0.528500  0.223800  0.043500  1.0  -0.0706
  C  C121  1  0.545800  0.293400  0.058800  1.0  -0.0535
  C  C122  1  0.613600  0.341000  0.058000  1.0  0.0874
  C  C123  1  0.657800  0.321900  0.044100  1.0  -0.0849
  C  C124  1  0.632600  0.250200  0.030000  1.0  -0.0484
  C  C125  1  0.529500  0.015600  0.120100  1.0  0.413
  C  C126  1  0.566100  0.028900  0.196600  1.0  -0.0242
  C  C127  1  0.528500  0.043500  0.223800  1.0  -0.071
  C  C128  1  0.545800  0.058800  0.293400  1.0  -0.0515
  C  C129  1  0.613600  0.058000  0.341000  1.0  0.0886
  C  C130  1  0.657800  0.044100  0.321900  1.0  -0.0851
  C  C131  1  0.632600  0.030000  0.250200  1.0  -0.049
  C  C132  1  0.470500  0.590600  0.486100  1.0  0.4117
  C  C133  1  0.433900  0.630500  0.462800  1.0  -0.0225
  C  C134  1  0.471500  0.695300  0.515000  1.0  -0.0719
  C  C135  1  0.454200  0.747600  0.513000  1.0  -0.0503
  C  C136  1  0.386400  0.727400  0.444400  1.0  0.0793
  C  C137  1  0.342200  0.664100  0.386300  1.0  -0.0867
  C  C138  1  0.367400  0.617600  0.397400  1.0  -0.046
  C  C139  1  0.104500  0.120100  0.590600  1.0  0.414
  C  C140  1  0.167700  0.196600  0.630500  1.0  -0.0229
  C  C141  1  0.180300  0.223800  0.695300  1.0  -0.0739
  C  C142  1  0.234600  0.293400  0.747600  1.0  -0.0496
  C  C143  1  0.283000  0.341000  0.727400  1.0  0.0891
  C  C144  1  0.277800  0.321900  0.664100  1.0  -0.0811
  C  C145  1  0.220200  0.250200  0.617600  1.0  -0.0455
  C  C146  1  0.895500  0.486100  0.015600  1.0  0.4122
  C  C147  1  0.832300  0.462800  0.028900  1.0  -0.0198
  C  C148  1  0.819700  0.515000  0.043500  1.0  -0.0757
  C  C149  1  0.765400  0.513000  0.058800  1.0  -0.053
  C  C150  1  0.717000  0.444400  0.058000  1.0  0.0784
  C  C151  1  0.722200  0.386300  0.044100  1.0  -0.0879
  C  C152  1  0.779800  0.397400  0.030000  1.0  -0.0438
  C  C153  1  0.895500  0.409400  0.879900  1.0  0.4155
  C  C154  1  0.832300  0.369500  0.803400  1.0  -0.0228
  C  C155  1  0.819700  0.304700  0.776200  1.0  -0.0731
  C  C156  1  0.765400  0.252400  0.706600  1.0  -0.0481
  C  C157  1  0.717000  0.272600  0.659000  1.0  0.0885
  C  C158  1  0.722200  0.335900  0.678100  1.0  -0.0813
  C  C159  1  0.779800  0.382400  0.749800  1.0  -0.0464
  C  C160  1  0.104500  0.984400  0.513900  1.0  0.4104
  C  C161  1  0.167700  0.971100  0.537200  1.0  -0.0204
  C  C162  1  0.180300  0.956500  0.485000  1.0  -0.0733
  C  C163  1  0.234600  0.941200  0.487000  1.0  -0.0498
  C  C164  1  0.283000  0.942000  0.555600  1.0  0.0776
  C  C165  1  0.277800  0.955900  0.613700  1.0  -0.0867
  C  C166  1  0.220200  0.970000  0.602600  1.0  -0.0464
  C  C167  1  0.529500  0.513900  0.409400  1.0  0.4121
  C  C168  1  0.566100  0.537200  0.369500  1.0  -0.024
  C  C169  1  0.528500  0.485000  0.304700  1.0  -0.0772
  C  C170  1  0.545800  0.487000  0.252400  1.0  -0.051
  C  C171  1  0.613600  0.555600  0.272600  1.0  0.079
  C  C172  1  0.657800  0.613700  0.335900  1.0  -0.0834
  C  C173  1  0.632600  0.602600  0.382400  1.0  -0.0493
  C  C174  1  0.470500  0.879900  0.984400  1.0  0.4118
  C  C175  1  0.433900  0.803400  0.971100  1.0  -0.0233
  C  C176  1  0.471500  0.776200  0.956500  1.0  -0.0718
  C  C177  1  0.454200  0.706600  0.941200  1.0  -0.0512
  C  C178  1  0.386400  0.659000  0.942000  1.0  0.0892
  C  C179  1  0.342200  0.678100  0.955900  1.0  -0.088
  C  C180  1  0.367400  0.749800  0.970000  1.0  -0.0503
  C  C181  1  0.377400  0.916110  0.538710  1.0  0.1021
  C  C182  1  0.438000  0.976830  0.538830  1.0  -0.117
  C  C183  1  0.622600  0.161310  0.538710  1.0  0.1054
  C  C184  1  0.562000  0.100830  0.538830  1.0  -0.1175
  C  C185  1  0.622600  0.538710  0.161310  1.0  0.1041
  C  C186  1  0.562000  0.538830  0.100830  1.0  -0.1173
  C  C187  1  0.377400  0.538710  0.916110  1.0  0.1003
  C  C188  1  0.438000  0.538830  0.976830  1.0  -0.1149
  C  C189  1  0.377400  0.838690  0.461290  1.0  0.1053
  C  C190  1  0.438000  0.899170  0.461170  1.0  -0.1181
  C  C191  1  0.622600  0.083890  0.461290  1.0  0.101
  C  C192  1  0.562000  0.023170  0.461170  1.0  -0.1151
  C  C193  1  0.377400  0.461290  0.838690  1.0  0.1021
  C  C194  1  0.438000  0.461170  0.899170  1.0  -0.118
  C  C195  1  0.622600  0.461290  0.083890  1.0  0.1006
  C  C196  1  0.562000  0.461170  0.023170  1.0  -0.1135
  C  C197  1  0.346600  0.846600  0.500000  1.0  -0.0354
  C  C198  1  0.468600  0.968600  0.500000  1.0  0.065
  C  C199  1  0.653400  0.153400  0.500000  1.0  -0.0347
  C  C200  1  0.531400  0.031400  0.500000  1.0  0.0645
  C  C201  1  0.653400  0.500000  0.153400  1.0  -0.0326
  C  C202  1  0.531400  0.500000  0.031400  1.0  0.0641
  C  C203  1  0.346600  0.500000  0.846600  1.0  -0.0359
  C  C204  1  0.468600  0.500000  0.968600  1.0  0.0633
  N  N205  1  0.347100  0.929300  0.582200  1.0  -0.1646
  N  N206  1  0.652900  0.235100  0.582200  1.0  -0.1642
  N  N207  1  0.652900  0.582200  0.235100  1.0  -0.1644
  N  N208  1  0.347100  0.582200  0.929300  1.0  -0.1637
  N  N209  1  0.347100  0.764900  0.417800  1.0  -0.1641
  N  N210  1  0.652900  0.070700  0.417800  1.0  -0.1654
  N  N211  1  0.347100  0.417800  0.764900  1.0  -0.1641
  N  N212  1  0.652900  0.417800  0.070700  1.0  -0.1652
  O  O213  1  0.407100  0.971400  0.885900  1.0  -0.5848
  O  O214  1  0.536500  0.002400  0.921500  1.0  -0.522
  O  O215  1  0.592900  0.478800  0.564300  1.0  -0.589
  O  O216  1  0.463500  0.385000  0.465900  1.0  -0.5244
  O  O217  1  0.914500  0.885900  0.478800  1.0  -0.5859
  O  O218  1  0.919100  0.921500  0.385000  1.0  -0.5196
  O  O219  1  0.085500  0.564300  0.971400  1.0  -0.5818
  O  O220  1  0.080900  0.465900  0.002400  1.0  -0.5237
  O  O221  1  0.085500  0.521200  0.114100  1.0  -0.5882
  O  O222  1  0.080900  0.615000  0.078500  1.0  -0.5198
  O  O223  1  0.914500  0.028600  0.435700  1.0  -0.585
  O  O224  1  0.919100  0.997600  0.534100  1.0  -0.5217
  O  O225  1  0.407100  0.435700  0.521200  1.0  -0.5881
  O  O226  1  0.536500  0.534100  0.615000  1.0  -0.5225
  O  O227  1  0.592900  0.114100  0.028600  1.0  -0.5874
  O  O228  1  0.463500  0.078500  0.997600  1.0  -0.5259
  O  O229  1  0.592900  0.028600  0.114100  1.0  -0.5882
  O  O230  1  0.463500  0.997600  0.078500  1.0  -0.5236
  O  O231  1  0.407100  0.521200  0.435700  1.0  -0.5889
  O  O232  1  0.536500  0.615000  0.534100  1.0  -0.5243
  O  O233  1  0.085500  0.114100  0.521200  1.0  -0.5857
  O  O234  1  0.080900  0.078500  0.615000  1.0  -0.5204
  O  O235  1  0.914500  0.435700  0.028600  1.0  -0.5838
  O  O236  1  0.919100  0.534100  0.997600  1.0  -0.5235
  O  O237  1  0.914500  0.478800  0.885900  1.0  -0.586
  O  O238  1  0.919100  0.385000  0.921500  1.0  -0.5224
  O  O239  1  0.085500  0.971400  0.564300  1.0  -0.5837
  O  O240  1  0.080900  0.002400  0.465900  1.0  -0.5207
  O  O241  1  0.592900  0.564300  0.478800  1.0  -0.5885
  O  O242  1  0.463500  0.465900  0.385000  1.0  -0.5225
  O  O243  1  0.407100  0.885900  0.971400  1.0  -0.5847
  O  O244  1  0.536500  0.921500  0.002400  1.0  -0.5246
