# generated using pymatgen
data_Mg3H26C32(N2O9)2
_symmetry_space_group_name_H-M   'P 1'
_cell_length_a   14.97400000
_cell_length_b   19.70600000
_cell_length_c   19.76000000
_cell_angle_alpha   90.00000000
_cell_angle_beta   90.00000000
_cell_angle_gamma   90.00000000
_symmetry_Int_Tables_number   1
_chemical_formula_structural   Mg3H26C32(N2O9)2
_chemical_formula_sum   'Mg12 H104 C128 N16 O72'
_cell_volume   5830.73424544
_cell_formula_units_Z   4
loop_
 _symmetry_equiv_pos_site_id
 _symmetry_equiv_pos_as_xyz
  1  'x, y, z'
loop_
 _atom_site_type_symbol
 _atom_site_label
 _atom_site_symmetry_multiplicity
 _atom_site_fract_x
 _atom_site_fract_y
 _atom_site_fract_z
 _atom_site_occupancy
 _atom_site_charge
  Mg  Mg1  1  0.735450  0.525830  0.974680  1.0  1.5345
  Mg  Mg2  1  0.264550  0.974170  0.474680  1.0  1.5357
  Mg  Mg3  1  0.235450  0.474170  0.525320  1.0  1.5345
  Mg  Mg4  1  0.764550  0.025830  0.025320  1.0  1.5313
  Mg  Mg5  1  0.264550  0.474170  0.025320  1.0  1.5338
  Mg  Mg6  1  0.735450  0.025830  0.525320  1.0  1.5331
  Mg  Mg7  1  0.764550  0.525830  0.474680  1.0  1.5349
  Mg  Mg8  1  0.235450  0.974170  0.974680  1.0  1.5363
  Mg  Mg9  1  0.500000  0.500000  0.000000  1.0  1.5256
  Mg  Mg10  1  0.500000  0.000000  0.500000  1.0  1.5256
  Mg  Mg11  1  0.000000  0.500000  0.500000  1.0  1.5256
  Mg  Mg12  1  0.000000  0.000000  0.000000  1.0  1.5256
  H  H13  1  0.820800  0.491100  0.613200  1.0  0.387
  H  H14  1  0.346800  0.798400  0.039900  1.0  0.3455
  H  H15  1  0.380500  0.869400  0.043300  1.0  0.313
  H  H16  1  0.345900  0.532400  0.699800  1.0  0.3417
  H  H17  1  0.380300  0.534100  0.629100  1.0  0.3339
  H  H18  1  0.446800  0.705000  0.023200  1.0  0.123
  H  H19  1  0.710800  0.741300  0.009800  1.0  0.0911
  H  H20  1  0.537600  0.894700  0.033700  1.0  0.1018
  H  H21  1  0.538400  0.528100  0.603500  1.0  0.1193
  H  H22  1  0.709800  0.508800  0.758400  1.0  0.0875
  H  H23  1  0.447700  0.522100  0.794900  1.0  0.1073
  H  H24  1  0.658000  0.485000  0.060000  1.0  0.3388
  H  H25  1  0.663000  0.444000  0.003000  1.0  0.3956
  H  H26  1  0.179200  0.008900  0.113200  1.0  0.3854
  H  H27  1  0.653200  0.701600  0.539900  1.0  0.3452
  H  H28  1  0.619500  0.630600  0.543300  1.0  0.3137
  H  H29  1  0.654100  0.967600  0.199800  1.0  0.3414
  H  H30  1  0.619700  0.965900  0.129100  1.0  0.3326
  H  H31  1  0.553200  0.795000  0.523200  1.0  0.1239
  H  H32  1  0.289200  0.758700  0.509800  1.0  0.0914
  H  H33  1  0.462400  0.605300  0.533700  1.0  0.1021
  H  H34  1  0.461600  0.971900  0.103500  1.0  0.1188
  H  H35  1  0.290200  0.991200  0.258400  1.0  0.0876
  H  H36  1  0.552300  0.977900  0.294900  1.0  0.1072
  H  H37  1  0.342000  0.015000  0.560000  1.0  0.3393
  H  H38  1  0.337000  0.056000  0.503000  1.0  0.3963
  H  H39  1  0.320800  0.508900  0.886800  1.0  0.3864
  H  H40  1  0.846800  0.201600  0.460100  1.0  0.3457
  H  H41  1  0.880500  0.130600  0.456700  1.0  0.3133
  H  H42  1  0.845900  0.467600  0.800200  1.0  0.3412
  H  H43  1  0.880300  0.465900  0.870900  1.0  0.3333
  H  H44  1  0.946800  0.295000  0.476800  1.0  0.1239
  H  H45  1  0.210800  0.258700  0.490200  1.0  0.0908
  H  H46  1  0.037600  0.105300  0.466300  1.0  0.102
  H  H47  1  0.038400  0.471900  0.896500  1.0  0.119
  H  H48  1  0.209800  0.491200  0.741600  1.0  0.0878
  H  H49  1  0.947700  0.477900  0.705100  1.0  0.1069
  H  H50  1  0.158000  0.515000  0.440000  1.0  0.339
  H  H51  1  0.163000  0.556000  0.497000  1.0  0.3961
  H  H52  1  0.679200  0.991100  0.386800  1.0  0.3851
  H  H53  1  0.153200  0.298400  0.960100  1.0  0.3448
  H  H54  1  0.119500  0.369400  0.956700  1.0  0.3133
  H  H55  1  0.154100  0.032400  0.300200  1.0  0.3409
  H  H56  1  0.119700  0.034100  0.370900  1.0  0.3329
  H  H57  1  0.053200  0.205000  0.976800  1.0  0.1236
  H  H58  1  0.789200  0.241300  0.990200  1.0  0.0911
  H  H59  1  0.962400  0.394700  0.966300  1.0  0.1015
  H  H60  1  0.961600  0.028100  0.396500  1.0  0.1193
  H  H61  1  0.790200  0.008800  0.241600  1.0  0.0885
  H  H62  1  0.052300  0.022100  0.205100  1.0  0.1068
  H  H63  1  0.842000  0.985000  0.940000  1.0  0.3392
  H  H64  1  0.837000  0.944000  0.997000  1.0  0.3956
  H  H65  1  0.179200  0.508900  0.386800  1.0  0.3851
  H  H66  1  0.653200  0.201600  0.960100  1.0  0.3458
  H  H67  1  0.619500  0.130600  0.956700  1.0  0.3138
  H  H68  1  0.654100  0.467600  0.300200  1.0  0.3409
  H  H69  1  0.619700  0.465900  0.370900  1.0  0.3332
  H  H70  1  0.553200  0.295000  0.976800  1.0  0.1242
  H  H71  1  0.289200  0.258700  0.990200  1.0  0.0912
  H  H72  1  0.462400  0.105300  0.966300  1.0  0.102
  H  H73  1  0.461600  0.471900  0.396500  1.0  0.1189
  H  H74  1  0.290200  0.491200  0.241600  1.0  0.0883
  H  H75  1  0.552300  0.477900  0.205100  1.0  0.107
  H  H76  1  0.342000  0.515000  0.940000  1.0  0.3389
  H  H77  1  0.337000  0.556000  0.997000  1.0  0.3956
  H  H78  1  0.820800  0.991100  0.886800  1.0  0.3861
  H  H79  1  0.346800  0.298400  0.460100  1.0  0.3457
  H  H80  1  0.380500  0.369400  0.456700  1.0  0.3126
  H  H81  1  0.345900  0.032400  0.800200  1.0  0.3413
  H  H82  1  0.380300  0.034100  0.870900  1.0  0.3329
  H  H83  1  0.446800  0.205000  0.476800  1.0  0.1232
  H  H84  1  0.710800  0.241300  0.490200  1.0  0.091
  H  H85  1  0.537600  0.394700  0.466300  1.0  0.1014
  H  H86  1  0.538400  0.028100  0.896500  1.0  0.1195
  H  H87  1  0.709800  0.008800  0.741600  1.0  0.088
  H  H88  1  0.447700  0.022100  0.705100  1.0  0.1072
  H  H89  1  0.658000  0.985000  0.440000  1.0  0.3385
  H  H90  1  0.663000  0.944000  0.497000  1.0  0.3964
  H  H91  1  0.679200  0.491100  0.113200  1.0  0.3855
  H  H92  1  0.153200  0.798400  0.539900  1.0  0.3455
  H  H93  1  0.119500  0.869400  0.543300  1.0  0.3137
  H  H94  1  0.154100  0.532400  0.199800  1.0  0.3411
  H  H95  1  0.119700  0.534100  0.129100  1.0  0.3333
  H  H96  1  0.053200  0.705000  0.523200  1.0  0.1236
  H  H97  1  0.789200  0.741300  0.509800  1.0  0.0911
  H  H98  1  0.962400  0.894700  0.533700  1.0  0.1018
  H  H99  1  0.961600  0.528100  0.103500  1.0  0.119
  H  H100  1  0.790200  0.508800  0.258400  1.0  0.0878
  H  H101  1  0.052300  0.522100  0.294900  1.0  0.1069
  H  H102  1  0.842000  0.485000  0.560000  1.0  0.3391
  H  H103  1  0.837000  0.444000  0.503000  1.0  0.3948
  H  H104  1  0.320800  0.008900  0.613200  1.0  0.3867
  H  H105  1  0.846800  0.701600  0.039900  1.0  0.3465
  H  H106  1  0.880500  0.630600  0.043300  1.0  0.3131
  H  H107  1  0.845900  0.967600  0.699800  1.0  0.3419
  H  H108  1  0.880300  0.965900  0.629100  1.0  0.333
  H  H109  1  0.946800  0.795000  0.023200  1.0  0.1238
  H  H110  1  0.210800  0.758700  0.009800  1.0  0.0911
  H  H111  1  0.037600  0.605300  0.033700  1.0  0.1021
  H  H112  1  0.038400  0.971900  0.603500  1.0  0.1192
  H  H113  1  0.209800  0.991200  0.758400  1.0  0.0873
  H  H114  1  0.947700  0.977900  0.794900  1.0  0.1071
  H  H115  1  0.158000  0.015000  0.060000  1.0  0.3388
  H  H116  1  0.163000  0.056000  0.003000  1.0  0.3965
  C  C117  1  0.581000  0.515000  0.788100  1.0  -0.1173
  C  C118  1  0.582300  0.711200  0.012500  1.0  -0.1481
  C  C119  1  0.478300  0.803100  0.029200  1.0  0.2894
  C  C120  1  0.494200  0.735500  0.022000  1.0  -0.1523
  C  C121  1  0.635400  0.517900  0.673500  1.0  -0.1584
  C  C122  1  0.710900  0.515200  0.623500  1.0  0.6934
  C  C123  1  0.636300  0.826200  0.017600  1.0  -0.1336
  C  C124  1  0.477700  0.525400  0.696300  1.0  0.2813
  C  C125  1  0.596900  0.637000  0.006100  1.0  0.7849
  C  C126  1  0.652400  0.757000  0.012900  1.0  -0.036
  C  C127  1  0.548700  0.848600  0.027800  1.0  -0.1801
  C  C128  1  0.549300  0.524400  0.649700  1.0  -0.1511
  C  C129  1  0.651600  0.513200  0.742600  1.0  -0.0415
  C  C130  1  0.494900  0.521000  0.764400  1.0  -0.1356
  C  C131  1  0.597700  0.511000  0.863500  1.0  0.7896
  C  C132  1  0.711900  0.875700  0.018800  1.0  0.701
  C  C133  1  0.419000  0.985000  0.288100  1.0  -0.1178
  C  C134  1  0.417700  0.788800  0.512500  1.0  -0.148
  C  C135  1  0.521700  0.696900  0.529200  1.0  0.2895
  C  C136  1  0.505800  0.764500  0.522000  1.0  -0.1518
  C  C137  1  0.364600  0.982100  0.173500  1.0  -0.1584
  C  C138  1  0.289100  0.984800  0.123500  1.0  0.6932
  C  C139  1  0.363700  0.673800  0.517600  1.0  -0.1345
  C  C140  1  0.522300  0.974600  0.196300  1.0  0.2807
  C  C141  1  0.403100  0.863000  0.506100  1.0  0.7846
  C  C142  1  0.347600  0.743000  0.512900  1.0  -0.0357
  C  C143  1  0.451300  0.651400  0.527800  1.0  -0.1792
  C  C144  1  0.450700  0.975600  0.149700  1.0  -0.1518
  C  C145  1  0.348400  0.986800  0.242600  1.0  -0.041
  C  C146  1  0.505100  0.979000  0.264400  1.0  -0.1345
  C  C147  1  0.402300  0.989000  0.363500  1.0  0.7897
  C  C148  1  0.288100  0.624300  0.518800  1.0  0.7014
  C  C149  1  0.081000  0.485000  0.711900  1.0  -0.1173
  C  C150  1  0.082300  0.288800  0.487500  1.0  -0.1482
  C  C151  1  0.978300  0.196900  0.470800  1.0  0.2893
  C  C152  1  0.994200  0.264500  0.478000  1.0  -0.1529
  C  C153  1  0.135400  0.482100  0.826500  1.0  -0.1589
  C  C154  1  0.210900  0.484800  0.876500  1.0  0.6927
  C  C155  1  0.136300  0.173800  0.482400  1.0  -0.134
  C  C156  1  0.977700  0.474600  0.803700  1.0  0.2814
  C  C157  1  0.096900  0.363000  0.493900  1.0  0.7836
  C  C158  1  0.152400  0.243000  0.487100  1.0  -0.0355
  C  C159  1  0.048700  0.151400  0.472200  1.0  -0.1806
  C  C160  1  0.049300  0.475600  0.850300  1.0  -0.1516
  C  C161  1  0.151600  0.486800  0.757400  1.0  -0.041
  C  C162  1  0.994900  0.479000  0.735600  1.0  -0.1351
  C  C163  1  0.097700  0.489000  0.636500  1.0  0.7901
  C  C164  1  0.211900  0.124300  0.481200  1.0  0.7019
  C  C165  1  0.919000  0.015000  0.211900  1.0  -0.1179
  C  C166  1  0.917700  0.211200  0.987500  1.0  -0.1484
  C  C167  1  0.021700  0.303100  0.970800  1.0  0.2897
  C  C168  1  0.005800  0.235500  0.978000  1.0  -0.1515
  C  C169  1  0.864600  0.017900  0.326500  1.0  -0.1592
  C  C170  1  0.789100  0.015200  0.376500  1.0  0.6927
  C  C171  1  0.863700  0.326200  0.982400  1.0  -0.1347
  C  C172  1  0.022300  0.025400  0.303700  1.0  0.2809
  C  C173  1  0.903100  0.137000  0.993900  1.0  0.7839
  C  C174  1  0.847600  0.257000  0.987100  1.0  -0.0357
  C  C175  1  0.951300  0.348600  0.972200  1.0  -0.1791
  C  C176  1  0.950700  0.024400  0.350300  1.0  -0.1512
  C  C177  1  0.848400  0.013200  0.257400  1.0  -0.0414
  C  C178  1  0.005100  0.021000  0.235600  1.0  -0.1343
  C  C179  1  0.902300  0.011000  0.136500  1.0  0.7903
  C  C180  1  0.788100  0.375700  0.981200  1.0  0.7013
  C  C181  1  0.419000  0.485000  0.211900  1.0  -0.1179
  C  C182  1  0.417700  0.288800  0.987500  1.0  -0.1482
  C  C183  1  0.521700  0.196900  0.970800  1.0  0.2896
  C  C184  1  0.505800  0.264500  0.978000  1.0  -0.1519
  C  C185  1  0.364600  0.482100  0.326500  1.0  -0.159
  C  C186  1  0.289100  0.484800  0.376500  1.0  0.6926
  C  C187  1  0.363700  0.173800  0.982400  1.0  -0.1347
  C  C188  1  0.522300  0.474600  0.303700  1.0  0.2809
  C  C189  1  0.403100  0.363000  0.993900  1.0  0.7838
  C  C190  1  0.347600  0.243000  0.987100  1.0  -0.0354
  C  C191  1  0.451300  0.151400  0.972200  1.0  -0.1793
  C  C192  1  0.450700  0.475600  0.350300  1.0  -0.1514
  C  C193  1  0.348400  0.486800  0.257400  1.0  -0.0411
  C  C194  1  0.505100  0.479000  0.235600  1.0  -0.1344
  C  C195  1  0.402300  0.489000  0.136500  1.0  0.7903
  C  C196  1  0.288100  0.124300  0.981200  1.0  0.7014
  C  C197  1  0.581000  0.015000  0.711900  1.0  -0.1173
  C  C198  1  0.582300  0.211200  0.487500  1.0  -0.1484
  C  C199  1  0.478300  0.303100  0.470800  1.0  0.2894
  C  C200  1  0.494200  0.235500  0.478000  1.0  -0.1524
  C  C201  1  0.635400  0.017900  0.826500  1.0  -0.159
  C  C202  1  0.710900  0.015200  0.876500  1.0  0.693
  C  C203  1  0.636300  0.326200  0.482400  1.0  -0.1339
  C  C204  1  0.477700  0.025400  0.803700  1.0  0.2814
  C  C205  1  0.596900  0.137000  0.493900  1.0  0.784
  C  C206  1  0.652400  0.257000  0.487100  1.0  -0.0358
  C  C207  1  0.548700  0.348600  0.472200  1.0  -0.1806
  C  C208  1  0.549300  0.024400  0.850300  1.0  -0.1514
  C  C209  1  0.651600  0.013200  0.757400  1.0  -0.0412
  C  C210  1  0.494900  0.021000  0.735600  1.0  -0.135
  C  C211  1  0.597700  0.011000  0.636500  1.0  0.79
  C  C212  1  0.711900  0.375700  0.481200  1.0  0.701
  C  C213  1  0.919000  0.515000  0.288100  1.0  -0.1177
  C  C214  1  0.917700  0.711200  0.512500  1.0  -0.1482
  C  C215  1  0.021700  0.803100  0.529200  1.0  0.2896
  C  C216  1  0.005800  0.735500  0.522000  1.0  -0.1514
  C  C217  1  0.864600  0.517900  0.173500  1.0  -0.1586
  C  C218  1  0.789100  0.515200  0.123500  1.0  0.6933
  C  C219  1  0.863700  0.826200  0.517600  1.0  -0.1344
  C  C220  1  0.022300  0.525400  0.196300  1.0  0.2807
  C  C221  1  0.903100  0.637000  0.506100  1.0  0.7848
  C  C222  1  0.847600  0.757000  0.512900  1.0  -0.0359
  C  C223  1  0.951300  0.848600  0.527800  1.0  -0.1788
  C  C224  1  0.950700  0.524400  0.149700  1.0  -0.1508
  C  C225  1  0.848400  0.513200  0.242600  1.0  -0.0415
  C  C226  1  0.005100  0.521000  0.264400  1.0  -0.1345
  C  C227  1  0.902300  0.511000  0.363500  1.0  0.7898
  C  C228  1  0.788100  0.875700  0.518800  1.0  0.7012
  C  C229  1  0.081000  0.985000  0.788100  1.0  -0.1174
  C  C230  1  0.082300  0.788800  0.012500  1.0  -0.1481
  C  C231  1  0.978300  0.696900  0.029200  1.0  0.2892
  C  C232  1  0.994200  0.764500  0.022000  1.0  -0.1527
  C  C233  1  0.135400  0.982100  0.673500  1.0  -0.1584
  C  C234  1  0.210900  0.984800  0.623500  1.0  0.6936
  C  C235  1  0.136300  0.673800  0.017600  1.0  -0.1338
  C  C236  1  0.977700  0.974600  0.696300  1.0  0.2813
  C  C237  1  0.096900  0.863000  0.006100  1.0  0.7844
  C  C238  1  0.152400  0.743000  0.012900  1.0  -0.0357
  C  C239  1  0.048700  0.651400  0.027800  1.0  -0.1803
  C  C240  1  0.049300  0.975600  0.649700  1.0  -0.152
  C  C241  1  0.151600  0.986800  0.742600  1.0  -0.0412
  C  C242  1  0.994900  0.979000  0.764400  1.0  -0.1358
  C  C243  1  0.097700  0.989000  0.863500  1.0  0.7896
  C  C244  1  0.211900  0.624300  0.018800  1.0  0.7018
  N  N245  1  0.390500  0.826700  0.038700  1.0  -0.7369
  N  N246  1  0.390000  0.531400  0.671900  1.0  -0.707
  N  N247  1  0.609500  0.673300  0.538700  1.0  -0.7375
  N  N248  1  0.610000  0.968600  0.171900  1.0  -0.707
  N  N249  1  0.890500  0.173300  0.461300  1.0  -0.7367
  N  N250  1  0.890000  0.468600  0.828100  1.0  -0.7063
  N  N251  1  0.109500  0.326700  0.961300  1.0  -0.7375
  N  N252  1  0.110000  0.031400  0.328100  1.0  -0.7062
  N  N253  1  0.609500  0.173300  0.961300  1.0  -0.7372
  N  N254  1  0.610000  0.468600  0.328100  1.0  -0.7065
  N  N255  1  0.390500  0.326700  0.461300  1.0  -0.7366
  N  N256  1  0.390000  0.031400  0.828100  1.0  -0.7063
  N  N257  1  0.109500  0.826700  0.538700  1.0  -0.7376
  N  N258  1  0.110000  0.531400  0.171900  1.0  -0.7066
  N  N259  1  0.890500  0.673300  0.038700  1.0  -0.737
  N  N260  1  0.890000  0.968600  0.671900  1.0  -0.7071
  O  O261  1  0.531700  0.597600  0.014000  1.0  -0.7244
  O  O262  1  0.674200  0.616700  0.990800  1.0  -0.7882
  O  O263  1  0.531100  0.507000  0.900500  1.0  -0.7128
  O  O264  1  0.676800  0.513000  0.882600  1.0  -0.7433
  O  O265  1  0.695900  0.935300  0.037800  1.0  -0.7653
  O  O266  1  0.786800  0.855000  0.998500  1.0  -0.5939
  O  O267  1  0.784300  0.490400  0.644000  1.0  -0.4182
  O  O268  1  0.696300  0.536700  0.564800  1.0  -0.6368
  O  O269  1  0.631400  0.470400  0.025900  1.0  -0.8443
  O  O270  1  0.468300  0.902400  0.514000  1.0  -0.726
  O  O271  1  0.325800  0.883300  0.490800  1.0  -0.7917
  O  O272  1  0.468900  0.993000  0.400500  1.0  -0.7138
  O  O273  1  0.323200  0.987000  0.382600  1.0  -0.7346
  O  O274  1  0.304100  0.564700  0.537800  1.0  -0.7649
  O  O275  1  0.213200  0.645000  0.498500  1.0  -0.5934
  O  O276  1  0.215700  0.009600  0.144000  1.0  -0.4186
  O  O277  1  0.303700  0.963300  0.064800  1.0  -0.6371
  O  O278  1  0.368600  0.029600  0.525900  1.0  -0.8446
  O  O279  1  0.031700  0.402400  0.486000  1.0  -0.7248
  O  O280  1  0.174200  0.383300  0.509200  1.0  -0.7899
  O  O281  1  0.031100  0.493000  0.599500  1.0  -0.7114
  O  O282  1  0.176800  0.487000  0.617400  1.0  -0.741
  O  O283  1  0.195900  0.064700  0.462200  1.0  -0.7618
  O  O284  1  0.286800  0.145000  0.501500  1.0  -0.5939
  O  O285  1  0.284300  0.509600  0.856000  1.0  -0.4181
  O  O286  1  0.196300  0.463300  0.935200  1.0  -0.6361
  O  O287  1  0.131400  0.529600  0.474100  1.0  -0.8433
  O  O288  1  0.968300  0.097600  0.986000  1.0  -0.7259
  O  O289  1  0.825800  0.116700  0.009200  1.0  -0.7911
  O  O290  1  0.968900  0.007000  0.099500  1.0  -0.7124
  O  O291  1  0.823200  0.013000  0.117400  1.0  -0.7347
  O  O292  1  0.804100  0.435300  0.962200  1.0  -0.7657
  O  O293  1  0.713200  0.355000  0.001500  1.0  -0.5935
  O  O294  1  0.715700  0.990400  0.356000  1.0  -0.4185
  O  O295  1  0.803700  0.036700  0.435200  1.0  -0.637
  O  O296  1  0.868600  0.970400  0.974100  1.0  -0.8431
  O  O297  1  0.468300  0.402400  0.986000  1.0  -0.726
  O  O298  1  0.325800  0.383300  0.009200  1.0  -0.7928
  O  O299  1  0.468900  0.493000  0.099500  1.0  -0.7125
  O  O300  1  0.323200  0.487000  0.117400  1.0  -0.7336
  O  O301  1  0.304100  0.064700  0.962200  1.0  -0.764
  O  O302  1  0.213200  0.145000  0.001500  1.0  -0.5938
  O  O303  1  0.215700  0.509600  0.356000  1.0  -0.4179
  O  O304  1  0.303700  0.463300  0.435200  1.0  -0.6363
  O  O305  1  0.368600  0.529600  0.974100  1.0  -0.8436
  O  O306  1  0.531700  0.097600  0.486000  1.0  -0.725
  O  O307  1  0.674200  0.116700  0.509200  1.0  -0.7879
  O  O308  1  0.531100  0.007000  0.599500  1.0  -0.711
  O  O309  1  0.676800  0.013000  0.617400  1.0  -0.7425
  O  O310  1  0.695900  0.435300  0.462200  1.0  -0.763
  O  O311  1  0.786800  0.355000  0.501500  1.0  -0.5944
  O  O312  1  0.784300  0.990400  0.856000  1.0  -0.4183
  O  O313  1  0.696300  0.036700  0.935200  1.0  -0.6368
  O  O314  1  0.631400  0.970400  0.474100  1.0  -0.8446
  O  O315  1  0.968300  0.597600  0.514000  1.0  -0.7253
  O  O316  1  0.825800  0.616700  0.490800  1.0  -0.7911
  O  O317  1  0.968900  0.507000  0.400500  1.0  -0.7139
  O  O318  1  0.823200  0.513000  0.382600  1.0  -0.7356
  O  O319  1  0.804100  0.935300  0.537800  1.0  -0.7675
  O  O320  1  0.713200  0.855000  0.498500  1.0  -0.5923
  O  O321  1  0.715700  0.490400  0.144000  1.0  -0.4185
  O  O322  1  0.803700  0.536700  0.064800  1.0  -0.6373
  O  O323  1  0.868600  0.470400  0.525900  1.0  -0.8439
  O  O324  1  0.031700  0.902400  0.014000  1.0  -0.7247
  O  O325  1  0.174200  0.883300  0.990800  1.0  -0.789
  O  O326  1  0.031100  0.993000  0.900500  1.0  -0.7129
  O  O327  1  0.176800  0.987000  0.882600  1.0  -0.742
  O  O328  1  0.195900  0.564700  0.037800  1.0  -0.7632
  O  O329  1  0.286800  0.645000  0.998500  1.0  -0.5928
  O  O330  1  0.284300  0.009600  0.644000  1.0  -0.4179
  O  O331  1  0.196300  0.963300  0.564800  1.0  -0.6366
  O  O332  1  0.131400  0.029600  0.025900  1.0  -0.8437
