# generated using pymatgen
data_Mg3H24C32(N2O9)2
_symmetry_space_group_name_H-M   'P 1'
_cell_length_a   12.84700000
_cell_length_b   14.84400000
_cell_length_c   15.14800000
_cell_angle_alpha   90.00000000
_cell_angle_beta   90.00000000
_cell_angle_gamma   90.00000000
_symmetry_Int_Tables_number   1
_chemical_formula_structural   Mg3H24C32(N2O9)2
_chemical_formula_sum   'Mg6 H48 C64 N8 O36'
_cell_volume   2888.73674846
_cell_formula_units_Z   2
loop_
 _symmetry_equiv_pos_site_id
 _symmetry_equiv_pos_as_xyz
  1  'x, y, z'
loop_
 _atom_site_type_symbol
 _atom_site_label
 _atom_site_symmetry_multiplicity
 _atom_site_fract_x
 _atom_site_fract_y
 _atom_site_fract_z
 _atom_site_occupancy
 _atom_site_charge
  Mg  Mg1  1  0.556710  0.237640  0.000000  1.0  1.5066
  Mg  Mg2  1  0.443290  0.762360  0.000000  1.0  1.51
  Mg  Mg3  1  0.943290  0.737640  0.500000  1.0  1.5078
  Mg  Mg4  1  0.056710  0.262360  0.500000  1.0  1.5088
  Mg  Mg5  1  0.000000  0.500000  0.500000  1.0  1.5142
  Mg  Mg6  1  0.500000  0.000000  0.000000  1.0  1.5142
  H  H7  1  0.417000  0.465100  0.123400  1.0  0.1081
  H  H8  1  0.225800  0.553600  0.313900  1.0  0.1113
  H  H9  1  0.252400  0.288800  0.267200  1.0  0.102
  H  H10  1  0.324400  0.657800  0.223300  1.0  0.328
  H  H11  1  0.396500  0.624700  0.153400  1.0  0.3327
  H  H12  1  0.088000  0.654000  0.545800  1.0  0.4221
  H  H13  1  0.583000  0.534900  0.123400  1.0  0.1075
  H  H14  1  0.774200  0.446400  0.313900  1.0  0.1115
  H  H15  1  0.747600  0.711200  0.267200  1.0  0.1022
  H  H16  1  0.675600  0.342200  0.223300  1.0  0.3274
  H  H17  1  0.603500  0.375300  0.153400  1.0  0.3317
  H  H18  1  0.912000  0.346000  0.545800  1.0  0.4229
  H  H19  1  0.083000  0.965100  0.376600  1.0  0.1087
  H  H20  1  0.274200  0.053600  0.186100  1.0  0.1118
  H  H21  1  0.247600  0.788800  0.232800  1.0  0.1025
  H  H22  1  0.175600  0.157800  0.276700  1.0  0.3273
  H  H23  1  0.103500  0.124700  0.346600  1.0  0.3322
  H  H24  1  0.412000  0.154000  0.954200  1.0  0.4232
  H  H25  1  0.917000  0.034900  0.376600  1.0  0.1077
  H  H26  1  0.725800  0.946400  0.186100  1.0  0.111
  H  H27  1  0.752400  0.211200  0.232800  1.0  0.1026
  H  H28  1  0.824400  0.842200  0.276700  1.0  0.3267
  H  H29  1  0.896500  0.875300  0.346600  1.0  0.334
  H  H30  1  0.588000  0.846000  0.954200  1.0  0.4212
  H  H31  1  0.583000  0.534900  0.876600  1.0  0.1085
  H  H32  1  0.774200  0.446400  0.686100  1.0  0.1113
  H  H33  1  0.747600  0.711200  0.732800  1.0  0.1027
  H  H34  1  0.675600  0.342200  0.776700  1.0  0.3267
  H  H35  1  0.603500  0.375300  0.846600  1.0  0.3322
  H  H36  1  0.912000  0.346000  0.454200  1.0  0.4227
  H  H37  1  0.417000  0.465100  0.876600  1.0  0.1078
  H  H38  1  0.225800  0.553600  0.686100  1.0  0.1114
  H  H39  1  0.252400  0.288800  0.732800  1.0  0.1023
  H  H40  1  0.324400  0.657800  0.776700  1.0  0.3276
  H  H41  1  0.396500  0.624700  0.846600  1.0  0.3336
  H  H42  1  0.088000  0.654000  0.454200  1.0  0.4215
  H  H43  1  0.917000  0.034900  0.623400  1.0  0.108
  H  H44  1  0.725800  0.946400  0.813900  1.0  0.111
  H  H45  1  0.752400  0.211200  0.767200  1.0  0.1021
  H  H46  1  0.824400  0.842200  0.723300  1.0  0.3273
  H  H47  1  0.896500  0.875300  0.653400  1.0  0.3328
  H  H48  1  0.588000  0.846000  0.045800  1.0  0.4221
  H  H49  1  0.083000  0.965100  0.623400  1.0  0.1075
  H  H50  1  0.274200  0.053600  0.813900  1.0  0.1119
  H  H51  1  0.247600  0.788800  0.767200  1.0  0.1023
  H  H52  1  0.175600  0.157800  0.723300  1.0  0.3279
  H  H53  1  0.103500  0.124700  0.653400  1.0  0.3319
  H  H54  1  0.412000  0.154000  0.045800  1.0  0.4235
  C  C55  1  0.340600  0.365670  0.186410  1.0  -0.1409
  C  C56  1  0.326200  0.524810  0.215800  1.0  0.2427
  C  C57  1  0.369000  0.453470  0.167980  1.0  -0.1459
  C  C58  1  0.386200  0.289810  0.132830  1.0  0.6943
  C  C59  1  0.255400  0.506410  0.282240  1.0  -0.1381
  C  C60  1  0.227930  0.418470  0.302130  1.0  -0.1509
  C  C61  1  0.270640  0.347940  0.254060  1.0  -0.0207
  C  C62  1  0.151330  0.401400  0.375370  1.0  0.7356
  C  C63  1  0.659400  0.634330  0.186410  1.0  -0.14
  C  C64  1  0.673800  0.475190  0.215800  1.0  0.2413
  C  C65  1  0.631000  0.546530  0.167980  1.0  -0.1465
  C  C66  1  0.613800  0.710190  0.132830  1.0  0.6947
  C  C67  1  0.744600  0.493590  0.282240  1.0  -0.1369
  C  C68  1  0.772070  0.581530  0.302130  1.0  -0.1504
  C  C69  1  0.729360  0.652060  0.254060  1.0  -0.0181
  C  C70  1  0.848670  0.598600  0.375370  1.0  0.7343
  C  C71  1  0.159400  0.865670  0.313590  1.0  -0.1406
  C  C72  1  0.173800  0.024810  0.284200  1.0  0.2417
  C  C73  1  0.131000  0.953470  0.332020  1.0  -0.1462
  C  C74  1  0.113800  0.789810  0.367170  1.0  0.6954
  C  C75  1  0.244600  0.006410  0.217760  1.0  -0.138
  C  C76  1  0.272070  0.918470  0.197870  1.0  -0.1504
  C  C77  1  0.229360  0.847940  0.245940  1.0  -0.0192
  C  C78  1  0.348670  0.901400  0.124630  1.0  0.7343
  C  C79  1  0.840600  0.134330  0.313590  1.0  -0.14
  C  C80  1  0.826200  0.975190  0.284200  1.0  0.2427
  C  C81  1  0.869000  0.046530  0.332020  1.0  -0.1453
  C  C82  1  0.886200  0.210190  0.367170  1.0  0.6949
  C  C83  1  0.755400  0.993590  0.217760  1.0  -0.1361
  C  C84  1  0.727930  0.081530  0.197870  1.0  -0.1505
  C  C85  1  0.770640  0.152060  0.245940  1.0  -0.0188
  C  C86  1  0.651330  0.098600  0.124630  1.0  0.7351
  C  C87  1  0.659400  0.634330  0.813590  1.0  -0.1402
  C  C88  1  0.673800  0.475190  0.784200  1.0  0.2413
  C  C89  1  0.631000  0.546530  0.832020  1.0  -0.1459
  C  C90  1  0.613800  0.710190  0.867170  1.0  0.695
  C  C91  1  0.744600  0.493590  0.717760  1.0  -0.1363
  C  C92  1  0.772070  0.581530  0.697870  1.0  -0.1501
  C  C93  1  0.729360  0.652060  0.745940  1.0  -0.0183
  C  C94  1  0.848670  0.598600  0.624630  1.0  0.7342
  C  C95  1  0.340600  0.365670  0.813590  1.0  -0.1406
  C  C96  1  0.326200  0.524810  0.784200  1.0  0.2428
  C  C97  1  0.369000  0.453470  0.832020  1.0  -0.1453
  C  C98  1  0.386200  0.289810  0.867170  1.0  0.6949
  C  C99  1  0.255400  0.506410  0.717760  1.0  -0.1374
  C  C100  1  0.227930  0.418470  0.697870  1.0  -0.1509
  C  C101  1  0.270640  0.347940  0.745940  1.0  -0.0203
  C  C102  1  0.151330  0.401400  0.624630  1.0  0.7351
  C  C103  1  0.840600  0.134330  0.686410  1.0  -0.1401
  C  C104  1  0.826200  0.975190  0.715800  1.0  0.2427
  C  C105  1  0.869000  0.046530  0.667980  1.0  -0.1459
  C  C106  1  0.886200  0.210190  0.632830  1.0  0.6947
  C  C107  1  0.755400  0.993590  0.782240  1.0  -0.1371
  C  C108  1  0.727930  0.081530  0.802130  1.0  -0.1507
  C  C109  1  0.770640  0.152060  0.754060  1.0  -0.0186
  C  C110  1  0.651330  0.098600  0.875370  1.0  0.7356
  C  C111  1  0.159400  0.865670  0.686410  1.0  -0.1405
  C  C112  1  0.173800  0.024810  0.715800  1.0  0.2417
  C  C113  1  0.131000  0.953470  0.667980  1.0  -0.1467
  C  C114  1  0.113800  0.789810  0.632830  1.0  0.6947
  C  C115  1  0.244600  0.006410  0.782240  1.0  -0.1382
  C  C116  1  0.272070  0.918470  0.802130  1.0  -0.1505
  C  C117  1  0.229360  0.847940  0.754060  1.0  -0.0198
  C  C118  1  0.348670  0.901400  0.875370  1.0  0.7344
  N  N119  1  0.352400  0.613900  0.194800  1.0  -0.7146
  N  N120  1  0.647600  0.386100  0.194800  1.0  -0.7158
  N  N121  1  0.147600  0.113900  0.305200  1.0  -0.7158
  N  N122  1  0.852400  0.886100  0.305200  1.0  -0.7146
  N  N123  1  0.647600  0.386100  0.805200  1.0  -0.7154
  N  N124  1  0.352400  0.613900  0.805200  1.0  -0.7148
  N  N125  1  0.852400  0.886100  0.694800  1.0  -0.715
  N  N126  1  0.147600  0.113900  0.694800  1.0  -0.7155
  O  O127  1  0.471160  0.305100  0.094540  1.0  -0.6119
  O  O128  1  0.336800  0.216750  0.129130  1.0  -0.5862
  O  O129  1  0.141420  0.322690  0.401500  1.0  -0.6224
  O  O130  1  0.104040  0.467720  0.404860  1.0  -0.6809
  O  O131  1  0.528840  0.694900  0.094540  1.0  -0.6128
  O  O132  1  0.663200  0.783250  0.129130  1.0  -0.5863
  O  O133  1  0.858580  0.677310  0.401500  1.0  -0.6236
  O  O134  1  0.895960  0.532280  0.404860  1.0  -0.6831
  O  O135  1  0.028840  0.805100  0.405460  1.0  -0.6122
  O  O136  1  0.163200  0.716750  0.370870  1.0  -0.5862
  O  O137  1  0.358580  0.822690  0.098500  1.0  -0.6222
  O  O138  1  0.395960  0.967720  0.095140  1.0  -0.6827
  O  O139  1  0.971160  0.194900  0.405460  1.0  -0.6132
  O  O140  1  0.836800  0.283250  0.370870  1.0  -0.5852
  O  O141  1  0.641420  0.177310  0.098500  1.0  -0.6217
  O  O142  1  0.604040  0.032280  0.095140  1.0  -0.6828
  O  O143  1  0.528840  0.694900  0.905460  1.0  -0.6129
  O  O144  1  0.663200  0.783250  0.870870  1.0  -0.5857
  O  O145  1  0.858580  0.677310  0.598500  1.0  -0.6238
  O  O146  1  0.895960  0.532280  0.595140  1.0  -0.6837
  O  O147  1  0.471160  0.305100  0.905460  1.0  -0.6125
  O  O148  1  0.336800  0.216750  0.870870  1.0  -0.5857
  O  O149  1  0.141420  0.322690  0.598500  1.0  -0.6223
  O  O150  1  0.104040  0.467720  0.595140  1.0  -0.6816
  O  O151  1  0.971160  0.194900  0.594540  1.0  -0.6129
  O  O152  1  0.836800  0.283250  0.629130  1.0  -0.5854
  O  O153  1  0.641420  0.177310  0.901500  1.0  -0.6221
  O  O154  1  0.604040  0.032280  0.904860  1.0  -0.6823
  O  O155  1  0.028840  0.805100  0.594540  1.0  -0.6122
  O  O156  1  0.163200  0.716750  0.629130  1.0  -0.5861
  O  O157  1  0.358580  0.822690  0.901500  1.0  -0.6216
  O  O158  1  0.395960  0.967720  0.904860  1.0  -0.6818
  O  O159  1  0.059960  0.632690  0.500000  1.0  -0.7941
  O  O160  1  0.940040  0.367310  0.500000  1.0  -0.7929
  O  O161  1  0.440040  0.132690  0.000000  1.0  -0.7928
  O  O162  1  0.559960  0.867310  0.000000  1.0  -0.7939
