# generated using pymatgen
data_Na2Pr4P5H9W30C16(NO49)2
_symmetry_space_group_name_H-M   'P 1'
_cell_length_a   17.78790000
_cell_length_b   17.98000000
_cell_length_c   26.74200000
_cell_angle_alpha   88.79100000
_cell_angle_beta   79.04900000
_cell_angle_gamma   71.30600000
_symmetry_Int_Tables_number   1
_chemical_formula_structural   Na2Pr4P5H9W30C16(NO49)2
_chemical_formula_sum   'Na4 Pr8 P10 H18 W60 C32 N4 O196'
_cell_volume   7946.77315339
_cell_formula_units_Z   2
loop_
 _symmetry_equiv_pos_site_id
 _symmetry_equiv_pos_as_xyz
  1  'x, y, z'
loop_
 _atom_site_type_symbol
 _atom_site_label
 _atom_site_symmetry_multiplicity
 _atom_site_fract_x
 _atom_site_fract_y
 _atom_site_fract_z
 _atom_site_occupancy
 _atom_site_charge
  Na  Na1  1  0.823600  0.484600  0.809100  1.0  0.9649
  Na  Na2  1  0.259400  0.491500  0.057700  1.0  0.863
  Na  Na3  1  0.176400  0.515400  0.190900  1.0  0.9646
  Na  Na4  1  0.740600  0.508500  0.942300  1.0  0.8616
  Pr  Pr5  1  0.398720  0.925590  0.075400  1.0  2.058
  Pr  Pr6  1  0.732420  0.745910  0.884980  1.0  2.0815
  Pr  Pr7  1  0.770060  0.283570  0.776510  1.0  1.6885
  Pr  Pr8  1  0.079490  0.625370  0.428280  1.0  1.8586
  Pr  Pr9  1  0.601280  0.074410  0.924600  1.0  2.06
  Pr  Pr10  1  0.267580  0.254090  0.115020  1.0  2.0804
  Pr  Pr11  1  0.229940  0.716430  0.223490  1.0  1.6916
  Pr  Pr12  1  0.920510  0.374630  0.571720  1.0  1.8531
  P  P13  1  0.102200  0.687800  0.695500  1.0  1.8261
  P  P14  1  0.101400  0.916900  0.691800  1.0  1.8111
  P  P15  1  0.246600  0.941600  0.787700  1.0  1.7073
  P  P16  1  0.334300  0.730800  0.851500  1.0  1.7872
  P  P17  1  0.245400  0.574800  0.795000  1.0  1.7736
  P  P18  1  0.897800  0.312200  0.304500  1.0  1.8244
  P  P19  1  0.898600  0.083100  0.308200  1.0  1.811
  P  P20  1  0.753400  0.058400  0.212300  1.0  1.7071
  P  P21  1  0.665700  0.269200  0.148500  1.0  1.7883
  P  P22  1  0.754600  0.425200  0.205000  1.0  1.7732
  H  H23  1  0.801500  0.719900  0.352400  1.0  0.1382
  H  H24  1  0.858100  0.706900  0.266100  1.0  0.1335
  H  H25  1  0.997600  0.666100  0.239700  1.0  0.1412
  H  H26  1  0.619000  0.648900  0.981900  1.0  0.1281
  H  H27  1  0.554900  0.561800  0.023200  1.0  0.1222
  H  H28  1  0.436600  0.610500  0.086000  1.0  0.1246
  H  H29  1  0.271100  0.040200  0.244800  1.0  0.1515
  H  H30  1  0.302400  0.114600  0.241300  1.0  0.1649
  H  H31  1  0.215600  0.123000  0.228900  1.0  0.1485
  H  H32  1  0.198500  0.280100  0.647600  1.0  0.1379
  H  H33  1  0.141900  0.293100  0.733900  1.0  0.1336
  H  H34  1  0.002400  0.333900  0.760300  1.0  0.1411
  H  H35  1  0.381000  0.351100  0.018100  1.0  0.128
  H  H36  1  0.445100  0.438200  0.976800  1.0  0.1197
  H  H37  1  0.563400  0.389500  0.914000  1.0  0.1245
  H  H38  1  0.728900  0.959800  0.755200  1.0  0.1497
  H  H39  1  0.697600  0.885400  0.758700  1.0  0.1639
  H  H40  1  0.784400  0.877000  0.771100  1.0  0.1493
  W  W41  1  0.078250  0.642270  0.889800  1.0  1.3401
  W  W42  1  0.161010  0.784860  0.941180  1.0  1.4466
  W  W43  1  0.258020  0.039040  0.891730  1.0  1.4336
  W  W44  1  0.999730  0.554380  0.730550  1.0  2.4431
  W  W45  1  0.339250  0.843860  0.952400  1.0  2.6101
  W  W46  1  0.121030  0.135280  0.800370  1.0  1.4785
  W  W47  1  0.263490  0.486220  0.910000  1.0  1.4728
  W  W48  1  0.277790  0.409130  0.719140  1.0  1.4901
  W  W49  1  0.501370  0.775130  0.861940  1.0  2.4871
  W  W50  1  0.082730  0.979040  0.884360  1.0  1.2772
  W  W51  1  0.951480  0.747790  0.798140  1.0  2.3274
  W  W52  1  0.423890  0.971980  0.803310  1.0  1.5311
  W  W53  1  0.404540  0.874600  0.687640  1.0  1.4061
  W  W54  1  0.132860  0.452810  0.823200  1.0  1.4522
  W  W55  1  0.344600  0.634390  0.962510  1.0  1.5245
  W  W56  1  0.271200  0.852060  0.601040  1.0  1.4074
  W  W57  1  0.155520  0.064760  0.625760  1.0  1.4633
  W  W58  1  0.952130  0.954650  0.796170  1.0  1.3586
  W  W59  1  0.273800  0.643170  0.605130  1.0  1.3446
  W  W60  1  0.911760  0.744780  0.669850  1.0  1.5224
  W  W61  1  0.985970  0.109040  0.712810  1.0  2.5559
  W  W62  1  0.145720  0.517530  0.627480  1.0  1.5428
  W  W63  1  0.292940  0.083260  0.713830  1.0  1.5085
  W  W64  1  0.411990  0.423810  0.808840  1.0  1.4631
  W  W65  1  0.495080  0.567220  0.863920  1.0  1.4913
  W  W66  1  0.484760  0.682260  0.746790  1.0  1.381
  W  W67  1  0.405050  0.538460  0.695510  1.0  1.3459
  W  W68  1  0.068380  0.715880  0.573470  1.0  2.3237
  W  W69  1  0.069610  0.926900  0.570620  1.0  1.5147
  W  W70  1  0.910310  0.956000  0.665040  1.0  1.5744
  W  W71  1  0.921750  0.357730  0.110200  1.0  1.3429
  W  W72  1  0.838990  0.215140  0.058820  1.0  1.4443
  W  W73  1  0.741980  0.960960  0.108270  1.0  1.4292
  W  W74  1  0.000270  0.445620  0.269450  1.0  2.4419
  W  W75  1  0.660750  0.156140  0.047600  1.0  2.6092
  W  W76  1  0.878970  0.864720  0.199630  1.0  1.479
  W  W77  1  0.736510  0.513780  0.090000  1.0  1.4756
  W  W78  1  0.722210  0.590870  0.280860  1.0  1.4958
  W  W79  1  0.498630  0.224870  0.138060  1.0  2.4879
  W  W80  1  0.917270  0.020960  0.115640  1.0  1.2768
  W  W81  1  0.048520  0.252210  0.201860  1.0  2.3261
  W  W82  1  0.576110  0.028020  0.196690  1.0  1.5298
  W  W83  1  0.595460  0.125400  0.312360  1.0  1.4057
  W  W84  1  0.867140  0.547190  0.176800  1.0  1.4541
  W  W85  1  0.655400  0.365610  0.037490  1.0  1.5304
  W  W86  1  0.728800  0.147940  0.398960  1.0  1.4045
  W  W87  1  0.844480  0.935240  0.374240  1.0  1.4641
  W  W88  1  0.047870  0.045350  0.203830  1.0  1.3595
  W  W89  1  0.726200  0.356830  0.394870  1.0  1.3432
  W  W90  1  0.088240  0.255220  0.330150  1.0  1.5199
  W  W91  1  0.014030  0.890960  0.287190  1.0  2.5574
  W  W92  1  0.854280  0.482470  0.372520  1.0  1.5467
  W  W93  1  0.707060  0.916740  0.286170  1.0  1.5029
  W  W94  1  0.588010  0.576190  0.191160  1.0  1.4681
  W  W95  1  0.504920  0.432780  0.136080  1.0  1.4941
  W  W96  1  0.515240  0.317740  0.253210  1.0  1.3795
  W  W97  1  0.594950  0.461540  0.304490  1.0  1.3456
  W  W98  1  0.931620  0.284120  0.426530  1.0  2.3207
  W  W99  1  0.930390  0.073100  0.429380  1.0  1.5199
  W  W100  1  0.089690  0.044000  0.334960  1.0  1.568
  C  C101  1  0.907600  0.686900  0.377000  1.0  0.0859
  C  C102  1  0.858600  0.703200  0.341600  1.0  -0.0114
  C  C103  1  0.892000  0.695500  0.290600  1.0  -0.0797
  C  C104  1  0.974500  0.671500  0.275000  1.0  -0.0927
  C  C105  1  0.023500  0.655100  0.310400  1.0  0.1745
  C  C106  1  0.891000  0.367000  0.699400  1.0  0.6331
  C  C107  1  0.875000  0.693000  0.434800  1.0  0.5735
  C  C108  1  0.538900  0.749600  0.020200  1.0  0.113
  C  C109  1  0.571300  0.668500  0.007300  1.0  -0.0727
  C  C110  1  0.533100  0.616500  0.031900  1.0  -0.0693
  C  C111  1  0.462400  0.645600  0.069400  1.0  -0.0664
  C  C112  1  0.429900  0.726600  0.082300  1.0  0.0818
  C  C113  1  0.569100  0.808900  0.993700  1.0  0.6968
  C  C114  1  0.361000  0.765500  0.123900  1.0  0.7044
  C  C115  1  0.271000  0.088000  0.226400  1.0  -0.3967
  C  C116  1  0.311000  0.064800  0.168500  1.0  0.6834
  C  C117  1  0.092400  0.313100  0.623000  1.0  0.0814
  C  C118  1  0.141400  0.296800  0.658400  1.0  -0.0099
  C  C119  1  0.108000  0.304500  0.709400  1.0  -0.0794
  C  C120  1  0.025500  0.328500  0.725000  1.0  -0.0925
  C  C121  1  0.976500  0.344900  0.689600  1.0  0.1794
  C  C122  1  0.109000  0.633000  0.300600  1.0  0.6318
  C  C123  1  0.125000  0.307000  0.565200  1.0  0.5774
  C  C124  1  0.461100  0.250400  0.979800  1.0  0.1143
  C  C125  1  0.428700  0.331500  0.992700  1.0  -0.0747
  C  C126  1  0.466900  0.383500  0.968100  1.0  -0.0693
  C  C127  1  0.537600  0.354400  0.930600  1.0  -0.0671
  C  C128  1  0.570100  0.273400  0.917700  1.0  0.0808
  C  C129  1  0.430900  0.191100  0.006300  1.0  0.6967
  C  C130  1  0.639000  0.234500  0.876100  1.0  0.7101
  C  C131  1  0.729000  0.912000  0.773600  1.0  -0.3973
  C  C132  1  0.689000  0.935200  0.831500  1.0  0.6823
  N  N133  1  0.990000  0.662800  0.361400  1.0  -0.411
  N  N134  1  0.468200  0.778600  0.057600  1.0  -0.3893
  N  N135  1  0.010000  0.337200  0.638600  1.0  -0.4126
  N  N136  1  0.531800  0.221400  0.942400  1.0  -0.3908
  O  O137  1  0.315200  0.542500  0.936300  1.0  -0.6432
  O  O138  1  0.286800  0.743600  0.605000  1.0  -0.7419
  O  O139  1  0.203900  0.110000  0.851000  1.0  -0.735
  O  O140  1  0.455200  0.491800  0.846600  1.0  -0.6745
  O  O141  1  0.083000  0.065900  0.843800  1.0  -0.7169
  O  O142  1  0.234100  0.555200  0.614400  1.0  -0.7558
  O  O143  1  0.108800  0.727400  0.913700  1.0  -0.7542
  O  O144  1  0.367100  0.726600  0.968600  1.0  -0.7304
  O  O145  1  0.460700  0.888600  0.839400  1.0  -0.7373
  O  O146  1  0.959500  0.848900  0.804300  1.0  -0.8238
  O  O147  1  0.072700  0.556000  0.850500  1.0  -0.7227
  O  O148  1  0.967700  0.638800  0.779100  1.0  -0.7715
  O  O149  1  0.175900  0.919500  0.818700  1.0  -0.7995
  O  O150  1  0.943000  0.641400  0.685300  1.0  -0.7102
  O  O151  1  0.441600  0.771500  0.708200  1.0  -0.7455
  O  O152  1  0.942900  0.055900  0.677900  1.0  -0.8034
  O  O153  1  0.517500  0.673300  0.874700  1.0  -0.6992
  O  O154  1  0.356100  0.056800  0.761300  1.0  -0.6859
  O  O155  1  0.910600  0.197300  0.726800  1.0  -0.8381
  O  O156  1  0.343300  0.846300  0.643600  1.0  -0.7538
  O  O157  1  0.244300  0.757000  0.865900  1.0  -0.8063
  O  O158  1  0.317300  0.939100  0.924300  1.0  -0.7699
  O  O159  1  0.049300  0.138800  0.654100  1.0  -0.665
  O  O160  1  0.113200  0.877600  0.909900  1.0  -0.8489
  O  O161  1  0.015900  0.953500  0.844400  1.0  -0.7787
  O  O162  1  0.442000  0.908500  0.744500  1.0  -0.6781
  O  O163  1  0.504800  0.602600  0.794000  1.0  -0.6978
  O  O164  1  0.361300  0.721900  0.795100  1.0  -0.8029
  O  O165  1  0.857200  0.762100  0.838000  1.0  -0.826
  O  O166  1  0.204400  0.162400  0.756900  1.0  -0.7053
  O  O167  1  0.347600  0.982600  0.680700  1.0  -0.7306
  O  O168  1  0.232900  0.965400  0.608600  1.0  -0.7205
  O  O169  1  0.297700  0.601700  0.751500  1.0  -0.8167
  O  O170  1  0.442000  0.620500  0.711100  1.0  -0.7462
  O  O171  1  0.092000  0.598300  0.593200  1.0  -0.7474
  O  O172  1  0.185900  0.688500  0.674600  1.0  -0.8134
  O  O173  1  0.168200  0.572800  0.913400  1.0  -0.7446
  O  O174  1  0.202900  0.440900  0.866600  1.0  -0.7206
  O  O175  1  0.100100  0.603000  0.696800  1.0  -0.7663
  O  O176  1  0.068500  0.489500  0.769100  1.0  -0.7343
  O  O177  1  0.456200  0.817500  0.929700  1.0  -0.7006
  O  O178  1  0.062800  0.137400  0.753600  1.0  -0.689
  O  O179  1  0.012800  0.711600  0.848200  1.0  -0.8173
  O  O180  1  0.171700  0.996600  0.908300  1.0  -0.7311
  O  O181  1  0.211100  0.090800  0.670300  1.0  -0.6745
  O  O182  1  0.966500  0.049800  0.768500  1.0  -0.7445
  O  O183  1  0.364700  0.040200  0.862100  1.0  -0.6591
  O  O184  1  0.337600  0.869300  0.015900  1.0  -0.7905
  O  O185  1  0.067500  0.902600  0.745800  1.0  -0.818
  O  O186  1  0.506900  0.750400  0.792000  1.0  -0.7237
  O  O187  1  0.210400  0.515800  0.773700  1.0  -0.7769
  O  O188  1  0.237600  0.836700  0.954400  1.0  -0.7357
  O  O189  1  0.440700  0.485100  0.755000  1.0  -0.71
  O  O190  1  0.205600  0.446500  0.679800  1.0  -0.6881
  O  O191  1  0.188200  0.863400  0.673000  1.0  -0.8017
  O  O192  1  0.303200  0.953200  0.822900  1.0  -0.7814
  O  O193  1  0.911800  0.774800  0.737600  1.0  -0.6915
  O  O194  1  0.916400  0.521400  0.744500  1.0  -0.7962
  O  O195  1  0.956500  0.727400  0.596600  1.0  -0.7144
  O  O196  1  0.069100  0.725700  0.746400  1.0  -0.73
  O  O197  1  0.344500  0.605600  0.649100  1.0  -0.7402
  O  O198  1  0.452000  0.573200  0.935100  1.0  -0.6564
  O  O199  1  0.098900  0.002500  0.689000  1.0  -0.7771
  O  O200  1  0.046400  0.730800  0.656500  1.0  -0.7661
  O  O201  1  0.176900  0.863700  0.571700  1.0  -0.7652
  O  O202  1  0.907300  0.859900  0.659300  1.0  -0.7271
  O  O203  1  0.358700  0.406400  0.874500  1.0  -0.6591
  O  O204  1  0.300300  0.529800  0.832600  1.0  -0.7634
  O  O205  1  0.951500  0.966100  0.593700  1.0  -0.6781
  O  O206  1  0.052500  0.498100  0.664900  1.0  -0.6556
  O  O207  1  0.213500  0.021500  0.762600  1.0  -0.7687
  O  O208  1  0.209000  0.376200  0.771800  1.0  -0.6388
  O  O209  1  0.370700  0.787800  0.873200  1.0  -0.7644
  O  O210  1  0.348800  0.391700  0.773600  1.0  -0.7141
  O  O211  1  0.072000  0.690000  0.509200  1.0  -0.8511
  O  O212  1  0.295200  0.878600  0.746300  1.0  -0.8306
  O  O213  1  0.048900  0.821300  0.570000  1.0  -0.7967
  O  O214  1  0.092400  0.013900  0.586300  1.0  -0.7595
  O  O215  1  0.044700  0.908600  0.656600  1.0  -0.7747
  O  O216  1  0.909800  0.949500  0.734100  1.0  -0.7135
  O  O217  1  0.597000  0.776200  0.860900  1.0  -0.7593
  O  O218  1  0.343200  0.469300  0.692600  1.0  -0.7245
  O  O219  1  0.241400  0.686700  0.958200  1.0  -0.7266
  O  O220  1  0.177800  0.640900  0.824000  1.0  -0.8092
  O  O221  1  0.367000  0.649700  0.877300  1.0  -0.7813
  O  O222  1  0.176600  0.690400  0.574900  1.0  -0.7551
  O  O223  1  0.628900  0.790700  0.960400  1.0  -0.7136
  O  O224  1  0.529500  0.881200  0.012000  1.0  -0.6766
  O  O225  1  0.852800  0.365700  0.743200  1.0  -0.6101
  O  O226  1  0.340200  0.835500  0.128200  1.0  -0.5264
  O  O227  1  0.341700  0.993600  0.161500  1.0  -0.5765
  O  O228  1  0.670900  0.283000  0.855300  1.0  -0.7107
  O  O229  1  0.936100  0.663500  0.460800  1.0  -0.6206
  O  O230  1  0.146700  0.614600  0.339800  1.0  -0.6315
  O  O231  1  0.807900  0.721000  0.452000  1.0  -0.3821
  O  O232  1  0.684300  0.881300  0.860900  1.0  -0.688
  O  O233  1  0.682500  0.629500  0.888700  1.0  -0.5405
  O  O234  1  0.747800  0.400600  0.843000  1.0  -0.5874
  O  O235  1  0.684800  0.457500  0.063700  1.0  -0.641
  O  O236  1  0.713200  0.256400  0.395000  1.0  -0.744
  O  O237  1  0.796100  0.890000  0.149000  1.0  -0.7354
  O  O238  1  0.544800  0.508200  0.153400  1.0  -0.6735
  O  O239  1  0.917000  0.934100  0.156200  1.0  -0.7161
  O  O240  1  0.765900  0.444800  0.385600  1.0  -0.7622
  O  O241  1  0.891200  0.272600  0.086300  1.0  -0.7541
  O  O242  1  0.632900  0.273400  0.031400  1.0  -0.7296
  O  O243  1  0.539300  0.111400  0.160600  1.0  -0.7398
  O  O244  1  0.040500  0.151100  0.195700  1.0  -0.8222
  O  O245  1  0.927300  0.444000  0.149500  1.0  -0.7218
  O  O246  1  0.032300  0.361200  0.220900  1.0  -0.767
  O  O247  1  0.824100  0.080500  0.181300  1.0  -0.7986
  O  O248  1  0.057000  0.358600  0.314700  1.0  -0.7063
  O  O249  1  0.558400  0.228500  0.291800  1.0  -0.7485
  O  O250  1  0.057100  0.944100  0.322100  1.0  -0.8024
  O  O251  1  0.482500  0.326700  0.125300  1.0  -0.6995
  O  O252  1  0.643900  0.943200  0.238700  1.0  -0.6863
  O  O253  1  0.089400  0.802700  0.273200  1.0  -0.8377
  O  O254  1  0.656700  0.153700  0.356400  1.0  -0.7547
  O  O255  1  0.755700  0.243000  0.134100  1.0  -0.8056
  O  O256  1  0.682700  0.060900  0.075700  1.0  -0.7693
  O  O257  1  0.950700  0.861200  0.345900  1.0  -0.6652
  O  O258  1  0.886800  0.122400  0.090100  1.0  -0.8521
  O  O259  1  0.984100  0.046500  0.155600  1.0  -0.7744
  O  O260  1  0.558000  0.091500  0.255500  1.0  -0.6797
  O  O261  1  0.495200  0.397400  0.206000  1.0  -0.6971
  O  O262  1  0.638700  0.278100  0.204900  1.0  -0.8033
  O  O263  1  0.142800  0.237900  0.162000  1.0  -0.8269
  O  O264  1  0.795600  0.837600  0.243100  1.0  -0.705
  O  O265  1  0.652400  0.017400  0.319300  1.0  -0.7319
  O  O266  1  0.767100  0.034600  0.391400  1.0  -0.7217
  O  O267  1  0.702300  0.398300  0.248500  1.0  -0.8175
  O  O268  1  0.558000  0.379500  0.288900  1.0  -0.7497
  O  O269  1  0.908000  0.401700  0.406800  1.0  -0.7491
  O  O270  1  0.814100  0.311500  0.325400  1.0  -0.8178
  O  O271  1  0.831800  0.427200  0.086600  1.0  -0.7428
  O  O272  1  0.797100  0.559100  0.133400  1.0  -0.7169
  O  O273  1  0.899900  0.397000  0.303200  1.0  -0.7656
  O  O274  1  0.931500  0.510500  0.230900  1.0  -0.734
  O  O275  1  0.543800  0.182500  0.070300  1.0  -0.7025
  O  O276  1  0.937200  0.862600  0.246400  1.0  -0.6888
  O  O277  1  0.987200  0.288400  0.151800  1.0  -0.8171
  O  O278  1  0.828300  0.003400  0.091700  1.0  -0.7264
  O  O279  1  0.788900  0.909200  0.329700  1.0  -0.6768
  O  O280  1  0.033500  0.950200  0.231500  1.0  -0.7419
  O  O281  1  0.635300  0.959800  0.137900  1.0  -0.6592
  O  O282  1  0.662400  0.130700  0.984100  1.0  -0.7913
  O  O283  1  0.932500  0.097400  0.254200  1.0  -0.817
  O  O284  1  0.493100  0.249600  0.208000  1.0  -0.7224
  O  O285  1  0.789600  0.484200  0.226300  1.0  -0.777
  O  O286  1  0.762400  0.163300  0.045600  1.0  -0.7347
  O  O287  1  0.559300  0.514900  0.245000  1.0  -0.7106
  O  O288  1  0.794400  0.553500  0.320200  1.0  -0.686
  O  O289  1  0.811800  0.136600  0.327000  1.0  -0.8011
  O  O290  1  0.696800  0.046800  0.177100  1.0  -0.7827
  O  O291  1  0.088200  0.225200  0.262400  1.0  -0.6882
  O  O292  1  0.083600  0.478600  0.255500  1.0  -0.7943
  O  O293  1  0.043500  0.272600  0.403400  1.0  -0.7143
  O  O294  1  0.930900  0.274300  0.253600  1.0  -0.7304
  O  O295  1  0.655500  0.394400  0.350900  1.0  -0.7431
  O  O296  1  0.548000  0.426800  0.064900  1.0  -0.6563
  O  O297  1  0.901100  0.997500  0.311000  1.0  -0.7768
  O  O298  1  0.953600  0.269200  0.343500  1.0  -0.7662
  O  O299  1  0.823100  0.136300  0.428300  1.0  -0.7573
  O  O300  1  0.092700  0.140100  0.340700  1.0  -0.7282
  O  O301  1  0.641300  0.593600  0.125500  1.0  -0.6587
  O  O302  1  0.699700  0.470200  0.167400  1.0  -0.7636
  O  O303  1  0.048500  0.033900  0.406300  1.0  -0.679
  O  O304  1  0.947500  0.501900  0.335100  1.0  -0.6544
  O  O305  1  0.786500  0.978500  0.237400  1.0  -0.7691
  O  O306  1  0.791000  0.623800  0.228200  1.0  -0.6386
  O  O307  1  0.629300  0.212200  0.126800  1.0  -0.7656
  O  O308  1  0.651200  0.608300  0.226400  1.0  -0.7126
  O  O309  1  0.928000  0.310000  0.490800  1.0  -0.8517
  O  O310  1  0.704800  0.121400  0.253700  1.0  -0.8315
  O  O311  1  0.951100  0.178700  0.430000  1.0  -0.7908
  O  O312  1  0.907600  0.986100  0.413700  1.0  -0.755
  O  O313  1  0.955300  0.091400  0.343400  1.0  -0.7742
  O  O314  1  0.090200  0.050500  0.265900  1.0  -0.7132
  O  O315  1  0.403000  0.223800  0.139100  1.0  -0.7595
  O  O316  1  0.656800  0.530700  0.307400  1.0  -0.7284
  O  O317  1  0.758600  0.313300  0.041800  1.0  -0.7236
  O  O318  1  0.822200  0.359100  0.176000  1.0  -0.8092
  O  O319  1  0.633000  0.350300  0.122700  1.0  -0.7814
  O  O320  1  0.823400  0.309600  0.425100  1.0  -0.7572
  O  O321  1  0.371100  0.209300  0.039600  1.0  -0.7148
  O  O322  1  0.470500  0.118800  0.988000  1.0  -0.6716
  O  O323  1  0.147200  0.634300  0.256800  1.0  -0.6105
  O  O324  1  0.659800  0.164500  0.871800  1.0  -0.5236
  O  O325  1  0.658300  0.006400  0.838500  1.0  -0.578
  O  O326  1  0.329100  0.717000  0.144700  1.0  -0.7109
  O  O327  1  0.063900  0.336500  0.539200  1.0  -0.6196
  O  O328  1  0.853300  0.385400  0.660200  1.0  -0.6337
  O  O329  1  0.192100  0.279000  0.548000  1.0  -0.3811
  O  O330  1  0.315700  0.118700  0.139100  1.0  -0.6883
  O  O331  1  0.317500  0.370500  0.111300  1.0  -0.5427
  O  O332  1  0.252200  0.599400  0.157000  1.0  -0.5881
