# generated using pymatgen
data_CuH3C13O4
_symmetry_space_group_name_H-M   'P 1'
_cell_length_a   18.55500000
_cell_length_b   18.55500000
_cell_length_c   38.68800000
_cell_angle_alpha   90.00000000
_cell_angle_beta   90.00000000
_cell_angle_gamma   120.00000000
_symmetry_Int_Tables_number   1
_chemical_formula_structural   CuH3C13O4
_chemical_formula_sum   'Cu18 H54 C234 O72'
_cell_volume   11535.29826001
_cell_formula_units_Z   18
loop_
 _symmetry_equiv_pos_site_id
 _symmetry_equiv_pos_as_xyz
  1  'x, y, z'
loop_
 _atom_site_type_symbol
 _atom_site_label
 _atom_site_symmetry_multiplicity
 _atom_site_fract_x
 _atom_site_fract_y
 _atom_site_fract_z
 _atom_site_occupancy
 _atom_site_charge
  Cu  Cu1  1  0.523960  0.476040  0.971990  1.0  0.8917
  Cu  Cu2  1  0.190630  0.809370  0.305330  1.0  0.8914
  Cu  Cu3  1  0.857290  0.142710  0.638660  1.0  0.8895
  Cu  Cu4  1  0.523960  0.047920  0.971990  1.0  0.8924
  Cu  Cu5  1  0.190630  0.381250  0.305330  1.0  0.8919
  Cu  Cu6  1  0.857290  0.714590  0.638660  1.0  0.8922
  Cu  Cu7  1  0.952080  0.476040  0.971990  1.0  0.8925
  Cu  Cu8  1  0.618750  0.809370  0.305330  1.0  0.8919
  Cu  Cu9  1  0.285410  0.142710  0.638660  1.0  0.8923
  Cu  Cu10  1  0.476040  0.523960  0.028010  1.0  0.8924
  Cu  Cu11  1  0.142710  0.857290  0.361340  1.0  0.8904
  Cu  Cu12  1  0.809370  0.190630  0.694670  1.0  0.8921
  Cu  Cu13  1  0.047920  0.523960  0.028010  1.0  0.8927
  Cu  Cu14  1  0.714590  0.857290  0.361340  1.0  0.8924
  Cu  Cu15  1  0.381250  0.190630  0.694670  1.0  0.8921
  Cu  Cu16  1  0.476040  0.952080  0.028010  1.0  0.8925
  Cu  Cu17  1  0.142710  0.285410  0.361340  1.0  0.8923
  Cu  Cu18  1  0.809370  0.618750  0.694670  1.0  0.892
  H  H19  1  0.390300  0.303000  0.089200  1.0  0.1018
  H  H20  1  0.056970  0.636330  0.422530  1.0  0.102
  H  H21  1  0.723630  0.969670  0.755870  1.0  0.1018
  H  H22  1  0.697000  0.087300  0.089200  1.0  0.1031
  H  H23  1  0.363670  0.420630  0.422530  1.0  0.1029
  H  H24  1  0.030330  0.753970  0.755870  1.0  0.1031
  H  H25  1  0.912700  0.609700  0.089200  1.0  0.1025
  H  H26  1  0.579370  0.943030  0.422530  1.0  0.1028
  H  H27  1  0.246030  0.276370  0.755870  1.0  0.1025
  H  H28  1  0.303000  0.390300  0.910800  1.0  0.1021
  H  H29  1  0.969670  0.723630  0.244130  1.0  0.1021
  H  H30  1  0.636330  0.056970  0.577470  1.0  0.1024
  H  H31  1  0.087300  0.697000  0.910800  1.0  0.1018
  H  H32  1  0.753970  0.030330  0.244130  1.0  0.1018
  H  H33  1  0.420630  0.363670  0.577470  1.0  0.1017
  H  H34  1  0.609700  0.912700  0.910800  1.0  0.1022
  H  H35  1  0.276370  0.246030  0.244130  1.0  0.1022
  H  H36  1  0.943030  0.579370  0.577470  1.0  0.1025
  H  H37  1  0.609700  0.697000  0.910800  1.0  0.1017
  H  H38  1  0.276370  0.030330  0.244130  1.0  0.1017
  H  H39  1  0.943030  0.363670  0.577470  1.0  0.1019
  H  H40  1  0.303000  0.912700  0.910800  1.0  0.1021
  H  H41  1  0.969670  0.246030  0.244130  1.0  0.1021
  H  H42  1  0.636330  0.579370  0.577470  1.0  0.1021
  H  H43  1  0.087300  0.390300  0.910800  1.0  0.1024
  H  H44  1  0.753970  0.723630  0.244130  1.0  0.1024
  H  H45  1  0.420630  0.056970  0.577470  1.0  0.1026
  H  H46  1  0.697000  0.609700  0.089200  1.0  0.1022
  H  H47  1  0.363670  0.943030  0.422530  1.0  0.1025
  H  H48  1  0.030330  0.276370  0.755870  1.0  0.1022
  H  H49  1  0.912700  0.303000  0.089200  1.0  0.1017
  H  H50  1  0.579370  0.636330  0.422530  1.0  0.1016
  H  H51  1  0.246030  0.969670  0.755870  1.0  0.1017
  H  H52  1  0.390300  0.087300  0.089200  1.0  0.1029
  H  H53  1  0.056970  0.420630  0.422530  1.0  0.103
  H  H54  1  0.723630  0.753970  0.755870  1.0  0.1029
  H  H55  1  0.463200  0.231600  0.005100  1.0  0.0976
  H  H56  1  0.129870  0.564930  0.338430  1.0  0.0962
  H  H57  1  0.796530  0.898270  0.671770  1.0  0.0963
  H  H58  1  0.768400  0.231600  0.005100  1.0  0.0979
  H  H59  1  0.435070  0.564930  0.338430  1.0  0.0963
  H  H60  1  0.101730  0.898270  0.671770  1.0  0.0964
  H  H61  1  0.768400  0.536800  0.005100  1.0  0.0976
  H  H62  1  0.435070  0.870130  0.338430  1.0  0.0962
  H  H63  1  0.101730  0.203470  0.671770  1.0  0.0962
  H  H64  1  0.231600  0.463200  0.994900  1.0  0.0973
  H  H65  1  0.898270  0.796530  0.328230  1.0  0.0959
  H  H66  1  0.564930  0.129870  0.661570  1.0  0.0959
  H  H67  1  0.231600  0.768400  0.994900  1.0  0.0974
  H  H68  1  0.898270  0.101730  0.328230  1.0  0.0961
  H  H69  1  0.564930  0.435070  0.661570  1.0  0.096
  H  H70  1  0.536800  0.768400  0.994900  1.0  0.0973
  H  H71  1  0.203470  0.101730  0.328230  1.0  0.0959
  H  H72  1  0.870130  0.435070  0.661570  1.0  0.0959
  C  C73  1  0.452700  0.360700  0.027370  1.0  0.6765
  C  C74  1  0.431200  0.280700  0.044210  1.0  -0.1835
  C  C75  1  0.400600  0.264800  0.077960  1.0  -0.0614
  C  C76  1  0.293000  0.189700  0.143400  1.0  0.0817
  C  C77  1  0.396900  0.243900  0.155600  1.0  -0.0164
  C  C78  1  0.119370  0.694030  0.360700  1.0  0.6765
  C  C79  1  0.097870  0.614030  0.377540  1.0  -0.1835
  C  C80  1  0.067270  0.598130  0.411290  1.0  -0.0614
  C  C81  1  0.959670  0.523030  0.476730  1.0  0.0767
  C  C82  1  0.063570  0.577230  0.488930  1.0  -0.0115
  C  C83  1  0.786030  0.027370  0.694040  1.0  0.6765
  C  C84  1  0.764530  0.947370  0.710880  1.0  -0.1835
  C  C85  1  0.733930  0.931470  0.744630  1.0  -0.0614
  C  C86  1  0.626330  0.856370  0.810070  1.0  0.0817
  C  C87  1  0.730230  0.910570  0.822270  1.0  -0.0164
  C  C88  1  0.639300  0.092000  0.027370  1.0  0.6769
  C  C89  1  0.719300  0.150500  0.044210  1.0  -0.1829
  C  C90  1  0.735200  0.135800  0.077960  1.0  -0.0606
  C  C91  1  0.810300  0.103300  0.143400  1.0  0.0633
  C  C92  1  0.756100  0.153000  0.155600  1.0  -0.0127
  C  C93  1  0.305970  0.425330  0.360700  1.0  0.6769
  C  C94  1  0.385970  0.483830  0.377540  1.0  -0.1829
  C  C95  1  0.401870  0.469130  0.411290  1.0  -0.0606
  C  C96  1  0.476970  0.436630  0.476730  1.0  0.0682
  C  C97  1  0.422770  0.486330  0.488930  1.0  -0.0127
  C  C98  1  0.972630  0.758670  0.694040  1.0  0.6769
  C  C99  1  0.052630  0.817170  0.710880  1.0  -0.1829
  C  C100  1  0.068530  0.802470  0.744630  1.0  -0.0606
  C  C101  1  0.143630  0.769970  0.810070  1.0  0.0633
  C  C102  1  0.089430  0.819670  0.822270  1.0  -0.0127
  C  C103  1  0.908000  0.547300  0.027370  1.0  0.6755
  C  C104  1  0.849500  0.568800  0.044210  1.0  -0.1824
  C  C105  1  0.864200  0.599400  0.077960  1.0  -0.0617
  C  C106  1  0.896700  0.707000  0.143400  1.0  0.0729
  C  C107  1  0.847000  0.603100  0.155600  1.0  -0.0094
  C  C108  1  0.574670  0.880630  0.360700  1.0  0.6755
  C  C109  1  0.516170  0.902130  0.377540  1.0  -0.1824
  C  C110  1  0.530870  0.932730  0.411290  1.0  -0.0617
  C  C111  1  0.563370  0.040330  0.476730  1.0  0.0702
  C  C112  1  0.513670  0.936430  0.488930  1.0  -0.0091
  C  C113  1  0.241330  0.213970  0.694040  1.0  0.6755
  C  C114  1  0.182830  0.235470  0.710880  1.0  -0.1824
  C  C115  1  0.197530  0.266070  0.744630  1.0  -0.0617
  C  C116  1  0.230030  0.373670  0.810070  1.0  0.0729
  C  C117  1  0.180330  0.269770  0.822270  1.0  -0.0094
  C  C118  1  0.360700  0.452700  0.972630  1.0  0.6757
  C  C119  1  0.280700  0.431200  0.955790  1.0  -0.1829
  C  C120  1  0.264800  0.400600  0.922040  1.0  -0.0619
  C  C121  1  0.189700  0.293000  0.856600  1.0  0.0749
  C  C122  1  0.243900  0.396900  0.844400  1.0  -0.0226
  C  C123  1  0.027370  0.786030  0.305960  1.0  0.6757
  C  C124  1  0.947370  0.764530  0.289120  1.0  -0.1829
  C  C125  1  0.931470  0.733930  0.255370  1.0  -0.0619
  C  C126  1  0.856370  0.626330  0.189930  1.0  0.0749
  C  C127  1  0.910570  0.730230  0.177730  1.0  -0.0226
  C  C128  1  0.694030  0.119370  0.639300  1.0  0.6757
  C  C129  1  0.614030  0.097870  0.622460  1.0  -0.1829
  C  C130  1  0.598130  0.067270  0.588710  1.0  -0.0619
  C  C131  1  0.523030  0.959670  0.523270  1.0  0.0732
  C  C132  1  0.577230  0.063570  0.511070  1.0  -0.0186
  C  C133  1  0.092000  0.639300  0.972630  1.0  0.6766
  C  C134  1  0.150500  0.719300  0.955790  1.0  -0.184
  C  C135  1  0.135800  0.735200  0.922040  1.0  -0.0608
  C  C136  1  0.103300  0.810300  0.856600  1.0  0.0745
  C  C137  1  0.153000  0.756100  0.844400  1.0  -0.0142
  C  C138  1  0.758670  0.972630  0.305960  1.0  0.6766
  C  C139  1  0.817170  0.052630  0.289120  1.0  -0.184
  C  C140  1  0.802470  0.068530  0.255370  1.0  -0.0608
  C  C141  1  0.769970  0.143630  0.189930  1.0  0.0752
  C  C142  1  0.819670  0.089430  0.177730  1.0  -0.0142
  C  C143  1  0.425330  0.305970  0.639300  1.0  0.6767
  C  C144  1  0.483830  0.385970  0.622460  1.0  -0.184
  C  C145  1  0.469130  0.401870  0.588710  1.0  -0.0608
  C  C146  1  0.436630  0.476970  0.523270  1.0  0.0809
  C  C147  1  0.486330  0.422770  0.511070  1.0  -0.0144
  C  C148  1  0.547300  0.908000  0.972630  1.0  0.6766
  C  C149  1  0.568800  0.849500  0.955790  1.0  -0.1832
  C  C150  1  0.599400  0.864200  0.922040  1.0  -0.0618
  C  C151  1  0.707000  0.896700  0.856600  1.0  0.0773
  C  C152  1  0.603100  0.847000  0.844400  1.0  -0.0046
  C  C153  1  0.213970  0.241330  0.305960  1.0  0.6766
  C  C154  1  0.235470  0.182830  0.289120  1.0  -0.1832
  C  C155  1  0.266070  0.197530  0.255370  1.0  -0.0618
  C  C156  1  0.373670  0.230030  0.189930  1.0  0.0773
  C  C157  1  0.269770  0.180330  0.177730  1.0  -0.0046
  C  C158  1  0.880630  0.574670  0.639300  1.0  0.6767
  C  C159  1  0.902130  0.516170  0.622460  1.0  -0.1832
  C  C160  1  0.932730  0.530870  0.588710  1.0  -0.0618
  C  C161  1  0.040330  0.563370  0.523270  1.0  0.072
  C  C162  1  0.936430  0.513670  0.511070  1.0  -0.0039
  C  C163  1  0.547300  0.639300  0.972630  1.0  0.6768
  C  C164  1  0.568800  0.719300  0.955790  1.0  -0.1837
  C  C165  1  0.599400  0.735200  0.922040  1.0  -0.0608
  C  C166  1  0.707000  0.810300  0.856600  1.0  0.0778
  C  C167  1  0.603100  0.756100  0.844400  1.0  -0.0133
  C  C168  1  0.213970  0.972630  0.305960  1.0  0.6768
  C  C169  1  0.235470  0.052630  0.289120  1.0  -0.1837
  C  C170  1  0.266070  0.068530  0.255370  1.0  -0.0608
  C  C171  1  0.373670  0.143630  0.189930  1.0  0.0778
  C  C172  1  0.269770  0.089430  0.177730  1.0  -0.0133
  C  C173  1  0.880630  0.305970  0.639300  1.0  0.6768
  C  C174  1  0.902130  0.385970  0.622460  1.0  -0.1837
  C  C175  1  0.932730  0.401870  0.588710  1.0  -0.0608
  C  C176  1  0.040330  0.476970  0.523270  1.0  0.076
  C  C177  1  0.936430  0.422770  0.511070  1.0  -0.0123
  C  C178  1  0.360700  0.908000  0.972630  1.0  0.6769
  C  C179  1  0.280700  0.849500  0.955790  1.0  -0.1824
  C  C180  1  0.264800  0.864200  0.922040  1.0  -0.061
  C  C181  1  0.189700  0.896700  0.856600  1.0  0.0724
  C  C182  1  0.243900  0.847000  0.844400  1.0  -0.0172
  C  C183  1  0.027370  0.241330  0.305960  1.0  0.6769
  C  C184  1  0.947370  0.182830  0.289120  1.0  -0.1824
  C  C185  1  0.931470  0.197530  0.255370  1.0  -0.061
  C  C186  1  0.856370  0.230030  0.189930  1.0  0.072
  C  C187  1  0.910570  0.180330  0.177730  1.0  -0.0172
  C  C188  1  0.694030  0.574670  0.639300  1.0  0.6769
  C  C189  1  0.614030  0.516170  0.622460  1.0  -0.1824
  C  C190  1  0.598130  0.530870  0.588710  1.0  -0.061
  C  C191  1  0.523030  0.563370  0.523270  1.0  0.0796
  C  C192  1  0.577230  0.513670  0.511070  1.0  -0.0169
  C  C193  1  0.092000  0.452700  0.972630  1.0  0.6761
  C  C194  1  0.150500  0.431200  0.955790  1.0  -0.183
  C  C195  1  0.135800  0.400600  0.922040  1.0  -0.0622
  C  C196  1  0.103300  0.293000  0.856600  1.0  0.0805
  C  C197  1  0.153000  0.396900  0.844400  1.0  -0.0055
  C  C198  1  0.758670  0.786030  0.305960  1.0  0.6761
  C  C199  1  0.817170  0.764530  0.289120  1.0  -0.183
  C  C200  1  0.802470  0.733930  0.255370  1.0  -0.0622
  C  C201  1  0.769970  0.626330  0.189930  1.0  0.0805
  C  C202  1  0.819670  0.730230  0.177730  1.0  -0.0055
  C  C203  1  0.425330  0.119370  0.639300  1.0  0.6761
  C  C204  1  0.483830  0.097870  0.622460  1.0  -0.183
  C  C205  1  0.469130  0.067270  0.588710  1.0  -0.0623
  C  C206  1  0.436630  0.959670  0.523270  1.0  0.0742
  C  C207  1  0.486330  0.063570  0.511070  1.0  -0.0041
  C  C208  1  0.639300  0.547300  0.027370  1.0  0.676
  C  C209  1  0.719300  0.568800  0.044210  1.0  -0.1828
  C  C210  1  0.735200  0.599400  0.077960  1.0  -0.0624
  C  C211  1  0.810300  0.707000  0.143400  1.0  0.0831
  C  C212  1  0.756100  0.603100  0.155600  1.0  -0.0124
  C  C213  1  0.305970  0.880630  0.360700  1.0  0.676
  C  C214  1  0.385970  0.902130  0.377540  1.0  -0.1828
  C  C215  1  0.401870  0.932730  0.411290  1.0  -0.0624
  C  C216  1  0.476970  0.040330  0.476730  1.0  0.0795
  C  C217  1  0.422770  0.936430  0.488930  1.0  -0.011
  C  C218  1  0.972630  0.213970  0.694040  1.0  0.676
  C  C219  1  0.052630  0.235470  0.710880  1.0  -0.1828
  C  C220  1  0.068530  0.266070  0.744630  1.0  -0.0624
  C  C221  1  0.143630  0.373670  0.810070  1.0  0.0831
  C  C222  1  0.089430  0.269770  0.822270  1.0  -0.0124
  C  C223  1  0.908000  0.360700  0.027370  1.0  0.6768
  C  C224  1  0.849500  0.280700  0.044210  1.0  -0.1832
  C  C225  1  0.864200  0.264800  0.077960  1.0  -0.0613
  C  C226  1  0.896700  0.189700  0.143400  1.0  0.0726
  C  C227  1  0.847000  0.243900  0.155600  1.0  -0.0102
  C  C228  1  0.574670  0.694030  0.360700  1.0  0.6768
  C  C229  1  0.516170  0.614030  0.377540  1.0  -0.1832
  C  C230  1  0.530870  0.598130  0.411290  1.0  -0.0613
  C  C231  1  0.563370  0.523030  0.476730  1.0  0.0791
  C  C232  1  0.513670  0.577230  0.488930  1.0  -0.0159
  C  C233  1  0.241330  0.027370  0.694040  1.0  0.6768
  C  C234  1  0.182830  0.947370  0.710880  1.0  -0.1832
  C  C235  1  0.197530  0.931470  0.744630  1.0  -0.0613
  C  C236  1  0.230030  0.856370  0.810070  1.0  0.0724
  C  C237  1  0.180330  0.910570  0.822270  1.0  -0.0102
  C  C238  1  0.452700  0.092000  0.027370  1.0  0.6769
  C  C239  1  0.431200  0.150500  0.044210  1.0  -0.1822
  C  C240  1  0.400600  0.135800  0.077960  1.0  -0.0599
  C  C241  1  0.293000  0.103300  0.143400  1.0  0.0705
  C  C242  1  0.396900  0.153000  0.155600  1.0  -0.0109
  C  C243  1  0.119370  0.425330  0.360700  1.0  0.6769
  C  C244  1  0.097870  0.483830  0.377540  1.0  -0.1822
  C  C245  1  0.067270  0.469130  0.411290  1.0  -0.0599
  C  C246  1  0.959670  0.436630  0.476730  1.0  0.0655
  C  C247  1  0.063570  0.486330  0.488930  1.0  -0.0079
  C  C248  1  0.786030  0.758670  0.694040  1.0  0.6769
  C  C249  1  0.764530  0.817170  0.710880  1.0  -0.1822
  C  C250  1  0.733930  0.802470  0.744630  1.0  -0.0599
  C  C251  1  0.626330  0.769970  0.810070  1.0  0.0705
  C  C252  1  0.730230  0.819670  0.822270  1.0  -0.0109
  C  C253  1  0.385500  0.192750  0.094900  1.0  0.0559
  C  C254  1  0.444600  0.222300  0.027850  1.0  0.0199
  C  C255  1  0.356800  0.178400  0.132050  1.0  0.0651
  C  C256  1  0.052170  0.526080  0.428230  1.0  0.0562
  C  C257  1  0.111270  0.555630  0.361180  1.0  0.0199
  C  C258  1  0.023470  0.511730  0.465380  1.0  0.0651
  C  C259  1  0.718830  0.859420  0.761570  1.0  0.0559
  C  C260  1  0.777930  0.888970  0.694520  1.0  0.0199
  C  C261  1  0.690130  0.845070  0.798720  1.0  0.0651
  C  C262  1  0.807250  0.192750  0.094900  1.0  0.0557
  C  C263  1  0.777700  0.222300  0.027850  1.0  0.0203
  C  C264  1  0.821600  0.178400  0.132050  1.0  0.0631
  C  C265  1  0.473920  0.526080  0.428230  1.0  0.056
  C  C266  1  0.444370  0.555630  0.361180  1.0  0.0203
  C  C267  1  0.488270  0.511730  0.465380  1.0  0.0633
  C  C268  1  0.140580  0.859420  0.761570  1.0  0.0557
  C  C269  1  0.111030  0.888970  0.694520  1.0  0.0203
  C  C270  1  0.154930  0.845070  0.798720  1.0  0.0631
  C  C271  1  0.807250  0.614500  0.094900  1.0  0.0564
  C  C272  1  0.777700  0.555400  0.027850  1.0  0.0207
  C  C273  1  0.821600  0.643200  0.132050  1.0  0.0649
  C  C274  1  0.473920  0.947830  0.428230  1.0  0.0567
  C  C275  1  0.444370  0.888730  0.361180  1.0  0.0207
  C  C276  1  0.488270  0.976530  0.465380  1.0  0.065
  C  C277  1  0.140580  0.281170  0.761570  1.0  0.0564
  C  C278  1  0.111030  0.222070  0.694520  1.0  0.0207
  C  C279  1  0.154930  0.309870  0.798720  1.0  0.0649
  C  C280  1  0.192750  0.385500  0.905100  1.0  0.0551
  C  C281  1  0.222300  0.444600  0.972150  1.0  0.0194
  C  C282  1  0.178400  0.356800  0.867950  1.0  0.0659
  C  C283  1  0.859420  0.718830  0.238430  1.0  0.0552
  C  C284  1  0.888970  0.777930  0.305480  1.0  0.0194
  C  C285  1  0.845070  0.690130  0.201280  1.0  0.0659
  C  C286  1  0.526080  0.052170  0.571770  1.0  0.0554
  C  C287  1  0.555630  0.111270  0.638820  1.0  0.0194
  C  C288  1  0.511730  0.023470  0.534620  1.0  0.0659
  C  C289  1  0.192750  0.807250  0.905100  1.0  0.0551
  C  C290  1  0.222300  0.777700  0.972150  1.0  0.0205
  C  C291  1  0.178400  0.821600  0.867950  1.0  0.0636
  C  C292  1  0.859420  0.140580  0.238430  1.0  0.0551
  C  C293  1  0.888970  0.111030  0.305480  1.0  0.0205
  C  C294  1  0.845070  0.154930  0.201280  1.0  0.0636
  C  C295  1  0.526080  0.473920  0.571770  1.0  0.0554
  C  C296  1  0.555630  0.444370  0.638820  1.0  0.0205
  C  C297  1  0.511730  0.488270  0.534620  1.0  0.0637
  C  C298  1  0.614500  0.807250  0.905100  1.0  0.0548
  C  C299  1  0.555400  0.777700  0.972150  1.0  0.0196
  C  C300  1  0.643200  0.821600  0.867950  1.0  0.0666
  C  C301  1  0.281170  0.140580  0.238430  1.0  0.0548
  C  C302  1  0.222070  0.111030  0.305480  1.0  0.0196
  C  C303  1  0.309870  0.154930  0.201280  1.0  0.0666
  C  C304  1  0.947830  0.473920  0.571770  1.0  0.0551
  C  C305  1  0.888730  0.444370  0.638820  1.0  0.0196
  C  C306  1  0.976530  0.488270  0.534620  1.0  0.0666
  O  O307  1  0.481610  0.371360  0.997090  1.0  -0.5778
  O  O308  1  0.440860  0.410670  0.044390  1.0  -0.5828
  O  O309  1  0.148280  0.704690  0.330420  1.0  -0.5778
  O  O310  1  0.107530  0.744000  0.377720  1.0  -0.5828
  O  O311  1  0.814940  0.038030  0.663760  1.0  -0.5778
  O  O312  1  0.774190  0.077340  0.711060  1.0  -0.5825
  O  O313  1  0.628640  0.110250  0.997090  1.0  -0.5787
  O  O314  1  0.589330  0.030190  0.044390  1.0  -0.584
  O  O315  1  0.295310  0.443580  0.330420  1.0  -0.5788
  O  O316  1  0.256000  0.363520  0.377720  1.0  -0.584
  O  O317  1  0.961970  0.776920  0.663760  1.0  -0.5787
  O  O318  1  0.922660  0.696860  0.711060  1.0  -0.5835
  O  O319  1  0.889750  0.518390  0.997090  1.0  -0.579
  O  O320  1  0.969810  0.559140  0.044390  1.0  -0.5832
  O  O321  1  0.556420  0.851720  0.330420  1.0  -0.579
  O  O322  1  0.636480  0.892470  0.377720  1.0  -0.5832
  O  O323  1  0.223080  0.185060  0.663760  1.0  -0.579
  O  O324  1  0.303140  0.225810  0.711060  1.0  -0.5827
  O  O325  1  0.371360  0.481610  0.002910  1.0  -0.5784
  O  O326  1  0.410670  0.440860  0.955610  1.0  -0.5835
  O  O327  1  0.038030  0.814940  0.336240  1.0  -0.5784
  O  O328  1  0.077340  0.774190  0.288940  1.0  -0.5831
  O  O329  1  0.704690  0.148280  0.669580  1.0  -0.5784
  O  O330  1  0.744000  0.107530  0.622280  1.0  -0.5835
  O  O331  1  0.110250  0.628640  0.002910  1.0  -0.5769
  O  O332  1  0.030190  0.589330  0.955610  1.0  -0.5836
  O  O333  1  0.776920  0.961970  0.336240  1.0  -0.5769
  O  O334  1  0.696860  0.922660  0.288940  1.0  -0.5833
  O  O335  1  0.443580  0.295310  0.669580  1.0  -0.577
  O  O336  1  0.363520  0.256000  0.622280  1.0  -0.5836
  O  O337  1  0.518390  0.889750  0.002910  1.0  -0.5786
  O  O338  1  0.559140  0.969810  0.955610  1.0  -0.5833
  O  O339  1  0.185060  0.223080  0.336240  1.0  -0.5786
  O  O340  1  0.225810  0.303140  0.288940  1.0  -0.583
  O  O341  1  0.851720  0.556420  0.669580  1.0  -0.5786
  O  O342  1  0.892470  0.636480  0.622280  1.0  -0.5833
  O  O343  1  0.518390  0.628640  0.002910  1.0  -0.5777
  O  O344  1  0.559140  0.589330  0.955610  1.0  -0.5831
  O  O345  1  0.185060  0.961970  0.336240  1.0  -0.5777
  O  O346  1  0.225810  0.922660  0.288940  1.0  -0.5827
  O  O347  1  0.851720  0.295310  0.669580  1.0  -0.5778
  O  O348  1  0.892470  0.256000  0.622280  1.0  -0.5831
  O  O349  1  0.371360  0.889750  0.002910  1.0  -0.5792
  O  O350  1  0.410670  0.969810  0.955610  1.0  -0.5834
  O  O351  1  0.038030  0.223080  0.336240  1.0  -0.5792
  O  O352  1  0.077340  0.303140  0.288940  1.0  -0.583
  O  O353  1  0.704690  0.556420  0.669580  1.0  -0.5793
  O  O354  1  0.744000  0.636480  0.622280  1.0  -0.5834
  O  O355  1  0.110250  0.481610  0.002910  1.0  -0.5776
  O  O356  1  0.030190  0.440860  0.955610  1.0  -0.5829
  O  O357  1  0.776920  0.814940  0.336240  1.0  -0.5776
  O  O358  1  0.696860  0.774190  0.288940  1.0  -0.5826
  O  O359  1  0.443580  0.148280  0.669580  1.0  -0.5776
  O  O360  1  0.363520  0.107530  0.622280  1.0  -0.5829
  O  O361  1  0.628640  0.518390  0.997090  1.0  -0.5786
  O  O362  1  0.589330  0.559140  0.044390  1.0  -0.5831
  O  O363  1  0.295310  0.851720  0.330420  1.0  -0.5786
  O  O364  1  0.256000  0.892470  0.377720  1.0  -0.5831
  O  O365  1  0.961970  0.185060  0.663760  1.0  -0.5786
  O  O366  1  0.922660  0.225810  0.711060  1.0  -0.5827
  O  O367  1  0.889750  0.371360  0.997090  1.0  -0.5783
  O  O368  1  0.969810  0.410670  0.044390  1.0  -0.5843
  O  O369  1  0.556420  0.704690  0.330420  1.0  -0.5783
  O  O370  1  0.636480  0.744000  0.377720  1.0  -0.5843
  O  O371  1  0.223080  0.038030  0.663760  1.0  -0.5783
  O  O372  1  0.303140  0.077340  0.711060  1.0  -0.5838
  O  O373  1  0.481610  0.110250  0.997090  1.0  -0.5794
  O  O374  1  0.440860  0.030190  0.044390  1.0  -0.5844
  O  O375  1  0.148280  0.443580  0.330420  1.0  -0.5794
  O  O376  1  0.107530  0.363520  0.377720  1.0  -0.5844
  O  O377  1  0.814940  0.776920  0.663760  1.0  -0.5794
  O  O378  1  0.774190  0.696860  0.711060  1.0  -0.5839
