# generated using pymatgen
data_CuH8C12(NO2)2
_symmetry_space_group_name_H-M   'P 1'
_cell_length_a   7.81990000
_cell_length_b   10.49710000
_cell_length_c   19.08100000
_cell_angle_alpha   90.00000000
_cell_angle_beta   90.00000000
_cell_angle_gamma   90.00000000
_symmetry_Int_Tables_number   1
_chemical_formula_structural   CuH8C12(NO2)2
_chemical_formula_sum   'Cu4 H32 C48 N8 O16'
_cell_volume   1566.28816157
_cell_formula_units_Z   4
loop_
 _symmetry_equiv_pos_site_id
 _symmetry_equiv_pos_as_xyz
  1  'x, y, z'
loop_
 _atom_site_type_symbol
 _atom_site_label
 _atom_site_symmetry_multiplicity
 _atom_site_fract_x
 _atom_site_fract_y
 _atom_site_fract_z
 _atom_site_occupancy
 _atom_site_charge
  Cu  Cu1  1  0.249460  0.410540  0.122400  1.0  0.8261
  Cu  Cu2  1  0.250540  0.589460  0.622400  1.0  0.8279
  Cu  Cu3  1  0.750540  0.910540  0.377600  1.0  0.8287
  Cu  Cu4  1  0.749460  0.089460  0.877600  1.0  0.8269
  H  H5  1  0.852700  0.512100  0.067100  1.0  0.1135
  H  H6  1  0.270600  0.531200  0.341300  1.0  0.1084
  H  H7  1  0.031000  0.792200  0.460700  1.0  0.0849
  H  H8  1  0.618700  0.387600  0.093900  1.0  0.0743
  H  H9  1  0.316500  0.688000  0.093500  1.0  0.085
  H  H10  1  0.927200  0.775900  0.258800  1.0  0.0887
  H  H11  1  0.819700  0.731600  0.055800  1.0  0.1095
  H  H12  1  0.544200  0.818100  0.063200  1.0  0.1291
  H  H13  1  0.647300  0.487900  0.567100  1.0  0.1131
  H  H14  1  0.229400  0.468800  0.841300  1.0  0.1083
  H  H15  1  0.469000  0.207800  0.960700  1.0  0.0852
  H  H16  1  0.881300  0.612400  0.593900  1.0  0.0748
  H  H17  1  0.183500  0.312000  0.593500  1.0  0.0854
  H  H18  1  0.572800  0.224100  0.758800  1.0  0.0886
  H  H19  1  0.680300  0.268400  0.555800  1.0  0.1094
  H  H20  1  0.955800  0.181900  0.563200  1.0  0.1291
  H  H21  1  0.147300  0.012100  0.432900  1.0  0.1143
  H  H22  1  0.729400  0.031200  0.158700  1.0  0.1084
  H  H23  1  0.969000  0.292200  0.039300  1.0  0.0853
  H  H24  1  0.381300  0.887600  0.406100  1.0  0.0745
  H  H25  1  0.683500  0.188000  0.406500  1.0  0.0854
  H  H26  1  0.072800  0.275900  0.241200  1.0  0.0883
  H  H27  1  0.180300  0.231600  0.444200  1.0  0.1097
  H  H28  1  0.455800  0.318100  0.436800  1.0  0.1291
  H  H29  1  0.352700  0.987900  0.932900  1.0  0.1143
  H  H30  1  0.770600  0.968800  0.658700  1.0  0.1088
  H  H31  1  0.531000  0.707800  0.539300  1.0  0.0852
  H  H32  1  0.118700  0.112400  0.906100  1.0  0.0756
  H  H33  1  0.816500  0.812000  0.906500  1.0  0.0852
  H  H34  1  0.427200  0.724100  0.741200  1.0  0.0886
  H  H35  1  0.319700  0.768400  0.944200  1.0  0.1094
  H  H36  1  0.044200  0.681900  0.936800  1.0  0.1291
  C  C37  1  0.251500  0.607000  0.476690  1.0  0.6645
  C  C38  1  0.128100  0.590200  0.215860  1.0  0.663
  C  C39  1  0.164900  0.653700  0.411000  1.0  -0.207
  C  C40  1  0.743400  0.550300  0.072700  1.0  -0.1419
  C  C41  1  0.191800  0.599500  0.346190  1.0  0.0409
  C  C42  1  0.104200  0.644400  0.288200  1.0  -0.1815
  C  C43  1  0.048000  0.753300  0.416240  1.0  0.1933
  C  C44  1  0.603700  0.476900  0.088700  1.0  0.1429
  C  C45  1  0.426900  0.651500  0.088100  1.0  0.1569
  C  C46  1  0.987800  0.744200  0.298280  1.0  0.191
  C  C47  1  0.723900  0.678600  0.065000  1.0  0.0285
  C  C48  1  0.562300  0.729700  0.070900  1.0  -0.1652
  C  C49  1  0.248500  0.393000  0.976690  1.0  0.6649
  C  C50  1  0.371900  0.409800  0.715860  1.0  0.663
  C  C51  1  0.335100  0.346300  0.911000  1.0  -0.2052
  C  C52  1  0.756600  0.449700  0.572700  1.0  -0.1427
  C  C53  1  0.308200  0.400500  0.846190  1.0  0.0417
  C  C54  1  0.395800  0.355600  0.788200  1.0  -0.1811
  C  C55  1  0.452000  0.246700  0.916240  1.0  0.1923
  C  C56  1  0.896300  0.523100  0.588700  1.0  0.1414
  C  C57  1  0.073100  0.348500  0.588100  1.0  0.1572
  C  C58  1  0.512200  0.255800  0.798280  1.0  0.1894
  C  C59  1  0.776100  0.321400  0.565000  1.0  0.0305
  C  C60  1  0.937700  0.270300  0.570900  1.0  -0.1664
  C  C61  1  0.748500  0.107000  0.023310  1.0  0.6637
  C  C62  1  0.871900  0.090200  0.284140  1.0  0.6633
  C  C63  1  0.835100  0.153700  0.089000  1.0  -0.207
  C  C64  1  0.256600  0.050300  0.427300  1.0  -0.1428
  C  C65  1  0.808200  0.099500  0.153810  1.0  0.0384
  C  C66  1  0.895800  0.144400  0.211800  1.0  -0.1839
  C  C67  1  0.952000  0.253300  0.083760  1.0  0.1918
  C  C68  1  0.396300  0.976900  0.411300  1.0  0.1431
  C  C69  1  0.573100  0.151500  0.411900  1.0  0.1578
  C  C70  1  0.012200  0.244200  0.201720  1.0  0.1899
  C  C71  1  0.276100  0.178600  0.435000  1.0  0.0308
  C  C72  1  0.437700  0.229700  0.429100  1.0  -0.1638
  C  C73  1  0.751500  0.893000  0.523310  1.0  0.6638
  C  C74  1  0.628100  0.909800  0.784140  1.0  0.6629
  C  C75  1  0.664900  0.846300  0.589000  1.0  -0.2067
  C  C76  1  0.243400  0.949700  0.927300  1.0  -0.1418
  C  C77  1  0.691800  0.900500  0.653810  1.0  0.042
  C  C78  1  0.604200  0.855600  0.711800  1.0  -0.184
  C  C79  1  0.548000  0.746700  0.583760  1.0  0.1916
  C  C80  1  0.103700  0.023100  0.911300  1.0  0.1419
  C  C81  1  0.926900  0.848500  0.911900  1.0  0.157
  C  C82  1  0.487800  0.755800  0.701720  1.0  0.1908
  C  C83  1  0.223900  0.821400  0.935000  1.0  0.0282
  C  C84  1  0.062300  0.770300  0.929100  1.0  -0.1655
  N  N85  1  0.445900  0.526200  0.097370  1.0  -0.3122
  N  N86  1  0.957800  0.797100  0.360960  1.0  -0.3376
  N  N87  1  0.054100  0.473800  0.597370  1.0  -0.3132
  N  N88  1  0.542200  0.202900  0.860960  1.0  -0.3383
  N  N89  1  0.554100  0.026200  0.402630  1.0  -0.3134
  N  N90  1  0.042200  0.297100  0.139040  1.0  -0.3383
  N  N91  1  0.945900  0.973800  0.902630  1.0  -0.3117
  N  N92  1  0.457800  0.702900  0.639040  1.0  -0.3384
  O  O93  1  0.221600  0.489500  0.214020  1.0  -0.5999
  O  O94  1  0.214000  0.670300  0.531770  1.0  -0.5976
  O  O95  1  0.060000  0.640600  0.164990  1.0  -0.5788
  O  O96  1  0.347800  0.514900  0.473800  1.0  -0.578
  O  O97  1  0.278400  0.510500  0.714020  1.0  -0.6004
  O  O98  1  0.286000  0.329700  0.031770  1.0  -0.5974
  O  O99  1  0.440000  0.359400  0.664990  1.0  -0.5782
  O  O100  1  0.152200  0.485100  0.973800  1.0  -0.5786
  O  O101  1  0.778400  0.989500  0.285980  1.0  -0.6011
  O  O102  1  0.786000  0.170300  0.968230  1.0  -0.5967
  O  O103  1  0.940000  0.140600  0.335010  1.0  -0.5782
  O  O104  1  0.652200  0.014900  0.026200  1.0  -0.5783
  O  O105  1  0.721600  0.010500  0.785980  1.0  -0.6009
  O  O106  1  0.714000  0.829700  0.468230  1.0  -0.5968
  O  O107  1  0.560000  0.859400  0.835010  1.0  -0.5785
  O  O108  1  0.847800  0.985100  0.526200  1.0  -0.5779
