# generated using pymatgen
data_Al4P4O17
_symmetry_space_group_name_H-M   'P 1'
_cell_length_a   9.64550000
_cell_length_b   9.64060000
_cell_length_c   10.59870000
_cell_angle_alpha   74.15900000
_cell_angle_beta   74.71400000
_cell_angle_gamma   88.95500000
_symmetry_Int_Tables_number   1
_chemical_formula_structural   Al4P4O17
_chemical_formula_sum   'Al8 P8 O34'
_cell_volume   913.05056327
_cell_formula_units_Z   2
loop_
 _symmetry_equiv_pos_site_id
 _symmetry_equiv_pos_as_xyz
  1  'x, y, z'
loop_
 _atom_site_type_symbol
 _atom_site_label
 _atom_site_symmetry_multiplicity
 _atom_site_fract_x
 _atom_site_fract_y
 _atom_site_fract_z
 _atom_site_occupancy
 _atom_site_charge
  Al  Al1  1  0.231600  0.786600  0.838900  1.0  1.8858
  Al  Al2  1  0.484300  0.224300  0.922900  1.0  1.9757
  Al  Al3  1  0.178500  0.951200  0.342200  1.0  1.9703
  Al  Al4  1  0.977200  0.500400  0.867500  1.0  1.7863
  Al  Al5  1  0.768400  0.213400  0.161100  1.0  1.8839
  Al  Al6  1  0.515700  0.775700  0.077100  1.0  1.9758
  Al  Al7  1  0.821500  0.048800  0.657800  1.0  1.9732
  Al  Al8  1  0.022800  0.499600  0.132500  1.0  1.7867
  P  P9  1  0.502900  0.968900  0.794300  1.0  2.0265
  P  P10  1  0.275900  0.476100  0.902800  1.0  1.9905
  P  P11  1  0.034000  0.798700  0.649600  1.0  1.963
  P  P12  1  0.187100  0.768100  0.139900  1.0  1.9951
  P  P13  1  0.497100  0.031100  0.205700  1.0  2.0295
  P  P14  1  0.724100  0.523900  0.097200  1.0  1.987
  P  P15  1  0.966000  0.201300  0.350400  1.0  1.9624
  P  P16  1  0.812900  0.231900  0.860100  1.0  2.0116
  O  O17  1  0.169600  0.446600  0.830400  1.0  -0.7915
  O  O18  1  0.403900  0.383900  0.877200  1.0  -0.9904
  O  O19  1  0.199500  0.843200  0.989800  1.0  -0.9097
  O  O20  1  0.448300  0.092400  0.851200  1.0  -0.972
  O  O21  1  0.389500  0.912800  0.745200  1.0  -0.7907
  O  O22  1  0.337700  0.633200  0.837700  1.0  -0.8649
  O  O23  1  0.992400  0.640900  0.707200  1.0  -0.8926
  O  O24  1  0.105200  0.832500  0.498400  1.0  -1.01
  O  O25  1  0.046900  0.640300  0.947100  1.0  -0.8207
  O  O26  1  0.211700  0.450000  0.055200  1.0  -0.8084
  O  O27  1  0.135100  0.851600  0.717300  1.0  -0.9627
  O  O28  1  0.336000  0.715600  0.153900  1.0  -0.928
  O  O29  1  0.147100  0.880900  0.215800  1.0  -1.0348
  O  O30  1  0.636800  0.020100  0.678900  1.0  -0.9415
  O  O31  1  0.545500  0.849700  0.902500  1.0  -1.0366
  O  O32  1  0.080700  0.641800  0.196700  1.0  -0.8152
  O  O33  1  0.895600  0.883000  0.668500  1.0  -1.0369
  O  O34  1  0.830400  0.553400  0.169600  1.0  -0.7913
  O  O35  1  0.596100  0.616100  0.122800  1.0  -0.9921
  O  O36  1  0.800500  0.156800  0.010200  1.0  -0.9088
  O  O37  1  0.551700  0.907600  0.148800  1.0  -0.9693
  O  O38  1  0.610500  0.087200  0.254800  1.0  -0.7923
  O  O39  1  0.662300  0.366800  0.162300  1.0  -0.863
  O  O40  1  0.007600  0.359100  0.292800  1.0  -0.8913
  O  O41  1  0.894800  0.167500  0.501600  1.0  -1.0091
  O  O42  1  0.953100  0.359700  0.052900  1.0  -0.8222
  O  O43  1  0.788300  0.550000  0.944800  1.0  -0.809
  O  O44  1  0.864900  0.148400  0.282700  1.0  -0.9603
  O  O45  1  0.664000  0.284400  0.846100  1.0  -0.9265
  O  O46  1  0.852900  0.119100  0.784200  1.0  -1.0334
  O  O47  1  0.363200  0.979900  0.321100  1.0  -0.9423
  O  O48  1  0.454500  0.150300  0.097500  1.0  -1.0367
  O  O49  1  0.919300  0.358200  0.803300  1.0  -0.8129
  O  O50  1  0.104400  0.117000  0.331500  1.0  -1.0363
