# generated using pymatgen
data_Al4P4HO17
_symmetry_space_group_name_H-M   'P 1'
_cell_length_a   9.66800000
_cell_length_b   9.65720000
_cell_length_c   10.62300000
_cell_angle_alpha   74.16100000
_cell_angle_beta   74.67500000
_cell_angle_gamma   88.97400000
_symmetry_Int_Tables_number   1
_chemical_formula_structural   Al4P4HO17
_chemical_formula_sum   'Al8 P8 H2 O34'
_cell_volume   918.66653690
_cell_formula_units_Z   2
loop_
 _symmetry_equiv_pos_site_id
 _symmetry_equiv_pos_as_xyz
  1  'x, y, z'
loop_
 _atom_site_type_symbol
 _atom_site_label
 _atom_site_symmetry_multiplicity
 _atom_site_fract_x
 _atom_site_fract_y
 _atom_site_fract_z
 _atom_site_occupancy
 _atom_site_charge
  Al  Al1  1  0.231400  0.786500  0.839000  1.0  1.8449
  Al  Al2  1  0.484800  0.224700  0.922300  1.0  1.9842
  Al  Al3  1  0.178200  0.951400  0.342100  1.0  1.9942
  Al  Al4  1  0.977200  0.500500  0.867100  1.0  1.7413
  Al  Al5  1  0.768600  0.213500  0.161000  1.0  1.8413
  Al  Al6  1  0.515200  0.775300  0.077700  1.0  1.9844
  Al  Al7  1  0.821800  0.048600  0.657900  1.0  1.9963
  Al  Al8  1  0.022800  0.499500  0.132900  1.0  1.7376
  P  P9  1  0.502700  0.968800  0.794500  1.0  1.9814
  P  P10  1  0.275700  0.475900  0.902800  1.0  1.834
  P  P11  1  0.034200  0.799600  0.649700  1.0  2.0093
  P  P12  1  0.187200  0.767900  0.140100  1.0  2.019
  P  P13  1  0.497300  0.031200  0.205500  1.0  1.985
  P  P14  1  0.724300  0.524100  0.097200  1.0  1.835
  P  P15  1  0.965800  0.200400  0.350300  1.0  2.0104
  P  P16  1  0.812800  0.232100  0.859900  1.0  2.0227
  H  H17  1  0.973100  0.696800  0.968000  1.0  0.3257
  H  H18  1  0.026900  0.303200  0.032000  1.0  0.3252
  O  O19  1  0.167100  0.446800  0.830500  1.0  -0.8016
  O  O20  1  0.403700  0.383000  0.877100  1.0  -0.9914
  O  O21  1  0.199300  0.843100  0.990500  1.0  -0.8964
  O  O22  1  0.447400  0.093200  0.852600  1.0  -1.0271
  O  O23  1  0.388100  0.913100  0.745600  1.0  -0.8289
  O  O24  1  0.337300  0.634100  0.838400  1.0  -0.8507
  O  O25  1  0.992600  0.640700  0.707300  1.0  -0.8905
  O  O26  1  0.105500  0.830900  0.497900  1.0  -1.0135
  O  O27  1  0.048400  0.639800  0.947400  1.0  -0.9021
  O  O28  1  0.210800  0.450100  0.055500  1.0  -0.8221
  O  O29  1  0.135500  0.851900  0.717300  1.0  -0.9727
  O  O30  1  0.335100  0.717000  0.153800  1.0  -0.9281
  O  O31  1  0.145700  0.882200  0.216900  1.0  -1.0016
  O  O32  1  0.638500  0.019800  0.678000  1.0  -0.9394
  O  O33  1  0.546000  0.848200  0.903700  1.0  -1.0122
  O  O34  1  0.079800  0.640900  0.197900  1.0  -0.8608
  O  O35  1  0.896900  0.882400  0.668900  1.0  -1.0028
  O  O36  1  0.832900  0.553200  0.169500  1.0  -0.8011
  O  O37  1  0.596300  0.617000  0.122900  1.0  -0.9908
  O  O38  1  0.800700  0.156900  0.009500  1.0  -0.8956
  O  O39  1  0.552600  0.906800  0.147400  1.0  -1.0251
  O  O40  1  0.611900  0.086900  0.254400  1.0  -0.8288
  O  O41  1  0.662700  0.365900  0.161600  1.0  -0.8473
  O  O42  1  0.007400  0.359300  0.292700  1.0  -0.8863
  O  O43  1  0.894500  0.169100  0.502100  1.0  -1.0155
  O  O44  1  0.951600  0.360200  0.052600  1.0  -0.9031
  O  O45  1  0.789200  0.549900  0.944500  1.0  -0.8208
  O  O46  1  0.864500  0.148100  0.282700  1.0  -0.9715
  O  O47  1  0.664900  0.283000  0.846200  1.0  -0.9264
  O  O48  1  0.854300  0.117800  0.783100  1.0  -1.0003
  O  O49  1  0.361500  0.980200  0.322000  1.0  -0.9419
  O  O50  1  0.454000  0.151800  0.096300  1.0  -1.012
  O  O51  1  0.920200  0.359100  0.802100  1.0  -0.8612
  O  O52  1  0.103100  0.117600  0.331100  1.0  -1.0023
