# generated using pymatgen
data_Ce2AsP2H4W11C2O35
_symmetry_space_group_name_H-M   'P 1'
_cell_length_a   15.11500000
_cell_length_b   16.25600000
_cell_length_c   27.42100000
_cell_angle_alpha   90.00000000
_cell_angle_beta   105.52100000
_cell_angle_gamma   90.00000000
_symmetry_Int_Tables_number   1
_chemical_formula_structural   Ce2AsP2H4W11C2O35
_chemical_formula_sum   'Ce8 As4 P8 H16 W44 C8 O140'
_cell_volume   6491.89477811
_cell_formula_units_Z   4
loop_
 _symmetry_equiv_pos_site_id
 _symmetry_equiv_pos_as_xyz
  1  'x, y, z'
loop_
 _atom_site_type_symbol
 _atom_site_label
 _atom_site_symmetry_multiplicity
 _atom_site_fract_x
 _atom_site_fract_y
 _atom_site_fract_z
 _atom_site_occupancy
 _atom_site_charge
  Ce  Ce1  1  0.802570  0.566810  0.525130  1.0  2.0918
  Ce  Ce2  1  0.650820  0.721400  0.265370  1.0  1.3754
  Ce  Ce3  1  0.197430  0.066810  0.974870  1.0  2.0925
  Ce  Ce4  1  0.349180  0.221400  0.234630  1.0  1.3738
  Ce  Ce5  1  0.197430  0.433190  0.474870  1.0  2.0902
  Ce  Ce6  1  0.349180  0.278600  0.734630  1.0  1.3743
  Ce  Ce7  1  0.802570  0.933190  0.025130  1.0  2.0889
  Ce  Ce8  1  0.650820  0.778600  0.765370  1.0  1.3755
  As  As9  1  0.756560  0.324040  0.526250  1.0  0.9733
  As  As10  1  0.243440  0.824040  0.973750  1.0  0.9739
  As  As11  1  0.243440  0.675960  0.473750  1.0  0.9635
  As  As12  1  0.756560  0.175960  0.026250  1.0  0.963
  P  P13  1  0.514100  0.568900  0.322600  1.0  1.4007
  P  P14  1  0.412100  0.412500  0.316380  1.0  1.4527
  P  P15  1  0.485900  0.068900  0.177400  1.0  1.4032
  P  P16  1  0.587900  0.912500  0.183620  1.0  1.4531
  P  P17  1  0.485900  0.431100  0.677400  1.0  1.4021
  P  P18  1  0.587900  0.587500  0.683620  1.0  1.4495
  P  P19  1  0.514100  0.931100  0.822600  1.0  1.4003
  P  P20  1  0.412100  0.087500  0.816380  1.0  1.4487
  H  H21  1  0.492600  0.416100  0.237500  1.0  0.4535
  H  H22  1  0.330400  0.548600  0.260000  1.0  0.1353
  H  H23  1  0.393500  0.569000  0.224600  1.0  0.1395
  H  H24  1  0.341500  0.484700  0.219300  1.0  0.1266
  H  H25  1  0.507400  0.916100  0.262500  1.0  0.456
  H  H26  1  0.669600  0.048600  0.240000  1.0  0.1359
  H  H27  1  0.606500  0.069000  0.275400  1.0  0.1412
  H  H28  1  0.658500  0.984700  0.280700  1.0  0.1278
  H  H29  1  0.507400  0.583900  0.762500  1.0  0.4544
  H  H30  1  0.669600  0.451400  0.740000  1.0  0.1356
  H  H31  1  0.606500  0.431000  0.775400  1.0  0.1413
  H  H32  1  0.658500  0.515300  0.780700  1.0  0.1288
  H  H33  1  0.492600  0.083900  0.737500  1.0  0.4532
  H  H34  1  0.330400  0.951400  0.760000  1.0  0.1356
  H  H35  1  0.393500  0.931000  0.724600  1.0  0.1387
  H  H36  1  0.341500  0.015300  0.719300  1.0  0.1279
  W  W37  1  0.562400  0.227290  0.448870  1.0  1.494
  W  W38  1  0.751130  0.282630  0.391170  1.0  1.3618
  W  W39  1  0.584930  0.236340  0.573150  1.0  1.3524
  W  W40  1  0.932250  0.367820  0.475500  1.0  2.5909
  W  W41  1  0.895490  0.161440  0.475990  1.0  1.4603
  W  W42  1  0.957310  0.377000  0.610410  1.0  1.4201
  W  W43  1  0.800110  0.304730  0.665850  1.0  1.3626
  W  W44  1  0.704400  0.096740  0.526770  1.0  1.4053
  W  W45  1  0.917770  0.170730  0.614140  1.0  1.4027
  W  W46  1  0.595380  0.440280  0.416210  1.0  2.4617
  W  W47  1  0.373590  0.546070  0.398280  1.0  2.5083
  W  W48  1  0.437600  0.727290  0.051130  1.0  1.4928
  W  W49  1  0.248870  0.782630  0.108830  1.0  1.357
  W  W50  1  0.415070  0.736340  0.926850  1.0  1.3535
  W  W51  1  0.067750  0.867820  0.024500  1.0  2.5915
  W  W52  1  0.104510  0.661440  0.024010  1.0  1.4617
  W  W53  1  0.042690  0.877000  0.889590  1.0  1.4199
  W  W54  1  0.199890  0.804730  0.834150  1.0  1.3639
  W  W55  1  0.295600  0.596740  0.973230  1.0  1.408
  W  W56  1  0.082230  0.670730  0.885860  1.0  1.4031
  W  W57  1  0.404620  0.940280  0.083790  1.0  2.463
  W  W58  1  0.626410  0.046070  0.101720  1.0  2.5078
  W  W59  1  0.437600  0.772710  0.551130  1.0  1.4944
  W  W60  1  0.248870  0.717370  0.608830  1.0  1.3563
  W  W61  1  0.415070  0.763660  0.426850  1.0  1.3535
  W  W62  1  0.067750  0.632180  0.524500  1.0  2.5909
  W  W63  1  0.104510  0.838560  0.524010  1.0  1.4654
  W  W64  1  0.042690  0.623000  0.389590  1.0  1.4178
  W  W65  1  0.199890  0.695270  0.334150  1.0  1.364
  W  W66  1  0.295600  0.903260  0.473230  1.0  1.409
  W  W67  1  0.082230  0.829270  0.385860  1.0  1.4043
  W  W68  1  0.404620  0.559720  0.583790  1.0  2.4637
  W  W69  1  0.626410  0.453930  0.601720  1.0  2.5081
  W  W70  1  0.562400  0.272710  0.948870  1.0  1.4951
  W  W71  1  0.751130  0.217370  0.891170  1.0  1.3612
  W  W72  1  0.584930  0.263660  0.073150  1.0  1.3521
  W  W73  1  0.932250  0.132180  0.975500  1.0  2.5909
  W  W74  1  0.895490  0.338560  0.975990  1.0  1.4663
  W  W75  1  0.957310  0.123000  0.110410  1.0  1.4179
  W  W76  1  0.800110  0.195270  0.165850  1.0  1.3625
  W  W77  1  0.704400  0.403260  0.026770  1.0  1.4096
  W  W78  1  0.917770  0.329270  0.114140  1.0  1.4052
  W  W79  1  0.595380  0.059720  0.916210  1.0  2.4622
  W  W80  1  0.373590  0.953930  0.898280  1.0  2.5082
  C  C81  1  0.449500  0.489900  0.279000  1.0  -0.2595
  C  C82  1  0.372300  0.526100  0.242700  1.0  -0.2986
  C  C83  1  0.550500  0.989900  0.221000  1.0  -0.2601
  C  C84  1  0.627700  0.026100  0.257300  1.0  -0.2982
  C  C85  1  0.550500  0.510100  0.721000  1.0  -0.2604
  C  C86  1  0.627700  0.473900  0.757300  1.0  -0.2971
  C  C87  1  0.449500  0.010100  0.779000  1.0  -0.2596
  C  C88  1  0.372300  0.973900  0.742700  1.0  -0.2972
  O  O89  1  0.684900  0.384100  0.392900  1.0  -0.7755
  O  O90  1  0.910900  0.363900  0.670900  1.0  -0.7008
  O  O91  1  0.817700  0.286300  0.482800  1.0  -0.8607
  O  O92  1  0.500200  0.380600  0.354300  1.0  -0.7824
  O  O93  1  0.933600  0.160300  0.547900  1.0  -0.6918
  O  O94  1  0.350100  0.458700  0.343800  1.0  -0.7688
  O  O95  1  0.487000  0.493700  0.424500  1.0  -0.7559
  O  O96  1  0.613100  0.126200  0.565900  1.0  -0.6989
  O  O97  1  0.403400  0.643700  0.433500  1.0  -0.7842
  O  O98  1  0.859600  0.344200  0.406000  1.0  -0.7233
  O  O99  1  0.834300  0.293900  0.585100  1.0  -0.8592
  O  O100  1  0.870400  0.454200  0.481700  1.0  -0.8381
  O  O101  1  0.442000  0.603900  0.348300  1.0  -0.783
  O  O102  1  0.864000  0.205500  0.666800  1.0  -0.6883
  O  O103  1  0.973200  0.246200  0.470900  1.0  -0.7025
  O  O104  1  0.780100  0.111600  0.486100  1.0  -0.7398
  O  O105  1  0.509800  0.240000  0.504300  1.0  -0.6873
  O  O106  1  0.684400  0.236000  0.521600  1.0  -0.8342
  O  O107  1  0.978900  0.349300  0.546200  1.0  -0.7587
  O  O108  1  0.574400  0.348700  0.451200  1.0  -0.7996
  O  O109  1  0.654100  0.234600  0.412400  1.0  -0.7349
  O  O110  1  0.594700  0.523500  0.362500  1.0  -0.7547
  O  O111  1  0.816700  0.184000  0.408900  1.0  -0.6922
  O  O112  1  0.999200  0.256400  0.628500  1.0  -0.6983
  O  O113  1  0.797300  0.117200  0.583400  1.0  -0.7257
  O  O114  1  0.359200  0.346900  0.281700  1.0  -0.8375
  O  O115  1  0.266100  0.597300  0.356700  1.0  -0.7589
  O  O116  1  0.674800  0.492500  0.464000  1.0  -0.785
  O  O117  1  0.884800  0.460700  0.585400  1.0  -0.7724
  O  O118  1  0.690200  0.250100  0.628900  1.0  -0.6883
  O  O119  1  0.031200  0.406000  0.461500  1.0  -0.8611
  O  O120  1  0.316300  0.496600  0.435800  1.0  -0.7682
  O  O121  1  0.553400  0.631000  0.293600  1.0  -0.9161
  O  O122  1  0.595200  0.121400  0.467300  1.0  -0.6751
  O  O123  1  0.516200  0.454300  0.255900  1.0  -0.5051
  O  O124  1  0.315100  0.884100  0.107100  1.0  -0.7768
  O  O125  1  0.089100  0.863900  0.829100  1.0  -0.7053
  O  O126  1  0.182300  0.786300  0.017200  1.0  -0.8613
  O  O127  1  0.499800  0.880600  0.145700  1.0  -0.7821
  O  O128  1  0.066400  0.660300  0.952100  1.0  -0.6906
  O  O129  1  0.649900  0.958700  0.156200  1.0  -0.7691
  O  O130  1  0.513000  0.993700  0.075500  1.0  -0.7584
  O  O131  1  0.386900  0.626200  0.934100  1.0  -0.6946
  O  O132  1  0.596600  0.143700  0.066500  1.0  -0.784
  O  O133  1  0.140400  0.844200  0.094000  1.0  -0.7162
  O  O134  1  0.165700  0.793900  0.914900  1.0  -0.8598
  O  O135  1  0.129600  0.954200  0.018300  1.0  -0.8362
  O  O136  1  0.558000  0.103900  0.151700  1.0  -0.784
  O  O137  1  0.136000  0.705500  0.833200  1.0  -0.6916
  O  O138  1  0.026800  0.746200  0.029100  1.0  -0.7038
  O  O139  1  0.219900  0.611600  0.013900  1.0  -0.7414
  O  O140  1  0.490200  0.740000  0.995700  1.0  -0.6898
  O  O141  1  0.315600  0.736000  0.978400  1.0  -0.8331
  O  O142  1  0.021100  0.849300  0.953800  1.0  -0.7647
  O  O143  1  0.425600  0.848700  0.048800  1.0  -0.7984
  O  O144  1  0.345900  0.734600  0.087600  1.0  -0.7384
  O  O145  1  0.405300  0.023500  0.137500  1.0  -0.7563
  O  O146  1  0.183300  0.684000  0.091100  1.0  -0.6963
  O  O147  1  0.000800  0.756400  0.871500  1.0  -0.6981
  O  O148  1  0.202700  0.617200  0.916600  1.0  -0.7249
  O  O149  1  0.640800  0.846900  0.218300  1.0  -0.8384
  O  O150  1  0.733900  0.097300  0.143300  1.0  -0.7585
  O  O151  1  0.325200  0.992500  0.036000  1.0  -0.7842
  O  O152  1  0.115200  0.960700  0.914600  1.0  -0.7739
  O  O153  1  0.309800  0.750100  0.871100  1.0  -0.6839
  O  O154  1  0.968800  0.906000  0.038500  1.0  -0.8577
  O  O155  1  0.683700  0.996600  0.064200  1.0  -0.7674
  O  O156  1  0.446600  0.131000  0.206400  1.0  -0.9144
  O  O157  1  0.404800  0.621400  0.032700  1.0  -0.679
  O  O158  1  0.483800  0.954300  0.244100  1.0  -0.5066
  O  O159  1  0.315100  0.615900  0.607100  1.0  -0.7773
  O  O160  1  0.089100  0.636100  0.329100  1.0  -0.7044
  O  O161  1  0.182300  0.713700  0.517200  1.0  -0.8613
  O  O162  1  0.499800  0.619400  0.645700  1.0  -0.7818
  O  O163  1  0.066400  0.839700  0.452100  1.0  -0.6934
  O  O164  1  0.649900  0.541300  0.656200  1.0  -0.766
  O  O165  1  0.513000  0.506300  0.575500  1.0  -0.7584
  O  O166  1  0.386900  0.873800  0.434100  1.0  -0.698
  O  O167  1  0.596600  0.356300  0.566500  1.0  -0.7838
  O  O168  1  0.140400  0.655800  0.594000  1.0  -0.7172
  O  O169  1  0.165700  0.706100  0.414900  1.0  -0.8599
  O  O170  1  0.129600  0.545800  0.518300  1.0  -0.839
  O  O171  1  0.558000  0.396100  0.651700  1.0  -0.7836
  O  O172  1  0.136000  0.794500  0.333200  1.0  -0.6958
  O  O173  1  0.026800  0.753800  0.529100  1.0  -0.7031
  O  O174  1  0.219900  0.888400  0.513900  1.0  -0.738
  O  O175  1  0.490200  0.760000  0.495700  1.0  -0.6907
  O  O176  1  0.315600  0.764000  0.478400  1.0  -0.8327
  O  O177  1  0.021100  0.650700  0.453800  1.0  -0.7647
  O  O178  1  0.425600  0.651300  0.548800  1.0  -0.7983
  O  O179  1  0.345900  0.765400  0.587600  1.0  -0.7358
  O  O180  1  0.405300  0.476500  0.637500  1.0  -0.7554
  O  O181  1  0.183300  0.816000  0.591100  1.0  -0.6913
  O  O182  1  0.000800  0.743600  0.371500  1.0  -0.6976
  O  O183  1  0.202700  0.882800  0.416600  1.0  -0.7249
  O  O184  1  0.640800  0.653100  0.718300  1.0  -0.8405
  O  O185  1  0.733900  0.402700  0.643300  1.0  -0.7572
  O  O186  1  0.325200  0.507500  0.536000  1.0  -0.7828
  O  O187  1  0.115200  0.539300  0.414600  1.0  -0.7741
  O  O188  1  0.309800  0.749900  0.371100  1.0  -0.6859
  O  O189  1  0.968800  0.594000  0.538500  1.0  -0.858
  O  O190  1  0.683700  0.503400  0.564200  1.0  -0.7683
  O  O191  1  0.446600  0.369000  0.706400  1.0  -0.9137
  O  O192  1  0.404800  0.878600  0.532700  1.0  -0.6784
  O  O193  1  0.483800  0.545700  0.744100  1.0  -0.5059
  O  O194  1  0.684900  0.115900  0.892900  1.0  -0.7755
  O  O195  1  0.910900  0.136100  0.170900  1.0  -0.703
  O  O196  1  0.817700  0.213700  0.982800  1.0  -0.8609
  O  O197  1  0.500200  0.119400  0.854300  1.0  -0.7818
  O  O198  1  0.933600  0.339700  0.047900  1.0  -0.6941
  O  O199  1  0.350100  0.041300  0.843800  1.0  -0.7669
  O  O200  1  0.487000  0.006300  0.924500  1.0  -0.7558
  O  O201  1  0.613100  0.373800  0.065900  1.0  -0.6961
  O  O202  1  0.403400  0.856300  0.933500  1.0  -0.7838
  O  O203  1  0.859600  0.155800  0.906000  1.0  -0.7226
  O  O204  1  0.834300  0.206100  0.085100  1.0  -0.8593
  O  O205  1  0.870400  0.045800  0.981700  1.0  -0.8387
  O  O206  1  0.442000  0.896100  0.848300  1.0  -0.7836
  O  O207  1  0.864000  0.294500  0.166800  1.0  -0.6837
  O  O208  1  0.973200  0.253800  0.970900  1.0  -0.7027
  O  O209  1  0.780100  0.388400  0.986100  1.0  -0.7373
  O  O210  1  0.509800  0.260000  0.004300  1.0  -0.6872
  O  O211  1  0.684400  0.264000  0.021600  1.0  -0.834
  O  O212  1  0.978900  0.150700  0.046200  1.0  -0.7581
  O  O213  1  0.574400  0.151300  0.951200  1.0  -0.7996
  O  O214  1  0.654100  0.265400  0.912400  1.0  -0.7359
  O  O215  1  0.594700  0.976500  0.862500  1.0  -0.7553
  O  O216  1  0.816700  0.316000  0.908900  1.0  -0.6954
  O  O217  1  0.999200  0.243600  0.128500  1.0  -0.6984
  O  O218  1  0.797300  0.382800  0.083400  1.0  -0.7228
  O  O219  1  0.359200  0.153100  0.781700  1.0  -0.8404
  O  O220  1  0.266100  0.902700  0.856700  1.0  -0.7575
  O  O221  1  0.674800  0.007500  0.964000  1.0  -0.7838
  O  O222  1  0.884800  0.039300  0.085400  1.0  -0.7752
  O  O223  1  0.690200  0.249900  0.128900  1.0  -0.6865
  O  O224  1  0.031200  0.094000  0.961500  1.0  -0.8611
  O  O225  1  0.316300  0.003400  0.935800  1.0  -0.769
  O  O226  1  0.553400  0.869000  0.793600  1.0  -0.9158
  O  O227  1  0.595200  0.378600  0.967300  1.0  -0.6761
  O  O228  1  0.516200  0.045700  0.755900  1.0  -0.5064
