# generated using pymatgen
data_Mg3H33C57N3O13
_symmetry_space_group_name_H-M   'P 1'
_cell_length_a   18.88320000
_cell_length_b   18.88320000
_cell_length_c   18.88320000
_cell_angle_alpha   62.09840000
_cell_angle_beta   62.09840000
_cell_angle_gamma   62.09840000
_symmetry_Int_Tables_number   1
_chemical_formula_structural   Mg3H33C57N3O13
_chemical_formula_sum   'Mg6 H66 C114 N6 O26'
_cell_volume   4984.45898225
_cell_formula_units_Z   2
loop_
 _symmetry_equiv_pos_site_id
 _symmetry_equiv_pos_as_xyz
  1  'x, y, z'
loop_
 _atom_site_type_symbol
 _atom_site_label
 _atom_site_symmetry_multiplicity
 _atom_site_fract_x
 _atom_site_fract_y
 _atom_site_fract_z
 _atom_site_occupancy
 _atom_site_charge
  Mg  Mg1  1  0.250000  0.351740  0.148260  1.0  1.4849
  Mg  Mg2  1  0.148260  0.250000  0.351740  1.0  1.4858
  Mg  Mg3  1  0.351740  0.148260  0.250000  1.0  1.4845
  Mg  Mg4  1  0.750000  0.648260  0.851740  1.0  1.4852
  Mg  Mg5  1  0.851740  0.750000  0.648260  1.0  1.4845
  Mg  Mg6  1  0.648260  0.851740  0.750000  1.0  1.4854
  H  H7  1  0.967100  0.659300  0.511900  1.0  0.0589
  H  H8  1  0.106200  0.427900  0.446400  1.0  0.0909
  H  H9  1  0.067800  0.535300  0.497100  1.0  0.0944
  H  H10  1  0.139800  0.688100  0.264800  1.0  0.0908
  H  H11  1  0.180500  0.581500  0.211300  1.0  0.0864
  H  H12  1  0.511900  0.967100  0.659300  1.0  0.0594
  H  H13  1  0.446400  0.106200  0.427900  1.0  0.0895
  H  H14  1  0.497100  0.067800  0.535300  1.0  0.0922
  H  H15  1  0.264800  0.139800  0.688100  1.0  0.0917
  H  H16  1  0.211300  0.180500  0.581500  1.0  0.0866
  H  H17  1  0.659300  0.511900  0.967100  1.0  0.0594
  H  H18  1  0.427900  0.446400  0.106200  1.0  0.0903
  H  H19  1  0.535300  0.497100  0.067800  1.0  0.0944
  H  H20  1  0.688100  0.264800  0.139800  1.0  0.0905
  H  H21  1  0.581500  0.211300  0.180500  1.0  0.0856
  H  H22  1  0.840700  0.532900  0.988100  1.0  0.0591
  H  H23  1  0.072100  0.393800  0.053600  1.0  0.0905
  H  H24  1  0.964700  0.432200  0.002900  1.0  0.0937
  H  H25  1  0.811900  0.360200  0.235200  1.0  0.0918
  H  H26  1  0.918500  0.319500  0.288700  1.0  0.0865
  H  H27  1  0.532900  0.988100  0.840700  1.0  0.0592
  H  H28  1  0.393800  0.053600  0.072100  1.0  0.09
  H  H29  1  0.432200  0.002900  0.964700  1.0  0.0927
  H  H30  1  0.360200  0.235200  0.811900  1.0  0.0908
  H  H31  1  0.319500  0.288700  0.918500  1.0  0.0869
  H  H32  1  0.988100  0.840700  0.532900  1.0  0.0577
  H  H33  1  0.053600  0.072100  0.393800  1.0  0.0915
  H  H34  1  0.002900  0.964700  0.432200  1.0  0.0953
  H  H35  1  0.235200  0.811900  0.360200  1.0  0.0911
  H  H36  1  0.288700  0.918500  0.319500  1.0  0.0853
  H  H37  1  0.032900  0.340700  0.488100  1.0  0.0591
  H  H38  1  0.893800  0.572100  0.553600  1.0  0.0911
  H  H39  1  0.932200  0.464700  0.502900  1.0  0.0942
  H  H40  1  0.860200  0.311900  0.735200  1.0  0.0905
  H  H41  1  0.819500  0.418500  0.788700  1.0  0.0861
  H  H42  1  0.488100  0.032900  0.340700  1.0  0.0585
  H  H43  1  0.553600  0.893800  0.572100  1.0  0.0899
  H  H44  1  0.502900  0.932200  0.464700  1.0  0.0912
  H  H45  1  0.735200  0.860200  0.311900  1.0  0.0911
  H  H46  1  0.788700  0.819500  0.418500  1.0  0.0866
  H  H47  1  0.340700  0.488100  0.032900  1.0  0.0588
  H  H48  1  0.572100  0.553600  0.893800  1.0  0.0902
  H  H49  1  0.464700  0.502900  0.932200  1.0  0.0935
  H  H50  1  0.311900  0.735200  0.860200  1.0  0.0913
  H  H51  1  0.418500  0.788700  0.819500  1.0  0.0854
  H  H52  1  0.159300  0.467100  0.011900  1.0  0.0589
  H  H53  1  0.927900  0.606200  0.946400  1.0  0.0911
  H  H54  1  0.035300  0.567800  0.997100  1.0  0.0942
  H  H55  1  0.188100  0.639800  0.764800  1.0  0.0909
  H  H56  1  0.081500  0.680500  0.711300  1.0  0.0863
  H  H57  1  0.467100  0.011900  0.159300  1.0  0.0595
  H  H58  1  0.606200  0.946400  0.927900  1.0  0.0897
  H  H59  1  0.567800  0.997100  0.035300  1.0  0.0933
  H  H60  1  0.639800  0.764800  0.188100  1.0  0.0907
  H  H61  1  0.680500  0.711300  0.081500  1.0  0.0865
  H  H62  1  0.011900  0.159300  0.467100  1.0  0.0591
  H  H63  1  0.946400  0.927900  0.606200  1.0  0.0912
  H  H64  1  0.997100  0.035300  0.567800  1.0  0.0944
  H  H65  1  0.764800  0.188100  0.639800  1.0  0.0911
  H  H66  1  0.711300  0.081500  0.680500  1.0  0.0853
  H  H67  1  0.157350  0.750000  0.342650  1.0  0.1012
  H  H68  1  0.342650  0.157350  0.750000  1.0  0.1
  H  H69  1  0.750000  0.342650  0.157350  1.0  0.1008
  H  H70  1  0.842650  0.250000  0.657350  1.0  0.1004
  H  H71  1  0.657350  0.842650  0.250000  1.0  0.1004
  H  H72  1  0.250000  0.657350  0.842650  1.0  0.1007
  C  C73  1  0.996780  0.695870  0.493170  1.0  0.1447
  C  C74  1  0.071740  0.689520  0.423060  1.0  0.0406
  C  C75  1  0.162870  0.427640  0.288170  1.0  0.6963
  C  C76  1  0.148270  0.493290  0.321330  1.0  -0.0961
  C  C77  1  0.113420  0.479760  0.408980  1.0  -0.1212
  C  C78  1  0.090050  0.544860  0.439040  1.0  -0.152
  C  C79  1  0.098920  0.624240  0.384660  1.0  0.0619
  C  C80  1  0.132540  0.636140  0.301940  1.0  -0.1426
  C  C81  1  0.157320  0.571120  0.269520  1.0  -0.071
  C  C82  1  0.493170  0.996780  0.695870  1.0  0.1467
  C  C83  1  0.423060  0.071740  0.689520  1.0  0.04
  C  C84  1  0.288170  0.162870  0.427640  1.0  0.6908
  C  C85  1  0.321330  0.148270  0.493290  1.0  -0.0963
  C  C86  1  0.408980  0.113420  0.479760  1.0  -0.1209
  C  C87  1  0.439040  0.090050  0.544860  1.0  -0.1541
  C  C88  1  0.384660  0.098920  0.624240  1.0  0.0618
  C  C89  1  0.301940  0.132540  0.636140  1.0  -0.1399
  C  C90  1  0.269520  0.157320  0.571120  1.0  -0.0678
  C  C91  1  0.695870  0.493170  0.996780  1.0  0.1467
  C  C92  1  0.689520  0.423060  0.071740  1.0  0.0406
  C  C93  1  0.427640  0.288170  0.162870  1.0  0.6917
  C  C94  1  0.493290  0.321330  0.148270  1.0  -0.0956
  C  C95  1  0.479760  0.408980  0.113420  1.0  -0.1213
  C  C96  1  0.544860  0.439040  0.090050  1.0  -0.1516
  C  C97  1  0.624240  0.384660  0.098920  1.0  0.062
  C  C98  1  0.636140  0.301940  0.132540  1.0  -0.1409
  C  C99  1  0.571120  0.269520  0.157320  1.0  -0.0698
  C  C100  1  0.804130  0.503220  0.006830  1.0  0.1464
  C  C101  1  0.810480  0.428260  0.076940  1.0  0.0406
  C  C102  1  0.072360  0.337130  0.211830  1.0  0.6921
  C  C103  1  0.006710  0.351730  0.178670  1.0  -0.0951
  C  C104  1  0.020240  0.386580  0.091020  1.0  -0.1222
  C  C105  1  0.955140  0.409950  0.060960  1.0  -0.1539
  C  C106  1  0.875760  0.401080  0.115340  1.0  0.0601
  C  C107  1  0.863860  0.367460  0.198060  1.0  -0.142
  C  C108  1  0.928880  0.342680  0.230480  1.0  -0.07
  C  C109  1  0.503220  0.006830  0.804130  1.0  0.1458
  C  C110  1  0.428260  0.076940  0.810480  1.0  0.0394
  C  C111  1  0.337130  0.211830  0.072360  1.0  0.6913
  C  C112  1  0.351730  0.178670  0.006710  1.0  -0.0952
  C  C113  1  0.386580  0.091020  0.020240  1.0  -0.1192
  C  C114  1  0.409950  0.060960  0.955140  1.0  -0.1497
  C  C115  1  0.401080  0.115340  0.875760  1.0  0.0608
  C  C116  1  0.367460  0.198060  0.863860  1.0  -0.1426
  C  C117  1  0.342680  0.230480  0.928880  1.0  -0.0701
  C  C118  1  0.006830  0.804130  0.503220  1.0  0.1457
  C  C119  1  0.076940  0.810480  0.428260  1.0  0.0409
  C  C120  1  0.211830  0.072360  0.337130  1.0  0.6931
  C  C121  1  0.178670  0.006710  0.351730  1.0  -0.0956
  C  C122  1  0.091020  0.020240  0.386580  1.0  -0.1214
  C  C123  1  0.060960  0.955140  0.409950  1.0  -0.1525
  C  C124  1  0.115340  0.875760  0.401080  1.0  0.0626
  C  C125  1  0.198060  0.863860  0.367460  1.0  -0.1385
  C  C126  1  0.230480  0.928880  0.342680  1.0  -0.0688
  C  C127  1  0.003220  0.304130  0.506830  1.0  0.1443
  C  C128  1  0.928260  0.310480  0.576940  1.0  0.0406
  C  C129  1  0.837130  0.572360  0.711830  1.0  0.6952
  C  C130  1  0.851730  0.506710  0.678670  1.0  -0.0951
  C  C131  1  0.886580  0.520240  0.591020  1.0  -0.1231
  C  C132  1  0.909950  0.455140  0.560960  1.0  -0.1529
  C  C133  1  0.901080  0.375760  0.615340  1.0  0.061
  C  C134  1  0.867460  0.363860  0.698060  1.0  -0.1424
  C  C135  1  0.842680  0.428880  0.730480  1.0  -0.0703
  C  C136  1  0.506830  0.003220  0.304130  1.0  0.1452
  C  C137  1  0.576940  0.928260  0.310480  1.0  0.0397
  C  C138  1  0.711830  0.837130  0.572360  1.0  0.6917
  C  C139  1  0.678670  0.851730  0.506710  1.0  -0.0966
  C  C140  1  0.591020  0.886580  0.520240  1.0  -0.1206
  C  C141  1  0.560960  0.909950  0.455140  1.0  -0.1552
  C  C142  1  0.615340  0.901080  0.375760  1.0  0.0618
  C  C143  1  0.698060  0.867460  0.363860  1.0  -0.1383
  C  C144  1  0.730480  0.842680  0.428880  1.0  -0.067
  C  C145  1  0.304130  0.506830  0.003220  1.0  0.1475
  C  C146  1  0.310480  0.576940  0.928260  1.0  0.0412
  C  C147  1  0.572360  0.711830  0.837130  1.0  0.691
  C  C148  1  0.506710  0.678670  0.851730  1.0  -0.0934
  C  C149  1  0.520240  0.591020  0.886580  1.0  -0.1201
  C  C150  1  0.455140  0.560960  0.909950  1.0  -0.1498
  C  C151  1  0.375760  0.615340  0.901080  1.0  0.0628
  C  C152  1  0.363860  0.698060  0.867460  1.0  -0.1428
  C  C153  1  0.428880  0.730480  0.842680  1.0  -0.0715
  C  C154  1  0.195870  0.496780  0.993170  1.0  0.1466
  C  C155  1  0.189520  0.571740  0.923060  1.0  0.0417
  C  C156  1  0.927640  0.662870  0.788170  1.0  0.6934
  C  C157  1  0.993290  0.648270  0.821330  1.0  -0.0953
  C  C158  1  0.979760  0.613420  0.908980  1.0  -0.1242
  C  C159  1  0.044860  0.590050  0.939040  1.0  -0.1542
  C  C160  1  0.124240  0.598920  0.884660  1.0  0.0614
  C  C161  1  0.136140  0.632540  0.801940  1.0  -0.1395
  C  C162  1  0.071120  0.657320  0.769520  1.0  -0.0702
  C  C163  1  0.496780  0.993170  0.195870  1.0  0.1453
  C  C164  1  0.571740  0.923060  0.189520  1.0  0.0394
  C  C165  1  0.662870  0.788170  0.927640  1.0  0.6892
  C  C166  1  0.648270  0.821330  0.993290  1.0  -0.0969
  C  C167  1  0.613420  0.908980  0.979760  1.0  -0.1209
  C  C168  1  0.590050  0.939040  0.044860  1.0  -0.1517
  C  C169  1  0.598920  0.884660  0.124240  1.0  0.062
  C  C170  1  0.632540  0.801940  0.136140  1.0  -0.1412
  C  C171  1  0.657320  0.769520  0.071120  1.0  -0.0675
  C  C172  1  0.993170  0.195870  0.496780  1.0  0.146
  C  C173  1  0.923060  0.189520  0.571740  1.0  0.0413
  C  C174  1  0.788170  0.927640  0.662870  1.0  0.694
  C  C175  1  0.821330  0.993290  0.648270  1.0  -0.0949
  C  C176  1  0.908980  0.979760  0.613420  1.0  -0.1193
  C  C177  1  0.939040  0.044860  0.590050  1.0  -0.1505
  C  C178  1  0.884660  0.124240  0.598920  1.0  0.0618
  C  C179  1  0.801940  0.136140  0.632540  1.0  -0.1425
  C  C180  1  0.769520  0.071120  0.657320  1.0  -0.0697
  C  C181  1  0.109650  0.750000  0.390350  1.0  -0.1133
  C  C182  1  0.390350  0.109650  0.750000  1.0  -0.1126
  C  C183  1  0.750000  0.390350  0.109650  1.0  -0.1126
  C  C184  1  0.890350  0.250000  0.609650  1.0  -0.1121
  C  C185  1  0.609650  0.890350  0.250000  1.0  -0.113
  C  C186  1  0.250000  0.609650  0.890350  1.0  -0.1139
  N  N187  1  0.966570  0.750000  0.533430  1.0  -0.2916
  N  N188  1  0.533430  0.966570  0.750000  1.0  -0.2917
  N  N189  1  0.750000  0.533430  0.966570  1.0  -0.2975
  N  N190  1  0.033430  0.250000  0.466570  1.0  -0.2917
  N  N191  1  0.466570  0.033430  0.250000  1.0  -0.2922
  N  N192  1  0.250000  0.466570  0.033430  1.0  -0.2959
  O  O193  1  0.210760  0.432830  0.213280  1.0  -0.5995
  O  O194  1  0.129130  0.371770  0.337970  1.0  -0.644
  O  O195  1  0.213280  0.210760  0.432830  1.0  -0.5998
  O  O196  1  0.337970  0.129130  0.371770  1.0  -0.6432
  O  O197  1  0.432830  0.213280  0.210760  1.0  -0.603
  O  O198  1  0.371770  0.337970  0.129130  1.0  -0.6447
  O  O199  1  0.067170  0.289240  0.286720  1.0  -0.6005
  O  O200  1  0.128230  0.370870  0.162030  1.0  -0.6443
  O  O201  1  0.289240  0.286720  0.067170  1.0  -0.6012
  O  O202  1  0.370870  0.162030  0.128230  1.0  -0.6436
  O  O203  1  0.286720  0.067170  0.289240  1.0  -0.6015
  O  O204  1  0.162030  0.128230  0.370870  1.0  -0.643
  O  O205  1  0.789240  0.567170  0.786720  1.0  -0.5989
  O  O206  1  0.870870  0.628230  0.662030  1.0  -0.6441
  O  O207  1  0.786720  0.789240  0.567170  1.0  -0.6005
  O  O208  1  0.662030  0.870870  0.628230  1.0  -0.6436
  O  O209  1  0.567170  0.786720  0.789240  1.0  -0.603
  O  O210  1  0.628230  0.662030  0.870870  1.0  -0.6441
  O  O211  1  0.932830  0.710760  0.713280  1.0  -0.6006
  O  O212  1  0.871770  0.629130  0.837970  1.0  -0.6442
  O  O213  1  0.710760  0.713280  0.932830  1.0  -0.6001
  O  O214  1  0.629130  0.837970  0.871770  1.0  -0.6442
  O  O215  1  0.713280  0.932830  0.710760  1.0  -0.6017
  O  O216  1  0.837970  0.871770  0.629130  1.0  -0.6436
  O  O217  1  0.250000  0.250000  0.250000  1.0  -0.756
  O  O218  1  0.750000  0.750000  0.750000  1.0  -0.756
