# generated using pymatgen
data_Zn2H10C22S(NO5)2
_symmetry_space_group_name_H-M   'P 1'
_cell_length_a   10.24600000
_cell_length_b   16.14700000
_cell_length_c   19.16100000
_cell_angle_alpha   90.00000000
_cell_angle_beta   99.98000000
_cell_angle_gamma   90.00000000
_symmetry_Int_Tables_number   1
_chemical_formula_structural   Zn2H10C22S(NO5)2
_chemical_formula_sum   'Zn4 H20 C44 S2 N4 O20'
_cell_volume   3122.06923747
_cell_formula_units_Z   2
loop_
 _symmetry_equiv_pos_site_id
 _symmetry_equiv_pos_as_xyz
  1  'x, y, z'
loop_
 _atom_site_type_symbol
 _atom_site_label
 _atom_site_symmetry_multiplicity
 _atom_site_fract_x
 _atom_site_fract_y
 _atom_site_fract_z
 _atom_site_occupancy
 _atom_site_charge
  Zn  Zn1  1  0.721290  0.132470  0.010710  1.0  1.1109
  Zn  Zn2  1  0.964870  0.226610  0.125450  1.0  1.0415
  Zn  Zn3  1  0.278710  0.632470  0.989290  1.0  1.1106
  Zn  Zn4  1  0.035130  0.726610  0.874550  1.0  1.0394
  H  H5  1  0.439600  0.219800  0.103700  1.0  0.117
  H  H6  1  0.707100  0.287600  0.274300  1.0  0.1133
  H  H7  1  0.317000  0.283300  0.285500  1.0  0.1199
  H  H8  1  0.471200  0.323900  0.501400  1.0  0.1129
  H  H9  1  0.547500  0.355100  0.627300  1.0  0.115
  H  H10  1  0.787400  0.282100  0.840800  1.0  0.1102
  H  H11  1  0.023100  0.420500  0.987200  1.0  0.1131
  H  H12  1  0.914400  0.506400  0.787700  1.0  0.1198
  H  H13  1  0.469900  0.312700  0.383600  1.0  0.2645
  H  H14  1  0.684900  0.366500  0.729600  1.0  0.2054
  H  H15  1  0.560400  0.719800  0.896300  1.0  0.1167
  H  H16  1  0.292900  0.787600  0.725700  1.0  0.1141
  H  H17  1  0.683000  0.783300  0.714500  1.0  0.1198
  H  H18  1  0.528800  0.823900  0.498600  1.0  0.1135
  H  H19  1  0.452500  0.855100  0.372700  1.0  0.1153
  H  H20  1  0.212600  0.782100  0.159200  1.0  0.1101
  H  H21  1  0.976900  0.920500  0.012800  1.0  0.1133
  H  H22  1  0.085600  0.006400  0.212300  1.0  0.1204
  H  H23  1  0.530100  0.812700  0.616400  1.0  0.2652
  H  H24  1  0.315100  0.866500  0.270400  1.0  0.203
  C  C25  1  0.217800  0.232800  0.155100  1.0  0.642
  C  C26  1  0.357200  0.249500  0.189200  1.0  -0.1438
  C  C27  1  0.458400  0.237800  0.150500  1.0  0.019
  C  C28  1  0.590000  0.253500  0.183300  1.0  -0.1436
  C  C29  1  0.699700  0.239400  0.142600  1.0  0.7278
  C  C30  1  0.619500  0.278200  0.253200  1.0  -0.0802
  C  C31  1  0.516900  0.289300  0.292400  1.0  0.2087
  C  C32  1  0.385500  0.275400  0.260000  1.0  -0.0958
  C  C33  1  0.652400  0.335400  0.402500  1.0  0.3746
  C  C34  1  0.651700  0.347600  0.480900  1.0  -0.1693
  C  C35  1  0.557600  0.339600  0.520000  1.0  -0.0694
  C  C36  1  0.601600  0.357200  0.593100  1.0  -0.0861
  C  C37  1  0.730300  0.377300  0.606600  1.0  -0.193
  C  C38  1  0.820900  0.392500  0.674400  1.0  0.6417
  C  C39  1  0.842100  0.391600  0.803300  1.0  0.1983
  C  C40  1  0.835600  0.330100  0.853900  1.0  -0.0639
  C  C41  1  0.899400  0.339600  0.922800  1.0  -0.0897
  C  C42  1  0.977200  0.413200  0.941300  1.0  -0.0075
  C  C43  1  0.982800  0.471400  0.891300  1.0  -0.1598
  C  C44  1  0.912900  0.464400  0.820700  1.0  -0.1421
  C  C45  1  0.059300  0.549400  0.910200  1.0  0.6979
  C  C46  1  0.886800  0.278100  0.977900  1.0  0.7262
  C  C47  1  0.782200  0.732800  0.844900  1.0  0.6412
  C  C48  1  0.642800  0.749500  0.810800  1.0  -0.1446
  C  C49  1  0.541600  0.737800  0.849500  1.0  0.0197
  C  C50  1  0.410000  0.753500  0.816700  1.0  -0.1443
  C  C51  1  0.300300  0.739400  0.857400  1.0  0.7283
  C  C52  1  0.380500  0.778200  0.746800  1.0  -0.083
  C  C53  1  0.483100  0.789300  0.707600  1.0  0.2089
  C  C54  1  0.614500  0.775400  0.740000  1.0  -0.0954
  C  C55  1  0.347600  0.835400  0.597500  1.0  0.3755
  C  C56  1  0.348300  0.847600  0.519100  1.0  -0.1706
  C  C57  1  0.442400  0.839600  0.480000  1.0  -0.0693
  C  C58  1  0.398400  0.857200  0.406900  1.0  -0.0862
  C  C59  1  0.269700  0.877300  0.393400  1.0  -0.1967
  C  C60  1  0.179100  0.892500  0.325600  1.0  0.6404
  C  C61  1  0.157900  0.891600  0.196700  1.0  0.1974
  C  C62  1  0.164400  0.830100  0.146100  1.0  -0.0634
  C  C63  1  0.100600  0.839600  0.077200  1.0  -0.0903
  C  C64  1  0.022800  0.913200  0.058700  1.0  -0.0086
  C  C65  1  0.017200  0.971400  0.108700  1.0  -0.1584
  C  C66  1  0.087100  0.964400  0.179300  1.0  -0.1422
  C  C67  1  0.940700  0.049400  0.089800  1.0  0.6966
  C  C68  1  0.113200  0.778100  0.022100  1.0  0.7259
  S  S69  1  0.797170  0.376260  0.532120  1.0  0.1081
  S  S70  1  0.202830  0.876260  0.467880  1.0  0.1104
  N  N71  1  0.538100  0.312800  0.363000  1.0  -0.3613
  N  N72  1  0.766800  0.380800  0.734000  1.0  -0.4028
  N  N73  1  0.461900  0.812800  0.637000  1.0  -0.3598
  N  N74  1  0.233200  0.880800  0.266000  1.0  -0.4054
  O  O75  1  0.669900  0.212700  0.079630  1.0  -0.6405
  O  O76  1  0.816800  0.256400  0.174080  1.0  -0.5781
  O  O77  1  0.126700  0.260100  0.189810  1.0  -0.5646
  O  O78  1  0.191900  0.197700  0.096980  1.0  -0.5958
  O  O79  1  0.941400  0.294500  0.040860  1.0  -0.6026
  O  O80  1  0.822000  0.214800  0.958650  1.0  -0.6147
  O  O81  1  0.128500  0.553700  0.971870  1.0  -0.6185
  O  O82  1  0.051900  0.605900  0.864170  1.0  -0.6096
  O  O83  1  0.755600  0.344000  0.382700  1.0  -0.4171
  O  O84  1  0.934000  0.414100  0.675400  1.0  -0.4276
  O  O85  1  0.330100  0.712700  0.920370  1.0  -0.6412
  O  O86  1  0.183200  0.756400  0.825920  1.0  -0.5789
  O  O87  1  0.873300  0.760100  0.810190  1.0  -0.5644
  O  O88  1  0.808100  0.697700  0.903020  1.0  -0.5965
  O  O89  1  0.058600  0.794500  0.959140  1.0  -0.6039
  O  O90  1  0.178000  0.714800  0.041350  1.0  -0.614
  O  O91  1  0.871500  0.053700  0.028130  1.0  -0.6202
  O  O92  1  0.948100  0.105900  0.135830  1.0  -0.6107
  O  O93  1  0.244400  0.844000  0.617300  1.0  -0.4184
  O  O94  1  0.066000  0.914100  0.324600  1.0  -0.4295
