# generated using pymatgen
data_In6H48C85O28
_symmetry_space_group_name_H-M   'P 1'
_cell_length_a   22.04660000
_cell_length_b   22.04660000
_cell_length_c   36.77200000
_cell_angle_alpha   90.00000000
_cell_angle_beta   90.00000000
_cell_angle_gamma   90.00000000
_symmetry_Int_Tables_number   1
_chemical_formula_structural   In6H48C85O28
_chemical_formula_sum   'In24 H192 C340 O112'
_cell_volume   17873.12516140
_cell_formula_units_Z   4
loop_
 _symmetry_equiv_pos_site_id
 _symmetry_equiv_pos_as_xyz
  1  'x, y, z'
loop_
 _atom_site_type_symbol
 _atom_site_label
 _atom_site_symmetry_multiplicity
 _atom_site_fract_x
 _atom_site_fract_y
 _atom_site_fract_z
 _atom_site_occupancy
 _atom_site_charge
  In  In1  1  0.000590  0.713200  0.849250  1.0  1.6034
  In  In2  1  0.995750  0.651390  0.760640  1.0  1.6073
  In  In3  1  0.490450  0.307800  0.977840  1.0  1.6702
  In  In4  1  0.999410  0.286800  0.349250  1.0  1.6042
  In  In5  1  0.004250  0.348610  0.260640  1.0  1.6093
  In  In6  1  0.509550  0.692200  0.477840  1.0  1.6707
  In  In7  1  0.786800  0.500590  0.599250  1.0  1.6038
  In  In8  1  0.848610  0.495750  0.510640  1.0  1.6073
  In  In9  1  0.192200  0.990450  0.727840  1.0  1.6698
  In  In10  1  0.213200  0.499410  0.099250  1.0  1.6034
  In  In11  1  0.151390  0.504250  0.010640  1.0  1.6064
  In  In12  1  0.807800  0.009550  0.227840  1.0  1.6708
  In  In13  1  0.499410  0.213200  0.900750  1.0  1.6019
  In  In14  1  0.504250  0.151390  0.989360  1.0  1.6062
  In  In15  1  0.009550  0.807800  0.772160  1.0  1.6695
  In  In16  1  0.500590  0.786800  0.400750  1.0  1.5993
  In  In17  1  0.495750  0.848610  0.489360  1.0  1.6089
  In  In18  1  0.990450  0.192200  0.272160  1.0  1.6717
  In  In19  1  0.713200  0.000590  0.150750  1.0  1.6023
  In  In20  1  0.651390  0.995750  0.239360  1.0  1.608
  In  In21  1  0.307800  0.490450  0.022160  1.0  1.6701
  In  In22  1  0.286800  0.999410  0.650750  1.0  1.6002
  In  In23  1  0.348610  0.004250  0.739360  1.0  1.607
  In  In24  1  0.692200  0.509550  0.522160  1.0  1.6702
  H  H25  1  0.858200  0.597500  0.887300  1.0  0.1183
  H  H26  1  0.779700  0.535700  0.905300  1.0  0.1181
  H  H27  1  0.765800  0.468400  0.805500  1.0  0.1181
  H  H28  1  0.844300  0.528600  0.787800  1.0  0.1013
  H  H29  1  0.704300  0.490100  0.918000  1.0  0.1076
  H  H30  1  0.630300  0.428000  0.940800  1.0  0.1093
  H  H31  1  0.640000  0.331000  0.851100  1.0  0.0904
  H  H32  1  0.712400  0.395600  0.829200  1.0  0.1026
  H  H33  1  0.124300  0.927400  0.824200  1.0  0.0834
  H  H34  1  0.200400  0.990100  0.842700  1.0  0.1143
  H  H35  1  0.224900  0.880300  0.929200  1.0  0.1008
  H  H36  1  0.153400  0.817500  0.907200  1.0  0.0989
  H  H37  1  0.310000  0.995700  0.849200  1.0  0.0806
  H  H38  1  0.384200  0.060100  0.864100  1.0  0.1284
  H  H39  1  0.339900  0.041700  0.969500  1.0  0.1043
  H  H40  1  0.262200  0.977800  0.953700  1.0  0.1181
  H  H41  1  0.859300  0.666667  0.680000  1.0  0.104
  H  H42  1  0.792700  0.674600  0.631900  1.0  0.1155
  H  H43  1  0.821000  0.852500  0.628200  1.0  0.1115
  H  H44  1  0.889100  0.845900  0.676100  1.0  0.1107
  H  H45  1  0.772400  0.691000  0.573400  1.0  0.1105
  H  H46  1  0.691600  0.692100  0.532000  1.0  0.1019
  H  H47  1  0.635100  0.852000  0.573600  1.0  0.1143
  H  H48  1  0.720300  0.851000  0.611200  1.0  0.1078
  H  H49  1  0.141800  0.402500  0.387300  1.0  0.1183
  H  H50  1  0.220300  0.464300  0.405300  1.0  0.1172
  H  H51  1  0.234200  0.531600  0.305500  1.0  0.1185
  H  H52  1  0.155700  0.471400  0.287800  1.0  0.1016
  H  H53  1  0.295700  0.509900  0.418000  1.0  0.1066
  H  H54  1  0.369700  0.572000  0.440800  1.0  0.1091
  H  H55  1  0.360000  0.669000  0.351100  1.0  0.0909
  H  H56  1  0.287600  0.604400  0.329200  1.0  0.1029
  H  H57  1  0.875700  0.072600  0.324200  1.0  0.0833
  H  H58  1  0.799600  0.009900  0.342700  1.0  0.1138
  H  H59  1  0.775100  0.119700  0.429200  1.0  0.1003
  H  H60  1  0.846600  0.182500  0.407200  1.0  0.0987
  H  H61  1  0.690000  0.004300  0.349200  1.0  0.0811
  H  H62  1  0.615800  0.939900  0.364100  1.0  0.1287
  H  H63  1  0.660100  0.958300  0.469500  1.0  0.1039
  H  H64  1  0.737800  0.022200  0.453700  1.0  0.1174
  H  H65  1  0.140700  0.333333  0.180000  1.0  0.1035
  H  H66  1  0.207300  0.325400  0.131900  1.0  0.1159
  H  H67  1  0.179000  0.147500  0.128200  1.0  0.1115
  H  H68  1  0.110900  0.154100  0.176100  1.0  0.1101
  H  H69  1  0.227600  0.309000  0.073400  1.0  0.1108
  H  H70  1  0.308400  0.307900  0.032000  1.0  0.1019
  H  H71  1  0.364900  0.148000  0.073600  1.0  0.1133
  H  H72  1  0.279700  0.149000  0.111200  1.0  0.108
  H  H73  1  0.902500  0.358200  0.637300  1.0  0.1185
  H  H74  1  0.964300  0.279700  0.655300  1.0  0.1169
  H  H75  1  0.031600  0.265800  0.555500  1.0  0.1183
  H  H76  1  0.971400  0.344300  0.537800  1.0  0.1014
  H  H77  1  0.009900  0.204300  0.668000  1.0  0.1048
  H  H78  1  0.072000  0.130300  0.690800  1.0  0.1096
  H  H79  1  0.169000  0.140000  0.601100  1.0  0.0906
  H  H80  1  0.104400  0.212400  0.579200  1.0  0.1019
  H  H81  1  0.572600  0.624300  0.574200  1.0  0.0838
  H  H82  1  0.509900  0.700400  0.592700  1.0  0.1123
  H  H83  1  0.619700  0.724900  0.679200  1.0  0.1011
  H  H84  1  0.682500  0.653400  0.657200  1.0  0.0996
  H  H85  1  0.504300  0.810000  0.599200  1.0  0.0794
  H  H86  1  0.439900  0.884200  0.614100  1.0  0.1294
  H  H87  1  0.458300  0.839900  0.719500  1.0  0.1043
  H  H88  1  0.522200  0.762200  0.703700  1.0  0.1179
  H  H89  1  0.833300  0.359300  0.430000  1.0  0.1034
  H  H90  1  0.825400  0.292700  0.381900  1.0  0.1175
  H  H91  1  0.647500  0.321000  0.378200  1.0  0.1124
  H  H92  1  0.654100  0.389100  0.426100  1.0  0.11
  H  H93  1  0.809000  0.272400  0.323400  1.0  0.1105
  H  H94  1  0.807900  0.191600  0.282000  1.0  0.1017
  H  H95  1  0.648000  0.135100  0.323600  1.0  0.1134
  H  H96  1  0.649000  0.220300  0.361200  1.0  0.1084
  H  H97  1  0.097500  0.641800  0.137300  1.0  0.1183
  H  H98  1  0.035700  0.720300  0.155300  1.0  0.1175
  H  H99  1  0.968400  0.734200  0.055500  1.0  0.1182
  H  H100  1  0.028600  0.655700  0.037800  1.0  0.1013
  H  H101  1  0.990100  0.795700  0.168000  1.0  0.1054
  H  H102  1  0.928000  0.869700  0.190800  1.0  0.1093
  H  H103  1  0.831000  0.860000  0.101100  1.0  0.0909
  H  H104  1  0.895600  0.787600  0.079200  1.0  0.1015
  H  H105  1  0.427400  0.375700  0.074200  1.0  0.0836
  H  H106  1  0.490100  0.299600  0.092700  1.0  0.1127
  H  H107  1  0.380300  0.275100  0.179200  1.0  0.1004
  H  H108  1  0.317500  0.346600  0.157200  1.0  0.0994
  H  H109  1  0.495700  0.190000  0.099200  1.0  0.0791
  H  H110  1  0.560100  0.115800  0.114100  1.0  0.1284
  H  H111  1  0.541700  0.160100  0.219500  1.0  0.1047
  H  H112  1  0.477800  0.237800  0.203700  1.0  0.1176
  H  H113  1  0.166700  0.640700  0.930000  1.0  0.1036
  H  H114  1  0.174600  0.707300  0.881900  1.0  0.1169
  H  H115  1  0.352500  0.679000  0.878200  1.0  0.1105
  H  H116  1  0.345900  0.610900  0.926100  1.0  0.1105
  H  H117  1  0.191000  0.727600  0.823400  1.0  0.1103
  H  H118  1  0.192100  0.808400  0.782000  1.0  0.1009
  H  H119  1  0.352000  0.864900  0.823600  1.0  0.1138
  H  H120  1  0.351000  0.779700  0.861200  1.0  0.1068
  H  H121  1  0.641800  0.097500  0.862700  1.0  0.1181
  H  H122  1  0.720300  0.035700  0.844700  1.0  0.118
  H  H123  1  0.734200  0.968400  0.944500  1.0  0.1195
  H  H124  1  0.655700  0.028600  0.962200  1.0  0.1017
  H  H125  1  0.795700  0.990100  0.832000  1.0  0.1067
  H  H126  1  0.869700  0.928000  0.809200  1.0  0.1094
  H  H127  1  0.860000  0.831000  0.898900  1.0  0.091
  H  H128  1  0.787600  0.895600  0.920800  1.0  0.1028
  H  H129  1  0.375700  0.427400  0.925800  1.0  0.0831
  H  H130  1  0.299600  0.490100  0.907300  1.0  0.1141
  H  H131  1  0.275100  0.380300  0.820800  1.0  0.1001
  H  H132  1  0.346600  0.317500  0.842800  1.0  0.0994
  H  H133  1  0.190000  0.495700  0.900800  1.0  0.08
  H  H134  1  0.115800  0.560100  0.885900  1.0  0.1288
  H  H135  1  0.160100  0.541700  0.780500  1.0  0.1046
  H  H136  1  0.237800  0.477800  0.796300  1.0  0.1169
  H  H137  1  0.640700  0.166700  0.070000  1.0  0.1035
  H  H138  1  0.707300  0.174600  0.118100  1.0  0.1157
  H  H139  1  0.679000  0.352500  0.121800  1.0  0.1088
  H  H140  1  0.610900  0.345900  0.073900  1.0  0.1107
  H  H141  1  0.727600  0.191000  0.176600  1.0  0.1101
  H  H142  1  0.808400  0.192100  0.218000  1.0  0.1021
  H  H143  1  0.864900  0.352000  0.176400  1.0  0.1142
  H  H144  1  0.779700  0.351000  0.138800  1.0  0.1089
  H  H145  1  0.358200  0.902500  0.362700  1.0  0.118
  H  H146  1  0.279700  0.964300  0.344700  1.0  0.118
  H  H147  1  0.265800  0.031600  0.444500  1.0  0.1189
  H  H148  1  0.344300  0.971400  0.462200  1.0  0.1014
  H  H149  1  0.204300  0.009900  0.332000  1.0  0.1059
  H  H150  1  0.130300  0.072000  0.309200  1.0  0.1093
  H  H151  1  0.140000  0.169000  0.398900  1.0  0.0907
  H  H152  1  0.212400  0.104400  0.420800  1.0  0.1032
  H  H153  1  0.624300  0.572600  0.425800  1.0  0.0831
  H  H154  1  0.700400  0.509900  0.407300  1.0  0.1144
  H  H155  1  0.724900  0.619700  0.320800  1.0  0.1006
  H  H156  1  0.653400  0.682500  0.342800  1.0  0.0991
  H  H157  1  0.810000  0.504300  0.400800  1.0  0.0789
  H  H158  1  0.884200  0.439900  0.385900  1.0  0.1283
  H  H159  1  0.839900  0.458300  0.280500  1.0  0.1039
  H  H160  1  0.762200  0.522200  0.296300  1.0  0.1171
  H  H161  1  0.359300  0.833300  0.570000  1.0  0.1033
  H  H162  1  0.292700  0.825400  0.618100  1.0  0.1156
  H  H163  1  0.321000  0.647500  0.621800  1.0  0.1092
  H  H164  1  0.389100  0.654100  0.573900  1.0  0.1103
  H  H165  1  0.272400  0.809000  0.676600  1.0  0.1104
  H  H166  1  0.191600  0.807900  0.718000  1.0  0.1019
  H  H167  1  0.135100  0.648000  0.676400  1.0  0.1128
  H  H168  1  0.220300  0.649000  0.638800  1.0  0.1071
  H  H169  1  0.597500  0.858200  0.112700  1.0  0.1184
  H  H170  1  0.535700  0.779700  0.094700  1.0  0.1172
  H  H171  1  0.468400  0.765800  0.194500  1.0  0.1192
  H  H172  1  0.528600  0.844300  0.212200  1.0  0.1013
  H  H173  1  0.490100  0.704300  0.082000  1.0  0.105
  H  H174  1  0.428000  0.630300  0.059200  1.0  0.1096
  H  H175  1  0.331000  0.640000  0.148900  1.0  0.0907
  H  H176  1  0.395600  0.712400  0.170800  1.0  0.1018
  H  H177  1  0.927400  0.124300  0.175800  1.0  0.0829
  H  H178  1  0.990100  0.200400  0.157300  1.0  0.1126
  H  H179  1  0.880300  0.224900  0.070800  1.0  0.1003
  H  H180  1  0.817500  0.153400  0.092800  1.0  0.0996
  H  H181  1  0.995700  0.310000  0.150800  1.0  0.0786
  H  H182  1  0.060100  0.384200  0.135900  1.0  0.1294
  H  H183  1  0.041700  0.339900  0.030500  1.0  0.1043
  H  H184  1  0.977800  0.262200  0.046300  1.0  0.1163
  H  H185  1  0.666667  0.859300  0.320000  1.0  0.1041
  H  H186  1  0.674600  0.792700  0.368100  1.0  0.1165
  H  H187  1  0.852500  0.821000  0.371800  1.0  0.1121
  H  H188  1  0.845900  0.889100  0.323900  1.0  0.1108
  H  H189  1  0.691000  0.772400  0.426600  1.0  0.1108
  H  H190  1  0.692100  0.691600  0.468000  1.0  0.1014
  H  H191  1  0.852000  0.635100  0.426400  1.0  0.114
  H  H192  1  0.851000  0.720300  0.388800  1.0  0.1068
  H  H193  1  0.402500  0.141800  0.612700  1.0  0.1182
  H  H194  1  0.464300  0.220300  0.594700  1.0  0.1174
  H  H195  1  0.531600  0.234200  0.694500  1.0  0.1192
  H  H196  1  0.471400  0.155700  0.712200  1.0  0.1014
  H  H197  1  0.509900  0.295700  0.582000  1.0  0.1043
  H  H198  1  0.572000  0.369700  0.559200  1.0  0.1096
  H  H199  1  0.669000  0.360000  0.648900  1.0  0.0907
  H  H200  1  0.604400  0.287600  0.670800  1.0  0.1015
  H  H201  1  0.072600  0.875700  0.675800  1.0  0.0833
  H  H202  1  0.009900  0.799600  0.657300  1.0  0.1125
  H  H203  1  0.119700  0.775100  0.570800  1.0  0.101
  H  H204  1  0.182500  0.846600  0.592800  1.0  0.0993
  H  H205  1  0.004300  0.690000  0.650800  1.0  0.0784
  H  H206  1  0.939900  0.615800  0.635900  1.0  0.1282
  H  H207  1  0.958300  0.660100  0.530500  1.0  0.1047
  H  H208  1  0.022200  0.737800  0.546300  1.0  0.1172
  H  H209  1  0.333333  0.140700  0.820000  1.0  0.1039
  H  H210  1  0.325400  0.207300  0.868100  1.0  0.1169
  H  H211  1  0.147500  0.179000  0.871800  1.0  0.1121
  H  H212  1  0.154100  0.110900  0.823900  1.0  0.1103
  H  H213  1  0.309000  0.227600  0.926600  1.0  0.1109
  H  H214  1  0.307900  0.308400  0.968000  1.0  0.1024
  H  H215  1  0.148000  0.364900  0.926400  1.0  0.114
  H  H216  1  0.149000  0.279700  0.888800  1.0  0.1079
  C  C217  1  0.858400  0.569500  0.835700  1.0  -0.1308
  C  C218  1  0.840200  0.571100  0.870800  1.0  -0.1146
  C  C219  1  0.794200  0.532500  0.881600  1.0  -0.1372
  C  C220  1  0.768700  0.490000  0.859400  1.0  0.1114
  C  C221  1  0.785800  0.492400  0.822500  1.0  -0.1585
  C  C222  1  0.831200  0.529800  0.811800  1.0  -0.0433
  C  C223  1  0.906800  0.612300  0.824100  1.0  0.7496
  C  C224  1  0.720300  0.447700  0.872300  1.0  0.2893
  C  C225  1  0.692800  0.456500  0.904300  1.0  -0.1312
  C  C226  1  0.647900  0.418900  0.918500  1.0  -0.1035
  C  C227  1  0.629400  0.368200  0.899600  1.0  -0.1147
  C  C228  1  0.653500  0.362400  0.866000  1.0  -0.06
  C  C229  1  0.697800  0.401600  0.852700  1.0  -0.129
  C  C230  1  0.581800  0.329400  0.914300  1.0  0.7263
  C  C231  1  0.132400  0.866000  0.862600  1.0  -0.1218
  C  C232  1  0.146400  0.917300  0.844900  1.0  -0.0673
  C  C233  1  0.191500  0.955200  0.855900  1.0  -0.1673
  C  C234  1  0.225300  0.940300  0.888100  1.0  0.0928
  C  C235  1  0.206600  0.889300  0.907000  1.0  -0.1135
  C  C236  1  0.163100  0.852500  0.894400  1.0  -0.0751
  C  C237  1  0.087600  0.823700  0.846700  1.0  0.6954
  C  C238  1  0.276300  0.981100  0.899000  1.0  0.0435
  C  C239  1  0.315100  0.006200  0.873500  1.0  -0.1254
  C  C240  1  0.359100  0.044300  0.882100  1.0  -0.1145
  C  C241  1  0.367700  0.060800  0.918700  1.0  -0.1355
  C  C242  1  0.332400  0.033600  0.945100  1.0  -0.0327
  C  C243  1  0.286500  0.994900  0.935800  1.0  -0.1512
  C  C244  1  0.416400  0.103200  0.929000  1.0  0.7212
  C  C245  1  0.879900  0.755300  0.683800  1.0  -0.1631
  C  C246  1  0.851300  0.704500  0.669900  1.0  -0.0322
  C  C247  1  0.811200  0.709200  0.641300  1.0  -0.1727
  C  C248  1  0.798700  0.764500  0.626900  1.0  0.0397
  C  C249  1  0.828300  0.815200  0.639100  1.0  -0.1344
  C  C250  1  0.869200  0.811400  0.667800  1.0  -0.0508
  C  C251  1  0.924200  0.748000  0.714900  1.0  0.7358
  C  C252  1  0.750600  0.768300  0.598400  1.0  0.0174
  C  C253  1  0.744500  0.722600  0.573800  1.0  -0.1218
  C  C254  1  0.695700  0.723300  0.548900  1.0  -0.0703
  C  C255  1  0.653400  0.771100  0.549600  1.0  -0.1294
  C  C256  1  0.661900  0.819400  0.573200  1.0  -0.067
  C  C257  1  0.712300  0.817600  0.596500  1.0  -0.1232
  C  C258  1  0.598400  0.769300  0.525900  1.0  0.6848
  C  C259  1  0.141600  0.430500  0.335700  1.0  -0.1314
  C  C260  1  0.159800  0.428900  0.370800  1.0  -0.1146
  C  C261  1  0.205800  0.467500  0.381600  1.0  -0.1372
  C  C262  1  0.231300  0.510000  0.359400  1.0  0.1107
  C  C263  1  0.214200  0.507600  0.322500  1.0  -0.1585
  C  C264  1  0.168800  0.470200  0.311800  1.0  -0.0435
  C  C265  1  0.093200  0.387700  0.324100  1.0  0.7503
  C  C266  1  0.279700  0.552300  0.372300  1.0  0.2887
  C  C267  1  0.307200  0.543500  0.404300  1.0  -0.1309
  C  C268  1  0.352100  0.581100  0.418500  1.0  -0.1042
  C  C269  1  0.370600  0.631800  0.399600  1.0  -0.1128
  C  C270  1  0.346500  0.637600  0.366000  1.0  -0.061
  C  C271  1  0.302200  0.598400  0.352700  1.0  -0.129
  C  C272  1  0.418200  0.670600  0.414300  1.0  0.7261
  C  C273  1  0.867600  0.134000  0.362600  1.0  -0.1218
  C  C274  1  0.853600  0.082700  0.344900  1.0  -0.0664
  C  C275  1  0.808500  0.044800  0.355900  1.0  -0.1666
  C  C276  1  0.774700  0.059700  0.388100  1.0  0.0937
  C  C277  1  0.793400  0.110700  0.407000  1.0  -0.115
  C  C278  1  0.836900  0.147500  0.394400  1.0  -0.0744
  C  C279  1  0.912400  0.176300  0.346700  1.0  0.6949
  C  C280  1  0.723700  0.018900  0.399000  1.0  0.0423
  C  C281  1  0.684900  0.993800  0.373500  1.0  -0.1273
  C  C282  1  0.640900  0.955700  0.382100  1.0  -0.1166
  C  C283  1  0.632300  0.939200  0.418700  1.0  -0.1345
  C  C284  1  0.667600  0.966400  0.445100  1.0  -0.034
  C  C285  1  0.713500  0.005100  0.435800  1.0  -0.1503
  C  C286  1  0.583600  0.896800  0.429000  1.0  0.7211
  C  C287  1  0.120100  0.244700  0.183800  1.0  -0.1629
  C  C288  1  0.148700  0.295500  0.169900  1.0  -0.0351
  C  C289  1  0.188800  0.290800  0.141300  1.0  -0.1744
  C  C290  1  0.201300  0.235500  0.126900  1.0  0.04
  C  C291  1  0.171700  0.184800  0.139100  1.0  -0.137
  C  C292  1  0.130800  0.188600  0.167800  1.0  -0.052
  C  C293  1  0.075800  0.252000  0.214900  1.0  0.7383
  C  C294  1  0.249400  0.231700  0.098400  1.0  0.0168
  C  C295  1  0.255500  0.277400  0.073800  1.0  -0.1231
  C  C296  1  0.304300  0.276700  0.048900  1.0  -0.0716
  C  C297  1  0.346600  0.228900  0.049600  1.0  -0.1309
  C  C298  1  0.338100  0.180600  0.073200  1.0  -0.0685
  C  C299  1  0.287700  0.182400  0.096500  1.0  -0.126
  C  C300  1  0.401600  0.230700  0.025900  1.0  0.6848
  C  C301  1  0.930500  0.358400  0.585700  1.0  -0.1304
  C  C302  1  0.928900  0.340200  0.620800  1.0  -0.1145
  C  C303  1  0.967500  0.294200  0.631600  1.0  -0.1368
  C  C304  1  0.010000  0.268700  0.609400  1.0  0.1108
  C  C305  1  0.007600  0.285800  0.572500  1.0  -0.1599
  C  C306  1  0.970200  0.331200  0.561800  1.0  -0.0449
  C  C307  1  0.887700  0.406800  0.574100  1.0  0.7511
  C  C308  1  0.052300  0.220300  0.622300  1.0  0.2877
  C  C309  1  0.043500  0.192800  0.654300  1.0  -0.1304
  C  C310  1  0.081100  0.147900  0.668500  1.0  -0.1045
  C  C311  1  0.131800  0.129400  0.649600  1.0  -0.1131
  C  C312  1  0.137600  0.153500  0.616000  1.0  -0.059
  C  C313  1  0.098400  0.197800  0.602700  1.0  -0.1288
  C  C314  1  0.170600  0.081800  0.664300  1.0  0.7263
  C  C315  1  0.634000  0.632400  0.612600  1.0  -0.1191
  C  C316  1  0.582700  0.646400  0.594900  1.0  -0.0702
  C  C317  1  0.544800  0.691500  0.605900  1.0  -0.1691
  C  C318  1  0.559700  0.725300  0.638100  1.0  0.0929
  C  C319  1  0.610700  0.706600  0.657000  1.0  -0.112
  C  C320  1  0.647500  0.663100  0.644400  1.0  -0.0769
  C  C321  1  0.676300  0.587600  0.596700  1.0  0.6962
  C  C322  1  0.518900  0.776300  0.649000  1.0  0.0418
  C  C323  1  0.493800  0.815100  0.623500  1.0  -0.1287
  C  C324  1  0.455700  0.859100  0.632100  1.0  -0.1194
  C  C325  1  0.439200  0.867700  0.668700  1.0  -0.1362
  C  C326  1  0.466400  0.832400  0.695100  1.0  -0.0328
  C  C327  1  0.505100  0.786500  0.685800  1.0  -0.1502
  C  C328  1  0.396800  0.916400  0.679000  1.0  0.7216
  C  C329  1  0.744700  0.379900  0.433800  1.0  -0.1653
  C  C330  1  0.795500  0.351300  0.419900  1.0  -0.0268
  C  C331  1  0.790800  0.311200  0.391300  1.0  -0.172
  C  C332  1  0.735500  0.298700  0.376900  1.0  0.0385
  C  C333  1  0.684800  0.328300  0.389100  1.0  -0.133
  C  C334  1  0.688600  0.369200  0.417800  1.0  -0.0506
  C  C335  1  0.752000  0.424200  0.464900  1.0  0.7331
  C  C336  1  0.731700  0.250600  0.348400  1.0  0.0164
  C  C337  1  0.777400  0.244500  0.323800  1.0  -0.1233
  C  C338  1  0.776700  0.195700  0.298900  1.0  -0.0703
  C  C339  1  0.728900  0.153400  0.299600  1.0  -0.1315
  C  C340  1  0.680600  0.161900  0.323200  1.0  -0.0668
  C  C341  1  0.682400  0.212300  0.346500  1.0  -0.1197
  C  C342  1  0.730700  0.098400  0.275900  1.0  0.6869
  C  C343  1  0.069500  0.641600  0.085700  1.0  -0.1303
  C  C344  1  0.071100  0.659800  0.120800  1.0  -0.1123
  C  C345  1  0.032500  0.705800  0.131600  1.0  -0.1366
  C  C346  1  0.990000  0.731300  0.109400  1.0  0.1105
  C  C347  1  0.992400  0.714200  0.072500  1.0  -0.1587
  C  C348  1  0.029800  0.668800  0.061800  1.0  -0.0432
  C  C349  1  0.112300  0.593200  0.074100  1.0  0.7501
  C  C350  1  0.947700  0.779700  0.122300  1.0  0.2883
  C  C351  1  0.956500  0.807200  0.154300  1.0  -0.1293
  C  C352  1  0.918900  0.852100  0.168500  1.0  -0.1051
  C  C353  1  0.868200  0.870600  0.149600  1.0  -0.1126
  C  C354  1  0.862400  0.846500  0.116000  1.0  -0.0591
  C  C355  1  0.901600  0.802200  0.102700  1.0  -0.129
  C  C356  1  0.829400  0.918200  0.164300  1.0  0.7274
  C  C357  1  0.366000  0.367600  0.112600  1.0  -0.1167
  C  C358  1  0.417300  0.353600  0.094900  1.0  -0.0663
  C  C359  1  0.455200  0.308500  0.105900  1.0  -0.1678
  C  C360  1  0.440300  0.274700  0.138100  1.0  0.0937
  C  C361  1  0.389300  0.293400  0.157000  1.0  -0.1131
  C  C362  1  0.352500  0.336900  0.144400  1.0  -0.0778
  C  C363  1  0.323700  0.412400  0.096700  1.0  0.6973
  C  C364  1  0.481100  0.223700  0.149000  1.0  0.0401
  C  C365  1  0.506200  0.184900  0.123500  1.0  -0.1312
  C  C366  1  0.544300  0.140900  0.132100  1.0  -0.1184
  C  C367  1  0.560800  0.132300  0.168700  1.0  -0.1343
  C  C368  1  0.533600  0.167600  0.195100  1.0  -0.0326
  C  C369  1  0.494900  0.213500  0.185800  1.0  -0.152
  C  C370  1  0.603200  0.083600  0.179000  1.0  0.722
  C  C371  1  0.255300  0.620100  0.933800  1.0  -0.1635
  C  C372  1  0.204500  0.648700  0.919900  1.0  -0.0276
  C  C373  1  0.209200  0.688800  0.891300  1.0  -0.1714
  C  C374  1  0.264500  0.701300  0.876900  1.0  0.0374
  C  C375  1  0.315200  0.671700  0.889100  1.0  -0.1333
  C  C376  1  0.311400  0.630800  0.917800  1.0  -0.0492
  C  C377  1  0.248000  0.575800  0.964900  1.0  0.7339
  C  C378  1  0.268300  0.749400  0.848400  1.0  0.0172
  C  C379  1  0.222600  0.755500  0.823800  1.0  -0.124
  C  C380  1  0.223300  0.804300  0.798900  1.0  -0.0681
  C  C381  1  0.271100  0.846600  0.799600  1.0  -0.1311
  C  C382  1  0.319400  0.838100  0.823200  1.0  -0.0653
  C  C383  1  0.317600  0.787700  0.846500  1.0  -0.118
  C  C384  1  0.269300  0.901600  0.775900  1.0  0.6875
  C  C385  1  0.641600  0.069500  0.914300  1.0  -0.1307
  C  C386  1  0.659800  0.071100  0.879200  1.0  -0.1151
  C  C387  1  0.705800  0.032500  0.868400  1.0  -0.1404
  C  C388  1  0.731300  0.990000  0.890600  1.0  0.111
  C  C389  1  0.714200  0.992400  0.927500  1.0  -0.1581
  C  C390  1  0.668800  0.029800  0.938200  1.0  -0.044
  C  C391  1  0.593200  0.112300  0.925900  1.0  0.7505
  C  C392  1  0.779700  0.947700  0.877700  1.0  0.2887
  C  C393  1  0.807200  0.956500  0.845700  1.0  -0.1316
  C  C394  1  0.852100  0.918900  0.831500  1.0  -0.1034
  C  C395  1  0.870600  0.868200  0.850400  1.0  -0.1134
  C  C396  1  0.846500  0.862400  0.884000  1.0  -0.0605
  C  C397  1  0.802200  0.901600  0.897300  1.0  -0.1287
  C  C398  1  0.918200  0.829400  0.835700  1.0  0.7255
  C  C399  1  0.367600  0.366000  0.887400  1.0  -0.1251
  C  C400  1  0.353600  0.417300  0.905100  1.0  -0.0652
  C  C401  1  0.308500  0.455200  0.894100  1.0  -0.166
  C  C402  1  0.274700  0.440300  0.861900  1.0  0.0921
  C  C403  1  0.293400  0.389300  0.843000  1.0  -0.1158
  C  C404  1  0.336900  0.352500  0.855600  1.0  -0.075
  C  C405  1  0.412400  0.323700  0.903300  1.0  0.695
  C  C406  1  0.223700  0.481100  0.851000  1.0  0.0443
  C  C407  1  0.184900  0.506200  0.876500  1.0  -0.1265
  C  C408  1  0.140900  0.544300  0.867900  1.0  -0.117
  C  C409  1  0.132300  0.560800  0.831300  1.0  -0.1337
  C  C410  1  0.167600  0.533600  0.804900  1.0  -0.0318
  C  C411  1  0.213500  0.494900  0.814200  1.0  -0.1484
  C  C412  1  0.083600  0.603200  0.821000  1.0  0.7209
  C  C413  1  0.620100  0.255300  0.066200  1.0  -0.1617
  C  C414  1  0.648700  0.204500  0.080100  1.0  -0.029
  C  C415  1  0.688800  0.209200  0.108700  1.0  -0.1711
  C  C416  1  0.701300  0.264500  0.123100  1.0  0.0401
  C  C417  1  0.671700  0.315200  0.110900  1.0  -0.1331
  C  C418  1  0.630800  0.311400  0.082200  1.0  -0.0521
  C  C419  1  0.575800  0.248000  0.035100  1.0  0.7365
  C  C420  1  0.749400  0.268300  0.151600  1.0  0.0168
  C  C421  1  0.755500  0.222600  0.176200  1.0  -0.1224
  C  C422  1  0.804300  0.223300  0.201100  1.0  -0.0714
  C  C423  1  0.846600  0.271100  0.200400  1.0  -0.1324
  C  C424  1  0.838100  0.319400  0.176800  1.0  -0.0675
  C  C425  1  0.787700  0.317600  0.153500  1.0  -0.1243
  C  C426  1  0.901600  0.269300  0.224100  1.0  0.6857
  C  C427  1  0.358400  0.930500  0.414300  1.0  -0.1305
  C  C428  1  0.340200  0.928900  0.379200  1.0  -0.115
  C  C429  1  0.294200  0.967500  0.368400  1.0  -0.1402
  C  C430  1  0.268700  0.010000  0.390600  1.0  0.1113
  C  C431  1  0.285800  0.007600  0.427500  1.0  -0.1583
  C  C432  1  0.331200  0.970200  0.438200  1.0  -0.0442
  C  C433  1  0.406800  0.887700  0.425900  1.0  0.7495
  C  C434  1  0.220300  0.052300  0.377700  1.0  0.2894
  C  C435  1  0.192800  0.043500  0.345700  1.0  -0.131
  C  C436  1  0.147900  0.081100  0.331500  1.0  -0.1024
  C  C437  1  0.129400  0.131800  0.350400  1.0  -0.1144
  C  C438  1  0.153500  0.137600  0.384000  1.0  -0.0613
  C  C439  1  0.197800  0.098400  0.397300  1.0  -0.1281
  C  C440  1  0.081800  0.170600  0.335700  1.0  0.7265
  C  C441  1  0.632400  0.634000  0.387400  1.0  -0.1234
  C  C442  1  0.646400  0.582700  0.405100  1.0  -0.0657
  C  C443  1  0.691500  0.544800  0.394100  1.0  -0.1669
  C  C444  1  0.725300  0.559700  0.361900  1.0  0.0916
  C  C445  1  0.706600  0.610700  0.343000  1.0  -0.1157
  C  C446  1  0.663100  0.647500  0.355600  1.0  -0.0756
  C  C447  1  0.587600  0.676300  0.403300  1.0  0.6957
  C  C448  1  0.776300  0.518900  0.351000  1.0  0.0441
  C  C449  1  0.815100  0.493800  0.376500  1.0  -0.1254
  C  C450  1  0.859100  0.455700  0.367900  1.0  -0.1164
  C  C451  1  0.867700  0.439200  0.331300  1.0  -0.1352
  C  C452  1  0.832400  0.466400  0.304900  1.0  -0.0325
  C  C453  1  0.786500  0.505100  0.314200  1.0  -0.1474
  C  C454  1  0.916400  0.396800  0.321000  1.0  0.7211
  C  C455  1  0.379900  0.744700  0.566200  1.0  -0.1625
  C  C456  1  0.351300  0.795500  0.580100  1.0  -0.0288
  C  C457  1  0.311200  0.790800  0.608700  1.0  -0.1705
  C  C458  1  0.298700  0.735500  0.623100  1.0  0.0393
  C  C459  1  0.328300  0.684800  0.610900  1.0  -0.1372
  C  C460  1  0.369200  0.688600  0.582200  1.0  -0.0514
  C  C461  1  0.424200  0.752000  0.535100  1.0  0.7365
  C  C462  1  0.250600  0.731700  0.651600  1.0  0.0171
  C  C463  1  0.244500  0.777400  0.676200  1.0  -0.1224
  C  C464  1  0.195700  0.776700  0.701100  1.0  -0.0701
  C  C465  1  0.153400  0.728900  0.700400  1.0  -0.1308
  C  C466  1  0.161900  0.680600  0.676800  1.0  -0.0682
  C  C467  1  0.212300  0.682400  0.653500  1.0  -0.1252
  C  C468  1  0.098400  0.730700  0.724100  1.0  0.6844
  C  C469  1  0.569500  0.858400  0.164300  1.0  -0.1304
  C  C470  1  0.571100  0.840200  0.129200  1.0  -0.1135
  C  C471  1  0.532500  0.794200  0.118400  1.0  -0.1404
  C  C472  1  0.490000  0.768700  0.140600  1.0  0.1107
  C  C473  1  0.492400  0.785800  0.177500  1.0  -0.1595
  C  C474  1  0.529800  0.831200  0.188200  1.0  -0.046
  C  C475  1  0.612300  0.906800  0.175900  1.0  0.7509
  C  C476  1  0.447700  0.720300  0.127700  1.0  0.2876
  C  C477  1  0.456500  0.692800  0.095700  1.0  -0.1304
  C  C478  1  0.418900  0.647900  0.081500  1.0  -0.1043
  C  C479  1  0.368200  0.629400  0.100400  1.0  -0.1134
  C  C480  1  0.362400  0.653500  0.134000  1.0  -0.0599
  C  C481  1  0.401600  0.697800  0.147300  1.0  -0.1295
  C  C482  1  0.329400  0.581800  0.085700  1.0  0.727
  C  C483  1  0.866000  0.132400  0.137400  1.0  -0.1212
  C  C484  1  0.917300  0.146400  0.155100  1.0  -0.0677
  C  C485  1  0.955200  0.191500  0.144100  1.0  -0.1669
  C  C486  1  0.940300  0.225300  0.111900  1.0  0.092
  C  C487  1  0.889300  0.206600  0.093000  1.0  -0.115
  C  C488  1  0.852500  0.163100  0.105600  1.0  -0.0765
  C  C489  1  0.823700  0.087600  0.153300  1.0  0.6975
  C  C490  1  0.981100  0.276300  0.101000  1.0  0.0419
  C  C491  1  0.006200  0.315100  0.126500  1.0  -0.1309
  C  C492  1  0.044300  0.359100  0.117900  1.0  -0.1202
  C  C493  1  0.060800  0.367700  0.081300  1.0  -0.1348
  C  C494  1  0.033600  0.332400  0.054900  1.0  -0.0316
  C  C495  1  0.994900  0.286500  0.064200  1.0  -0.1467
  C  C496  1  0.103200  0.416400  0.071000  1.0  0.7222
  C  C497  1  0.755300  0.879900  0.316200  1.0  -0.1627
  C  C498  1  0.704500  0.851300  0.330100  1.0  -0.0311
  C  C499  1  0.709200  0.811200  0.358700  1.0  -0.1729
  C  C500  1  0.764500  0.798700  0.373100  1.0  0.0374
  C  C501  1  0.815200  0.828300  0.360900  1.0  -0.1317
  C  C502  1  0.811400  0.869200  0.332200  1.0  -0.0494
  C  C503  1  0.748000  0.924200  0.285100  1.0  0.7339
  C  C504  1  0.768300  0.750600  0.401600  1.0  0.0178
  C  C505  1  0.722600  0.744500  0.426200  1.0  -0.1223
  C  C506  1  0.723300  0.695700  0.451100  1.0  -0.0685
  C  C507  1  0.771100  0.653400  0.450400  1.0  -0.1319
  C  C508  1  0.819400  0.661900  0.426800  1.0  -0.0658
  C  C509  1  0.817600  0.712300  0.403500  1.0  -0.1187
  C  C510  1  0.769300  0.598400  0.474100  1.0  0.6876
  C  C511  1  0.430500  0.141600  0.664300  1.0  -0.1308
  C  C512  1  0.428900  0.159800  0.629200  1.0  -0.113
  C  C513  1  0.467500  0.205800  0.618400  1.0  -0.1391
  C  C514  1  0.510000  0.231300  0.640600  1.0  0.1107
  C  C515  1  0.507600  0.214200  0.677500  1.0  -0.1585
  C  C516  1  0.470200  0.168800  0.688200  1.0  -0.0449
  C  C517  1  0.387700  0.093200  0.675900  1.0  0.7508
  C  C518  1  0.552300  0.279700  0.627700  1.0  0.2881
  C  C519  1  0.543500  0.307200  0.595700  1.0  -0.1302
  C  C520  1  0.581100  0.352100  0.581500  1.0  -0.1034
  C  C521  1  0.631800  0.370600  0.600400  1.0  -0.1134
  C  C522  1  0.637600  0.346500  0.634000  1.0  -0.0593
  C  C523  1  0.598400  0.302200  0.647300  1.0  -0.1279
  C  C524  1  0.670600  0.418200  0.585700  1.0  0.7267
  C  C525  1  0.134000  0.867600  0.637400  1.0  -0.1198
  C  C526  1  0.082700  0.853600  0.655100  1.0  -0.0672
  C  C527  1  0.044800  0.808500  0.644100  1.0  -0.169
  C  C528  1  0.059700  0.774700  0.611900  1.0  0.092
  C  C529  1  0.110700  0.793400  0.593000  1.0  -0.1149
  C  C530  1  0.147500  0.836900  0.605600  1.0  -0.0776
  C  C531  1  0.176300  0.912400  0.653300  1.0  0.6973
  C  C532  1  0.018900  0.723700  0.601000  1.0  0.0426
  C  C533  1  0.993800  0.684900  0.626500  1.0  -0.1285
  C  C534  1  0.955700  0.640900  0.617900  1.0  -0.1201
  C  C535  1  0.939200  0.632300  0.581300  1.0  -0.1353
  C  C536  1  0.966400  0.667600  0.554900  1.0  -0.0315
  C  C537  1  0.005100  0.713500  0.564200  1.0  -0.1484
  C  C538  1  0.896800  0.583600  0.571000  1.0  0.7216
  C  C539  1  0.244700  0.120100  0.816200  1.0  -0.1638
  C  C540  1  0.295500  0.148700  0.830100  1.0  -0.031
  C  C541  1  0.290800  0.188800  0.858700  1.0  -0.1745
  C  C542  1  0.235500  0.201300  0.873100  1.0  0.0386
  C  C543  1  0.184800  0.171700  0.860900  1.0  -0.1339
  C  C544  1  0.188600  0.130800  0.832200  1.0  -0.0507
  C  C545  1  0.252000  0.075800  0.785100  1.0  0.7346
  C  C546  1  0.231700  0.249400  0.901600  1.0  0.0162
  C  C547  1  0.277400  0.255500  0.926200  1.0  -0.125
  C  C548  1  0.276700  0.304300  0.951100  1.0  -0.0702
  C  C549  1  0.228900  0.346600  0.950400  1.0  -0.1312
  C  C550  1  0.180600  0.338100  0.926800  1.0  -0.0667
  C  C551  1  0.182400  0.287700  0.903500  1.0  -0.1195
  C  C552  1  0.230700  0.401600  0.974100  1.0  0.6872
  C  C553  1  0.414700  0.414700  0.000000  1.0  0.1263
  C  C554  1  0.585300  0.585300  0.500000  1.0  0.1276
  C  C555  1  0.085300  0.914700  0.750000  1.0  0.1254
  C  C556  1  0.914700  0.085300  0.250000  1.0  0.1289
  O  O557  1  0.924900  0.606800  0.791800  1.0  -0.6662
  O  O558  1  0.925500  0.648800  0.846800  1.0  -0.6539
  O  O559  1  0.562700  0.287900  0.893600  1.0  -0.6818
  O  O560  1  0.565000  0.340600  0.946500  1.0  -0.6084
  O  O561  1  0.073400  0.775800  0.862700  1.0  -0.6251
  O  O562  1  0.066200  0.839000  0.816160  1.0  -0.6422
  O  O563  1  0.435500  0.101000  0.960900  1.0  -0.6457
  O  O564  1  0.436200  0.136900  0.904800  1.0  -0.6363
  O  O565  1  0.950500  0.795100  0.725750  1.0  -0.6252
  O  O566  1  0.929500  0.696200  0.727400  1.0  -0.6337
  O  O567  1  0.588900  0.720700  0.508280  1.0  -0.6103
  O  O568  1  0.564700  0.814500  0.526100  1.0  -0.6086
  O  O569  1  0.473800  0.398100  0.997800  1.0  -0.5775
  O  O570  1  0.001800  0.724000  0.794500  1.0  -0.914
  O  O571  1  0.075100  0.393200  0.291800  1.0  -0.6652
  O  O572  1  0.074500  0.351200  0.346800  1.0  -0.6524
  O  O573  1  0.437300  0.712100  0.393600  1.0  -0.682
  O  O574  1  0.435000  0.659400  0.446500  1.0  -0.6083
  O  O575  1  0.926600  0.224200  0.362700  1.0  -0.6248
  O  O576  1  0.933800  0.161000  0.316160  1.0  -0.6417
  O  O577  1  0.564500  0.899000  0.460900  1.0  -0.645
  O  O578  1  0.563800  0.863100  0.404800  1.0  -0.6373
  O  O579  1  0.049500  0.204900  0.225750  1.0  -0.6233
  O  O580  1  0.070500  0.303800  0.227400  1.0  -0.6317
  O  O581  1  0.411100  0.279300  0.008280  1.0  -0.6093
  O  O582  1  0.435300  0.185500  0.026100  1.0  -0.61
  O  O583  1  0.526200  0.601900  0.497800  1.0  -0.5773
  O  O584  1  0.998200  0.276000  0.294500  1.0  -0.9173
  O  O585  1  0.893200  0.424900  0.541800  1.0  -0.665
  O  O586  1  0.851200  0.425500  0.596800  1.0  -0.6504
  O  O587  1  0.212100  0.062700  0.643600  1.0  -0.6781
  O  O588  1  0.159400  0.065000  0.696500  1.0  -0.6065
  O  O589  1  0.724200  0.573400  0.612700  1.0  -0.6244
  O  O590  1  0.661000  0.566200  0.566160  1.0  -0.6428
  O  O591  1  0.399000  0.935500  0.710900  1.0  -0.6473
  O  O592  1  0.363100  0.936200  0.654800  1.0  -0.6348
  O  O593  1  0.704900  0.450500  0.475750  1.0  -0.6225
  O  O594  1  0.803800  0.429500  0.477400  1.0  -0.6316
  O  O595  1  0.779300  0.088900  0.258280  1.0  -0.6093
  O  O596  1  0.685500  0.064700  0.276100  1.0  -0.6116
  O  O597  1  0.101900  0.973800  0.747800  1.0  -0.5753
  O  O598  1  0.776000  0.501800  0.544500  1.0  -0.9174
  O  O599  1  0.106800  0.575100  0.041800  1.0  -0.6658
  O  O600  1  0.148800  0.574500  0.096800  1.0  -0.6508
  O  O601  1  0.787900  0.937300  0.143600  1.0  -0.6785
  O  O602  1  0.840600  0.935000  0.196500  1.0  -0.6065
  O  O603  1  0.275800  0.426600  0.112700  1.0  -0.6228
  O  O604  1  0.339000  0.433800  0.066160  1.0  -0.6438
  O  O605  1  0.601000  0.064500  0.210900  1.0  -0.6475
  O  O606  1  0.636900  0.063800  0.154800  1.0  -0.636
  O  O607  1  0.295100  0.549500  0.975750  1.0  -0.6221
  O  O608  1  0.196200  0.570500  0.977400  1.0  -0.6313
  O  O609  1  0.220700  0.911100  0.758280  1.0  -0.6085
  O  O610  1  0.314500  0.935300  0.776100  1.0  -0.6089
  O  O611  1  0.898100  0.026200  0.247800  1.0  -0.5747
  O  O612  1  0.224000  0.498200  0.044500  1.0  -0.9162
  O  O613  1  0.575100  0.106800  0.958200  1.0  -0.6645
  O  O614  1  0.574500  0.148800  0.903200  1.0  -0.6537
  O  O615  1  0.937300  0.787900  0.856400  1.0  -0.6814
  O  O616  1  0.935000  0.840600  0.803500  1.0  -0.6107
  O  O617  1  0.426600  0.275800  0.887300  1.0  -0.6234
  O  O618  1  0.433800  0.339000  0.933840  1.0  -0.642
  O  O619  1  0.064500  0.601000  0.789100  1.0  -0.644
  O  O620  1  0.063800  0.636900  0.845200  1.0  -0.6362
  O  O621  1  0.549500  0.295100  0.024250  1.0  -0.6232
  O  O622  1  0.570500  0.196200  0.022600  1.0  -0.6326
  O  O623  1  0.911100  0.220700  0.241720  1.0  -0.6092
  O  O624  1  0.935300  0.314500  0.223900  1.0  -0.6085
  O  O625  1  0.026200  0.898100  0.752200  1.0  -0.5778
  O  O626  1  0.498200  0.224000  0.955500  1.0  -0.9163
  O  O627  1  0.424900  0.893200  0.458200  1.0  -0.6658
  O  O628  1  0.425500  0.851200  0.403200  1.0  -0.6535
  O  O629  1  0.062700  0.212100  0.356400  1.0  -0.6803
  O  O630  1  0.065000  0.159400  0.303500  1.0  -0.6102
  O  O631  1  0.573400  0.724200  0.387300  1.0  -0.6245
  O  O632  1  0.566200  0.661000  0.433840  1.0  -0.6418
  O  O633  1  0.935500  0.399000  0.289100  1.0  -0.6454
  O  O634  1  0.936200  0.363100  0.345200  1.0  -0.6362
  O  O635  1  0.450500  0.704900  0.524250  1.0  -0.6246
  O  O636  1  0.429500  0.803800  0.522600  1.0  -0.6321
  O  O637  1  0.088900  0.779300  0.741720  1.0  -0.61
  O  O638  1  0.064700  0.685500  0.723900  1.0  -0.6106
  O  O639  1  0.973800  0.101900  0.252200  1.0  -0.5787
  O  O640  1  0.501800  0.776000  0.455500  1.0  -0.9139
  O  O641  1  0.606800  0.924900  0.208200  1.0  -0.6658
  O  O642  1  0.648800  0.925500  0.153200  1.0  -0.6509
  O  O643  1  0.287900  0.562700  0.106400  1.0  -0.6773
  O  O644  1  0.340600  0.565000  0.053500  1.0  -0.6087
  O  O645  1  0.775800  0.073400  0.137300  1.0  -0.6211
  O  O646  1  0.839000  0.066200  0.183840  1.0  -0.6434
  O  O647  1  0.101000  0.435500  0.039100  1.0  -0.6466
  O  O648  1  0.136900  0.436200  0.095200  1.0  -0.6353
  O  O649  1  0.795100  0.950500  0.274250  1.0  -0.6225
  O  O650  1  0.696200  0.929500  0.272600  1.0  -0.6322
  O  O651  1  0.720700  0.588900  0.491720  1.0  -0.6082
  O  O652  1  0.814500  0.564700  0.473900  1.0  -0.6093
  O  O653  1  0.398100  0.473800  0.002200  1.0  -0.5738
  O  O654  1  0.724000  0.001800  0.205500  1.0  -0.9159
  O  O655  1  0.393200  0.075100  0.708200  1.0  -0.6642
  O  O656  1  0.351200  0.074500  0.653200  1.0  -0.6512
  O  O657  1  0.712100  0.437300  0.606400  1.0  -0.6772
  O  O658  1  0.659400  0.435000  0.553500  1.0  -0.6085
  O  O659  1  0.224200  0.926600  0.637300  1.0  -0.6238
  O  O660  1  0.161000  0.933800  0.683840  1.0  -0.6431
  O  O661  1  0.899000  0.564500  0.539100  1.0  -0.6462
  O  O662  1  0.863100  0.563800  0.595200  1.0  -0.6349
  O  O663  1  0.204900  0.049500  0.774250  1.0  -0.6224
  O  O664  1  0.303800  0.070500  0.772600  1.0  -0.6323
  O  O665  1  0.279300  0.411100  0.991720  1.0  -0.6095
  O  O666  1  0.185500  0.435300  0.973900  1.0  -0.6112
  O  O667  1  0.601900  0.526200  0.502200  1.0  -0.575
  O  O668  1  0.276000  0.998200  0.705500  1.0  -0.917
