# generated using pymatgen
data_Cu6H29C67(NO12)2
_symmetry_space_group_name_H-M   'P 1'
_cell_length_a   24.79350000
_cell_length_b   33.56310000
_cell_length_c   18.66690000
_cell_angle_alpha   90.00000000
_cell_angle_beta   90.00000000
_cell_angle_gamma   90.00000000
_symmetry_Int_Tables_number   1
_chemical_formula_structural   Cu6H29C67(NO12)2
_chemical_formula_sum   'Cu24 H116 C268 N8 O96'
_cell_volume   15533.59960477
_cell_formula_units_Z   4
loop_
 _symmetry_equiv_pos_site_id
 _symmetry_equiv_pos_as_xyz
  1  'x, y, z'
loop_
 _atom_site_type_symbol
 _atom_site_label
 _atom_site_symmetry_multiplicity
 _atom_site_fract_x
 _atom_site_fract_y
 _atom_site_fract_z
 _atom_site_occupancy
 _atom_site_charge
  Cu  Cu1  1  0.210130  0.267530  0.535330  1.0  0.8971
  Cu  Cu2  1  0.710130  0.767530  0.535330  1.0  0.8971
  Cu  Cu3  1  0.789870  0.732470  0.035330  1.0  0.8972
  Cu  Cu4  1  0.289870  0.232470  0.035330  1.0  0.8972
  Cu  Cu5  1  0.789870  0.267530  0.964670  1.0  0.8987
  Cu  Cu6  1  0.289870  0.767530  0.964670  1.0  0.8987
  Cu  Cu7  1  0.210130  0.732470  0.464670  1.0  0.8975
  Cu  Cu8  1  0.710130  0.232470  0.464670  1.0  0.8975
  Cu  Cu9  1  0.789870  0.732470  0.464670  1.0  0.8971
  Cu  Cu10  1  0.289870  0.232470  0.464670  1.0  0.8971
  Cu  Cu11  1  0.210130  0.267530  0.964670  1.0  0.8977
  Cu  Cu12  1  0.710130  0.767530  0.964670  1.0  0.8977
  Cu  Cu13  1  0.210130  0.732470  0.035330  1.0  0.8976
  Cu  Cu14  1  0.710130  0.232470  0.035330  1.0  0.8976
  Cu  Cu15  1  0.789870  0.267530  0.535330  1.0  0.8983
  Cu  Cu16  1  0.289870  0.767530  0.535330  1.0  0.8983
  Cu  Cu17  1  0.000000  0.062360  0.750000  1.0  0.8799
  Cu  Cu18  1  0.000000  0.141320  0.750000  1.0  0.8926
  Cu  Cu19  1  0.500000  0.562360  0.750000  1.0  0.8881
  Cu  Cu20  1  0.500000  0.641320  0.750000  1.0  0.8926
  Cu  Cu21  1  0.000000  0.937640  0.250000  1.0  0.8815
  Cu  Cu22  1  0.000000  0.858680  0.250000  1.0  0.8936
  Cu  Cu23  1  0.500000  0.437640  0.250000  1.0  0.8876
  Cu  Cu24  1  0.500000  0.358680  0.250000  1.0  0.8936
  H  H25  1  0.242100  0.110600  0.491000  1.0  0.1032
  H  H26  1  0.122100  0.164100  0.598800  1.0  0.1022
  H  H27  1  0.391000  0.201900  0.642600  1.0  0.0965
  H  H28  1  0.133500  0.044800  0.597800  1.0  0.0921
  H  H29  1  0.296900  0.056300  0.533000  1.0  0.0987
  H  H30  1  0.415800  0.131200  0.684000  1.0  0.121
  H  H31  1  0.742100  0.610600  0.491000  1.0  0.1032
  H  H32  1  0.622100  0.664100  0.598800  1.0  0.1022
  H  H33  1  0.891000  0.701900  0.642600  1.0  0.0965
  H  H34  1  0.633500  0.544800  0.597800  1.0  0.0921
  H  H35  1  0.796900  0.556300  0.533000  1.0  0.0987
  H  H36  1  0.915800  0.631200  0.684000  1.0  0.121
  H  H37  1  0.757900  0.889400  0.991000  1.0  0.1033
  H  H38  1  0.877900  0.835900  0.098800  1.0  0.1021
  H  H39  1  0.609000  0.798100  0.142600  1.0  0.0965
  H  H40  1  0.866500  0.955200  0.097800  1.0  0.0912
  H  H41  1  0.703100  0.943700  0.033000  1.0  0.0991
  H  H42  1  0.584200  0.868800  0.184000  1.0  0.1194
  H  H43  1  0.257900  0.389400  0.991000  1.0  0.1033
  H  H44  1  0.377900  0.335900  0.098800  1.0  0.1021
  H  H45  1  0.109000  0.298100  0.142600  1.0  0.0965
  H  H46  1  0.366500  0.455200  0.097800  1.0  0.0914
  H  H47  1  0.203100  0.443700  0.033000  1.0  0.0991
  H  H48  1  0.084200  0.368800  0.184000  1.0  0.1194
  H  H49  1  0.757900  0.110600  0.009000  1.0  0.1032
  H  H50  1  0.877900  0.164100  0.901200  1.0  0.1024
  H  H51  1  0.609000  0.201900  0.857400  1.0  0.0967
  H  H52  1  0.866500  0.044800  0.902200  1.0  0.092
  H  H53  1  0.703100  0.056300  0.967000  1.0  0.1003
  H  H54  1  0.584200  0.131200  0.816000  1.0  0.1208
  H  H55  1  0.257900  0.610600  0.009000  1.0  0.1032
  H  H56  1  0.377900  0.664100  0.901200  1.0  0.1024
  H  H57  1  0.109000  0.701900  0.857400  1.0  0.0967
  H  H58  1  0.366500  0.544800  0.902200  1.0  0.092
  H  H59  1  0.203100  0.556300  0.967000  1.0  0.1003
  H  H60  1  0.084200  0.631200  0.816000  1.0  0.1208
  H  H61  1  0.242100  0.889400  0.509000  1.0  0.1031
  H  H62  1  0.122100  0.835900  0.401200  1.0  0.1025
  H  H63  1  0.391000  0.798100  0.357400  1.0  0.0967
  H  H64  1  0.133500  0.955200  0.402200  1.0  0.0915
  H  H65  1  0.296900  0.943700  0.467000  1.0  0.0997
  H  H66  1  0.415800  0.868800  0.316000  1.0  0.1205
  H  H67  1  0.742100  0.389400  0.509000  1.0  0.1031
  H  H68  1  0.622100  0.335900  0.401200  1.0  0.1025
  H  H69  1  0.891000  0.298100  0.357400  1.0  0.0967
  H  H70  1  0.633500  0.455200  0.402200  1.0  0.0918
  H  H71  1  0.796900  0.443700  0.467000  1.0  0.0997
  H  H72  1  0.915800  0.368800  0.316000  1.0  0.1205
  H  H73  1  0.757900  0.889400  0.509000  1.0  0.1033
  H  H74  1  0.877900  0.835900  0.401200  1.0  0.1024
  H  H75  1  0.609000  0.798100  0.357400  1.0  0.0967
  H  H76  1  0.866500  0.955200  0.402200  1.0  0.0913
  H  H77  1  0.703100  0.943700  0.467000  1.0  0.0996
  H  H78  1  0.584200  0.868800  0.316000  1.0  0.1193
  H  H79  1  0.257900  0.389400  0.509000  1.0  0.1033
  H  H80  1  0.377900  0.335900  0.401200  1.0  0.1024
  H  H81  1  0.109000  0.298100  0.357400  1.0  0.0967
  H  H82  1  0.366500  0.455200  0.402200  1.0  0.0916
  H  H83  1  0.203100  0.443700  0.467000  1.0  0.0996
  H  H84  1  0.084200  0.368800  0.316000  1.0  0.1193
  H  H85  1  0.242100  0.110600  0.009000  1.0  0.1028
  H  H86  1  0.122100  0.164100  0.901200  1.0  0.1023
  H  H87  1  0.391000  0.201900  0.857400  1.0  0.0967
  H  H88  1  0.133500  0.044800  0.902200  1.0  0.0919
  H  H89  1  0.296900  0.056300  0.967000  1.0  0.0999
  H  H90  1  0.415800  0.131200  0.816000  1.0  0.1214
  H  H91  1  0.742100  0.610600  0.009000  1.0  0.1028
  H  H92  1  0.622100  0.664100  0.901200  1.0  0.1023
  H  H93  1  0.891000  0.701900  0.857400  1.0  0.0967
  H  H94  1  0.633500  0.544800  0.902200  1.0  0.0919
  H  H95  1  0.796900  0.556300  0.967000  1.0  0.0999
  H  H96  1  0.915800  0.631200  0.816000  1.0  0.1214
  H  H97  1  0.242100  0.889400  0.991000  1.0  0.1034
  H  H98  1  0.122100  0.835900  0.098800  1.0  0.1023
  H  H99  1  0.391000  0.798100  0.142600  1.0  0.0966
  H  H100  1  0.133500  0.955200  0.097800  1.0  0.0914
  H  H101  1  0.296900  0.943700  0.033000  1.0  0.0989
  H  H102  1  0.415800  0.868800  0.184000  1.0  0.1206
  H  H103  1  0.742100  0.389400  0.991000  1.0  0.1034
  H  H104  1  0.622100  0.335900  0.098800  1.0  0.1023
  H  H105  1  0.891000  0.298100  0.142600  1.0  0.0966
  H  H106  1  0.633500  0.455200  0.097800  1.0  0.0916
  H  H107  1  0.796900  0.443700  0.033000  1.0  0.0989
  H  H108  1  0.915800  0.368800  0.184000  1.0  0.1206
  H  H109  1  0.757900  0.110600  0.491000  1.0  0.1035
  H  H110  1  0.877900  0.164100  0.598800  1.0  0.1022
  H  H111  1  0.609000  0.201900  0.642600  1.0  0.0964
  H  H112  1  0.866500  0.044800  0.597800  1.0  0.0921
  H  H113  1  0.703100  0.056300  0.533000  1.0  0.0995
  H  H114  1  0.584200  0.131200  0.684000  1.0  0.1205
  H  H115  1  0.257900  0.610600  0.491000  1.0  0.1035
  H  H116  1  0.377900  0.664100  0.598800  1.0  0.1022
  H  H117  1  0.109000  0.701900  0.642600  1.0  0.0964
  H  H118  1  0.366500  0.544800  0.597800  1.0  0.0921
  H  H119  1  0.203100  0.556300  0.533000  1.0  0.0995
  H  H120  1  0.084200  0.631200  0.684000  1.0  0.1205
  H  H121  1  0.269700  0.255200  0.750000  1.0  0.1
  H  H122  1  0.769700  0.755200  0.750000  1.0  0.1
  H  H123  1  0.730300  0.744800  0.250000  1.0  0.0995
  H  H124  1  0.230300  0.244800  0.250000  1.0  0.0995
  H  H125  1  0.730300  0.255200  0.750000  1.0  0.1
  H  H126  1  0.230300  0.755200  0.750000  1.0  0.1
  H  H127  1  0.269700  0.744800  0.250000  1.0  0.0996
  H  H128  1  0.769700  0.244800  0.250000  1.0  0.0996
  H  H129  1  0.154800  0.000000  0.500000  1.0  0.1029
  H  H130  1  0.654800  0.500000  0.500000  1.0  0.1029
  H  H131  1  0.845200  0.000000  0.000000  1.0  0.1031
  H  H132  1  0.345200  0.500000  0.000000  1.0  0.1031
  H  H133  1  0.845200  0.000000  0.500000  1.0  0.1031
  H  H134  1  0.345200  0.500000  0.500000  1.0  0.1031
  H  H135  1  0.154800  0.000000  0.000000  1.0  0.1029
  H  H136  1  0.654800  0.500000  0.000000  1.0  0.1029
  H  H137  1  0.500000  0.221500  0.750000  1.0  0.0392
  H  H138  1  0.000000  0.721500  0.750000  1.0  0.0392
  H  H139  1  0.500000  0.778500  0.250000  1.0  0.0396
  H  H140  1  0.000000  0.278500  0.250000  1.0  0.0396
  C  C141  1  0.206600  0.183260  0.522200  1.0  0.6721
  C  C142  1  0.298900  0.239530  0.616500  1.0  0.6775
  C  C143  1  0.183800  0.142850  0.539700  1.0  -0.1597
  C  C144  1  0.326200  0.229920  0.685400  1.0  -0.1847
  C  C145  1  0.211000  0.108750  0.518700  1.0  -0.0552
  C  C146  1  0.139100  0.140850  0.583800  1.0  -0.0087
  C  C147  1  0.375000  0.208900  0.685900  1.0  -0.0723
  C  C148  1  0.191000  0.071350  0.539800  1.0  -0.0016
  C  C149  1  0.119700  0.104290  0.605600  1.0  -0.1648
  C  C150  1  0.220700  0.034410  0.518900  1.0  0.0216
  C  C151  1  0.146400  0.069530  0.583100  1.0  -0.0542
  C  C152  1  0.072900  0.103100  0.657500  1.0  0.6942
  C  C153  1  0.277600  0.033700  0.519500  1.0  -0.1054
  C  C154  1  0.452000  0.136500  0.702900  1.0  0.2293
  C  C155  1  0.706600  0.683260  0.522200  1.0  0.6721
  C  C156  1  0.798900  0.739530  0.616500  1.0  0.6775
  C  C157  1  0.683800  0.642850  0.539700  1.0  -0.1597
  C  C158  1  0.826200  0.729920  0.685400  1.0  -0.1847
  C  C159  1  0.711000  0.608750  0.518700  1.0  -0.0552
  C  C160  1  0.639100  0.640850  0.583800  1.0  -0.0087
  C  C161  1  0.875000  0.708900  0.685900  1.0  -0.0723
  C  C162  1  0.691000  0.571350  0.539800  1.0  -0.0016
  C  C163  1  0.619700  0.604290  0.605600  1.0  -0.1648
  C  C164  1  0.720700  0.534410  0.518900  1.0  0.0216
  C  C165  1  0.646400  0.569530  0.583100  1.0  -0.0542
  C  C166  1  0.572900  0.603100  0.657500  1.0  0.6942
  C  C167  1  0.777600  0.533700  0.519500  1.0  -0.1054
  C  C168  1  0.952000  0.636500  0.702900  1.0  0.2293
  C  C169  1  0.793400  0.816740  0.022200  1.0  0.672
  C  C170  1  0.701100  0.760470  0.116500  1.0  0.6775
  C  C171  1  0.816200  0.857150  0.039700  1.0  -0.1599
  C  C172  1  0.673800  0.770080  0.185400  1.0  -0.1852
  C  C173  1  0.789000  0.891250  0.018700  1.0  -0.0539
  C  C174  1  0.860900  0.859150  0.083800  1.0  -0.0086
  C  C175  1  0.625000  0.791100  0.185900  1.0  -0.0721
  C  C176  1  0.809000  0.928650  0.039800  1.0  -0.0014
  C  C177  1  0.880300  0.895710  0.105600  1.0  -0.1647
  C  C178  1  0.779300  0.965590  0.018900  1.0  0.0217
  C  C179  1  0.853600  0.930470  0.083100  1.0  -0.054
  C  C180  1  0.927100  0.896900  0.157500  1.0  0.6943
  C  C181  1  0.722400  0.966300  0.019500  1.0  -0.1042
  C  C182  1  0.548000  0.863500  0.202900  1.0  0.2273
  C  C183  1  0.293400  0.316740  0.022200  1.0  0.672
  C  C184  1  0.201100  0.260470  0.116500  1.0  0.6775
  C  C185  1  0.316200  0.357150  0.039700  1.0  -0.1599
  C  C186  1  0.173800  0.270080  0.185400  1.0  -0.1852
  C  C187  1  0.289000  0.391250  0.018700  1.0  -0.0539
  C  C188  1  0.360900  0.359150  0.083800  1.0  -0.0086
  C  C189  1  0.125000  0.291100  0.185900  1.0  -0.0721
  C  C190  1  0.309000  0.428650  0.039800  1.0  -0.0014
  C  C191  1  0.380300  0.395710  0.105600  1.0  -0.1647
  C  C192  1  0.279300  0.465590  0.018900  1.0  0.0217
  C  C193  1  0.353600  0.430470  0.083100  1.0  -0.054
  C  C194  1  0.427100  0.396900  0.157500  1.0  0.6943
  C  C195  1  0.222400  0.466300  0.019500  1.0  -0.1042
  C  C196  1  0.048000  0.363500  0.202900  1.0  0.2273
  C  C197  1  0.793400  0.183260  0.977800  1.0  0.6725
  C  C198  1  0.701100  0.239530  0.883500  1.0  0.6777
  C  C199  1  0.816200  0.142850  0.960300  1.0  -0.1604
  C  C200  1  0.673800  0.229920  0.814600  1.0  -0.1845
  C  C201  1  0.789000  0.108750  0.981300  1.0  -0.0544
  C  C202  1  0.860900  0.140850  0.916200  1.0  -0.0092
  C  C203  1  0.625000  0.208900  0.814100  1.0  -0.0735
  C  C204  1  0.809000  0.071350  0.960200  1.0  -0.002
  C  C205  1  0.880300  0.104290  0.894400  1.0  -0.1643
  C  C206  1  0.779300  0.034410  0.981100  1.0  0.0219
  C  C207  1  0.853600  0.069530  0.916900  1.0  -0.0526
  C  C208  1  0.927100  0.103100  0.842500  1.0  0.6947
  C  C209  1  0.722400  0.033700  0.980500  1.0  -0.106
  C  C210  1  0.548000  0.136500  0.797100  1.0  0.2282
  C  C211  1  0.293400  0.683260  0.977800  1.0  0.6725
  C  C212  1  0.201100  0.739530  0.883500  1.0  0.6777
  C  C213  1  0.316200  0.642850  0.960300  1.0  -0.1604
  C  C214  1  0.173800  0.729920  0.814600  1.0  -0.1845
  C  C215  1  0.289000  0.608750  0.981300  1.0  -0.0544
  C  C216  1  0.360900  0.640850  0.916200  1.0  -0.0092
  C  C217  1  0.125000  0.708900  0.814100  1.0  -0.0735
  C  C218  1  0.309000  0.571350  0.960200  1.0  -0.002
  C  C219  1  0.380300  0.604290  0.894400  1.0  -0.1643
  C  C220  1  0.279300  0.534410  0.981100  1.0  0.0219
  C  C221  1  0.353600  0.569530  0.916900  1.0  -0.0526
  C  C222  1  0.427100  0.603100  0.842500  1.0  0.6947
  C  C223  1  0.222400  0.533700  0.980500  1.0  -0.106
  C  C224  1  0.048000  0.636500  0.797100  1.0  0.2282
  C  C225  1  0.206600  0.816740  0.477800  1.0  0.6722
  C  C226  1  0.298900  0.760470  0.383500  1.0  0.6776
  C  C227  1  0.183800  0.857150  0.460300  1.0  -0.1599
  C  C228  1  0.326200  0.770080  0.314600  1.0  -0.185
  C  C229  1  0.211000  0.891250  0.481300  1.0  -0.0554
  C  C230  1  0.139100  0.859150  0.416200  1.0  -0.0091
  C  C231  1  0.375000  0.791100  0.314100  1.0  -0.0728
  C  C232  1  0.191000  0.928650  0.460200  1.0  -0.0019
  C  C233  1  0.119700  0.895710  0.394400  1.0  -0.1652
  C  C234  1  0.220700  0.965590  0.481100  1.0  0.0217
  C  C235  1  0.146400  0.930470  0.416900  1.0  -0.0549
  C  C236  1  0.072900  0.896900  0.342500  1.0  0.6945
  C  C237  1  0.277600  0.966300  0.480500  1.0  -0.1056
  C  C238  1  0.452000  0.863500  0.297100  1.0  0.2267
  C  C239  1  0.706600  0.316740  0.477800  1.0  0.6722
  C  C240  1  0.798900  0.260470  0.383500  1.0  0.6776
  C  C241  1  0.683800  0.357150  0.460300  1.0  -0.1599
  C  C242  1  0.826200  0.270080  0.314600  1.0  -0.185
  C  C243  1  0.711000  0.391250  0.481300  1.0  -0.0554
  C  C244  1  0.639100  0.359150  0.416200  1.0  -0.0091
  C  C245  1  0.875000  0.291100  0.314100  1.0  -0.0728
  C  C246  1  0.691000  0.428650  0.460200  1.0  -0.0019
  C  C247  1  0.619700  0.395710  0.394400  1.0  -0.1652
  C  C248  1  0.720700  0.465590  0.481100  1.0  0.0217
  C  C249  1  0.646400  0.430470  0.416900  1.0  -0.0549
  C  C250  1  0.572900  0.396900  0.342500  1.0  0.6945
  C  C251  1  0.777600  0.466300  0.480500  1.0  -0.1056
  C  C252  1  0.952000  0.363500  0.297100  1.0  0.2267
  C  C253  1  0.793400  0.816740  0.477800  1.0  0.6722
  C  C254  1  0.701100  0.760470  0.383500  1.0  0.6777
  C  C255  1  0.816200  0.857150  0.460300  1.0  -0.16
  C  C256  1  0.673800  0.770080  0.314600  1.0  -0.1846
  C  C257  1  0.789000  0.891250  0.481300  1.0  -0.0558
  C  C258  1  0.860900  0.859150  0.416200  1.0  -0.0087
  C  C259  1  0.625000  0.791100  0.314100  1.0  -0.0731
  C  C260  1  0.809000  0.928650  0.460200  1.0  -0.0018
  C  C261  1  0.880300  0.895710  0.394400  1.0  -0.1644
  C  C262  1  0.779300  0.965590  0.481100  1.0  0.0218
  C  C263  1  0.853600  0.930470  0.416900  1.0  -0.0543
  C  C264  1  0.927100  0.896900  0.342500  1.0  0.6948
  C  C265  1  0.722400  0.966300  0.480500  1.0  -0.105
  C  C266  1  0.548000  0.863500  0.297100  1.0  0.2277
  C  C267  1  0.293400  0.316740  0.477800  1.0  0.6722
  C  C268  1  0.201100  0.260470  0.383500  1.0  0.6777
  C  C269  1  0.316200  0.357150  0.460300  1.0  -0.16
  C  C270  1  0.173800  0.270080  0.314600  1.0  -0.1846
  C  C271  1  0.289000  0.391250  0.481300  1.0  -0.0558
  C  C272  1  0.360900  0.359150  0.416200  1.0  -0.0087
  C  C273  1  0.125000  0.291100  0.314100  1.0  -0.0731
  C  C274  1  0.309000  0.428650  0.460200  1.0  -0.0018
  C  C275  1  0.380300  0.395710  0.394400  1.0  -0.1644
  C  C276  1  0.279300  0.465590  0.481100  1.0  0.0218
  C  C277  1  0.353600  0.430470  0.416900  1.0  -0.0543
  C  C278  1  0.427100  0.396900  0.342500  1.0  0.6948
  C  C279  1  0.222400  0.466300  0.480500  1.0  -0.105
  C  C280  1  0.048000  0.363500  0.297100  1.0  0.2277
  C  C281  1  0.206600  0.183260  0.977800  1.0  0.6724
  C  C282  1  0.298900  0.239530  0.883500  1.0  0.6775
  C  C283  1  0.183800  0.142850  0.960300  1.0  -0.1604
  C  C284  1  0.326200  0.229920  0.814600  1.0  -0.1846
  C  C285  1  0.211000  0.108750  0.981300  1.0  -0.0542
  C  C286  1  0.139100  0.140850  0.916200  1.0  -0.0089
  C  C287  1  0.375000  0.208900  0.814100  1.0  -0.0731
  C  C288  1  0.191000  0.071350  0.960200  1.0  -0.002
  C  C289  1  0.119700  0.104290  0.894400  1.0  -0.1651
  C  C290  1  0.220700  0.034410  0.981100  1.0  0.0218
  C  C291  1  0.146400  0.069530  0.916900  1.0  -0.0541
  C  C292  1  0.072900  0.103100  0.842500  1.0  0.6945
  C  C293  1  0.277600  0.033700  0.980500  1.0  -0.1055
  C  C294  1  0.452000  0.136500  0.797100  1.0  0.2279
  C  C295  1  0.706600  0.683260  0.977800  1.0  0.6724
  C  C296  1  0.798900  0.739530  0.883500  1.0  0.6775
  C  C297  1  0.683800  0.642850  0.960300  1.0  -0.1604
  C  C298  1  0.826200  0.729920  0.814600  1.0  -0.1846
  C  C299  1  0.711000  0.608750  0.981300  1.0  -0.0542
  C  C300  1  0.639100  0.640850  0.916200  1.0  -0.0089
  C  C301  1  0.875000  0.708900  0.814100  1.0  -0.0731
  C  C302  1  0.691000  0.571350  0.960200  1.0  -0.002
  C  C303  1  0.619700  0.604290  0.894400  1.0  -0.1651
  C  C304  1  0.720700  0.534410  0.981100  1.0  0.0218
  C  C305  1  0.646400  0.569530  0.916900  1.0  -0.0541
  C  C306  1  0.572900  0.603100  0.842500  1.0  0.6945
  C  C307  1  0.777600  0.533700  0.980500  1.0  -0.1055
  C  C308  1  0.952000  0.636500  0.797100  1.0  0.2279
  C  C309  1  0.206600  0.816740  0.022200  1.0  0.6718
  C  C310  1  0.298900  0.760470  0.116500  1.0  0.6775
  C  C311  1  0.183800  0.857150  0.039700  1.0  -0.1601
  C  C312  1  0.326200  0.770080  0.185400  1.0  -0.1857
  C  C313  1  0.211000  0.891250  0.018700  1.0  -0.0543
  C  C314  1  0.139100  0.859150  0.083800  1.0  -0.0089
  C  C315  1  0.375000  0.791100  0.185900  1.0  -0.0722
  C  C316  1  0.191000  0.928650  0.039800  1.0  -0.0014
  C  C317  1  0.119700  0.895710  0.105600  1.0  -0.165
  C  C318  1  0.220700  0.965590  0.018900  1.0  0.0216
  C  C319  1  0.146400  0.930470  0.083100  1.0  -0.0545
  C  C320  1  0.072900  0.896900  0.157500  1.0  0.6942
  C  C321  1  0.277600  0.966300  0.019500  1.0  -0.1046
  C  C322  1  0.452000  0.863500  0.202900  1.0  0.2252
  C  C323  1  0.706600  0.316740  0.022200  1.0  0.6718
  C  C324  1  0.798900  0.260470  0.116500  1.0  0.6775
  C  C325  1  0.683800  0.357150  0.039700  1.0  -0.1601
  C  C326  1  0.826200  0.270080  0.185400  1.0  -0.1857
  C  C327  1  0.711000  0.391250  0.018700  1.0  -0.0543
  C  C328  1  0.639100  0.359150  0.083800  1.0  -0.0089
  C  C329  1  0.875000  0.291100  0.185900  1.0  -0.0722
  C  C330  1  0.691000  0.428650  0.039800  1.0  -0.0014
  C  C331  1  0.619700  0.395710  0.105600  1.0  -0.165
  C  C332  1  0.720700  0.465590  0.018900  1.0  0.0216
  C  C333  1  0.646400  0.430470  0.083100  1.0  -0.0545
  C  C334  1  0.572900  0.396900  0.157500  1.0  0.6942
  C  C335  1  0.777600  0.466300  0.019500  1.0  -0.1046
  C  C336  1  0.952000  0.363500  0.202900  1.0  0.2252
  C  C337  1  0.793400  0.183260  0.522200  1.0  0.6723
  C  C338  1  0.701100  0.239530  0.616500  1.0  0.6777
  C  C339  1  0.816200  0.142850  0.539700  1.0  -0.1597
  C  C340  1  0.673800  0.229920  0.685400  1.0  -0.1844
  C  C341  1  0.789000  0.108750  0.518700  1.0  -0.0552
  C  C342  1  0.860900  0.140850  0.583800  1.0  -0.009
  C  C343  1  0.625000  0.208900  0.685900  1.0  -0.0724
  C  C344  1  0.809000  0.071350  0.539800  1.0  -0.0016
  C  C345  1  0.880300  0.104290  0.605600  1.0  -0.1644
  C  C346  1  0.779300  0.034410  0.518900  1.0  0.0217
  C  C347  1  0.853600  0.069530  0.583100  1.0  -0.0528
  C  C348  1  0.927100  0.103100  0.657500  1.0  0.6943
  C  C349  1  0.722400  0.033700  0.519500  1.0  -0.1059
  C  C350  1  0.548000  0.136500  0.702900  1.0  0.2298
  C  C351  1  0.293400  0.683260  0.522200  1.0  0.6723
  C  C352  1  0.201100  0.739530  0.616500  1.0  0.6777
  C  C353  1  0.316200  0.642850  0.539700  1.0  -0.1597
  C  C354  1  0.173800  0.729920  0.685400  1.0  -0.1844
  C  C355  1  0.289000  0.608750  0.518700  1.0  -0.0552
  C  C356  1  0.360900  0.640850  0.583800  1.0  -0.009
  C  C357  1  0.125000  0.708900  0.685900  1.0  -0.0724
  C  C358  1  0.309000  0.571350  0.539800  1.0  -0.0016
  C  C359  1  0.380300  0.604290  0.605600  1.0  -0.1644
  C  C360  1  0.279300  0.534410  0.518900  1.0  0.0217
  C  C361  1  0.353600  0.569530  0.583100  1.0  -0.0528
  C  C362  1  0.427100  0.603100  0.657500  1.0  0.6943
  C  C363  1  0.222400  0.533700  0.519500  1.0  -0.1059
  C  C364  1  0.048000  0.636500  0.702900  1.0  0.2298
  C  C365  1  0.301800  0.240900  0.750000  1.0  0.0208
  C  C366  1  0.400000  0.198100  0.750000  1.0  0.0721
  C  C367  1  0.452800  0.175400  0.750000  1.0  0.0903
  C  C368  1  0.801800  0.740900  0.750000  1.0  0.0208
  C  C369  1  0.900000  0.698100  0.750000  1.0  0.0721
  C  C370  1  0.952800  0.675400  0.750000  1.0  0.0903
  C  C371  1  0.698200  0.759100  0.250000  1.0  0.021
  C  C372  1  0.600000  0.801900  0.250000  1.0  0.0713
  C  C373  1  0.547200  0.824600  0.250000  1.0  0.0891
  C  C374  1  0.198200  0.259100  0.250000  1.0  0.021
  C  C375  1  0.100000  0.301900  0.250000  1.0  0.0713
  C  C376  1  0.047200  0.324600  0.250000  1.0  0.0891
  C  C377  1  0.698200  0.240900  0.750000  1.0  0.0212
  C  C378  1  0.600000  0.198100  0.750000  1.0  0.0719
  C  C379  1  0.547200  0.175400  0.750000  1.0  0.0895
  C  C380  1  0.198200  0.740900  0.750000  1.0  0.0212
  C  C381  1  0.100000  0.698100  0.750000  1.0  0.0719
  C  C382  1  0.047200  0.675400  0.750000  1.0  0.0895
  C  C383  1  0.301800  0.759100  0.250000  1.0  0.0201
  C  C384  1  0.400000  0.801900  0.250000  1.0  0.0716
  C  C385  1  0.452800  0.824600  0.250000  1.0  0.0899
  C  C386  1  0.801800  0.259100  0.250000  1.0  0.0201
  C  C387  1  0.900000  0.301900  0.250000  1.0  0.0716
  C  C388  1  0.952800  0.324600  0.250000  1.0  0.0899
  C  C389  1  0.192300  0.000000  0.500000  1.0  -0.0917
  C  C390  1  0.303800  0.000000  0.500000  1.0  0.1238
  C  C391  1  0.692300  0.500000  0.500000  1.0  -0.0917
  C  C392  1  0.803800  0.500000  0.500000  1.0  0.1238
  C  C393  1  0.807700  0.000000  0.000000  1.0  -0.0919
  C  C394  1  0.696200  0.000000  0.000000  1.0  0.1227
  C  C395  1  0.307700  0.500000  0.000000  1.0  -0.0919
  C  C396  1  0.196200  0.500000  0.000000  1.0  0.1227
  C  C397  1  0.807700  0.000000  0.500000  1.0  -0.0919
  C  C398  1  0.696200  0.000000  0.500000  1.0  0.1227
  C  C399  1  0.307700  0.500000  0.500000  1.0  -0.0919
  C  C400  1  0.196200  0.500000  0.500000  1.0  0.1227
  C  C401  1  0.192300  0.000000  0.000000  1.0  -0.0917
  C  C402  1  0.303800  0.000000  0.000000  1.0  0.1238
  C  C403  1  0.692300  0.500000  0.000000  1.0  -0.0917
  C  C404  1  0.803800  0.500000  0.000000  1.0  0.1238
  C  C405  1  0.500000  0.193700  0.750000  1.0  -0.0922
  C  C406  1  0.000000  0.693700  0.750000  1.0  -0.0922
  C  C407  1  0.500000  0.806300  0.250000  1.0  -0.0928
  C  C408  1  0.000000  0.306300  0.250000  1.0  -0.0928
  N  N409  1  0.362600  0.000000  0.500000  1.0  -0.297
  N  N410  1  0.862600  0.500000  0.500000  1.0  -0.297
  N  N411  1  0.637400  0.000000  0.000000  1.0  -0.2926
  N  N412  1  0.137400  0.500000  0.000000  1.0  -0.2926
  N  N413  1  0.637400  0.000000  0.500000  1.0  -0.2926
  N  N414  1  0.137400  0.500000  0.500000  1.0  -0.2926
  N  N415  1  0.362600  0.000000  0.000000  1.0  -0.297
  N  N416  1  0.862600  0.500000  0.000000  1.0  -0.297
  O  O417  1  0.182460  0.213370  0.545000  1.0  -0.5831
  O  O418  1  0.254800  0.257740  0.619600  1.0  -0.5798
  O  O419  1  0.177820  0.272030  0.439400  1.0  -0.5812
  O  O420  1  0.250620  0.316330  0.515200  1.0  -0.587
  O  O421  1  0.056080  0.069150  0.675800  1.0  -0.5818
  O  O422  1  0.054720  0.135620  0.675900  1.0  -0.5767
  O  O423  1  0.682460  0.713370  0.545000  1.0  -0.5831
  O  O424  1  0.754800  0.757740  0.619600  1.0  -0.5798
  O  O425  1  0.677820  0.772030  0.439400  1.0  -0.5812
  O  O426  1  0.750620  0.816330  0.515200  1.0  -0.587
  O  O427  1  0.556080  0.569150  0.675800  1.0  -0.5818
  O  O428  1  0.554720  0.635620  0.675900  1.0  -0.5767
  O  O429  1  0.817540  0.786630  0.045000  1.0  -0.5835
  O  O430  1  0.745200  0.742260  0.119600  1.0  -0.5801
  O  O431  1  0.822180  0.727970  0.939400  1.0  -0.5818
  O  O432  1  0.749380  0.683670  0.015200  1.0  -0.5867
  O  O433  1  0.943920  0.930850  0.175800  1.0  -0.5804
  O  O434  1  0.945280  0.864380  0.175900  1.0  -0.5773
  O  O435  1  0.317540  0.286630  0.045000  1.0  -0.5835
  O  O436  1  0.245200  0.242260  0.119600  1.0  -0.5801
  O  O437  1  0.322180  0.227970  0.939400  1.0  -0.5818
  O  O438  1  0.249380  0.183670  0.015200  1.0  -0.5867
  O  O439  1  0.443920  0.430850  0.175800  1.0  -0.5804
  O  O440  1  0.445280  0.364380  0.175900  1.0  -0.5773
  O  O441  1  0.817540  0.213370  0.955000  1.0  -0.5838
  O  O442  1  0.745200  0.257740  0.880400  1.0  -0.5801
  O  O443  1  0.822180  0.272030  0.060600  1.0  -0.5813
  O  O444  1  0.749380  0.316330  0.984800  1.0  -0.5867
  O  O445  1  0.943920  0.069150  0.824200  1.0  -0.5823
  O  O446  1  0.945280  0.135620  0.824100  1.0  -0.5765
  O  O447  1  0.317540  0.713370  0.955000  1.0  -0.5838
  O  O448  1  0.245200  0.757740  0.880400  1.0  -0.5801
  O  O449  1  0.322180  0.772030  0.060600  1.0  -0.5813
  O  O450  1  0.249380  0.816330  0.984800  1.0  -0.5867
  O  O451  1  0.443920  0.569150  0.824200  1.0  -0.5823
  O  O452  1  0.445280  0.635620  0.824100  1.0  -0.5765
  O  O453  1  0.182460  0.786630  0.455000  1.0  -0.5834
  O  O454  1  0.254800  0.742260  0.380400  1.0  -0.5797
  O  O455  1  0.177820  0.727970  0.560600  1.0  -0.582
  O  O456  1  0.250620  0.683670  0.484800  1.0  -0.5872
  O  O457  1  0.056080  0.930850  0.324200  1.0  -0.5805
  O  O458  1  0.054720  0.864380  0.324100  1.0  -0.5774
  O  O459  1  0.682460  0.286630  0.455000  1.0  -0.5834
  O  O460  1  0.754800  0.242260  0.380400  1.0  -0.5797
  O  O461  1  0.677820  0.227970  0.560600  1.0  -0.582
  O  O462  1  0.750620  0.183670  0.484800  1.0  -0.5872
  O  O463  1  0.556080  0.430850  0.324200  1.0  -0.5805
  O  O464  1  0.554720  0.364380  0.324100  1.0  -0.5774
  O  O465  1  0.817540  0.786630  0.455000  1.0  -0.5841
  O  O466  1  0.745200  0.742260  0.380400  1.0  -0.5801
  O  O467  1  0.822180  0.727970  0.560600  1.0  -0.5824
  O  O468  1  0.749380  0.683670  0.484800  1.0  -0.5871
  O  O469  1  0.943920  0.930850  0.324200  1.0  -0.5807
  O  O470  1  0.945280  0.864380  0.324100  1.0  -0.5771
  O  O471  1  0.317540  0.286630  0.455000  1.0  -0.5841
  O  O472  1  0.245200  0.242260  0.380400  1.0  -0.5801
  O  O473  1  0.322180  0.227970  0.560600  1.0  -0.5824
  O  O474  1  0.249380  0.183670  0.484800  1.0  -0.5871
  O  O475  1  0.443920  0.430850  0.324200  1.0  -0.5807
  O  O476  1  0.445280  0.364380  0.324100  1.0  -0.5771
  O  O477  1  0.182460  0.213370  0.955000  1.0  -0.5832
  O  O478  1  0.254800  0.257740  0.880400  1.0  -0.5797
  O  O479  1  0.177820  0.272030  0.060600  1.0  -0.5816
  O  O480  1  0.250620  0.316330  0.984800  1.0  -0.5868
  O  O481  1  0.056080  0.069150  0.824200  1.0  -0.5819
  O  O482  1  0.054720  0.135620  0.824100  1.0  -0.5768
  O  O483  1  0.682460  0.713370  0.955000  1.0  -0.5832
  O  O484  1  0.754800  0.757740  0.880400  1.0  -0.5797
  O  O485  1  0.677820  0.772030  0.060600  1.0  -0.5816
  O  O486  1  0.750620  0.816330  0.984800  1.0  -0.5868
  O  O487  1  0.556080  0.569150  0.824200  1.0  -0.5819
  O  O488  1  0.554720  0.635620  0.824100  1.0  -0.5768
  O  O489  1  0.182460  0.786630  0.045000  1.0  -0.5826
  O  O490  1  0.254800  0.742260  0.119600  1.0  -0.5797
  O  O491  1  0.177820  0.727970  0.939400  1.0  -0.5815
  O  O492  1  0.250620  0.683670  0.015200  1.0  -0.5868
  O  O493  1  0.056080  0.930850  0.175800  1.0  -0.58
  O  O494  1  0.054720  0.864380  0.175900  1.0  -0.5774
  O  O495  1  0.682460  0.286630  0.045000  1.0  -0.5826
  O  O496  1  0.754800  0.242260  0.119600  1.0  -0.5797
  O  O497  1  0.677820  0.227970  0.939400  1.0  -0.5815
  O  O498  1  0.750620  0.183670  0.015200  1.0  -0.5868
  O  O499  1  0.556080  0.430850  0.175800  1.0  -0.58
  O  O500  1  0.554720  0.364380  0.175900  1.0  -0.5773
  O  O501  1  0.817540  0.213370  0.545000  1.0  -0.5838
  O  O502  1  0.745200  0.257740  0.619600  1.0  -0.5803
  O  O503  1  0.822180  0.272030  0.439400  1.0  -0.5819
  O  O504  1  0.749380  0.316330  0.515200  1.0  -0.5864
  O  O505  1  0.943920  0.069150  0.675800  1.0  -0.5819
  O  O506  1  0.945280  0.135620  0.675900  1.0  -0.5764
  O  O507  1  0.317540  0.713370  0.545000  1.0  -0.5838
  O  O508  1  0.245200  0.757740  0.619600  1.0  -0.5803
  O  O509  1  0.322180  0.772030  0.439400  1.0  -0.5819
  O  O510  1  0.249380  0.816330  0.515200  1.0  -0.5864
  O  O511  1  0.443920  0.569150  0.675800  1.0  -0.5819
  O  O512  1  0.445280  0.635620  0.675900  1.0  -0.5764
