# generated using pymatgen
data_ZnH8(C4N3)2
_symmetry_space_group_name_H-M   'P 1'
_cell_length_a   17.60190000
_cell_length_b   17.60190000
_cell_length_c   17.60190000
_cell_angle_alpha   90.00000000
_cell_angle_beta   90.00000000
_cell_angle_gamma   90.00000000
_symmetry_Int_Tables_number   1
_chemical_formula_structural   ZnH8(C4N3)2
_chemical_formula_sum   'Zn24 H192 C192 N144'
_cell_volume   5453.54182261
_cell_formula_units_Z   24
loop_
 _symmetry_equiv_pos_site_id
 _symmetry_equiv_pos_as_xyz
  1  'x, y, z'
loop_
 _atom_site_type_symbol
 _atom_site_label
 _atom_site_symmetry_multiplicity
 _atom_site_fract_x
 _atom_site_fract_y
 _atom_site_fract_z
 _atom_site_occupancy
 _atom_site_charge
  Zn  Zn1  1  0.625000  0.125000  0.125000  1.0  0.7933
  Zn  Zn2  1  0.125000  0.625000  0.125000  1.0  0.7933
  Zn  Zn3  1  0.125000  0.125000  0.625000  1.0  0.7933
  Zn  Zn4  1  0.625000  0.625000  0.625000  1.0  0.7933
  Zn  Zn5  1  0.875000  0.875000  0.375000  1.0  0.7933
  Zn  Zn6  1  0.875000  0.375000  0.875000  1.0  0.7933
  Zn  Zn7  1  0.375000  0.875000  0.875000  1.0  0.7933
  Zn  Zn8  1  0.375000  0.375000  0.375000  1.0  0.7933
  Zn  Zn9  1  0.500000  0.250000  0.250000  1.0  0.7523
  Zn  Zn10  1  0.000000  0.250000  0.750000  1.0  0.7523
  Zn  Zn11  1  0.250000  0.000000  0.750000  1.0  0.7523
  Zn  Zn12  1  0.750000  0.750000  0.500000  1.0  0.7523
  Zn  Zn13  1  0.250000  0.750000  0.000000  1.0  0.7523
  Zn  Zn14  1  0.000000  0.500000  0.000000  1.0  0.7523
  Zn  Zn15  1  0.250000  0.500000  0.250000  1.0  0.7523
  Zn  Zn16  1  0.750000  0.000000  0.250000  1.0  0.7523
  Zn  Zn17  1  0.750000  0.250000  0.000000  1.0  0.7523
  Zn  Zn18  1  0.500000  0.750000  0.750000  1.0  0.7523
  Zn  Zn19  1  0.000000  0.000000  0.500000  1.0  0.7523
  Zn  Zn20  1  0.250000  0.250000  0.500000  1.0  0.7523
  Zn  Zn21  1  0.000000  0.750000  0.250000  1.0  0.7523
  Zn  Zn22  1  0.750000  0.500000  0.750000  1.0  0.7523
  Zn  Zn23  1  0.500000  0.000000  0.000000  1.0  0.7523
  Zn  Zn24  1  0.500000  0.500000  0.500000  1.0  0.7523
  H  H25  1  0.270000  0.200000  0.200000  1.0  -0.0457
  H  H26  1  0.317000  0.161000  0.161000  1.0  0.0702
  H  H27  1  0.270000  0.700000  0.700000  1.0  -0.0457
  H  H28  1  0.317000  0.661000  0.661000  1.0  0.0702
  H  H29  1  0.770000  0.200000  0.700000  1.0  -0.0457
  H  H30  1  0.817000  0.161000  0.661000  1.0  0.0702
  H  H31  1  0.770000  0.700000  0.200000  1.0  -0.0457
  H  H32  1  0.817000  0.661000  0.161000  1.0  0.0702
  H  H33  1  0.480000  0.050000  0.700000  1.0  -0.048
  H  H34  1  0.433000  0.089000  0.661000  1.0  0.0705
  H  H35  1  0.480000  0.550000  0.200000  1.0  -0.048
  H  H36  1  0.433000  0.589000  0.161000  1.0  0.0705
  H  H37  1  0.980000  0.700000  0.550000  1.0  -0.0505
  H  H38  1  0.933000  0.661000  0.589000  1.0  0.0732
  H  H39  1  0.980000  0.200000  0.050000  1.0  -0.0505
  H  H40  1  0.933000  0.161000  0.089000  1.0  0.0732
  H  H41  1  0.480000  0.200000  0.550000  1.0  -0.0505
  H  H42  1  0.433000  0.161000  0.589000  1.0  0.0732
  H  H43  1  0.770000  0.550000  0.050000  1.0  -0.0467
  H  H44  1  0.817000  0.589000  0.089000  1.0  0.0714
  H  H45  1  0.270000  0.550000  0.550000  1.0  -0.0467
  H  H46  1  0.317000  0.589000  0.589000  1.0  0.0714
  H  H47  1  0.200000  0.270000  0.200000  1.0  -0.0494
  H  H48  1  0.161000  0.317000  0.161000  1.0  0.0718
  H  H49  1  0.200000  0.770000  0.700000  1.0  -0.0494
  H  H50  1  0.161000  0.817000  0.661000  1.0  0.0718
  H  H51  1  0.700000  0.270000  0.700000  1.0  -0.0494
  H  H52  1  0.661000  0.317000  0.661000  1.0  0.0718
  H  H53  1  0.700000  0.770000  0.200000  1.0  -0.0494
  H  H54  1  0.661000  0.817000  0.161000  1.0  0.0718
  H  H55  1  0.700000  0.480000  0.050000  1.0  -0.0495
  H  H56  1  0.661000  0.433000  0.089000  1.0  0.0723
  H  H57  1  0.200000  0.480000  0.550000  1.0  -0.0495
  H  H58  1  0.161000  0.433000  0.589000  1.0  0.0723
  H  H59  1  0.550000  0.980000  0.700000  1.0  -0.0443
  H  H60  1  0.589000  0.933000  0.661000  1.0  0.07
  H  H61  1  0.550000  0.480000  0.200000  1.0  -0.0443
  H  H62  1  0.589000  0.433000  0.161000  1.0  0.07
  H  H63  1  0.050000  0.770000  0.550000  1.0  -0.0483
  H  H64  1  0.089000  0.817000  0.589000  1.0  0.0752
  H  H65  1  0.050000  0.270000  0.050000  1.0  -0.0483
  H  H66  1  0.089000  0.317000  0.089000  1.0  0.0752
  H  H67  1  0.550000  0.270000  0.550000  1.0  -0.0483
  H  H68  1  0.589000  0.317000  0.589000  1.0  0.0752
  H  H69  1  0.200000  0.200000  0.270000  1.0  -0.0495
  H  H70  1  0.161000  0.161000  0.317000  1.0  0.0732
  H  H71  1  0.200000  0.700000  0.770000  1.0  -0.0495
  H  H72  1  0.161000  0.661000  0.817000  1.0  0.0732
  H  H73  1  0.700000  0.200000  0.770000  1.0  -0.0495
  H  H74  1  0.661000  0.161000  0.817000  1.0  0.0732
  H  H75  1  0.700000  0.700000  0.270000  1.0  -0.0495
  H  H76  1  0.661000  0.661000  0.317000  1.0  0.0732
  H  H77  1  0.050000  0.700000  0.480000  1.0  -0.0436
  H  H78  1  0.089000  0.661000  0.433000  1.0  0.0745
  H  H79  1  0.050000  0.200000  0.980000  1.0  -0.0436
  H  H80  1  0.089000  0.161000  0.933000  1.0  0.0745
  H  H81  1  0.550000  0.200000  0.480000  1.0  -0.0436
  H  H82  1  0.589000  0.161000  0.433000  1.0  0.0745
  H  H83  1  0.700000  0.550000  0.980000  1.0  -0.0467
  H  H84  1  0.661000  0.589000  0.933000  1.0  0.0729
  H  H85  1  0.200000  0.550000  0.480000  1.0  -0.0467
  H  H86  1  0.161000  0.589000  0.433000  1.0  0.0729
  H  H87  1  0.550000  0.050000  0.770000  1.0  -0.0464
  H  H88  1  0.589000  0.089000  0.817000  1.0  0.0727
  H  H89  1  0.550000  0.550000  0.270000  1.0  -0.0464
  H  H90  1  0.589000  0.589000  0.317000  1.0  0.0727
  H  H91  1  0.950000  0.520000  0.300000  1.0  -0.0514
  H  H92  1  0.911000  0.567000  0.339000  1.0  0.0755
  H  H93  1  0.950000  0.020000  0.800000  1.0  -0.0514
  H  H94  1  0.911000  0.067000  0.839000  1.0  0.0755
  H  H95  1  0.800000  0.730000  0.800000  1.0  -0.0454
  H  H96  1  0.839000  0.683000  0.839000  1.0  0.0717
  H  H97  1  0.800000  0.230000  0.300000  1.0  -0.0454
  H  H98  1  0.839000  0.183000  0.339000  1.0  0.0717
  H  H99  1  0.300000  0.730000  0.300000  1.0  -0.0454
  H  H100  1  0.339000  0.683000  0.339000  1.0  0.0717
  H  H101  1  0.300000  0.230000  0.800000  1.0  -0.0454
  H  H102  1  0.339000  0.183000  0.839000  1.0  0.0717
  H  H103  1  0.450000  0.230000  0.950000  1.0  -0.0477
  H  H104  1  0.411000  0.183000  0.911000  1.0  0.07
  H  H105  1  0.450000  0.730000  0.450000  1.0  -0.0477
  H  H106  1  0.411000  0.683000  0.411000  1.0  0.07
  H  H107  1  0.950000  0.730000  0.950000  1.0  -0.0477
  H  H108  1  0.911000  0.683000  0.911000  1.0  0.07
  H  H109  1  0.300000  0.020000  0.450000  1.0  -0.0466
  H  H110  1  0.339000  0.067000  0.411000  1.0  0.0724
  H  H111  1  0.800000  0.020000  0.950000  1.0  -0.0466
  H  H112  1  0.839000  0.067000  0.911000  1.0  0.0724
  H  H113  1  0.020000  0.450000  0.300000  1.0  -0.0466
  H  H114  1  0.067000  0.411000  0.339000  1.0  0.0725
  H  H115  1  0.020000  0.950000  0.800000  1.0  -0.0466
  H  H116  1  0.067000  0.911000  0.839000  1.0  0.0725
  H  H117  1  0.230000  0.950000  0.450000  1.0  -0.0482
  H  H118  1  0.183000  0.911000  0.411000  1.0  0.0709
  H  H119  1  0.730000  0.950000  0.950000  1.0  -0.0482
  H  H120  1  0.683000  0.911000  0.911000  1.0  0.0709
  H  H121  1  0.730000  0.800000  0.800000  1.0  -0.0504
  H  H122  1  0.683000  0.839000  0.839000  1.0  0.0717
  H  H123  1  0.730000  0.300000  0.300000  1.0  -0.0504
  H  H124  1  0.683000  0.339000  0.339000  1.0  0.0717
  H  H125  1  0.230000  0.800000  0.300000  1.0  -0.0504
  H  H126  1  0.183000  0.839000  0.339000  1.0  0.0717
  H  H127  1  0.230000  0.300000  0.800000  1.0  -0.0504
  H  H128  1  0.183000  0.339000  0.839000  1.0  0.0717
  H  H129  1  0.520000  0.300000  0.950000  1.0  -0.0454
  H  H130  1  0.567000  0.339000  0.911000  1.0  0.0705
  H  H131  1  0.520000  0.800000  0.450000  1.0  -0.0454
  H  H132  1  0.567000  0.839000  0.411000  1.0  0.0705
  H  H133  1  0.020000  0.800000  0.950000  1.0  -0.0454
  H  H134  1  0.067000  0.839000  0.911000  1.0  0.0705
  H  H135  1  0.950000  0.450000  0.230000  1.0  -0.0471
  H  H136  1  0.911000  0.411000  0.183000  1.0  0.0738
  H  H137  1  0.950000  0.950000  0.730000  1.0  -0.0471
  H  H138  1  0.911000  0.911000  0.683000  1.0  0.0738
  H  H139  1  0.450000  0.300000  0.020000  1.0  -0.0496
  H  H140  1  0.411000  0.339000  0.067000  1.0  0.0729
  H  H141  1  0.450000  0.800000  0.520000  1.0  -0.0496
  H  H142  1  0.411000  0.839000  0.567000  1.0  0.0729
  H  H143  1  0.950000  0.800000  0.020000  1.0  -0.0496
  H  H144  1  0.911000  0.839000  0.067000  1.0  0.0729
  H  H145  1  0.300000  0.950000  0.520000  1.0  -0.046
  H  H146  1  0.339000  0.911000  0.567000  1.0  0.0731
  H  H147  1  0.800000  0.950000  0.020000  1.0  -0.046
  H  H148  1  0.839000  0.911000  0.067000  1.0  0.0731
  H  H149  1  0.800000  0.800000  0.730000  1.0  -0.0437
  H  H150  1  0.839000  0.839000  0.683000  1.0  0.0734
  H  H151  1  0.800000  0.300000  0.230000  1.0  -0.0437
  H  H152  1  0.839000  0.339000  0.183000  1.0  0.0734
  H  H153  1  0.300000  0.800000  0.230000  1.0  -0.0437
  H  H154  1  0.339000  0.839000  0.183000  1.0  0.0734
  H  H155  1  0.300000  0.300000  0.730000  1.0  -0.0437
  H  H156  1  0.339000  0.339000  0.683000  1.0  0.0734
  H  H157  1  0.520000  0.950000  0.300000  1.0  -0.0466
  H  H158  1  0.567000  0.911000  0.339000  1.0  0.0725
  H  H159  1  0.520000  0.450000  0.800000  1.0  -0.0466
  H  H160  1  0.567000  0.411000  0.839000  1.0  0.0725
  H  H161  1  0.020000  0.300000  0.450000  1.0  -0.0454
  H  H162  1  0.067000  0.339000  0.411000  1.0  0.0705
  H  H163  1  0.230000  0.450000  0.950000  1.0  -0.0482
  H  H164  1  0.183000  0.411000  0.911000  1.0  0.0709
  H  H165  1  0.730000  0.450000  0.450000  1.0  -0.0482
  H  H166  1  0.683000  0.411000  0.411000  1.0  0.0709
  H  H167  1  0.300000  0.520000  0.950000  1.0  -0.0466
  H  H168  1  0.339000  0.567000  0.911000  1.0  0.0724
  H  H169  1  0.800000  0.520000  0.450000  1.0  -0.0466
  H  H170  1  0.839000  0.567000  0.411000  1.0  0.0724
  H  H171  1  0.450000  0.020000  0.300000  1.0  -0.0514
  H  H172  1  0.411000  0.067000  0.339000  1.0  0.0755
  H  H173  1  0.450000  0.520000  0.800000  1.0  -0.0514
  H  H174  1  0.411000  0.567000  0.839000  1.0  0.0755
  H  H175  1  0.950000  0.230000  0.450000  1.0  -0.0477
  H  H176  1  0.911000  0.183000  0.411000  1.0  0.07
  H  H177  1  0.950000  0.300000  0.520000  1.0  -0.0496
  H  H178  1  0.911000  0.339000  0.567000  1.0  0.0729
  H  H179  1  0.300000  0.450000  0.020000  1.0  -0.046
  H  H180  1  0.339000  0.411000  0.067000  1.0  0.0731
  H  H181  1  0.800000  0.450000  0.520000  1.0  -0.046
  H  H182  1  0.839000  0.411000  0.567000  1.0  0.0731
  H  H183  1  0.450000  0.950000  0.230000  1.0  -0.0471
  H  H184  1  0.411000  0.911000  0.183000  1.0  0.0738
  H  H185  1  0.450000  0.450000  0.730000  1.0  -0.0471
  H  H186  1  0.411000  0.411000  0.683000  1.0  0.0738
  H  H187  1  0.050000  0.480000  0.700000  1.0  -0.0443
  H  H188  1  0.089000  0.433000  0.661000  1.0  0.07
  H  H189  1  0.050000  0.980000  0.200000  1.0  -0.0443
  H  H190  1  0.089000  0.933000  0.161000  1.0  0.07
  H  H191  1  0.550000  0.770000  0.050000  1.0  -0.0483
  H  H192  1  0.589000  0.817000  0.089000  1.0  0.0752
  H  H193  1  0.700000  0.980000  0.550000  1.0  -0.0495
  H  H194  1  0.661000  0.933000  0.589000  1.0  0.0723
  H  H195  1  0.200000  0.980000  0.050000  1.0  -0.0495
  H  H196  1  0.161000  0.933000  0.089000  1.0  0.0723
  H  H197  1  0.980000  0.550000  0.700000  1.0  -0.048
  H  H198  1  0.933000  0.589000  0.661000  1.0  0.0705
  H  H199  1  0.980000  0.050000  0.200000  1.0  -0.048
  H  H200  1  0.933000  0.089000  0.161000  1.0  0.0705
  H  H201  1  0.770000  0.050000  0.550000  1.0  -0.0467
  H  H202  1  0.817000  0.089000  0.589000  1.0  0.0714
  H  H203  1  0.270000  0.050000  0.050000  1.0  -0.0467
  H  H204  1  0.317000  0.089000  0.089000  1.0  0.0714
  H  H205  1  0.480000  0.700000  0.050000  1.0  -0.0505
  H  H206  1  0.433000  0.661000  0.089000  1.0  0.0732
  H  H207  1  0.050000  0.550000  0.770000  1.0  -0.0464
  H  H208  1  0.089000  0.589000  0.817000  1.0  0.0727
  H  H209  1  0.050000  0.050000  0.270000  1.0  -0.0464
  H  H210  1  0.089000  0.089000  0.317000  1.0  0.0727
  H  H211  1  0.550000  0.700000  0.980000  1.0  -0.0436
  H  H212  1  0.589000  0.661000  0.933000  1.0  0.0745
  H  H213  1  0.700000  0.050000  0.480000  1.0  -0.0467
  H  H214  1  0.661000  0.089000  0.433000  1.0  0.0729
  H  H215  1  0.200000  0.050000  0.980000  1.0  -0.0467
  H  H216  1  0.161000  0.089000  0.933000  1.0  0.0729
  C  C217  1  0.387100  0.152000  0.152000  1.0  0.1151
  C  C218  1  0.311700  0.176300  0.176300  1.0  0.0175
  C  C219  1  0.387100  0.652000  0.652000  1.0  0.1151
  C  C220  1  0.311700  0.676300  0.676300  1.0  0.0175
  C  C221  1  0.887100  0.152000  0.652000  1.0  0.1151
  C  C222  1  0.811700  0.176300  0.676300  1.0  0.0175
  C  C223  1  0.887100  0.652000  0.152000  1.0  0.1151
  C  C224  1  0.811700  0.676300  0.176300  1.0  0.0175
  C  C225  1  0.362900  0.098000  0.652000  1.0  0.113
  C  C226  1  0.438300  0.073700  0.676300  1.0  0.0177
  C  C227  1  0.362900  0.598000  0.152000  1.0  0.113
  C  C228  1  0.438300  0.573700  0.176300  1.0  0.0177
  C  C229  1  0.862900  0.652000  0.598000  1.0  0.1127
  C  C230  1  0.938300  0.676300  0.573700  1.0  0.0172
  C  C231  1  0.862900  0.152000  0.098000  1.0  0.1127
  C  C232  1  0.938300  0.176300  0.073700  1.0  0.0172
  C  C233  1  0.362900  0.152000  0.598000  1.0  0.1127
  C  C234  1  0.438300  0.176300  0.573700  1.0  0.0172
  C  C235  1  0.887100  0.598000  0.098000  1.0  0.1146
  C  C236  1  0.811700  0.573700  0.073700  1.0  0.0186
  C  C237  1  0.387100  0.598000  0.598000  1.0  0.1146
  C  C238  1  0.311700  0.573700  0.573700  1.0  0.0186
  C  C239  1  0.152000  0.387100  0.152000  1.0  0.1234
  C  C240  1  0.176300  0.311700  0.176300  1.0  0.0171
  C  C241  1  0.152000  0.887100  0.652000  1.0  0.1234
  C  C242  1  0.176300  0.811700  0.676300  1.0  0.0171
  C  C243  1  0.652000  0.387100  0.652000  1.0  0.1234
  C  C244  1  0.676300  0.311700  0.676300  1.0  0.0171
  C  C245  1  0.652000  0.887100  0.152000  1.0  0.1234
  C  C246  1  0.676300  0.811700  0.176300  1.0  0.0171
  C  C247  1  0.652000  0.362900  0.098000  1.0  0.1227
  C  C248  1  0.676300  0.438300  0.073700  1.0  0.0157
  C  C249  1  0.152000  0.362900  0.598000  1.0  0.1227
  C  C250  1  0.176300  0.438300  0.573700  1.0  0.0157
  C  C251  1  0.598000  0.862900  0.652000  1.0  0.1197
  C  C252  1  0.573700  0.938300  0.676300  1.0  0.0168
  C  C253  1  0.598000  0.362900  0.152000  1.0  0.1197
  C  C254  1  0.573700  0.438300  0.176300  1.0  0.0168
  C  C255  1  0.098000  0.887100  0.598000  1.0  0.1194
  C  C256  1  0.073700  0.811700  0.573700  1.0  0.0161
  C  C257  1  0.098000  0.387100  0.098000  1.0  0.1194
  C  C258  1  0.073700  0.311700  0.073700  1.0  0.0161
  C  C259  1  0.598000  0.387100  0.598000  1.0  0.1194
  C  C260  1  0.573700  0.311700  0.573700  1.0  0.0161
  C  C261  1  0.152000  0.152000  0.387100  1.0  0.1213
  C  C262  1  0.176300  0.176300  0.311700  1.0  0.0167
  C  C263  1  0.152000  0.652000  0.887100  1.0  0.1213
  C  C264  1  0.176300  0.676300  0.811700  1.0  0.0167
  C  C265  1  0.652000  0.152000  0.887100  1.0  0.1213
  C  C266  1  0.676300  0.176300  0.811700  1.0  0.0167
  C  C267  1  0.652000  0.652000  0.387100  1.0  0.1213
  C  C268  1  0.676300  0.676300  0.311700  1.0  0.0167
  C  C269  1  0.098000  0.652000  0.362900  1.0  0.1172
  C  C270  1  0.073700  0.676300  0.438300  1.0  0.0165
  C  C271  1  0.098000  0.152000  0.862900  1.0  0.1172
  C  C272  1  0.073700  0.176300  0.938300  1.0  0.0165
  C  C273  1  0.598000  0.152000  0.362900  1.0  0.1172
  C  C274  1  0.573700  0.176300  0.438300  1.0  0.0165
  C  C275  1  0.652000  0.598000  0.862900  1.0  0.12
  C  C276  1  0.676300  0.573700  0.938300  1.0  0.0164
  C  C277  1  0.152000  0.598000  0.362900  1.0  0.12
  C  C278  1  0.176300  0.573700  0.438300  1.0  0.0164
  C  C279  1  0.598000  0.098000  0.887100  1.0  0.1178
  C  C280  1  0.573700  0.073700  0.811700  1.0  0.0178
  C  C281  1  0.598000  0.598000  0.387100  1.0  0.1178
  C  C282  1  0.573700  0.573700  0.311700  1.0  0.0178
  C  C283  1  0.902000  0.637100  0.348000  1.0  0.123
  C  C284  1  0.926300  0.561700  0.323700  1.0  0.0159
  C  C285  1  0.902000  0.137100  0.848000  1.0  0.123
  C  C286  1  0.926300  0.061700  0.823700  1.0  0.0159
  C  C287  1  0.848000  0.612900  0.848000  1.0  0.1189
  C  C288  1  0.823700  0.688300  0.823700  1.0  0.0168
  C  C289  1  0.848000  0.112900  0.348000  1.0  0.1189
  C  C290  1  0.823700  0.188300  0.323700  1.0  0.0168
  C  C291  1  0.348000  0.612900  0.348000  1.0  0.1189
  C  C292  1  0.323700  0.688300  0.323700  1.0  0.0168
  C  C293  1  0.348000  0.112900  0.848000  1.0  0.1189
  C  C294  1  0.323700  0.188300  0.823700  1.0  0.0168
  C  C295  1  0.402000  0.112900  0.902000  1.0  0.1233
  C  C296  1  0.426300  0.188300  0.926300  1.0  0.0151
  C  C297  1  0.402000  0.612900  0.402000  1.0  0.1233
  C  C298  1  0.426300  0.688300  0.426300  1.0  0.0151
  C  C299  1  0.902000  0.612900  0.902000  1.0  0.1233
  C  C300  1  0.926300  0.688300  0.926300  1.0  0.0151
  C  C301  1  0.348000  0.137100  0.402000  1.0  0.1205
  C  C302  1  0.323700  0.061700  0.426300  1.0  0.0178
  C  C303  1  0.848000  0.137100  0.902000  1.0  0.1205
  C  C304  1  0.823700  0.061700  0.926300  1.0  0.0178
  C  C305  1  0.137100  0.402000  0.348000  1.0  0.1148
  C  C306  1  0.061700  0.426300  0.323700  1.0  0.0183
  C  C307  1  0.137100  0.902000  0.848000  1.0  0.1148
  C  C308  1  0.061700  0.926300  0.823700  1.0  0.0183
  C  C309  1  0.112900  0.902000  0.402000  1.0  0.1135
  C  C310  1  0.188300  0.926300  0.426300  1.0  0.0176
  C  C311  1  0.612900  0.902000  0.902000  1.0  0.1135
  C  C312  1  0.688300  0.926300  0.926300  1.0  0.0176
  C  C313  1  0.612900  0.848000  0.848000  1.0  0.1119
  C  C314  1  0.688300  0.823700  0.823700  1.0  0.0172
  C  C315  1  0.612900  0.348000  0.348000  1.0  0.1119
  C  C316  1  0.688300  0.323700  0.323700  1.0  0.0172
  C  C317  1  0.112900  0.848000  0.348000  1.0  0.1119
  C  C318  1  0.188300  0.823700  0.323700  1.0  0.0172
  C  C319  1  0.112900  0.348000  0.848000  1.0  0.1119
  C  C320  1  0.188300  0.323700  0.823700  1.0  0.0172
  C  C321  1  0.637100  0.348000  0.902000  1.0  0.1151
  C  C322  1  0.561700  0.323700  0.926300  1.0  0.0188
  C  C323  1  0.637100  0.848000  0.402000  1.0  0.1151
  C  C324  1  0.561700  0.823700  0.426300  1.0  0.0188
  C  C325  1  0.137100  0.848000  0.902000  1.0  0.1151
  C  C326  1  0.061700  0.823700  0.926300  1.0  0.0188
  C  C327  1  0.902000  0.402000  0.112900  1.0  0.1207
  C  C328  1  0.926300  0.426300  0.188300  1.0  0.0157
  C  C329  1  0.902000  0.902000  0.612900  1.0  0.1207
  C  C330  1  0.926300  0.926300  0.688300  1.0  0.0157
  C  C331  1  0.402000  0.348000  0.137100  1.0  0.1208
  C  C332  1  0.426300  0.323700  0.061700  1.0  0.0166
  C  C333  1  0.402000  0.848000  0.637100  1.0  0.1208
  C  C334  1  0.426300  0.823700  0.561700  1.0  0.0166
  C  C335  1  0.902000  0.848000  0.137100  1.0  0.1208
  C  C336  1  0.926300  0.823700  0.061700  1.0  0.0166
  C  C337  1  0.348000  0.902000  0.637100  1.0  0.1183
  C  C338  1  0.323700  0.926300  0.561700  1.0  0.0173
  C  C339  1  0.848000  0.902000  0.137100  1.0  0.1183
  C  C340  1  0.823700  0.926300  0.061700  1.0  0.0173
  C  C341  1  0.848000  0.848000  0.612900  1.0  0.1162
  C  C342  1  0.823700  0.823700  0.688300  1.0  0.0168
  C  C343  1  0.848000  0.348000  0.112900  1.0  0.1162
  C  C344  1  0.823700  0.323700  0.188300  1.0  0.0168
  C  C345  1  0.348000  0.848000  0.112900  1.0  0.1162
  C  C346  1  0.323700  0.823700  0.188300  1.0  0.0168
  C  C347  1  0.348000  0.348000  0.612900  1.0  0.1162
  C  C348  1  0.323700  0.323700  0.688300  1.0  0.0168
  C  C349  1  0.637100  0.902000  0.348000  1.0  0.1148
  C  C350  1  0.561700  0.926300  0.323700  1.0  0.0183
  C  C351  1  0.637100  0.402000  0.848000  1.0  0.1148
  C  C352  1  0.561700  0.426300  0.823700  1.0  0.0183
  C  C353  1  0.137100  0.348000  0.402000  1.0  0.1151
  C  C354  1  0.061700  0.323700  0.426300  1.0  0.0188
  C  C355  1  0.112900  0.402000  0.902000  1.0  0.1135
  C  C356  1  0.188300  0.426300  0.926300  1.0  0.0176
  C  C357  1  0.612900  0.402000  0.402000  1.0  0.1135
  C  C358  1  0.688300  0.426300  0.426300  1.0  0.0176
  C  C359  1  0.348000  0.637100  0.902000  1.0  0.1205
  C  C360  1  0.323700  0.561700  0.926300  1.0  0.0178
  C  C361  1  0.848000  0.637100  0.402000  1.0  0.1205
  C  C362  1  0.823700  0.561700  0.426300  1.0  0.0178
  C  C363  1  0.402000  0.137100  0.348000  1.0  0.123
  C  C364  1  0.426300  0.061700  0.323700  1.0  0.0159
  C  C365  1  0.402000  0.637100  0.848000  1.0  0.123
  C  C366  1  0.426300  0.561700  0.823700  1.0  0.0159
  C  C367  1  0.902000  0.112900  0.402000  1.0  0.1233
  C  C368  1  0.926300  0.188300  0.426300  1.0  0.0151
  C  C369  1  0.902000  0.348000  0.637100  1.0  0.1208
  C  C370  1  0.926300  0.323700  0.561700  1.0  0.0166
  C  C371  1  0.348000  0.402000  0.137100  1.0  0.1183
  C  C372  1  0.323700  0.426300  0.061700  1.0  0.0173
  C  C373  1  0.848000  0.402000  0.637100  1.0  0.1183
  C  C374  1  0.823700  0.426300  0.561700  1.0  0.0173
  C  C375  1  0.402000  0.902000  0.112900  1.0  0.1207
  C  C376  1  0.426300  0.926300  0.188300  1.0  0.0157
  C  C377  1  0.402000  0.402000  0.612900  1.0  0.1207
  C  C378  1  0.426300  0.426300  0.688300  1.0  0.0157
  C  C379  1  0.098000  0.362900  0.652000  1.0  0.1197
  C  C380  1  0.073700  0.438300  0.676300  1.0  0.0168
  C  C381  1  0.098000  0.862900  0.152000  1.0  0.1197
  C  C382  1  0.073700  0.938300  0.176300  1.0  0.0168
  C  C383  1  0.598000  0.887100  0.098000  1.0  0.1194
  C  C384  1  0.573700  0.811700  0.073700  1.0  0.0161
  C  C385  1  0.652000  0.862900  0.598000  1.0  0.1227
  C  C386  1  0.676300  0.938300  0.573700  1.0  0.0157
  C  C387  1  0.152000  0.862900  0.098000  1.0  0.1227
  C  C388  1  0.176300  0.938300  0.073700  1.0  0.0157
  C  C389  1  0.862900  0.598000  0.652000  1.0  0.113
  C  C390  1  0.938300  0.573700  0.676300  1.0  0.0177
  C  C391  1  0.862900  0.098000  0.152000  1.0  0.113
  C  C392  1  0.938300  0.073700  0.176300  1.0  0.0177
  C  C393  1  0.887100  0.098000  0.598000  1.0  0.1146
  C  C394  1  0.811700  0.073700  0.573700  1.0  0.0186
  C  C395  1  0.387100  0.098000  0.098000  1.0  0.1146
  C  C396  1  0.311700  0.073700  0.073700  1.0  0.0186
  C  C397  1  0.362900  0.652000  0.098000  1.0  0.1127
  C  C398  1  0.438300  0.676300  0.073700  1.0  0.0172
  C  C399  1  0.098000  0.598000  0.887100  1.0  0.1178
  C  C400  1  0.073700  0.573700  0.811700  1.0  0.0178
  C  C401  1  0.098000  0.098000  0.387100  1.0  0.1178
  C  C402  1  0.073700  0.073700  0.311700  1.0  0.0178
  C  C403  1  0.598000  0.652000  0.862900  1.0  0.1172
  C  C404  1  0.573700  0.676300  0.938300  1.0  0.0165
  C  C405  1  0.652000  0.098000  0.362900  1.0  0.12
  C  C406  1  0.676300  0.073700  0.438300  1.0  0.0164
  C  C407  1  0.152000  0.098000  0.862900  1.0  0.12
  C  C408  1  0.176300  0.073700  0.938300  1.0  0.0164
  N  N409  1  0.502100  0.125000  0.125000  1.0  -0.1787
  N  N410  1  0.502100  0.625000  0.625000  1.0  -0.1787
  N  N411  1  0.002100  0.125000  0.625000  1.0  -0.1787
  N  N412  1  0.002100  0.625000  0.125000  1.0  -0.1787
  N  N413  1  0.247900  0.125000  0.625000  1.0  -0.1777
  N  N414  1  0.747900  0.625000  0.625000  1.0  -0.1777
  N  N415  1  0.747900  0.125000  0.125000  1.0  -0.1777
  N  N416  1  0.125000  0.502100  0.125000  1.0  -0.1796
  N  N417  1  0.125000  0.002100  0.625000  1.0  -0.1796
  N  N418  1  0.625000  0.002100  0.125000  1.0  -0.1796
  N  N419  1  0.625000  0.247900  0.125000  1.0  -0.1785
  N  N420  1  0.625000  0.747900  0.625000  1.0  -0.1785
  N  N421  1  0.625000  0.502100  0.625000  1.0  -0.1796
  N  N422  1  0.125000  0.125000  0.502100  1.0  -0.1782
  N  N423  1  0.125000  0.625000  0.002100  1.0  -0.1782
  N  N424  1  0.625000  0.125000  0.002100  1.0  -0.1782
  N  N425  1  0.125000  0.625000  0.247900  1.0  -0.1761
  N  N426  1  0.125000  0.125000  0.747900  1.0  -0.1761
  N  N427  1  0.625000  0.625000  0.747900  1.0  -0.1761
  N  N428  1  0.625000  0.625000  0.502100  1.0  -0.1782
  N  N429  1  0.875000  0.752100  0.375000  1.0  -0.1796
  N  N430  1  0.875000  0.252100  0.875000  1.0  -0.1796
  N  N431  1  0.875000  0.497900  0.875000  1.0  -0.1785
  N  N432  1  0.375000  0.997900  0.875000  1.0  -0.1785
  N  N433  1  0.375000  0.497900  0.375000  1.0  -0.1785
  N  N434  1  0.375000  0.252100  0.375000  1.0  -0.1796
  N  N435  1  0.252100  0.375000  0.375000  1.0  -0.1787
  N  N436  1  0.252100  0.875000  0.875000  1.0  -0.1787
  N  N437  1  0.997900  0.875000  0.375000  1.0  -0.1777
  N  N438  1  0.497900  0.875000  0.875000  1.0  -0.1777
  N  N439  1  0.497900  0.375000  0.375000  1.0  -0.1777
  N  N440  1  0.752100  0.375000  0.875000  1.0  -0.1787
  N  N441  1  0.875000  0.375000  0.997900  1.0  -0.1761
  N  N442  1  0.375000  0.375000  0.252100  1.0  -0.1782
  N  N443  1  0.875000  0.875000  0.252100  1.0  -0.1782
  N  N444  1  0.375000  0.875000  0.752100  1.0  -0.1782
  N  N445  1  0.875000  0.875000  0.497900  1.0  -0.1761
  N  N446  1  0.752100  0.875000  0.375000  1.0  -0.1787
  N  N447  1  0.997900  0.375000  0.875000  1.0  -0.1777
  N  N448  1  0.375000  0.752100  0.875000  1.0  -0.1796
  N  N449  1  0.875000  0.997900  0.375000  1.0  -0.1785
  N  N450  1  0.875000  0.375000  0.752100  1.0  -0.1782
  N  N451  1  0.375000  0.875000  0.997900  1.0  -0.1761
  N  N452  1  0.375000  0.375000  0.497900  1.0  -0.1761
  N  N453  1  0.125000  0.247900  0.625000  1.0  -0.1785
  N  N454  1  0.125000  0.747900  0.125000  1.0  -0.1785
  N  N455  1  0.247900  0.625000  0.125000  1.0  -0.1777
  N  N456  1  0.625000  0.125000  0.247900  1.0  -0.1761
  N  N457  1  0.458400  0.168100  0.168100  1.0  -0.2625
  N  N458  1  0.458400  0.668100  0.668100  1.0  -0.2625
  N  N459  1  0.958400  0.168100  0.668100  1.0  -0.2625
  N  N460  1  0.958400  0.668100  0.168100  1.0  -0.2625
  N  N461  1  0.291600  0.081900  0.668100  1.0  -0.2629
  N  N462  1  0.291600  0.581900  0.168100  1.0  -0.2629
  N  N463  1  0.791600  0.668100  0.581900  1.0  -0.2628
  N  N464  1  0.791600  0.168100  0.081900  1.0  -0.2628
  N  N465  1  0.291600  0.168100  0.581900  1.0  -0.2628
  N  N466  1  0.958400  0.581900  0.081900  1.0  -0.2635
  N  N467  1  0.458400  0.581900  0.581900  1.0  -0.2635
  N  N468  1  0.168100  0.458400  0.168100  1.0  -0.264
  N  N469  1  0.168100  0.958400  0.668100  1.0  -0.264
  N  N470  1  0.668100  0.458400  0.668100  1.0  -0.264
  N  N471  1  0.668100  0.958400  0.168100  1.0  -0.264
  N  N472  1  0.668100  0.291600  0.081900  1.0  -0.2625
  N  N473  1  0.168100  0.291600  0.581900  1.0  -0.2625
  N  N474  1  0.581900  0.791600  0.668100  1.0  -0.2621
  N  N475  1  0.581900  0.291600  0.168100  1.0  -0.2621
  N  N476  1  0.081900  0.958400  0.581900  1.0  -0.2634
  N  N477  1  0.081900  0.458400  0.081900  1.0  -0.2634
  N  N478  1  0.581900  0.458400  0.581900  1.0  -0.2634
  N  N479  1  0.168100  0.168100  0.458400  1.0  -0.2621
  N  N480  1  0.168100  0.668100  0.958400  1.0  -0.2621
  N  N481  1  0.668100  0.168100  0.958400  1.0  -0.2621
  N  N482  1  0.668100  0.668100  0.458400  1.0  -0.2621
  N  N483  1  0.081900  0.668100  0.291600  1.0  -0.2606
  N  N484  1  0.081900  0.168100  0.791600  1.0  -0.2606
  N  N485  1  0.581900  0.168100  0.291600  1.0  -0.2606
  N  N486  1  0.668100  0.581900  0.791600  1.0  -0.2615
  N  N487  1  0.168100  0.581900  0.291600  1.0  -0.2615
  N  N488  1  0.581900  0.081900  0.958400  1.0  -0.2617
  N  N489  1  0.581900  0.581900  0.458400  1.0  -0.2617
  N  N490  1  0.918100  0.708400  0.331900  1.0  -0.2643
  N  N491  1  0.918100  0.208400  0.831900  1.0  -0.2643
  N  N492  1  0.831900  0.541600  0.831900  1.0  -0.2619
  N  N493  1  0.831900  0.041600  0.331900  1.0  -0.2619
  N  N494  1  0.331900  0.541600  0.331900  1.0  -0.2619
  N  N495  1  0.331900  0.041600  0.831900  1.0  -0.2619
  N  N496  1  0.418100  0.041600  0.918100  1.0  -0.2619
  N  N497  1  0.418100  0.541600  0.418100  1.0  -0.2619
  N  N498  1  0.918100  0.541600  0.918100  1.0  -0.2619
  N  N499  1  0.331900  0.208400  0.418100  1.0  -0.2641
  N  N500  1  0.831900  0.208400  0.918100  1.0  -0.2641
  N  N501  1  0.208400  0.418100  0.331900  1.0  -0.2632
  N  N502  1  0.208400  0.918100  0.831900  1.0  -0.2632
  N  N503  1  0.041600  0.918100  0.418100  1.0  -0.2628
  N  N504  1  0.541600  0.918100  0.918100  1.0  -0.2628
  N  N505  1  0.541600  0.831900  0.831900  1.0  -0.263
  N  N506  1  0.541600  0.331900  0.331900  1.0  -0.263
  N  N507  1  0.041600  0.831900  0.331900  1.0  -0.263
  N  N508  1  0.041600  0.331900  0.831900  1.0  -0.263
  N  N509  1  0.708400  0.331900  0.918100  1.0  -0.2627
  N  N510  1  0.708400  0.831900  0.418100  1.0  -0.2627
  N  N511  1  0.208400  0.831900  0.918100  1.0  -0.2627
  N  N512  1  0.918100  0.418100  0.041600  1.0  -0.261
  N  N513  1  0.918100  0.918100  0.541600  1.0  -0.261
  N  N514  1  0.418100  0.331900  0.208400  1.0  -0.2619
  N  N515  1  0.418100  0.831900  0.708400  1.0  -0.2619
  N  N516  1  0.918100  0.831900  0.208400  1.0  -0.2619
  N  N517  1  0.331900  0.918100  0.708400  1.0  -0.2619
  N  N518  1  0.831900  0.918100  0.208400  1.0  -0.2619
  N  N519  1  0.831900  0.831900  0.541600  1.0  -0.2612
  N  N520  1  0.831900  0.331900  0.041600  1.0  -0.2612
  N  N521  1  0.331900  0.831900  0.041600  1.0  -0.2612
  N  N522  1  0.331900  0.331900  0.541600  1.0  -0.2612
  N  N523  1  0.708400  0.918100  0.331900  1.0  -0.2632
  N  N524  1  0.708400  0.418100  0.831900  1.0  -0.2632
  N  N525  1  0.208400  0.331900  0.418100  1.0  -0.2627
  N  N526  1  0.041600  0.418100  0.918100  1.0  -0.2628
  N  N527  1  0.541600  0.418100  0.418100  1.0  -0.2628
  N  N528  1  0.331900  0.708400  0.918100  1.0  -0.2641
  N  N529  1  0.831900  0.708400  0.418100  1.0  -0.2641
  N  N530  1  0.418100  0.208400  0.331900  1.0  -0.2643
  N  N531  1  0.418100  0.708400  0.831900  1.0  -0.2643
  N  N532  1  0.918100  0.041600  0.418100  1.0  -0.2619
  N  N533  1  0.918100  0.331900  0.708400  1.0  -0.2619
  N  N534  1  0.331900  0.418100  0.208400  1.0  -0.2619
  N  N535  1  0.831900  0.418100  0.708400  1.0  -0.2619
  N  N536  1  0.418100  0.918100  0.041600  1.0  -0.261
  N  N537  1  0.418100  0.418100  0.541600  1.0  -0.261
  N  N538  1  0.081900  0.291600  0.668100  1.0  -0.2621
  N  N539  1  0.081900  0.791600  0.168100  1.0  -0.2621
  N  N540  1  0.581900  0.958400  0.081900  1.0  -0.2634
  N  N541  1  0.668100  0.791600  0.581900  1.0  -0.2625
  N  N542  1  0.168100  0.791600  0.081900  1.0  -0.2625
  N  N543  1  0.791600  0.581900  0.668100  1.0  -0.2629
  N  N544  1  0.791600  0.081900  0.168100  1.0  -0.2629
  N  N545  1  0.958400  0.081900  0.581900  1.0  -0.2635
  N  N546  1  0.458400  0.081900  0.081900  1.0  -0.2635
  N  N547  1  0.291600  0.668100  0.081900  1.0  -0.2628
  N  N548  1  0.081900  0.581900  0.958400  1.0  -0.2617
  N  N549  1  0.081900  0.081900  0.458400  1.0  -0.2617
  N  N550  1  0.581900  0.668100  0.791600  1.0  -0.2606
  N  N551  1  0.668100  0.081900  0.291600  1.0  -0.2615
  N  N552  1  0.168100  0.081900  0.791600  1.0  -0.2615
