# generated using pymatgen
data_Zn2H6C12(NO2)3
_symmetry_space_group_name_H-M   'P 1'
_cell_length_a   22.16800000
_cell_length_b   22.16800000
_cell_length_c   37.01900000
_cell_angle_alpha   90.00000000
_cell_angle_beta   90.00000000
_cell_angle_gamma   120.00000000
_symmetry_Int_Tables_number   1
_chemical_formula_structural   Zn2H6C12(NO2)3
_chemical_formula_sum   'Zn36 H108 C216 N54 O108'
_cell_volume   15754.63478851
_cell_formula_units_Z   18
loop_
 _symmetry_equiv_pos_site_id
 _symmetry_equiv_pos_as_xyz
  1  'x, y, z'
loop_
 _atom_site_type_symbol
 _atom_site_label
 _atom_site_symmetry_multiplicity
 _atom_site_fract_x
 _atom_site_fract_y
 _atom_site_fract_z
 _atom_site_occupancy
 _atom_site_charge
  Zn  Zn1  1  0.080070  0.619900  0.953890  1.0  1.0927
  Zn  Zn2  1  0.993750  0.555630  0.023960  1.0  1.0152
  Zn  Zn3  1  0.746740  0.953230  0.287220  1.0  1.0927
  Zn  Zn4  1  0.660410  0.888960  0.357300  1.0  1.0058
  Zn  Zn5  1  0.413410  0.286560  0.620550  1.0  1.1111
  Zn  Zn6  1  0.327080  0.222300  0.690630  1.0  1.0156
  Zn  Zn7  1  0.380100  0.460180  0.953890  1.0  1.1036
  Zn  Zn8  1  0.444370  0.438120  0.023960  1.0  1.0168
  Zn  Zn9  1  0.046770  0.793510  0.287220  1.0  1.1036
  Zn  Zn10  1  0.111040  0.771450  0.357300  1.0  1.0167
  Zn  Zn11  1  0.713440  0.126850  0.620550  1.0  1.1081
  Zn  Zn12  1  0.777700  0.104790  0.690630  1.0  1.0168
  Zn  Zn13  1  0.539820  0.919930  0.953890  1.0  1.111
  Zn  Zn14  1  0.561880  0.006250  0.023960  1.0  1.0143
  Zn  Zn15  1  0.206490  0.253260  0.287220  1.0  1.111
  Zn  Zn16  1  0.228550  0.339590  0.357300  1.0  1.016
  Zn  Zn17  1  0.873150  0.586590  0.620550  1.0  1.1125
  Zn  Zn18  1  0.895210  0.672920  0.690630  1.0  1.0162
  Zn  Zn19  1  0.919930  0.380100  0.046110  1.0  1.0932
  Zn  Zn20  1  0.006250  0.444370  0.976040  1.0  1.0162
  Zn  Zn21  1  0.586590  0.713440  0.379450  1.0  1.1125
  Zn  Zn22  1  0.672920  0.777700  0.309370  1.0  1.0165
  Zn  Zn23  1  0.253260  0.046770  0.712780  1.0  1.0932
  Zn  Zn24  1  0.339590  0.111040  0.642700  1.0  1.0067
  Zn  Zn25  1  0.619900  0.539820  0.046110  1.0  1.105
  Zn  Zn26  1  0.555630  0.561880  0.976040  1.0  1.0169
  Zn  Zn27  1  0.286560  0.873150  0.379450  1.0  1.1095
  Zn  Zn28  1  0.222300  0.895210  0.309370  1.0  1.0169
  Zn  Zn29  1  0.953230  0.206490  0.712780  1.0  1.105
  Zn  Zn30  1  0.888960  0.228550  0.642700  1.0  1.0168
  Zn  Zn31  1  0.460180  0.080070  0.046110  1.0  1.1147
  Zn  Zn32  1  0.438120  0.993750  0.976040  1.0  1.0136
  Zn  Zn33  1  0.126850  0.413410  0.379450  1.0  1.1154
  Zn  Zn34  1  0.104790  0.327080  0.309370  1.0  1.0156
  Zn  Zn35  1  0.793510  0.746740  0.712780  1.0  1.1147
  Zn  Zn36  1  0.771450  0.660410  0.642700  1.0  1.0155
  H  H37  1  0.105200  0.559600  0.006400  1.0  0.334
  H  H38  1  0.743700  0.639400  0.911400  1.0  0.1086
  H  H39  1  0.818800  0.587000  0.996600  1.0  0.1077
  H  H40  1  0.930300  0.653800  0.905000  1.0  0.1091
  H  H41  1  0.809000  0.728200  0.801600  1.0  0.1052
  H  H42  1  0.925500  0.646900  0.772500  1.0  0.0957
  H  H43  1  0.771870  0.892930  0.339730  1.0  0.334
  H  H44  1  0.410370  0.972730  0.244730  1.0  0.1086
  H  H45  1  0.485470  0.920330  0.329930  1.0  0.1077
  H  H46  1  0.596970  0.987130  0.238330  1.0  0.1091
  H  H47  1  0.475670  0.061530  0.134930  1.0  0.1052
  H  H48  1  0.592170  0.980230  0.105830  1.0  0.0957
  H  H49  1  0.438530  0.226270  0.673070  1.0  0.3335
  H  H50  1  0.077030  0.306070  0.578070  1.0  0.1086
  H  H51  1  0.152130  0.253670  0.663270  1.0  0.1077
  H  H52  1  0.263630  0.320470  0.571670  1.0  0.1074
  H  H53  1  0.142330  0.394870  0.468270  1.0  0.1053
  H  H54  1  0.258830  0.313570  0.439170  1.0  0.0956
  H  H55  1  0.440400  0.545600  0.006400  1.0  0.3349
  H  H56  1  0.360600  0.104300  0.911400  1.0  0.1081
  H  H57  1  0.413000  0.231800  0.996600  1.0  0.1075
  H  H58  1  0.346200  0.276500  0.905000  1.0  0.1071
  H  H59  1  0.271800  0.080800  0.801600  1.0  0.1079
  H  H60  1  0.353100  0.278600  0.772500  1.0  0.0939
  H  H61  1  0.107070  0.878930  0.339730  1.0  0.3349
  H  H62  1  0.027270  0.437630  0.244730  1.0  0.1088
  H  H63  1  0.079670  0.565130  0.329930  1.0  0.1075
  H  H64  1  0.012870  0.609830  0.238330  1.0  0.1085
  H  H65  1  0.938470  0.414130  0.134930  1.0  0.1079
  H  H66  1  0.019770  0.611930  0.105830  1.0  0.0939
  H  H67  1  0.773730  0.212270  0.673070  1.0  0.3357
  H  H68  1  0.693930  0.770970  0.578070  1.0  0.1088
  H  H69  1  0.746330  0.898470  0.663270  1.0  0.1075
  H  H70  1  0.679530  0.943170  0.571670  1.0  0.1071
  H  H71  1  0.605130  0.747470  0.468270  1.0  0.108
  H  H72  1  0.686430  0.945270  0.439170  1.0  0.0937
  H  H73  1  0.454400  0.894800  0.006400  1.0  0.3356
  H  H74  1  0.895700  0.256300  0.911400  1.0  0.1072
  H  H75  1  0.768200  0.181200  0.996600  1.0  0.1075
  H  H76  1  0.723500  0.069700  0.905000  1.0  0.1084
  H  H77  1  0.919200  0.191000  0.801600  1.0  0.1047
  H  H78  1  0.721400  0.074500  0.772500  1.0  0.0951
  H  H79  1  0.121070  0.228130  0.339730  1.0  0.3356
  H  H80  1  0.562370  0.589630  0.244730  1.0  0.108
  H  H81  1  0.434870  0.514530  0.329930  1.0  0.1075
  H  H82  1  0.390170  0.403030  0.238330  1.0  0.107
  H  H83  1  0.585870  0.524330  0.134930  1.0  0.1047
  H  H84  1  0.388070  0.407830  0.105830  1.0  0.0951
  H  H85  1  0.787730  0.561470  0.673070  1.0  0.3362
  H  H86  1  0.229030  0.922970  0.578070  1.0  0.108
  H  H87  1  0.101530  0.847870  0.663270  1.0  0.1075
  H  H88  1  0.056830  0.736370  0.571670  1.0  0.107
  H  H89  1  0.252530  0.857670  0.468270  1.0  0.1048
  H  H90  1  0.054730  0.741170  0.439170  1.0  0.0952
  H  H91  1  0.894800  0.440400  0.993600  1.0  0.3361
  H  H92  1  0.256300  0.360600  0.088600  1.0  0.1091
  H  H93  1  0.181200  0.413000  0.003400  1.0  0.1073
  H  H94  1  0.069700  0.346200  0.095000  1.0  0.1095
  H  H95  1  0.191000  0.271800  0.198400  1.0  0.105
  H  H96  1  0.074500  0.353100  0.227500  1.0  0.0951
  H  H97  1  0.561470  0.773730  0.326930  1.0  0.3358
  H  H98  1  0.922970  0.693930  0.421930  1.0  0.1091
  H  H99  1  0.847870  0.746330  0.336730  1.0  0.1073
  H  H100  1  0.736370  0.679530  0.428330  1.0  0.1085
  H  H101  1  0.857670  0.605130  0.531730  1.0  0.1051
  H  H102  1  0.741170  0.686430  0.560830  1.0  0.095
  H  H103  1  0.228130  0.107070  0.660270  1.0  0.3362
  H  H104  1  0.589630  0.027270  0.755270  1.0  0.1091
  H  H105  1  0.514530  0.079670  0.670070  1.0  0.1073
  H  H106  1  0.403030  0.012870  0.761670  1.0  0.1095
  H  H107  1  0.524330  0.938470  0.865070  1.0  0.105
  H  H108  1  0.407830  0.019770  0.894170  1.0  0.0951
  H  H109  1  0.559600  0.454400  0.993600  1.0  0.3335
  H  H110  1  0.639400  0.895700  0.088600  1.0  0.1077
  H  H111  1  0.587000  0.768200  0.003400  1.0  0.1075
  H  H112  1  0.653800  0.723500  0.095000  1.0  0.1078
  H  H113  1  0.728200  0.919200  0.198400  1.0  0.1068
  H  H114  1  0.646900  0.721400  0.227500  1.0  0.0937
  H  H115  1  0.226270  0.787730  0.326930  1.0  0.3342
  H  H116  1  0.306070  0.229030  0.421930  1.0  0.1086
  H  H117  1  0.253670  0.101530  0.336730  1.0  0.1075
  H  H118  1  0.320470  0.056830  0.428330  1.0  0.1078
  H  H119  1  0.394870  0.252530  0.531730  1.0  0.1069
  H  H120  1  0.313570  0.054730  0.560830  1.0  0.0935
  H  H121  1  0.892930  0.121070  0.660270  1.0  0.3335
  H  H122  1  0.972730  0.562370  0.755270  1.0  0.1086
  H  H123  1  0.920330  0.434870  0.670070  1.0  0.1075
  H  H124  1  0.987130  0.390170  0.761670  1.0  0.1088
  H  H125  1  0.061530  0.585870  0.865070  1.0  0.1068
  H  H126  1  0.980230  0.388070  0.894170  1.0  0.0937
  H  H127  1  0.545600  0.105200  0.993600  1.0  0.3345
  H  H128  1  0.104300  0.743700  0.088600  1.0  0.1074
  H  H129  1  0.231800  0.818800  0.003400  1.0  0.1077
  H  H130  1  0.276500  0.930300  0.095000  1.0  0.1084
  H  H131  1  0.080800  0.809000  0.198400  1.0  0.1045
  H  H132  1  0.278600  0.925500  0.227500  1.0  0.0944
  H  H133  1  0.212270  0.438530  0.326930  1.0  0.3356
  H  H134  1  0.770970  0.077030  0.421930  1.0  0.1081
  H  H135  1  0.898470  0.152130  0.336730  1.0  0.1077
  H  H136  1  0.943170  0.263630  0.428330  1.0  0.1071
  H  H137  1  0.747470  0.142330  0.531730  1.0  0.1046
  H  H138  1  0.945270  0.258830  0.560830  1.0  0.0946
  H  H139  1  0.878930  0.771870  0.660270  1.0  0.3345
  H  H140  1  0.437630  0.410370  0.755270  1.0  0.1081
  H  H141  1  0.565130  0.485470  0.670070  1.0  0.1077
  H  H142  1  0.609830  0.596970  0.761670  1.0  0.1071
  H  H143  1  0.414130  0.475670  0.865070  1.0  0.1045
  H  H144  1  0.611930  0.592170  0.894170  1.0  0.0944
  C  C145  1  0.705410  0.592980  0.977870  1.0  0.7184
  C  C146  1  0.771110  0.610990  0.957290  1.0  -0.1629
  C  C147  1  0.778530  0.633520  0.921960  1.0  -0.049
  C  C148  1  0.939690  0.607260  0.969340  1.0  0.7191
  C  C149  1  0.883090  0.618270  0.953720  1.0  -0.173
  C  C150  1  0.823720  0.602890  0.972960  1.0  0.0309
  C  C151  1  0.889880  0.641960  0.917880  1.0  -0.071
  C  C152  1  0.837030  0.647620  0.901800  1.0  0.1578
  C  C153  1  0.879920  0.663630  0.838670  1.0  0.6136
  C  C154  1  0.869370  0.681330  0.802260  1.0  -0.1174
  C  C155  1  0.833360  0.712030  0.788020  1.0  0.0309
  C  C156  1  0.897480  0.667060  0.771900  1.0  0.0152
  C  C157  1  0.372080  0.926310  0.311200  1.0  0.7184
  C  C158  1  0.437780  0.944320  0.290620  1.0  -0.1629
  C  C159  1  0.445200  0.966850  0.255290  1.0  -0.0515
  C  C160  1  0.606360  0.940590  0.302670  1.0  0.7191
  C  C161  1  0.549760  0.951600  0.287050  1.0  -0.173
  C  C162  1  0.490390  0.936220  0.306290  1.0  0.0309
  C  C163  1  0.556550  0.975290  0.251210  1.0  -0.0716
  C  C164  1  0.503700  0.980950  0.235130  1.0  0.1575
  C  C165  1  0.546590  0.996960  0.172000  1.0  0.6136
  C  C166  1  0.536040  0.014660  0.135590  1.0  -0.1174
  C  C167  1  0.500030  0.045360  0.121350  1.0  0.0309
  C  C168  1  0.564150  0.000390  0.105230  1.0  0.0152
  C  C169  1  0.038740  0.259650  0.644540  1.0  0.7184
  C  C170  1  0.104440  0.277660  0.623960  1.0  -0.1629
  C  C171  1  0.111860  0.300190  0.588630  1.0  -0.0489
  C  C172  1  0.273020  0.273930  0.636010  1.0  0.7191
  C  C173  1  0.216420  0.284940  0.620390  1.0  -0.173
  C  C174  1  0.157050  0.269560  0.639630  1.0  0.0309
  C  C175  1  0.223210  0.308630  0.584550  1.0  -0.0668
  C  C176  1  0.170360  0.314290  0.568470  1.0  0.157
  C  C177  1  0.213250  0.330300  0.505340  1.0  0.6136
  C  C178  1  0.202700  0.348000  0.468930  1.0  -0.1173
  C  C179  1  0.166690  0.378700  0.454690  1.0  0.0309
  C  C180  1  0.230810  0.333730  0.438570  1.0  0.0151
  C  C181  1  0.407020  0.112430  0.977870  1.0  0.7191
  C  C182  1  0.389010  0.160120  0.957290  1.0  -0.1615
  C  C183  1  0.366480  0.145010  0.921960  1.0  -0.0513
  C  C184  1  0.392740  0.332430  0.969340  1.0  0.7212
  C  C185  1  0.381730  0.264820  0.953720  1.0  -0.1722
  C  C186  1  0.397110  0.220830  0.972960  1.0  0.0305
  C  C187  1  0.358040  0.247920  0.917880  1.0  -0.0677
  C  C188  1  0.352380  0.189410  0.901800  1.0  0.1582
  C  C189  1  0.336370  0.216290  0.838670  1.0  0.6138
  C  C190  1  0.318670  0.188040  0.802260  1.0  -0.1177
  C  C191  1  0.287970  0.121330  0.788020  1.0  0.0296
  C  C192  1  0.332940  0.230420  0.771900  1.0  0.0125
  C  C193  1  0.073690  0.445760  0.311200  1.0  0.7191
  C  C194  1  0.055680  0.493450  0.290620  1.0  -0.1615
  C  C195  1  0.033150  0.478340  0.255290  1.0  -0.052
  C  C196  1  0.059410  0.665760  0.302670  1.0  0.7212
  C  C197  1  0.048400  0.598150  0.287050  1.0  -0.1722
  C  C198  1  0.063780  0.554160  0.306290  1.0  0.0305
  C  C199  1  0.024710  0.581250  0.251210  1.0  -0.0718
  C  C200  1  0.019050  0.522740  0.235130  1.0  0.1576
  C  C201  1  0.003040  0.549620  0.172000  1.0  0.6138
  C  C202  1  0.985340  0.521370  0.135590  1.0  -0.1177
  C  C203  1  0.954640  0.454660  0.121350  1.0  0.0296
  C  C204  1  0.999610  0.563750  0.105230  1.0  0.0125
  C  C205  1  0.740350  0.779100  0.644540  1.0  0.7191
  C  C206  1  0.722340  0.826790  0.623960  1.0  -0.1615
  C  C207  1  0.699810  0.811680  0.588630  1.0  -0.0497
  C  C208  1  0.726070  0.999100  0.636010  1.0  0.7212
  C  C209  1  0.715060  0.931490  0.620390  1.0  -0.1722
  C  C210  1  0.730440  0.887500  0.639630  1.0  0.0305
  C  C211  1  0.691370  0.914590  0.584550  1.0  -0.0677
  C  C212  1  0.685710  0.856080  0.568470  1.0  0.1571
  C  C213  1  0.669700  0.882960  0.505340  1.0  0.6138
  C  C214  1  0.652000  0.854710  0.468930  1.0  -0.1177
  C  C215  1  0.621300  0.788000  0.454690  1.0  0.0296
  C  C216  1  0.666270  0.897090  0.438570  1.0  0.0124
  C  C217  1  0.887570  0.294590  0.977870  1.0  0.7188
  C  C218  1  0.839880  0.228890  0.957290  1.0  -0.1615
  C  C219  1  0.854990  0.221470  0.921960  1.0  -0.0565
  C  C220  1  0.667570  0.060310  0.969340  1.0  0.7207
  C  C221  1  0.735180  0.116910  0.953720  1.0  -0.1725
  C  C222  1  0.779170  0.176280  0.972960  1.0  0.0297
  C  C223  1  0.752080  0.110120  0.917880  1.0  -0.0731
  C  C224  1  0.810590  0.162970  0.901800  1.0  0.1623
  C  C225  1  0.783710  0.120080  0.838670  1.0  0.6125
  C  C226  1  0.811960  0.130630  0.802260  1.0  -0.1183
  C  C227  1  0.878670  0.166640  0.788020  1.0  0.0288
  C  C228  1  0.769580  0.102520  0.771900  1.0  0.0154
  C  C229  1  0.554240  0.627920  0.311200  1.0  0.7188
  C  C230  1  0.506550  0.562220  0.290620  1.0  -0.1615
  C  C231  1  0.521660  0.554800  0.255290  1.0  -0.0496
  C  C232  1  0.334240  0.393640  0.302670  1.0  0.7207
  C  C233  1  0.401850  0.450240  0.287050  1.0  -0.1725
  C  C234  1  0.445840  0.509610  0.306290  1.0  0.0297
  C  C235  1  0.418750  0.443450  0.251210  1.0  -0.0678
  C  C236  1  0.477260  0.496300  0.235130  1.0  0.1581
  C  C237  1  0.450380  0.453410  0.172000  1.0  0.6125
  C  C238  1  0.478630  0.463960  0.135590  1.0  -0.1183
  C  C239  1  0.545340  0.499970  0.121350  1.0  0.0288
  C  C240  1  0.436250  0.435850  0.105230  1.0  0.0154
  C  C241  1  0.220900  0.961260  0.644540  1.0  0.7188
  C  C242  1  0.173210  0.895560  0.623960  1.0  -0.1615
  C  C243  1  0.188320  0.888140  0.588630  1.0  -0.0496
  C  C244  1  0.000900  0.726980  0.636010  1.0  0.7207
  C  C245  1  0.068510  0.783580  0.620390  1.0  -0.1725
  C  C246  1  0.112500  0.842950  0.639630  1.0  0.0297
  C  C247  1  0.085410  0.776790  0.584550  1.0  -0.0678
  C  C248  1  0.143920  0.829640  0.568470  1.0  0.1581
  C  C249  1  0.117040  0.786750  0.505340  1.0  0.6125
  C  C250  1  0.145290  0.797300  0.468930  1.0  -0.1182
  C  C251  1  0.212000  0.833310  0.454690  1.0  0.0288
  C  C252  1  0.102910  0.769190  0.438570  1.0  0.0154
  C  C253  1  0.294590  0.407020  0.022130  1.0  0.7183
  C  C254  1  0.228890  0.389010  0.042710  1.0  -0.1619
  C  C255  1  0.221470  0.366480  0.078040  1.0  -0.0492
  C  C256  1  0.060310  0.392740  0.030660  1.0  0.7198
  C  C257  1  0.116910  0.381730  0.046280  1.0  -0.1734
  C  C258  1  0.176280  0.397110  0.027040  1.0  0.0304
  C  C259  1  0.110120  0.358040  0.082120  1.0  -0.0711
  C  C260  1  0.162970  0.352380  0.098200  1.0  0.1539
  C  C261  1  0.120080  0.336370  0.161330  1.0  0.6114
  C  C262  1  0.130630  0.318670  0.197740  1.0  -0.1179
  C  C263  1  0.166640  0.287970  0.211980  1.0  0.0275
  C  C264  1  0.102520  0.332940  0.228100  1.0  0.0139
  C  C265  1  0.961260  0.740350  0.355460  1.0  0.7183
  C  C266  1  0.895560  0.722340  0.376040  1.0  -0.1619
  C  C267  1  0.888140  0.699810  0.411370  1.0  -0.0492
  C  C268  1  0.726980  0.726070  0.363990  1.0  0.7198
  C  C269  1  0.783580  0.715060  0.379610  1.0  -0.1734
  C  C270  1  0.842950  0.730440  0.360370  1.0  0.0304
  C  C271  1  0.776790  0.691370  0.415450  1.0  -0.0676
  C  C272  1  0.829640  0.685710  0.431530  1.0  0.1534
  C  C273  1  0.786750  0.669700  0.494660  1.0  0.6114
  C  C274  1  0.797300  0.652000  0.531070  1.0  -0.1179
  C  C275  1  0.833310  0.621300  0.545310  1.0  0.0275
  C  C276  1  0.769190  0.666270  0.561430  1.0  0.0138
  C  C277  1  0.627920  0.073690  0.688800  1.0  0.7183
  C  C278  1  0.562220  0.055680  0.709380  1.0  -0.1619
  C  C279  1  0.554800  0.033150  0.744710  1.0  -0.0506
  C  C280  1  0.393640  0.059410  0.697330  1.0  0.7198
  C  C281  1  0.450240  0.048400  0.712950  1.0  -0.1734
  C  C282  1  0.509610  0.063780  0.693710  1.0  0.0304
  C  C283  1  0.443450  0.024710  0.748790  1.0  -0.0715
  C  C284  1  0.496300  0.019050  0.764870  1.0  0.1542
  C  C285  1  0.453410  0.003040  0.828000  1.0  0.6114
  C  C286  1  0.463960  0.985340  0.864410  1.0  -0.1179
  C  C287  1  0.499970  0.954640  0.878650  1.0  0.0275
  C  C288  1  0.435850  0.999610  0.894770  1.0  0.0139
  C  C289  1  0.592980  0.887570  0.022130  1.0  0.7197
  C  C290  1  0.610990  0.839880  0.042710  1.0  -0.1619
  C  C291  1  0.633520  0.854990  0.078040  1.0  -0.0524
  C  C292  1  0.607260  0.667570  0.030660  1.0  0.7211
  C  C293  1  0.618270  0.735180  0.046280  1.0  -0.1724
  C  C294  1  0.602890  0.779170  0.027040  1.0  0.0305
  C  C295  1  0.641960  0.752080  0.082120  1.0  -0.0677
  C  C296  1  0.647620  0.810590  0.098200  1.0  0.1551
  C  C297  1  0.663630  0.783710  0.161330  1.0  0.6141
  C  C298  1  0.681330  0.811960  0.197740  1.0  -0.1195
  C  C299  1  0.712030  0.878670  0.211980  1.0  0.0299
  C  C300  1  0.667060  0.769580  0.228100  1.0  0.0135
  C  C301  1  0.259650  0.220900  0.355460  1.0  0.7197
  C  C302  1  0.277660  0.173210  0.376040  1.0  -0.1619
  C  C303  1  0.300190  0.188320  0.411370  1.0  -0.0508
  C  C304  1  0.273930  0.000900  0.363990  1.0  0.7211
  C  C305  1  0.284940  0.068510  0.379610  1.0  -0.1724
  C  C306  1  0.269560  0.112500  0.360370  1.0  0.0305
  C  C307  1  0.308630  0.085410  0.415450  1.0  -0.0677
  C  C308  1  0.314290  0.143920  0.431530  1.0  0.1543
  C  C309  1  0.330300  0.117040  0.494660  1.0  0.6141
  C  C310  1  0.348000  0.145290  0.531070  1.0  -0.1195
  C  C311  1  0.378700  0.212000  0.545310  1.0  0.0299
  C  C312  1  0.333730  0.102910  0.561430  1.0  0.0134
  C  C313  1  0.926310  0.554240  0.688800  1.0  0.7197
  C  C314  1  0.944320  0.506550  0.709380  1.0  -0.1619
  C  C315  1  0.966850  0.521660  0.744710  1.0  -0.0529
  C  C316  1  0.940590  0.334240  0.697330  1.0  0.7211
  C  C317  1  0.951600  0.401850  0.712950  1.0  -0.1724
  C  C318  1  0.936220  0.445840  0.693710  1.0  0.0305
  C  C319  1  0.975290  0.418750  0.748790  1.0  -0.0715
  C  C320  1  0.980950  0.477260  0.764870  1.0  0.155
  C  C321  1  0.996960  0.450380  0.828000  1.0  0.6141
  C  C322  1  0.014660  0.478630  0.864410  1.0  -0.1195
  C  C323  1  0.045360  0.545340  0.878650  1.0  0.0299
  C  C324  1  0.000390  0.436250  0.894770  1.0  0.0135
  C  C325  1  0.112430  0.705410  0.022130  1.0  0.719
  C  C326  1  0.160120  0.771110  0.042710  1.0  -0.1613
  C  C327  1  0.145010  0.778530  0.078040  1.0  -0.0564
  C  C328  1  0.332430  0.939690  0.030660  1.0  0.7191
  C  C329  1  0.264820  0.883090  0.046280  1.0  -0.1729
  C  C330  1  0.220830  0.823720  0.027040  1.0  0.0302
  C  C331  1  0.247920  0.889880  0.082120  1.0  -0.0727
  C  C332  1  0.189410  0.837030  0.098200  1.0  0.1589
  C  C333  1  0.216290  0.879920  0.161330  1.0  0.6138
  C  C334  1  0.188040  0.869370  0.197740  1.0  -0.1186
  C  C335  1  0.121330  0.833360  0.211980  1.0  0.0305
  C  C336  1  0.230420  0.897480  0.228100  1.0  0.0146
  C  C337  1  0.779100  0.038740  0.355460  1.0  0.719
  C  C338  1  0.826790  0.104440  0.376040  1.0  -0.1613
  C  C339  1  0.811680  0.111860  0.411370  1.0  -0.049
  C  C340  1  0.999100  0.273020  0.363990  1.0  0.7191
  C  C341  1  0.931490  0.216420  0.379610  1.0  -0.1729
  C  C342  1  0.887500  0.157050  0.360370  1.0  0.0302
  C  C343  1  0.914590  0.223210  0.415450  1.0  -0.0672
  C  C344  1  0.856080  0.170360  0.431530  1.0  0.1553
  C  C345  1  0.882960  0.213250  0.494660  1.0  0.6138
  C  C346  1  0.854710  0.202700  0.531070  1.0  -0.1186
  C  C347  1  0.788000  0.166690  0.545310  1.0  0.0305
  C  C348  1  0.897090  0.230810  0.561430  1.0  0.0145
  C  C349  1  0.445760  0.372080  0.688800  1.0  0.719
  C  C350  1  0.493450  0.437780  0.709380  1.0  -0.1613
  C  C351  1  0.478340  0.445200  0.744710  1.0  -0.049
  C  C352  1  0.665760  0.606360  0.697330  1.0  0.7191
  C  C353  1  0.598150  0.549760  0.712950  1.0  -0.1729
  C  C354  1  0.554160  0.490390  0.693710  1.0  0.0302
  C  C355  1  0.581250  0.556550  0.748790  1.0  -0.0672
  C  C356  1  0.522740  0.503700  0.764870  1.0  0.1553
  C  C357  1  0.549620  0.546590  0.828000  1.0  0.6138
  C  C358  1  0.521370  0.536040  0.864410  1.0  -0.1186
  C  C359  1  0.454660  0.500030  0.878650  1.0  0.0305
  C  C360  1  0.563750  0.564150  0.894770  1.0  0.0146
  N  N361  1  0.878570  0.686290  0.742240  1.0  -0.1845
  N  N362  1  0.839380  0.669040  0.865260  1.0  -0.2647
  N  N363  1  0.838540  0.715090  0.751980  1.0  -0.2945
  N  N364  1  0.545240  0.019620  0.075570  1.0  -0.1845
  N  N365  1  0.506050  0.002370  0.198590  1.0  -0.2623
  N  N366  1  0.505210  0.048420  0.085310  1.0  -0.2945
  N  N367  1  0.211900  0.352960  0.408910  1.0  -0.1845
  N  N368  1  0.172710  0.335710  0.531930  1.0  -0.2623
  N  N369  1  0.171870  0.381760  0.418650  1.0  -0.2936
  N  N370  1  0.313710  0.192280  0.742240  1.0  -0.1845
  N  N371  1  0.330960  0.170340  0.865260  1.0  -0.2597
  N  N372  1  0.284910  0.123450  0.751980  1.0  -0.2935
  N  N373  1  0.980380  0.525610  0.075570  1.0  -0.1845
  N  N374  1  0.997630  0.503670  0.198590  1.0  -0.2631
  N  N375  1  0.951580  0.456780  0.085310  1.0  -0.2935
  N  N376  1  0.647040  0.858950  0.408910  1.0  -0.1846
  N  N377  1  0.664290  0.837010  0.531930  1.0  -0.2631
  N  N378  1  0.618240  0.790120  0.418650  1.0  -0.2866
  N  N379  1  0.807720  0.121430  0.742240  1.0  -0.1853
  N  N380  1  0.829660  0.160620  0.865260  1.0  -0.2621
  N  N381  1  0.876550  0.161460  0.751980  1.0  -0.2953
  N  N382  1  0.474390  0.454760  0.075570  1.0  -0.1853
  N  N383  1  0.496330  0.493950  0.198590  1.0  -0.2629
  N  N384  1  0.543220  0.494790  0.085310  1.0  -0.2953
  N  N385  1  0.141050  0.788100  0.408910  1.0  -0.1853
  N  N386  1  0.162990  0.827290  0.531930  1.0  -0.2629
  N  N387  1  0.209880  0.828130  0.418650  1.0  -0.2935
  N  N388  1  0.121430  0.313710  0.257760  1.0  -0.1848
  N  N389  1  0.160620  0.330960  0.134740  1.0  -0.2658
  N  N390  1  0.161460  0.284910  0.248020  1.0  -0.2959
  N  N391  1  0.788100  0.647040  0.591090  1.0  -0.1848
  N  N392  1  0.827290  0.664290  0.468070  1.0  -0.2624
  N  N393  1  0.828130  0.618240  0.581350  1.0  -0.2938
  N  N394  1  0.454760  0.980380  0.924430  1.0  -0.1848
  N  N395  1  0.493950  0.997630  0.801410  1.0  -0.2624
  N  N396  1  0.494790  0.951580  0.914690  1.0  -0.2959
  N  N397  1  0.686290  0.807720  0.257760  1.0  -0.1848
  N  N398  1  0.669040  0.829660  0.134740  1.0  -0.2596
  N  N399  1  0.715090  0.876550  0.248020  1.0  -0.2935
  N  N400  1  0.352960  0.141050  0.591090  1.0  -0.1851
  N  N401  1  0.335710  0.162990  0.468070  1.0  -0.2628
  N  N402  1  0.381760  0.209880  0.581350  1.0  -0.285
  N  N403  1  0.019620  0.474390  0.924430  1.0  -0.1848
  N  N404  1  0.002370  0.496330  0.801410  1.0  -0.2628
  N  N405  1  0.048420  0.543220  0.914690  1.0  -0.2935
  N  N406  1  0.192280  0.878570  0.257760  1.0  -0.1848
  N  N407  1  0.170340  0.839380  0.134740  1.0  -0.2619
  N  N408  1  0.123450  0.838540  0.248020  1.0  -0.2921
  N  N409  1  0.858950  0.211900  0.591090  1.0  -0.1849
  N  N410  1  0.837010  0.172710  0.468070  1.0  -0.2632
  N  N411  1  0.790120  0.171870  0.581350  1.0  -0.2897
  N  N412  1  0.525610  0.545240  0.924430  1.0  -0.1848
  N  N413  1  0.503670  0.506050  0.801410  1.0  -0.2632
  N  N414  1  0.456780  0.505210  0.914690  1.0  -0.2921
  O  O415  1  0.659370  0.597800  0.961110  1.0  -0.591
  O  O416  1  0.702000  0.572920  0.010170  1.0  -0.6578
  O  O417  1  0.927850  0.579790  0.000350  1.0  -0.5774
  O  O418  1  0.992660  0.626060  0.950650  1.0  -0.6282
  O  O419  1  0.921020  0.643830  0.845290  1.0  -0.4697
  O  O420  1  0.065750  0.550700  0.992530  1.0  -1.0265
  O  O421  1  0.326040  0.931130  0.294440  1.0  -0.591
  O  O422  1  0.368670  0.906250  0.343500  1.0  -0.6569
  O  O423  1  0.594520  0.913120  0.333680  1.0  -0.5776
  O  O424  1  0.659330  0.959390  0.283980  1.0  -0.6282
  O  O425  1  0.587690  0.977160  0.178620  1.0  -0.4697
  O  O426  1  0.732420  0.884030  0.325860  1.0  -1.0265
  O  O427  1  0.992700  0.264470  0.627780  1.0  -0.5911
  O  O428  1  0.035330  0.239590  0.676840  1.0  -0.6578
  O  O429  1  0.261180  0.246460  0.667020  1.0  -0.5774
  O  O430  1  0.325990  0.292730  0.617320  1.0  -0.6288
  O  O431  1  0.254350  0.310500  0.511960  1.0  -0.4697
  O  O432  1  0.399080  0.217370  0.659200  1.0  -1.0268
  O  O433  1  0.402200  0.061570  0.961110  1.0  -0.5945
  O  O434  1  0.427080  0.129080  0.010170  1.0  -0.6584
  O  O435  1  0.420210  0.348060  0.000350  1.0  -0.5752
  O  O436  1  0.373940  0.366600  0.950650  1.0  -0.6298
  O  O437  1  0.356170  0.277190  0.845290  1.0  -0.4549
  O  O438  1  0.449300  0.515050  0.992530  1.0  -1.0278
  O  O439  1  0.068870  0.394900  0.294440  1.0  -0.5945
  O  O440  1  0.093750  0.462410  0.343500  1.0  -0.659
  O  O441  1  0.086880  0.681390  0.333680  1.0  -0.5753
  O  O442  1  0.040610  0.699930  0.283980  1.0  -0.6298
  O  O443  1  0.022840  0.610520  0.178620  1.0  -0.4549
  O  O444  1  0.115970  0.848380  0.325860  1.0  -1.0278
  O  O445  1  0.735530  0.728240  0.627780  1.0  -0.5944
  O  O446  1  0.760410  0.795750  0.676840  1.0  -0.6584
  O  O447  1  0.753540  0.014730  0.667020  1.0  -0.5752
  O  O448  1  0.707270  0.033270  0.617320  1.0  -0.6295
  O  O449  1  0.689500  0.943860  0.511960  1.0  -0.468
  O  O450  1  0.782630  0.181720  0.659200  1.0  -1.0281
  O  O451  1  0.938430  0.340630  0.961110  1.0  -0.592
  O  O452  1  0.870920  0.298000  0.010170  1.0  -0.6573
  O  O453  1  0.651940  0.072150  0.000350  1.0  -0.5764
  O  O454  1  0.633400  0.007340  0.950650  1.0  -0.6302
  O  O455  1  0.722810  0.078980  0.845290  1.0  -0.4699
  O  O456  1  0.484950  0.934250  0.992530  1.0  -1.0291
  O  O457  1  0.605100  0.673960  0.294440  1.0  -0.592
  O  O458  1  0.537590  0.631330  0.343500  1.0  -0.6571
  O  O459  1  0.318610  0.405480  0.333680  1.0  -0.5767
  O  O460  1  0.300070  0.340670  0.283980  1.0  -0.6302
  O  O461  1  0.389480  0.412310  0.178620  1.0  -0.4699
  O  O462  1  0.151620  0.267580  0.325860  1.0  -1.0291
  O  O463  1  0.271760  0.007300  0.627780  1.0  -0.592
  O  O464  1  0.204250  0.964670  0.676840  1.0  -0.6573
  O  O465  1  0.985270  0.738820  0.667020  1.0  -0.5764
  O  O466  1  0.966730  0.674010  0.617320  1.0  -0.6302
  O  O467  1  0.056140  0.745650  0.511960  1.0  -0.47
  O  O468  1  0.818280  0.600920  0.659200  1.0  -1.0294
  O  O469  1  0.340630  0.402200  0.038890  1.0  -0.5915
  O  O470  1  0.298000  0.427080  0.989830  1.0  -0.6576
  O  O471  1  0.072150  0.420210  0.999650  1.0  -0.5781
  O  O472  1  0.007340  0.373940  0.049350  1.0  -0.6258
  O  O473  1  0.078980  0.356170  0.154710  1.0  -0.471
  O  O474  1  0.934250  0.449300  0.007470  1.0  -1.0278
  O  O475  1  0.007300  0.735530  0.372220  1.0  -0.5916
  O  O476  1  0.964670  0.760410  0.323160  1.0  -0.6576
  O  O477  1  0.738820  0.753540  0.332980  1.0  -0.5781
  O  O478  1  0.674010  0.707270  0.382680  1.0  -0.6264
  O  O479  1  0.745650  0.689500  0.488040  1.0  -0.471
  O  O480  1  0.600920  0.782630  0.340800  1.0  -1.0281
  O  O481  1  0.673960  0.068870  0.705560  1.0  -0.5915
  O  O482  1  0.631330  0.093750  0.656500  1.0  -0.6567
  O  O483  1  0.405480  0.086880  0.666320  1.0  -0.5784
  O  O484  1  0.340670  0.040610  0.716020  1.0  -0.6258
  O  O485  1  0.412310  0.022840  0.821380  1.0  -0.471
  O  O486  1  0.267580  0.115970  0.674140  1.0  -1.0278
  O  O487  1  0.597800  0.938430  0.038890  1.0  -0.5945
  O  O488  1  0.572920  0.870920  0.989830  1.0  -0.6566
  O  O489  1  0.579790  0.651940  0.999650  1.0  -0.5765
  O  O490  1  0.626060  0.633400  0.049350  1.0  -0.6279
  O  O491  1  0.643830  0.722810  0.154710  1.0  -0.4568
  O  O492  1  0.550700  0.484950  0.007470  1.0  -1.0261
  O  O493  1  0.264470  0.271760  0.372220  1.0  -0.5944
  O  O494  1  0.239590  0.204250  0.323160  1.0  -0.6566
  O  O495  1  0.246460  0.985270  0.332980  1.0  -0.5765
  O  O496  1  0.292730  0.966730  0.382680  1.0  -0.6276
  O  O497  1  0.310500  0.056140  0.488040  1.0  -0.4705
  O  O498  1  0.217370  0.818280  0.340800  1.0  -1.0264
  O  O499  1  0.931130  0.605100  0.705560  1.0  -0.5945
  O  O500  1  0.906250  0.537590  0.656500  1.0  -0.6571
  O  O501  1  0.913120  0.318610  0.666320  1.0  -0.5767
  O  O502  1  0.959390  0.300070  0.716020  1.0  -0.6279
  O  O503  1  0.977160  0.389480  0.821380  1.0  -0.4568
  O  O504  1  0.884030  0.151620  0.674140  1.0  -1.0261
  O  O505  1  0.061570  0.659370  0.038890  1.0  -0.5933
  O  O506  1  0.129080  0.702000  0.989830  1.0  -0.6576
  O  O507  1  0.348060  0.927850  0.999650  1.0  -0.5778
  O  O508  1  0.366600  0.992660  0.049350  1.0  -0.6287
  O  O509  1  0.277190  0.921020  0.154710  1.0  -0.468
  O  O510  1  0.515050  0.065750  0.007470  1.0  -1.0262
  O  O511  1  0.728240  0.992700  0.372220  1.0  -0.5933
  O  O512  1  0.795750  0.035330  0.323160  1.0  -0.6576
  O  O513  1  0.014730  0.261180  0.332980  1.0  -0.5778
  O  O514  1  0.033270  0.325990  0.382680  1.0  -0.6287
  O  O515  1  0.943860  0.254350  0.488040  1.0  -0.4685
  O  O516  1  0.181720  0.399080  0.340800  1.0  -1.0265
  O  O517  1  0.394900  0.326040  0.705560  1.0  -0.5933
  O  O518  1  0.462410  0.368670  0.656500  1.0  -0.6574
  O  O519  1  0.681390  0.594520  0.666320  1.0  -0.5782
  O  O520  1  0.699930  0.659330  0.716020  1.0  -0.6287
  O  O521  1  0.610520  0.587690  0.821380  1.0  -0.468
  O  O522  1  0.848380  0.732420  0.674140  1.0  -1.0262
