# generated using pymatgen
data_CdH20C30(NO2)4
_symmetry_space_group_name_H-M   'P 1'
_cell_length_a   21.83800000
_cell_length_b   21.83800000
_cell_length_c   14.72100000
_cell_angle_alpha   90.00000000
_cell_angle_beta   90.00000000
_cell_angle_gamma   90.00000000
_symmetry_Int_Tables_number   1
_chemical_formula_structural   CdH20C30(NO2)4
_chemical_formula_sum   'Cd8 H160 C240 N32 O64'
_cell_volume   7020.41904992
_cell_formula_units_Z   8
loop_
 _symmetry_equiv_pos_site_id
 _symmetry_equiv_pos_as_xyz
  1  'x, y, z'
loop_
 _atom_site_type_symbol
 _atom_site_label
 _atom_site_symmetry_multiplicity
 _atom_site_fract_x
 _atom_site_fract_y
 _atom_site_fract_z
 _atom_site_occupancy
 _atom_site_charge
  Cd  Cd1  1  0.204900  0.950690  0.479190  1.0  0.9618
  Cd  Cd2  1  0.295100  0.450690  0.270810  1.0  0.9635
  Cd  Cd3  1  0.795100  0.049310  0.979190  1.0  0.9613
  Cd  Cd4  1  0.704900  0.549310  0.770810  1.0  0.9619
  Cd  Cd5  1  0.549310  0.704900  0.229190  1.0  0.9583
  Cd  Cd6  1  0.049310  0.795100  0.020810  1.0  0.9566
  Cd  Cd7  1  0.450690  0.295100  0.729190  1.0  0.9565
  Cd  Cd8  1  0.950690  0.204900  0.520810  1.0  0.9584
  H  H9  1  0.221120  0.421370  0.980400  1.0  0.11
  H  H10  1  0.286730  0.505230  0.949070  1.0  0.1364
  H  H11  1  0.226310  0.507880  0.887670  1.0  0.1255
  H  H12  1  0.232740  0.551800  0.974170  1.0  0.1286
  H  H13  1  0.046610  0.618900  0.060510  1.0  0.118
  H  H14  1  0.939120  0.623880  0.065300  1.0  0.0945
  H  H15  1  0.028660  0.324420  0.006710  1.0  0.1153
  H  H16  1  0.921940  0.330070  0.017250  1.0  0.1094
  H  H17  1  0.739570  0.445420  0.023250  1.0  0.1117
  H  H18  1  0.724270  0.477420  0.164530  1.0  0.1272
  H  H19  1  0.681230  0.521250  0.105260  1.0  0.129
  H  H20  1  0.745460  0.545990  0.142550  1.0  0.1177
  H  H21  1  0.278880  0.921370  0.769600  1.0  0.1096
  H  H22  1  0.213270  0.005230  0.800930  1.0  0.1361
  H  H23  1  0.273690  0.007880  0.862330  1.0  0.1278
  H  H24  1  0.267260  0.051800  0.775830  1.0  0.1281
  H  H25  1  0.453390  0.118900  0.689490  1.0  0.1179
  H  H26  1  0.560880  0.123880  0.684700  1.0  0.0942
  H  H27  1  0.471340  0.824420  0.743290  1.0  0.1154
  H  H28  1  0.578060  0.830070  0.732750  1.0  0.1095
  H  H29  1  0.760430  0.945420  0.726750  1.0  0.1112
  H  H30  1  0.775730  0.977420  0.585470  1.0  0.1269
  H  H31  1  0.818770  0.021250  0.644740  1.0  0.1319
  H  H32  1  0.754540  0.045990  0.607450  1.0  0.1204
  H  H33  1  0.142470  0.823760  0.423160  1.0  0.0934
  H  H34  1  0.165880  0.727570  0.369320  1.0  0.1233
  H  H35  1  0.343060  0.760050  0.432180  1.0  0.1251
  H  H36  1  0.315110  0.855170  0.483020  1.0  0.0818
  H  H37  1  0.223890  0.567990  0.214800  1.0  0.0867
  H  H38  1  0.198220  0.663120  0.271540  1.0  0.1319
  H  H39  1  0.356030  0.659320  0.418460  1.0  0.1299
  H  H40  1  0.376790  0.564420  0.355500  1.0  0.0894
  H  H41  1  0.357530  0.323760  0.326840  1.0  0.093
  H  H42  1  0.334120  0.227570  0.380680  1.0  0.123
  H  H43  1  0.156940  0.260050  0.317820  1.0  0.1243
  H  H44  1  0.184890  0.355170  0.266980  1.0  0.0816
  H  H45  1  0.276110  0.067990  0.535200  1.0  0.0881
  H  H46  1  0.301780  0.163120  0.478460  1.0  0.1321
  H  H47  1  0.143970  0.159320  0.331540  1.0  0.1309
  H  H48  1  0.123210  0.064420  0.394500  1.0  0.0881
  H  H49  1  0.778880  0.578630  0.480400  1.0  0.1094
  H  H50  1  0.713270  0.494770  0.449070  1.0  0.1365
  H  H51  1  0.773690  0.492120  0.387670  1.0  0.1268
  H  H52  1  0.767260  0.448200  0.474170  1.0  0.1283
  H  H53  1  0.953390  0.381100  0.560510  1.0  0.1176
  H  H54  1  0.060880  0.376120  0.565300  1.0  0.0943
  H  H55  1  0.971340  0.675580  0.506710  1.0  0.1144
  H  H56  1  0.078060  0.669930  0.517250  1.0  0.1103
  H  H57  1  0.260430  0.554580  0.523250  1.0  0.1112
  H  H58  1  0.275730  0.522580  0.664530  1.0  0.127
  H  H59  1  0.318770  0.478750  0.605260  1.0  0.131
  H  H60  1  0.254540  0.454010  0.642550  1.0  0.1191
  H  H61  1  0.721120  0.078630  0.269600  1.0  0.1076
  H  H62  1  0.786730  0.994770  0.300930  1.0  0.1355
  H  H63  1  0.726310  0.992120  0.362330  1.0  0.1261
  H  H64  1  0.732740  0.948200  0.275830  1.0  0.1292
  H  H65  1  0.546610  0.881100  0.189490  1.0  0.118
  H  H66  1  0.439120  0.876120  0.184700  1.0  0.0945
  H  H67  1  0.528660  0.175580  0.243290  1.0  0.1146
  H  H68  1  0.421940  0.169930  0.232750  1.0  0.1101
  H  H69  1  0.239570  0.054580  0.226750  1.0  0.112
  H  H70  1  0.224270  0.022580  0.085470  1.0  0.1263
  H  H71  1  0.181230  0.978750  0.144740  1.0  0.1292
  H  H72  1  0.245460  0.954010  0.107450  1.0  0.1176
  H  H73  1  0.857530  0.176240  0.923160  1.0  0.093
  H  H74  1  0.834120  0.272430  0.869320  1.0  0.1235
  H  H75  1  0.656940  0.239950  0.932180  1.0  0.1241
  H  H76  1  0.684890  0.144830  0.983020  1.0  0.0821
  H  H77  1  0.776110  0.432010  0.714800  1.0  0.0872
  H  H78  1  0.801780  0.336880  0.771540  1.0  0.132
  H  H79  1  0.643970  0.340680  0.918460  1.0  0.1308
  H  H80  1  0.623210  0.435580  0.855500  1.0  0.0889
  H  H81  1  0.642470  0.676240  0.826840  1.0  0.0931
  H  H82  1  0.665880  0.772430  0.880680  1.0  0.1228
  H  H83  1  0.843060  0.739950  0.817820  1.0  0.1248
  H  H84  1  0.815110  0.644830  0.766980  1.0  0.0821
  H  H85  1  0.723890  0.932010  0.035200  1.0  0.0873
  H  H86  1  0.698220  0.836880  0.978460  1.0  0.132
  H  H87  1  0.856030  0.840680  0.831540  1.0  0.1312
  H  H88  1  0.876790  0.935580  0.894500  1.0  0.0897
  H  H89  1  0.078630  0.721120  0.730400  1.0  0.1111
  H  H90  1  0.994770  0.786730  0.699070  1.0  0.1373
  H  H91  1  0.992120  0.726310  0.637670  1.0  0.1236
  H  H92  1  0.948200  0.732740  0.724170  1.0  0.1247
  H  H93  1  0.881100  0.546610  0.810510  1.0  0.1179
  H  H94  1  0.876120  0.439120  0.815300  1.0  0.0947
  H  H95  1  0.175580  0.528660  0.756710  1.0  0.1146
  H  H96  1  0.169930  0.421940  0.767250  1.0  0.1091
  H  H97  1  0.054580  0.239570  0.773250  1.0  0.1122
  H  H98  1  0.022580  0.224270  0.914530  1.0  0.1285
  H  H99  1  0.978750  0.181230  0.855260  1.0  0.1303
  H  H100  1  0.954010  0.245460  0.892550  1.0  0.115
  H  H101  1  0.578630  0.778880  0.519600  1.0  0.1112
  H  H102  1  0.494770  0.713270  0.550930  1.0  0.138
  H  H103  1  0.492120  0.773690  0.612330  1.0  0.1247
  H  H104  1  0.448200  0.767260  0.525830  1.0  0.1239
  H  H105  1  0.381100  0.953390  0.439490  1.0  0.1176
  H  H106  1  0.376120  0.060880  0.434700  1.0  0.0948
  H  H107  1  0.675580  0.971340  0.493290  1.0  0.1146
  H  H108  1  0.669930  0.078060  0.482750  1.0  0.109
  H  H109  1  0.554580  0.260430  0.476750  1.0  0.1122
  H  H110  1  0.522580  0.275730  0.335470  1.0  0.1283
  H  H111  1  0.478750  0.318770  0.394740  1.0  0.1302
  H  H112  1  0.454010  0.254540  0.357450  1.0  0.1143
  H  H113  1  0.676240  0.642470  0.173160  1.0  0.0933
  H  H114  1  0.772430  0.665880  0.119320  1.0  0.1236
  H  H115  1  0.739950  0.843060  0.182180  1.0  0.1248
  H  H116  1  0.644830  0.815110  0.233020  1.0  0.0817
  H  H117  1  0.932010  0.723890  0.964800  1.0  0.0865
  H  H118  1  0.836880  0.698220  0.021540  1.0  0.1317
  H  H119  1  0.840680  0.856030  0.168460  1.0  0.1309
  H  H120  1  0.935580  0.876790  0.105500  1.0  0.0895
  H  H121  1  0.176240  0.857530  0.076840  1.0  0.0937
  H  H122  1  0.272430  0.834120  0.130680  1.0  0.1229
  H  H123  1  0.239950  0.656940  0.067820  1.0  0.1251
  H  H124  1  0.144830  0.684890  0.016980  1.0  0.0818
  H  H125  1  0.432010  0.776110  0.285200  1.0  0.0869
  H  H126  1  0.336880  0.801780  0.228460  1.0  0.132
  H  H127  1  0.340680  0.643970  0.081540  1.0  0.1315
  H  H128  1  0.435580  0.623210  0.144500  1.0  0.0892
  H  H129  1  0.921370  0.278880  0.230400  1.0  0.1111
  H  H130  1  0.005230  0.213270  0.199070  1.0  0.1379
  H  H131  1  0.007880  0.273690  0.137670  1.0  0.1239
  H  H132  1  0.051800  0.267260  0.224170  1.0  0.1234
  H  H133  1  0.118900  0.453390  0.310510  1.0  0.1178
  H  H134  1  0.123880  0.560880  0.315300  1.0  0.0941
  H  H135  1  0.824420  0.471340  0.256710  1.0  0.115
  H  H136  1  0.830070  0.578060  0.267250  1.0  0.1095
  H  H137  1  0.945420  0.760430  0.273250  1.0  0.1112
  H  H138  1  0.977420  0.775730  0.414530  1.0  0.1287
  H  H139  1  0.021250  0.818770  0.355260  1.0  0.1306
  H  H140  1  0.045990  0.754540  0.392550  1.0  0.114
  H  H141  1  0.421370  0.221120  0.019600  1.0  0.11
  H  H142  1  0.505230  0.286730  0.050930  1.0  0.1368
  H  H143  1  0.507880  0.226310  0.112330  1.0  0.1243
  H  H144  1  0.551800  0.232740  0.025830  1.0  0.124
  H  H145  1  0.618900  0.046610  0.939490  1.0  0.1176
  H  H146  1  0.623880  0.939120  0.934700  1.0  0.0944
  H  H147  1  0.324420  0.028660  0.993290  1.0  0.1149
  H  H148  1  0.330070  0.921940  0.982750  1.0  0.1088
  H  H149  1  0.445420  0.739570  0.976750  1.0  0.111
  H  H150  1  0.477420  0.724270  0.835470  1.0  0.1268
  H  H151  1  0.521250  0.681230  0.894740  1.0  0.1299
  H  H152  1  0.545990  0.745460  0.857450  1.0  0.1141
  H  H153  1  0.323760  0.357530  0.673160  1.0  0.0936
  H  H154  1  0.227570  0.334120  0.619320  1.0  0.1233
  H  H155  1  0.260050  0.156940  0.682180  1.0  0.125
  H  H156  1  0.355170  0.184890  0.733020  1.0  0.0817
  H  H157  1  0.067990  0.276110  0.464800  1.0  0.0867
  H  H158  1  0.163120  0.301780  0.521540  1.0  0.1321
  H  H159  1  0.159320  0.143970  0.668460  1.0  0.1316
  H  H160  1  0.064420  0.123210  0.605500  1.0  0.089
  H  H161  1  0.823760  0.142470  0.576840  1.0  0.0931
  H  H162  1  0.727570  0.165880  0.630680  1.0  0.1234
  H  H163  1  0.760050  0.343060  0.567820  1.0  0.1252
  H  H164  1  0.855170  0.315110  0.516980  1.0  0.0816
  H  H165  1  0.567990  0.223890  0.785200  1.0  0.0875
  H  H166  1  0.663120  0.198220  0.728460  1.0  0.1321
  H  H167  1  0.659320  0.356030  0.581540  1.0  0.1316
  H  H168  1  0.564420  0.376790  0.644500  1.0  0.0907
  C  C169  1  0.239700  0.458540  0.104700  1.0  0.6876
  C  C170  1  0.212300  0.461600  0.010000  1.0  0.0498
  C  C171  1  0.242300  0.511200  0.949700  1.0  -0.3318
  C  C172  1  0.112000  0.411500  0.012300  1.0  0.4451
  C  C173  1  0.119200  0.523000  0.043100  1.0  0.5284
  C  C174  1  0.051500  0.526720  0.044100  1.0  -0.1195
  C  C175  1  0.023000  0.582600  0.054800  1.0  -0.0289
  C  C176  1  0.958700  0.585420  0.057300  1.0  -0.0045
  C  C177  1  0.923830  0.533590  0.048200  1.0  -0.1187
  C  C178  1  0.951820  0.476080  0.038500  1.0  -0.0266
  C  C179  1  0.016430  0.472600  0.034100  1.0  -0.0019
  C  C180  1  0.044400  0.415440  0.021300  1.0  -0.1339
  C  C181  1  0.009300  0.363000  0.015000  1.0  -0.0896
  C  C182  1  0.945700  0.366430  0.020800  1.0  -0.0301
  C  C183  1  0.917020  0.422190  0.031600  1.0  -0.1004
  C  C184  1  0.848700  0.424700  0.033600  1.0  0.5018
  C  C185  1  0.855600  0.537600  0.048200  1.0  0.5568
  C  C186  1  0.754700  0.488100  0.033400  1.0  0.0482
  C  C187  1  0.723700  0.510100  0.118900  1.0  -0.3497
  C  C188  1  0.740900  0.523060  0.945900  1.0  0.6733
  C  C189  1  0.260300  0.958540  0.645300  1.0  0.6904
  C  C190  1  0.287700  0.961600  0.740000  1.0  0.0484
  C  C191  1  0.257700  0.011200  0.800300  1.0  -0.3306
  C  C192  1  0.388000  0.911500  0.737700  1.0  0.4467
  C  C193  1  0.380800  0.023000  0.706900  1.0  0.5265
  C  C194  1  0.448500  0.026720  0.705900  1.0  -0.1183
  C  C195  1  0.477000  0.082600  0.695200  1.0  -0.0283
  C  C196  1  0.541300  0.085420  0.692700  1.0  -0.0056
  C  C197  1  0.576170  0.033590  0.701800  1.0  -0.1186
  C  C198  1  0.548180  0.976080  0.711500  1.0  -0.0262
  C  C199  1  0.483570  0.972600  0.715900  1.0  -0.0019
  C  C200  1  0.455600  0.915440  0.728700  1.0  -0.1348
  C  C201  1  0.490700  0.863000  0.735000  1.0  -0.0899
  C  C202  1  0.554300  0.866430  0.729200  1.0  -0.0303
  C  C203  1  0.582980  0.922190  0.718400  1.0  -0.1
  C  C204  1  0.651300  0.924700  0.716400  1.0  0.5025
  C  C205  1  0.644400  0.037600  0.701800  1.0  0.5582
  C  C206  1  0.745300  0.988100  0.716600  1.0  0.0494
  C  C207  1  0.776300  0.010100  0.631100  1.0  -0.3489
  C  C208  1  0.759100  0.023060  0.804100  1.0  0.6695
  C  C209  1  0.183900  0.810600  0.423800  1.0  0.156
  C  C210  1  0.197700  0.753300  0.391500  1.0  -0.1912
  C  C211  1  0.257700  0.732700  0.391100  1.0  0.1038
  C  C212  1  0.301400  0.772480  0.428300  1.0  -0.1979
  C  C213  1  0.284400  0.828990  0.458900  1.0  0.1824
  C  C214  1  0.250730  0.586990  0.257000  1.0  0.1832
  C  C215  1  0.234980  0.643610  0.290300  1.0  -0.2075
  C  C216  1  0.274600  0.672120  0.353000  1.0  0.0703
  C  C217  1  0.328010  0.641500  0.376800  1.0  -0.1826
  C  C218  1  0.339910  0.584710  0.339200  1.0  0.1628
  C  C219  1  0.316100  0.310600  0.326200  1.0  0.1563
  C  C220  1  0.302300  0.253300  0.358500  1.0  -0.1902
  C  C221  1  0.242300  0.232700  0.358900  1.0  0.1024
  C  C222  1  0.198600  0.272480  0.321700  1.0  -0.1993
  C  C223  1  0.215600  0.328990  0.291100  1.0  0.1835
  C  C224  1  0.249270  0.086990  0.493000  1.0  0.1821
  C  C225  1  0.265020  0.143610  0.459700  1.0  -0.2076
  C  C226  1  0.225400  0.172120  0.397000  1.0  0.0705
  C  C227  1  0.171990  0.141500  0.373200  1.0  -0.184
  C  C228  1  0.160090  0.084710  0.410800  1.0  0.1623
  C  C229  1  0.760300  0.541460  0.604700  1.0  0.6899
  C  C230  1  0.787700  0.538400  0.510000  1.0  0.048
  C  C231  1  0.757700  0.488800  0.449700  1.0  -0.3311
  C  C232  1  0.888000  0.588500  0.512300  1.0  0.446
  C  C233  1  0.880800  0.477000  0.543100  1.0  0.5267
  C  C234  1  0.948500  0.473280  0.544100  1.0  -0.119
  C  C235  1  0.977000  0.417400  0.554800  1.0  -0.0286
  C  C236  1  0.041300  0.414580  0.557300  1.0  -0.0066
  C  C237  1  0.076170  0.466410  0.548200  1.0  -0.1187
  C  C238  1  0.048180  0.523920  0.538500  1.0  -0.0264
  C  C239  1  0.983570  0.527400  0.534100  1.0  -0.0018
  C  C240  1  0.955600  0.584560  0.521300  1.0  -0.1338
  C  C241  1  0.990700  0.637000  0.515000  1.0  -0.0887
  C  C242  1  0.054300  0.633570  0.520800  1.0  -0.0283
  C  C243  1  0.082980  0.577810  0.531600  1.0  -0.1003
  C  C244  1  0.151300  0.575300  0.533600  1.0  0.5044
  C  C245  1  0.144400  0.462400  0.548200  1.0  0.5576
  C  C246  1  0.245300  0.511900  0.533400  1.0  0.0496
  C  C247  1  0.276300  0.489900  0.618900  1.0  -0.3499
  C  C248  1  0.259100  0.476940  0.445900  1.0  0.6736
  C  C249  1  0.739700  0.041460  0.145300  1.0  0.6882
  C  C250  1  0.712300  0.038400  0.240000  1.0  0.0495
  C  C251  1  0.742300  0.988800  0.300300  1.0  -0.3309
  C  C252  1  0.612000  0.088500  0.237700  1.0  0.4456
  C  C253  1  0.619200  0.977000  0.206900  1.0  0.5283
  C  C254  1  0.551500  0.973280  0.205900  1.0  -0.12
  C  C255  1  0.523000  0.917400  0.195200  1.0  -0.0286
  C  C256  1  0.458700  0.914580  0.192700  1.0  -0.0056
  C  C257  1  0.423830  0.966410  0.201800  1.0  -0.1189
  C  C258  1  0.451820  0.023920  0.211500  1.0  -0.0265
  C  C259  1  0.516430  0.027400  0.215900  1.0  -0.002
  C  C260  1  0.544400  0.084560  0.228700  1.0  -0.1337
  C  C261  1  0.509300  0.137000  0.235000  1.0  -0.0894
  C  C262  1  0.445700  0.133570  0.229200  1.0  -0.0279
  C  C263  1  0.417020  0.077810  0.218400  1.0  -0.1005
  C  C264  1  0.348700  0.075300  0.216400  1.0  0.5023
  C  C265  1  0.355600  0.962400  0.201800  1.0  0.5569
  C  C266  1  0.254700  0.011900  0.216600  1.0  0.0477
  C  C267  1  0.223700  0.989900  0.131100  1.0  -0.3499
  C  C268  1  0.240900  0.976940  0.304100  1.0  0.6705
  C  C269  1  0.816100  0.189400  0.923800  1.0  0.1565
  C  C270  1  0.802300  0.246700  0.891500  1.0  -0.191
  C  C271  1  0.742300  0.267300  0.891100  1.0  0.1039
  C  C272  1  0.698600  0.227520  0.928300  1.0  -0.1989
  C  C273  1  0.715600  0.171010  0.958900  1.0  0.1827
  C  C274  1  0.749270  0.413010  0.757000  1.0  0.1824
  C  C275  1  0.765020  0.356390  0.790300  1.0  -0.208
  C  C276  1  0.725400  0.327880  0.853000  1.0  0.0702
  C  C277  1  0.671990  0.358500  0.876800  1.0  -0.1838
  C  C278  1  0.660090  0.415290  0.839200  1.0  0.1626
  C  C279  1  0.683900  0.689400  0.826200  1.0  0.156
  C  C280  1  0.697700  0.746700  0.858500  1.0  -0.1903
  C  C281  1  0.757700  0.767300  0.858900  1.0  0.1036
  C  C282  1  0.801400  0.727520  0.821700  1.0  -0.1985
  C  C283  1  0.784400  0.671010  0.791100  1.0  0.1822
  C  C284  1  0.750730  0.913010  0.993000  1.0  0.1825
  C  C285  1  0.734980  0.856390  0.959700  1.0  -0.2078
  C  C286  1  0.774600  0.827880  0.897000  1.0  0.0713
  C  C287  1  0.828010  0.858500  0.873200  1.0  -0.1831
  C  C288  1  0.839910  0.915290  0.910800  1.0  0.1628
  C  C289  1  0.041460  0.739700  0.854700  1.0  0.6918
  C  C290  1  0.038400  0.712300  0.760000  1.0  0.0501
  C  C291  1  0.988800  0.742300  0.699700  1.0  -0.3263
  C  C292  1  0.088500  0.612000  0.762300  1.0  0.4504
  C  C293  1  0.977000  0.619200  0.793100  1.0  0.5281
  C  C294  1  0.973280  0.551500  0.794100  1.0  -0.1189
  C  C295  1  0.917400  0.523000  0.804800  1.0  -0.0281
  C  C296  1  0.914580  0.458700  0.807300  1.0  -0.006
  C  C297  1  0.966410  0.423830  0.798200  1.0  -0.1188
  C  C298  1  0.023920  0.451820  0.788500  1.0  -0.0264
  C  C299  1  0.027400  0.516430  0.784100  1.0  -0.0015
  C  C300  1  0.084560  0.544400  0.771300  1.0  -0.1327
  C  C301  1  0.137000  0.509300  0.765000  1.0  -0.0885
  C  C302  1  0.133570  0.445700  0.770800  1.0  -0.027
  C  C303  1  0.077810  0.417020  0.781600  1.0  -0.1001
  C  C304  1  0.075300  0.348700  0.783600  1.0  0.5097
  C  C305  1  0.962400  0.355600  0.798200  1.0  0.5578
  C  C306  1  0.011900  0.254700  0.783400  1.0  0.0493
  C  C307  1  0.989900  0.223700  0.868900  1.0  -0.3461
  C  C308  1  0.976940  0.240900  0.695900  1.0  0.6718
  C  C309  1  0.541460  0.760300  0.395300  1.0  0.6936
  C  C310  1  0.538400  0.787700  0.490000  1.0  0.0508
  C  C311  1  0.488800  0.757700  0.550300  1.0  -0.326
  C  C312  1  0.588500  0.888000  0.487700  1.0  0.4509
  C  C313  1  0.477000  0.880800  0.456900  1.0  0.5275
  C  C314  1  0.473280  0.948500  0.455900  1.0  -0.1186
  C  C315  1  0.417400  0.977000  0.445200  1.0  -0.0276
  C  C316  1  0.414580  0.041300  0.442700  1.0  -0.0059
  C  C317  1  0.466410  0.076170  0.451800  1.0  -0.1183
  C  C318  1  0.523920  0.048180  0.461500  1.0  -0.0262
  C  C319  1  0.527400  0.983570  0.465900  1.0  -0.0017
  C  C320  1  0.584560  0.955600  0.478700  1.0  -0.1339
  C  C321  1  0.637000  0.990700  0.485000  1.0  -0.0882
  C  C322  1  0.633570  0.054300  0.479200  1.0  -0.0267
  C  C323  1  0.577810  0.082980  0.468400  1.0  -0.1
  C  C324  1  0.575300  0.151300  0.466400  1.0  0.5086
  C  C325  1  0.462400  0.144400  0.451800  1.0  0.5579
  C  C326  1  0.511900  0.245300  0.466600  1.0  0.0484
  C  C327  1  0.489900  0.276300  0.381100  1.0  -0.3466
  C  C328  1  0.476940  0.259100  0.554100  1.0  0.6681
  C  C329  1  0.689400  0.683900  0.173800  1.0  0.1539
  C  C330  1  0.746700  0.697700  0.141500  1.0  -0.1906
  C  C331  1  0.767300  0.757700  0.141100  1.0  0.1011
  C  C332  1  0.727520  0.801400  0.178300  1.0  -0.1995
  C  C333  1  0.671010  0.784400  0.208900  1.0  0.1813
  C  C334  1  0.913010  0.750730  0.007000  1.0  0.1797
  C  C335  1  0.856390  0.734980  0.040300  1.0  -0.2077
  C  C336  1  0.827880  0.774600  0.103000  1.0  0.0737
  C  C337  1  0.858500  0.828010  0.126800  1.0  -0.1864
  C  C338  1  0.915290  0.839910  0.089200  1.0  0.162
  C  C339  1  0.189400  0.816100  0.076200  1.0  0.153
  C  C340  1  0.246700  0.802300  0.108500  1.0  -0.1903
  C  C341  1  0.267300  0.742300  0.108900  1.0  0.1013
  C  C342  1  0.227520  0.698600  0.071700  1.0  -0.1994
  C  C343  1  0.171010  0.715600  0.041100  1.0  0.1822
  C  C344  1  0.413010  0.749270  0.243000  1.0  0.1796
  C  C345  1  0.356390  0.765020  0.209700  1.0  -0.2078
  C  C346  1  0.327880  0.725400  0.147000  1.0  0.0747
  C  C347  1  0.358500  0.671990  0.123200  1.0  -0.1854
  C  C348  1  0.415290  0.660090  0.160800  1.0  0.1635
  C  C349  1  0.958540  0.260300  0.354700  1.0  0.6919
  C  C350  1  0.961600  0.287700  0.260000  1.0  0.0481
  C  C351  1  0.011200  0.257700  0.199700  1.0  -0.3262
  C  C352  1  0.911500  0.388000  0.262300  1.0  0.4473
  C  C353  1  0.023000  0.380800  0.293100  1.0  0.5298
  C  C354  1  0.026720  0.448500  0.294100  1.0  -0.1198
  C  C355  1  0.082600  0.477000  0.304800  1.0  -0.0273
  C  C356  1  0.085420  0.541300  0.307300  1.0  -0.0068
  C  C357  1  0.033590  0.576170  0.298200  1.0  -0.1189
  C  C358  1  0.976080  0.548180  0.288500  1.0  -0.0263
  C  C359  1  0.972600  0.483570  0.284100  1.0  -0.0014
  C  C360  1  0.915440  0.455600  0.271300  1.0  -0.1337
  C  C361  1  0.863000  0.490700  0.265000  1.0  -0.0875
  C  C362  1  0.866430  0.554300  0.270800  1.0  -0.0274
  C  C363  1  0.922190  0.582980  0.281600  1.0  -0.0993
  C  C364  1  0.924700  0.651300  0.283600  1.0  0.5081
  C  C365  1  0.037600  0.644400  0.298200  1.0  0.5586
  C  C366  1  0.988100  0.745300  0.283400  1.0  0.0481
  C  C367  1  0.010100  0.776300  0.368900  1.0  -0.3478
  C  C368  1  0.023060  0.759100  0.195900  1.0  0.6693
  C  C369  1  0.458540  0.239700  0.895300  1.0  0.695
  C  C370  1  0.461600  0.212300  0.990000  1.0  0.0486
  C  C371  1  0.511200  0.242300  0.050300  1.0  -0.3276
  C  C372  1  0.411500  0.112000  0.987700  1.0  0.4471
  C  C373  1  0.523000  0.119200  0.956900  1.0  0.5293
  C  C374  1  0.526720  0.051500  0.955900  1.0  -0.1198
  C  C375  1  0.582600  0.023000  0.945200  1.0  -0.027
  C  C376  1  0.585420  0.958700  0.942700  1.0  -0.0067
  C  C377  1  0.533590  0.923830  0.951800  1.0  -0.1195
  C  C378  1  0.476080  0.951820  0.961500  1.0  -0.0262
  C  C379  1  0.472600  0.016430  0.965900  1.0  -0.0014
  C  C380  1  0.415440  0.044400  0.978700  1.0  -0.1336
  C  C381  1  0.363000  0.009300  0.985000  1.0  -0.088
  C  C382  1  0.366430  0.945700  0.979200  1.0  -0.027
  C  C383  1  0.422190  0.917020  0.968400  1.0  -0.0994
  C  C384  1  0.424700  0.848700  0.966400  1.0  0.5074
  C  C385  1  0.537600  0.855600  0.951800  1.0  0.5588
  C  C386  1  0.488100  0.754700  0.966600  1.0  0.0472
  C  C387  1  0.510100  0.723700  0.881100  1.0  -0.3464
  C  C388  1  0.523060  0.740900  0.054100  1.0  0.6676
  C  C389  1  0.310600  0.316100  0.673800  1.0  0.154
  C  C390  1  0.253300  0.302300  0.641500  1.0  -0.1899
  C  C391  1  0.232700  0.242300  0.641100  1.0  0.1026
  C  C392  1  0.272480  0.198600  0.678300  1.0  -0.1996
  C  C393  1  0.328990  0.215600  0.708900  1.0  0.1813
  C  C394  1  0.086990  0.249270  0.507000  1.0  0.1804
  C  C395  1  0.143610  0.265020  0.540300  1.0  -0.2072
  C  C396  1  0.172120  0.225400  0.603000  1.0  0.0732
  C  C397  1  0.141500  0.171990  0.626800  1.0  -0.1842
  C  C398  1  0.084710  0.160090  0.589200  1.0  0.1632
  C  C399  1  0.810600  0.183900  0.576200  1.0  0.1541
  C  C400  1  0.753300  0.197700  0.608500  1.0  -0.189
  C  C401  1  0.732700  0.257700  0.608900  1.0  0.1019
  C  C402  1  0.772480  0.301400  0.571700  1.0  -0.2003
  C  C403  1  0.828990  0.284400  0.541100  1.0  0.1817
  C  C404  1  0.586990  0.250730  0.743000  1.0  0.1805
  C  C405  1  0.643610  0.234980  0.709700  1.0  -0.2071
  C  C406  1  0.672120  0.274600  0.647000  1.0  0.0734
  C  C407  1  0.641500  0.328010  0.623200  1.0  -0.1875
  C  C408  1  0.584710  0.339910  0.660800  1.0  0.162
  N  N409  1  0.144740  0.467020  0.015000  1.0  -0.1891
  N  N410  1  0.823030  0.482920  0.043200  1.0  -0.1868
  N  N411  1  0.355260  0.967020  0.735000  1.0  -0.1872
  N  N412  1  0.676970  0.982920  0.706800  1.0  -0.1869
  N  N413  1  0.227100  0.849180  0.456500  1.0  -0.3348
  N  N414  1  0.301990  0.557000  0.280900  1.0  -0.3427
  N  N415  1  0.272900  0.349180  0.293500  1.0  -0.3346
  N  N416  1  0.198010  0.057000  0.469100  1.0  -0.3432
  N  N417  1  0.855260  0.532980  0.515000  1.0  -0.1887
  N  N418  1  0.176970  0.517080  0.543200  1.0  -0.1857
  N  N419  1  0.644740  0.032980  0.235000  1.0  -0.189
  N  N420  1  0.323030  0.017080  0.206800  1.0  -0.1867
  N  N421  1  0.772900  0.150820  0.956500  1.0  -0.3335
  N  N422  1  0.698010  0.443000  0.780900  1.0  -0.3415
  N  N423  1  0.727100  0.650820  0.793500  1.0  -0.3322
  N  N424  1  0.801990  0.943000  0.969100  1.0  -0.3395
  N  N425  1  0.032980  0.644740  0.765000  1.0  -0.1881
  N  N426  1  0.017080  0.323030  0.793200  1.0  -0.1849
  N  N427  1  0.532980  0.855260  0.485000  1.0  -0.1876
  N  N428  1  0.517080  0.176970  0.456800  1.0  -0.186
  N  N429  1  0.650820  0.727100  0.206500  1.0  -0.334
  N  N430  1  0.943000  0.801990  0.030900  1.0  -0.3463
  N  N431  1  0.150820  0.772900  0.043500  1.0  -0.333
  N  N432  1  0.443000  0.698010  0.219100  1.0  -0.3447
  N  N433  1  0.967020  0.355260  0.265000  1.0  -0.1879
  N  N434  1  0.982920  0.676970  0.293200  1.0  -0.1869
  N  N435  1  0.467020  0.144740  0.985000  1.0  -0.1881
  N  N436  1  0.482920  0.823030  0.956800  1.0  -0.1871
  N  N437  1  0.349180  0.272900  0.706500  1.0  -0.3334
  N  N438  1  0.057000  0.198010  0.530900  1.0  -0.3468
  N  N439  1  0.849180  0.227100  0.543500  1.0  -0.3326
  N  N440  1  0.557000  0.301990  0.719100  1.0  -0.3443
  O  O441  1  0.205710  0.452090  0.172550  1.0  -0.5865
  O  O442  1  0.297390  0.460050  0.109700  1.0  -0.6029
  O  O443  1  0.137900  0.362980  0.999800  1.0  -0.5007
  O  O444  1  0.152050  0.565230  0.063200  1.0  -0.48
  O  O445  1  0.817310  0.379600  0.026100  1.0  -0.4882
  O  O446  1  0.828720  0.586610  0.052500  1.0  -0.5278
  O  O447  1  0.779770  0.524050  0.884500  1.0  -0.6006
  O  O448  1  0.686470  0.542510  0.936600  1.0  -0.6446
  O  O449  1  0.294290  0.952090  0.577450  1.0  -0.586
  O  O450  1  0.202610  0.960050  0.640300  1.0  -0.6013
  O  O451  1  0.362100  0.862980  0.750200  1.0  -0.5012
  O  O452  1  0.347950  0.065230  0.686800  1.0  -0.4793
  O  O453  1  0.682690  0.879600  0.723900  1.0  -0.4882
  O  O454  1  0.671280  0.086610  0.697500  1.0  -0.5278
  O  O455  1  0.720230  0.024050  0.865500  1.0  -0.6017
  O  O456  1  0.813530  0.042510  0.813400  1.0  -0.6448
  O  O457  1  0.794290  0.547910  0.672550  1.0  -0.5865
  O  O458  1  0.702610  0.539950  0.609700  1.0  -0.6036
  O  O459  1  0.862100  0.637020  0.499800  1.0  -0.5005
  O  O460  1  0.847950  0.434770  0.563200  1.0  -0.4808
  O  O461  1  0.182690  0.620400  0.526100  1.0  -0.4872
  O  O462  1  0.171280  0.413390  0.552500  1.0  -0.5269
  O  O463  1  0.220230  0.475950  0.384500  1.0  -0.6008
  O  O464  1  0.313530  0.457490  0.436600  1.0  -0.6459
  O  O465  1  0.705710  0.047910  0.077450  1.0  -0.5855
  O  O466  1  0.797390  0.039950  0.140300  1.0  -0.602
  O  O467  1  0.637900  0.137020  0.250200  1.0  -0.4992
  O  O468  1  0.652050  0.934770  0.186800  1.0  -0.4796
  O  O469  1  0.317310  0.120400  0.223900  1.0  -0.4875
  O  O470  1  0.328720  0.913390  0.197500  1.0  -0.5279
  O  O471  1  0.279770  0.975950  0.365500  1.0  -0.6008
  O  O472  1  0.186470  0.957490  0.313400  1.0  -0.646
  O  O473  1  0.047910  0.705710  0.922550  1.0  -0.5847
  O  O474  1  0.039950  0.797390  0.859700  1.0  -0.6153
  O  O475  1  0.137020  0.637900  0.749800  1.0  -0.5009
  O  O476  1  0.934770  0.652050  0.813200  1.0  -0.4804
  O  O477  1  0.120400  0.317310  0.776100  1.0  -0.4878
  O  O478  1  0.913390  0.328720  0.802500  1.0  -0.5263
  O  O479  1  0.975950  0.279770  0.634500  1.0  -0.6001
  O  O480  1  0.957490  0.186470  0.686600  1.0  -0.6448
  O  O481  1  0.547910  0.794290  0.327450  1.0  -0.5842
  O  O482  1  0.539950  0.702610  0.390300  1.0  -0.6197
  O  O483  1  0.637020  0.862100  0.500200  1.0  -0.5005
  O  O484  1  0.434770  0.847950  0.436800  1.0  -0.4796
  O  O485  1  0.620400  0.182690  0.473900  1.0  -0.4868
  O  O486  1  0.413390  0.171280  0.447500  1.0  -0.5268
  O  O487  1  0.475950  0.220230  0.615500  1.0  -0.5996
  O  O488  1  0.457490  0.313530  0.563400  1.0  -0.6415
  O  O489  1  0.952090  0.294290  0.422550  1.0  -0.5839
  O  O490  1  0.960050  0.202610  0.359700  1.0  -0.6194
  O  O491  1  0.862980  0.362100  0.249800  1.0  -0.501
  O  O492  1  0.065230  0.347950  0.313200  1.0  -0.4809
  O  O493  1  0.879600  0.682690  0.276100  1.0  -0.4888
  O  O494  1  0.086610  0.671280  0.302500  1.0  -0.5262
  O  O495  1  0.024050  0.720230  0.134500  1.0  -0.5987
  O  O496  1  0.042510  0.813530  0.186600  1.0  -0.6434
  O  O497  1  0.452090  0.205710  0.827450  1.0  -0.5832
  O  O498  1  0.460050  0.297390  0.890300  1.0  -0.6166
  O  O499  1  0.362980  0.137900  0.000200  1.0  -0.5009
  O  O500  1  0.565230  0.152050  0.936800  1.0  -0.4806
  O  O501  1  0.379600  0.817310  0.973900  1.0  -0.4883
  O  O502  1  0.586610  0.828720  0.947500  1.0  -0.5266
  O  O503  1  0.524050  0.779770  0.115500  1.0  -0.6
  O  O504  1  0.542510  0.686470  0.063400  1.0  -0.6474
