# generated using pymatgen
data_Ni3C8(N3O4)2
_symmetry_space_group_name_H-M   'P 1'
_cell_length_a   11.92450000
_cell_length_b   11.92450000
_cell_length_c   16.30200000
_cell_angle_alpha   90.00000000
_cell_angle_beta   90.00000000
_cell_angle_gamma   120.00000000
_symmetry_Int_Tables_number   1
_chemical_formula_structural   Ni3C8(N3O4)2
_chemical_formula_sum   'Ni9 C24 N18 O24'
_cell_volume   2007.48300051
_cell_formula_units_Z   3
loop_
 _symmetry_equiv_pos_site_id
 _symmetry_equiv_pos_as_xyz
  1  'x, y, z'
loop_
 _atom_site_type_symbol
 _atom_site_label
 _atom_site_symmetry_multiplicity
 _atom_site_fract_x
 _atom_site_fract_y
 _atom_site_fract_z
 _atom_site_occupancy
 _atom_site_charge
  Ni  Ni1  1  0.456620  0.504880  0.858930  1.0  0.6213
  Ni  Ni2  1  0.048260  0.543380  0.525600  1.0  0.6215
  Ni  Ni3  1  0.495120  0.951740  0.192260  1.0  0.6211
  Ni  Ni4  1  0.951740  0.495120  0.141070  1.0  0.6204
  Ni  Ni5  1  0.504880  0.456620  0.474400  1.0  0.6204
  Ni  Ni6  1  0.543380  0.048260  0.807740  1.0  0.6184
  Ni  Ni7  1  0.373250  0.000000  0.000000  1.0  0.9501
  Ni  Ni8  1  0.626750  0.626750  0.666667  1.0  0.9499
  Ni  Ni9  1  0.000000  0.373250  0.333333  1.0  0.9484
  C  C10  1  0.486100  0.286400  0.825000  1.0  0.282
  C  C11  1  0.393500  0.232300  0.939000  1.0  0.272
  C  C12  1  0.538400  0.364900  0.748100  1.0  0.6987
  C  C13  1  0.319900  0.210700  0.017200  1.0  0.6908
  C  C14  1  0.800300  0.513900  0.491670  1.0  0.2815
  C  C15  1  0.838800  0.606500  0.605670  1.0  0.2712
  C  C16  1  0.826500  0.461600  0.414770  1.0  0.6995
  C  C17  1  0.890800  0.680100  0.683870  1.0  0.69
  C  C18  1  0.713600  0.199700  0.158330  1.0  0.2822
  C  C19  1  0.767700  0.161200  0.272330  1.0  0.2702
  C  C20  1  0.635100  0.173500  0.081430  1.0  0.6984
  C  C21  1  0.789300  0.109200  0.350530  1.0  0.6916
  C  C22  1  0.199700  0.713600  0.175000  1.0  0.2836
  C  C23  1  0.161200  0.767700  0.061000  1.0  0.2722
  C  C24  1  0.173500  0.635100  0.251900  1.0  0.6992
  C  C25  1  0.109200  0.789300  0.982800  1.0  0.6906
  C  C26  1  0.286400  0.486100  0.508330  1.0  0.283
  C  C27  1  0.232300  0.393500  0.394330  1.0  0.2719
  C  C28  1  0.364900  0.538400  0.585230  1.0  0.6999
  C  C29  1  0.210700  0.319900  0.316130  1.0  0.6893
  C  C30  1  0.513900  0.800300  0.841670  1.0  0.2837
  C  C31  1  0.606500  0.838800  0.727670  1.0  0.2698
  C  C32  1  0.461600  0.826500  0.918570  1.0  0.6994
  C  C33  1  0.680100  0.890800  0.649470  1.0  0.6926
  N  N34  1  0.425500  0.145000  0.920140  1.0  -0.1768
  N  N35  1  0.427700  0.322900  0.881700  1.0  -0.4007
  N  N36  1  0.487300  0.178200  0.846300  1.0  -0.3909
  N  N37  1  0.719500  0.574500  0.586810  1.0  -0.178
  N  N38  1  0.895200  0.572300  0.548370  1.0  -0.4024
  N  N39  1  0.690900  0.512700  0.512970  1.0  -0.3879
  N  N40  1  0.855000  0.280500  0.253470  1.0  -0.1784
  N  N41  1  0.677100  0.104800  0.215030  1.0  -0.4025
  N  N42  1  0.821800  0.309100  0.179630  1.0  -0.3898
  N  N43  1  0.280500  0.855000  0.079860  1.0  -0.1765
  N  N44  1  0.104800  0.677100  0.118300  1.0  -0.4007
  N  N45  1  0.309100  0.821800  0.153700  1.0  -0.3876
  N  N46  1  0.145000  0.425500  0.413190  1.0  -0.1776
  N  N47  1  0.322900  0.427700  0.451630  1.0  -0.4022
  N  N48  1  0.178200  0.487300  0.487030  1.0  -0.386
  N  N49  1  0.574500  0.719500  0.746530  1.0  -0.1789
  N  N50  1  0.572300  0.895200  0.784970  1.0  -0.4032
  N  N51  1  0.512700  0.690900  0.820370  1.0  -0.3864
  O  O52  1  0.543200  0.475100  0.751370  1.0  -0.6301
  O  O53  1  0.301600  0.111000  0.056570  1.0  -0.5304
  O  O54  1  0.569700  0.322900  0.689000  1.0  -0.4532
  O  O55  1  0.280800  0.285300  0.038800  1.0  -0.4585
  O  O56  1  0.931900  0.456800  0.418040  1.0  -0.6286
  O  O57  1  0.809400  0.698400  0.723240  1.0  -0.5296
  O  O58  1  0.753200  0.430300  0.355670  1.0  -0.4549
  O  O59  1  0.004500  0.719200  0.705470  1.0  -0.4597
  O  O60  1  0.524900  0.068100  0.084700  1.0  -0.6304
  O  O61  1  0.889000  0.190600  0.389900  1.0  -0.5273
  O  O62  1  0.677100  0.246800  0.022330  1.0  -0.4523
  O  O63  1  0.714700  0.995500  0.372130  1.0  -0.459
  O  O64  1  0.068100  0.524900  0.248630  1.0  -0.6305
  O  O65  1  0.190600  0.889000  0.943430  1.0  -0.5296
  O  O66  1  0.246800  0.677100  0.311000  1.0  -0.4547
  O  O67  1  0.995500  0.714700  0.961200  1.0  -0.4613
  O  O68  1  0.475100  0.543200  0.581960  1.0  -0.6279
  O  O69  1  0.111000  0.301600  0.276760  1.0  -0.5291
  O  O70  1  0.322900  0.569700  0.644330  1.0  -0.4521
  O  O71  1  0.285300  0.280800  0.294530  1.0  -0.4594
  O  O72  1  0.456800  0.931900  0.915300  1.0  -0.6303
  O  O73  1  0.698400  0.809400  0.610100  1.0  -0.5291
  O  O74  1  0.430300  0.753200  0.977670  1.0  -0.4514
  O  O75  1  0.719200  0.004500  0.627870  1.0  -0.4592
