# generated using pymatgen
data_Sr2H14C18O11
_symmetry_space_group_name_H-M   'P 1'
_cell_length_a   7.42960000
_cell_length_b   11.62700000
_cell_length_c   14.07610000
_cell_angle_alpha   114.39400000
_cell_angle_beta   98.77230000
_cell_angle_gamma   90.00000000
_symmetry_Int_Tables_number   1
_chemical_formula_structural   Sr2H14C18O11
_chemical_formula_sum   'Sr4 H28 C36 O22'
_cell_volume   1091.76047300
_cell_formula_units_Z   2
loop_
 _symmetry_equiv_pos_site_id
 _symmetry_equiv_pos_as_xyz
  1  'x, y, z'
loop_
 _atom_site_type_symbol
 _atom_site_label
 _atom_site_symmetry_multiplicity
 _atom_site_fract_x
 _atom_site_fract_y
 _atom_site_fract_z
 _atom_site_occupancy
 _atom_site_charge
  Sr  Sr1  1  0.438470  0.158410  0.889460  1.0  1.6713
  Sr  Sr2  1  0.061530  0.268950  0.110540  1.0  1.6647
  Sr  Sr3  1  0.561530  0.841590  0.110540  1.0  1.6656
  Sr  Sr4  1  0.938470  0.731050  0.889460  1.0  1.6604
  H  H5  1  0.704000  0.110100  0.040200  1.0  0.4376
  H  H6  1  0.924300  0.289900  0.630400  1.0  0.0979
  H  H7  1  0.955300  0.219200  0.454800  1.0  0.1161
  H  H8  1  0.317000  0.109700  0.609600  1.0  0.1239
  H  H9  1  0.651000  0.963200  0.565800  1.0  0.084
  H  H10  1  0.103100  0.850200  0.723000  1.0  0.0927
  H  H11  1  0.936700  0.914300  0.687000  1.0  0.1007
  H  H12  1  0.796000  0.069900  0.959800  1.0  0.4348
  H  H13  1  0.575700  0.659500  0.369600  1.0  0.0982
  H  H14  1  0.544700  0.764400  0.545200  1.0  0.1168
  H  H15  1  0.183000  0.500100  0.390400  1.0  0.1241
  H  H16  1  0.849000  0.397400  0.434200  1.0  0.0844
  H  H17  1  0.396900  0.127200  0.277000  1.0  0.0921
  H  H18  1  0.563300  0.227300  0.313000  1.0  0.1049
  H  H19  1  0.296000  0.889900  0.959800  1.0  0.436
  H  H20  1  0.075700  0.710100  0.369600  1.0  0.0979
  H  H21  1  0.044700  0.780800  0.545200  1.0  0.1158
  H  H22  1  0.683000  0.890300  0.390400  1.0  0.124
  H  H23  1  0.349000  0.036800  0.434200  1.0  0.0839
  H  H24  1  0.896900  0.149800  0.277000  1.0  0.0917
  H  H25  1  0.063300  0.085700  0.313000  1.0  0.1058
  H  H26  1  0.204000  0.930100  0.040200  1.0  0.4353
  H  H27  1  0.424300  0.340500  0.630400  1.0  0.0977
  H  H28  1  0.455300  0.235600  0.454800  1.0  0.1169
  H  H29  1  0.817000  0.499900  0.609600  1.0  0.1246
  H  H30  1  0.151000  0.602600  0.565800  1.0  0.0845
  H  H31  1  0.603100  0.872800  0.723000  1.0  0.0906
  H  H32  1  0.436700  0.772700  0.687000  1.0  0.103
  C  C33  1  0.760500  0.182350  0.730700  1.0  0.7351
  C  C34  1  0.781900  0.134790  0.616580  1.0  -0.1933
  C  C35  1  0.874100  0.210030  0.582060  1.0  0.0185
  C  C36  1  0.892600  0.168040  0.476880  1.0  -0.2738
  C  C37  1  0.182900  0.950980  0.595360  1.0  0.2912
  C  C38  1  0.270500  0.028670  0.561740  1.0  -0.2309
  C  C39  1  0.711600  0.015180  0.543560  1.0  -0.008
  C  C40  1  0.054600  0.930910  0.732420  1.0  -0.0968
  C  C41  1  0.030400  0.002260  0.845920  1.0  0.7584
  C  C42  1  0.739500  0.451650  0.269300  1.0  0.7409
  C  C43  1  0.718100  0.518210  0.383420  1.0  -0.1936
  C  C44  1  0.625900  0.627970  0.417940  1.0  0.0238
  C  C45  1  0.607400  0.691160  0.523120  1.0  -0.2762
  C  C46  1  0.317100  0.355620  0.404640  1.0  0.2936
  C  C47  1  0.229500  0.466930  0.438260  1.0  -0.2292
  C  C48  1  0.788400  0.471620  0.456440  1.0  -0.0071
  C  C49  1  0.445400  0.198490  0.267580  1.0  -0.106
  C  C50  1  0.469600  0.156340  0.154080  1.0  0.7617
  C  C51  1  0.239500  0.817650  0.269300  1.0  0.7382
  C  C52  1  0.218100  0.865210  0.383420  1.0  -0.1931
  C  C53  1  0.125900  0.789970  0.417940  1.0  0.014
  C  C54  1  0.107400  0.831960  0.523120  1.0  -0.2756
  C  C55  1  0.817100  0.049020  0.404640  1.0  0.2847
  C  C56  1  0.729500  0.971330  0.438260  1.0  -0.2313
  C  C57  1  0.288400  0.984820  0.456440  1.0  -0.0075
  C  C58  1  0.945400  0.069090  0.267580  1.0  -0.102
  C  C59  1  0.969600  0.997740  0.154080  1.0  0.7598
  C  C60  1  0.260500  0.548350  0.730700  1.0  0.7367
  C  C61  1  0.281900  0.481790  0.616580  1.0  -0.1957
  C  C62  1  0.374100  0.372030  0.582060  1.0  0.0233
  C  C63  1  0.392600  0.308840  0.476880  1.0  -0.2749
  C  C64  1  0.682900  0.644380  0.595360  1.0  0.2865
  C  C65  1  0.770500  0.533070  0.561740  1.0  -0.23
  C  C66  1  0.211600  0.528380  0.543560  1.0  -0.0089
  C  C67  1  0.554600  0.801510  0.732420  1.0  -0.1015
  C  C68  1  0.530400  0.843660  0.845920  1.0  0.7595
  O  O69  1  0.652400  0.123090  0.756820  1.0  -0.7727
  O  O70  1  0.859300  0.281730  0.793540  1.0  -0.6862
  O  O71  1  0.174900  0.000030  0.701980  1.0  -0.327
  O  O72  1  0.107100  0.109900  0.902820  1.0  -0.7531
  O  O73  1  0.924600  0.942200  0.874520  1.0  -0.7143
  O  O74  1  0.847600  0.366270  0.243180  1.0  -0.7648
  O  O75  1  0.640700  0.488190  0.206460  1.0  -0.7001
  O  O76  1  0.325100  0.298050  0.298020  1.0  -0.3287
  O  O77  1  0.392900  0.207080  0.097180  1.0  -0.7584
  O  O78  1  0.575400  0.067680  0.125480  1.0  -0.7155
  O  O79  1  0.347600  0.876910  0.243180  1.0  -0.7732
  O  O80  1  0.140700  0.718270  0.206460  1.0  -0.702
  O  O81  1  0.825100  0.999970  0.298020  1.0  -0.3267
  O  O82  1  0.892900  0.890100  0.097180  1.0  -0.7547
  O  O83  1  0.075400  0.057800  0.125480  1.0  -0.7149
  O  O84  1  0.152400  0.633730  0.756820  1.0  -0.7672
  O  O85  1  0.359300  0.511810  0.793540  1.0  -0.6935
  O  O86  1  0.674900  0.701950  0.701980  1.0  -0.3284
  O  O87  1  0.607100  0.792920  0.902820  1.0  -0.7589
  O  O88  1  0.424600  0.932320  0.874520  1.0  -0.7142
  O  O89  1  0.750000  0.134600  0.000000  1.0  -0.8917
  O  O90  1  0.250000  0.865400  0.000000  1.0  -0.9227
