# generated using pymatgen
data_FeH32C44S4N7
_symmetry_space_group_name_H-M   'P 1'
_cell_length_a   29.92900000
_cell_length_b   15.49820000
_cell_length_c   9.68330000
_cell_angle_alpha   90.00000000
_cell_angle_beta   90.00000000
_cell_angle_gamma   90.00000000
_symmetry_Int_Tables_number   1
_chemical_formula_structural   FeH32C44S4N7
_chemical_formula_sum   'Fe4 H128 C176 S16 N28'
_cell_volume   4491.55636768
_cell_formula_units_Z   4
loop_
 _symmetry_equiv_pos_site_id
 _symmetry_equiv_pos_as_xyz
  1  'x, y, z'
loop_
 _atom_site_type_symbol
 _atom_site_label
 _atom_site_symmetry_multiplicity
 _atom_site_fract_x
 _atom_site_fract_y
 _atom_site_fract_z
 _atom_site_occupancy
 _atom_site_charge
  Fe  Fe1  1  0.731490  0.217130  0.000000  1.0  0.1295
  Fe  Fe2  1  0.268510  0.782870  0.000000  1.0  0.1307
  Fe  Fe3  1  0.768510  0.717130  0.000000  1.0  0.1299
  Fe  Fe4  1  0.231490  0.282870  0.000000  1.0  0.1299
  H  H5  1  0.693300  0.289300  0.724900  1.0  0.1246
  H  H6  1  0.676400  0.062500  0.899900  1.0  0.0707
  H  H7  1  0.641000  0.254300  0.560800  1.0  0.1586
  H  H8  1  0.622600  0.033400  0.756000  1.0  0.0326
  H  H9  1  0.286800  0.140400  0.573900  1.0  0.1123
  H  H10  1  0.379300  0.266000  0.794800  1.0  0.0797
  H  H11  1  0.233400  0.179200  0.737000  1.0  0.1139
  H  H12  1  0.326300  0.314000  0.935300  1.0  0.0975
  H  H13  1  0.637100  0.244800  0.035300  1.0  0.1628
  H  H14  1  0.582000  0.222100  0.194800  1.0  0.0771
  H  H15  1  0.667600  0.067500  0.400800  1.0  0.0473
  H  H16  1  0.721500  0.106400  0.247800  1.0  0.0584
  H  H17  1  0.321700  0.301300  0.426500  1.0  0.0995
  H  H18  1  0.274800  0.344600  0.279100  1.0  0.073
  H  H19  1  0.289000  0.132400  0.065900  1.0  0.1409
  H  H20  1  0.343400  0.085600  0.199000  1.0  0.0929
  H  H21  1  0.306700  0.710700  0.724900  1.0  0.1212
  H  H22  1  0.323600  0.937500  0.899900  1.0  0.068
  H  H23  1  0.359000  0.745700  0.560800  1.0  0.1564
  H  H24  1  0.377400  0.966600  0.756000  1.0  0.0352
  H  H25  1  0.713200  0.859600  0.573900  1.0  0.1109
  H  H26  1  0.620700  0.734000  0.794800  1.0  0.0712
  H  H27  1  0.766600  0.820800  0.737000  1.0  0.116
  H  H28  1  0.673700  0.686000  0.935300  1.0  0.0998
  H  H29  1  0.362900  0.755200  0.035300  1.0  0.1577
  H  H30  1  0.418000  0.777900  0.194800  1.0  0.0862
  H  H31  1  0.332400  0.932500  0.400800  1.0  0.047
  H  H32  1  0.278500  0.893600  0.247800  1.0  0.0558
  H  H33  1  0.678300  0.698700  0.426500  1.0  0.1011
  H  H34  1  0.725200  0.655400  0.279100  1.0  0.0683
  H  H35  1  0.711000  0.867600  0.065900  1.0  0.1377
  H  H36  1  0.656600  0.914400  0.199000  1.0  0.0912
  H  H37  1  0.806700  0.789300  0.275100  1.0  0.1243
  H  H38  1  0.823600  0.562500  0.100100  1.0  0.0688
  H  H39  1  0.859000  0.754300  0.439200  1.0  0.1431
  H  H40  1  0.877400  0.533400  0.244000  1.0  0.0336
  H  H41  1  0.213200  0.640400  0.426100  1.0  0.113
  H  H42  1  0.120700  0.766000  0.205200  1.0  0.0714
  H  H43  1  0.266600  0.679200  0.263000  1.0  0.113
  H  H44  1  0.173700  0.814000  0.064700  1.0  0.0978
  H  H45  1  0.862900  0.744800  0.964700  1.0  0.162
  H  H46  1  0.918000  0.722100  0.805200  1.0  0.0852
  H  H47  1  0.832400  0.567500  0.599200  1.0  0.0467
  H  H48  1  0.778500  0.606400  0.752200  1.0  0.0573
  H  H49  1  0.178300  0.801300  0.573500  1.0  0.1008
  H  H50  1  0.225200  0.844600  0.720900  1.0  0.072
  H  H51  1  0.211000  0.632400  0.934100  1.0  0.1413
  H  H52  1  0.156600  0.585600  0.801000  1.0  0.0919
  H  H53  1  0.193300  0.210700  0.275100  1.0  0.1236
  H  H54  1  0.176400  0.437500  0.100100  1.0  0.0686
  H  H55  1  0.141000  0.245700  0.439200  1.0  0.1454
  H  H56  1  0.122600  0.466600  0.244000  1.0  0.0364
  H  H57  1  0.786800  0.359600  0.426100  1.0  0.1145
  H  H58  1  0.879300  0.234000  0.205200  1.0  0.0802
  H  H59  1  0.733400  0.320800  0.263000  1.0  0.1143
  H  H60  1  0.826300  0.186000  0.064700  1.0  0.099
  H  H61  1  0.137100  0.255200  0.964700  1.0  0.159
  H  H62  1  0.082000  0.277900  0.805200  1.0  0.0749
  H  H63  1  0.167600  0.432500  0.599200  1.0  0.0471
  H  H64  1  0.221500  0.393600  0.752200  1.0  0.0603
  H  H65  1  0.821700  0.198700  0.573500  1.0  0.1001
  H  H66  1  0.774800  0.155400  0.720900  1.0  0.0698
  H  H67  1  0.789000  0.367600  0.934100  1.0  0.1378
  H  H68  1  0.843400  0.414400  0.801000  1.0  0.0919
  H  H69  1  0.306700  0.710700  0.275100  1.0  0.1228
  H  H70  1  0.323600  0.937500  0.100100  1.0  0.0693
  H  H71  1  0.359000  0.745700  0.439200  1.0  0.1557
  H  H72  1  0.377400  0.966600  0.244000  1.0  0.0356
  H  H73  1  0.713200  0.859600  0.426100  1.0  0.1131
  H  H74  1  0.620700  0.734000  0.205200  1.0  0.0709
  H  H75  1  0.766600  0.820800  0.263000  1.0  0.1138
  H  H76  1  0.673700  0.686000  0.064700  1.0  0.099
  H  H77  1  0.362900  0.755200  0.964700  1.0  0.1569
  H  H78  1  0.418000  0.777900  0.805200  1.0  0.0855
  H  H79  1  0.332400  0.932500  0.599200  1.0  0.0482
  H  H80  1  0.278500  0.893600  0.752200  1.0  0.0584
  H  H81  1  0.678300  0.698700  0.573500  1.0  0.1003
  H  H82  1  0.725200  0.655400  0.720900  1.0  0.0679
  H  H83  1  0.711000  0.867600  0.934100  1.0  0.1379
  H  H84  1  0.656600  0.914400  0.801000  1.0  0.0916
  H  H85  1  0.693300  0.289300  0.275100  1.0  0.1244
  H  H86  1  0.676400  0.062500  0.100100  1.0  0.0689
  H  H87  1  0.641000  0.254300  0.439200  1.0  0.1575
  H  H88  1  0.622600  0.033400  0.244000  1.0  0.0326
  H  H89  1  0.286800  0.140400  0.426100  1.0  0.1151
  H  H90  1  0.379300  0.266000  0.205200  1.0  0.0801
  H  H91  1  0.233400  0.179200  0.263000  1.0  0.1141
  H  H92  1  0.326300  0.314000  0.064700  1.0  0.0967
  H  H93  1  0.637100  0.244800  0.964700  1.0  0.1628
  H  H94  1  0.582000  0.222100  0.805200  1.0  0.077
  H  H95  1  0.667600  0.067500  0.599200  1.0  0.0459
  H  H96  1  0.721500  0.106400  0.752200  1.0  0.0596
  H  H97  1  0.321700  0.301300  0.573500  1.0  0.1005
  H  H98  1  0.274800  0.344600  0.720900  1.0  0.0735
  H  H99  1  0.289000  0.132400  0.934100  1.0  0.1407
  H  H100  1  0.343400  0.085600  0.801000  1.0  0.093
  H  H101  1  0.193300  0.210700  0.724900  1.0  0.1227
  H  H102  1  0.176400  0.437500  0.899900  1.0  0.0674
  H  H103  1  0.141000  0.245700  0.560800  1.0  0.1459
  H  H104  1  0.122600  0.466600  0.756000  1.0  0.0361
  H  H105  1  0.786800  0.359600  0.573900  1.0  0.1122
  H  H106  1  0.879300  0.234000  0.794800  1.0  0.0799
  H  H107  1  0.733400  0.320800  0.737000  1.0  0.1161
  H  H108  1  0.826300  0.186000  0.935300  1.0  0.0995
  H  H109  1  0.137100  0.255200  0.035300  1.0  0.1593
  H  H110  1  0.082000  0.277900  0.194800  1.0  0.0744
  H  H111  1  0.167600  0.432500  0.400800  1.0  0.0468
  H  H112  1  0.221500  0.393600  0.247800  1.0  0.0579
  H  H113  1  0.821700  0.198700  0.426500  1.0  0.1012
  H  H114  1  0.774800  0.155400  0.279100  1.0  0.0703
  H  H115  1  0.789000  0.367600  0.065900  1.0  0.1379
  H  H116  1  0.843400  0.414400  0.199000  1.0  0.0923
  H  H117  1  0.806700  0.789300  0.724900  1.0  0.1244
  H  H118  1  0.823600  0.562500  0.899900  1.0  0.0704
  H  H119  1  0.859000  0.754300  0.560800  1.0  0.1457
  H  H120  1  0.877400  0.533400  0.756000  1.0  0.0336
  H  H121  1  0.213200  0.640400  0.573900  1.0  0.1101
  H  H122  1  0.120700  0.766000  0.794800  1.0  0.0712
  H  H123  1  0.266600  0.679200  0.737000  1.0  0.1127
  H  H124  1  0.173700  0.814000  0.935300  1.0  0.0981
  H  H125  1  0.862900  0.744800  0.035300  1.0  0.1627
  H  H126  1  0.918000  0.722100  0.194800  1.0  0.0861
  H  H127  1  0.832400  0.567500  0.400800  1.0  0.0475
  H  H128  1  0.778500  0.606400  0.247800  1.0  0.0559
  H  H129  1  0.178300  0.801300  0.426500  1.0  0.0993
  H  H130  1  0.225200  0.844600  0.279100  1.0  0.0722
  H  H131  1  0.211000  0.632400  0.065900  1.0  0.1414
  H  H132  1  0.156600  0.585600  0.199000  1.0  0.0911
  C  C133  1  0.677200  0.238400  0.735100  1.0  0.021
  C  C134  1  0.667100  0.106500  0.841500  1.0  -0.0102
  C  C135  1  0.645600  0.219500  0.637700  1.0  -0.1594
  C  C136  1  0.635100  0.088300  0.753000  1.0  -0.0922
  C  C137  1  0.619900  0.142300  0.661600  1.0  0.2107
  C  C138  1  0.583300  0.125000  0.566900  1.0  -0.1091
  C  C139  1  0.375000  0.162900  0.568600  1.0  -0.1967
  C  C140  1  0.339400  0.190000  0.662900  1.0  0.2146
  C  C141  1  0.295900  0.171600  0.650800  1.0  -0.0982
  C  C142  1  0.350000  0.248200  0.781100  1.0  -0.1254
  C  C143  1  0.263000  0.196600  0.747700  1.0  -0.0129
  C  C144  1  0.318700  0.274900  0.866500  1.0  0.0107
  C  C145  1  0.643000  0.214600  0.116200  1.0  -0.0046
  C  C146  1  0.610300  0.199000  0.208500  1.0  -0.1733
  C  C147  1  0.660500  0.109000  0.335000  1.0  -0.078
  C  C148  1  0.693500  0.131700  0.239600  1.0  -0.0322
  C  C149  1  0.316300  0.266800  0.349800  1.0  -0.1192
  C  C150  1  0.288400  0.291600  0.262800  1.0  -0.012
  C  C151  1  0.297700  0.168700  0.137400  1.0  -0.0296
  C  C152  1  0.329000  0.137400  0.217400  1.0  -0.1485
  C  C153  1  0.322800  0.761600  0.735100  1.0  0.024
  C  C154  1  0.332900  0.893500  0.841500  1.0  -0.0084
  C  C155  1  0.354400  0.780500  0.637700  1.0  -0.161
  C  C156  1  0.364900  0.911700  0.753000  1.0  -0.0884
  C  C157  1  0.380100  0.857700  0.661600  1.0  0.2173
  C  C158  1  0.416700  0.875000  0.566900  1.0  -0.1146
  C  C159  1  0.625000  0.837100  0.568600  1.0  -0.1919
  C  C160  1  0.660600  0.810000  0.662900  1.0  0.2155
  C  C161  1  0.704100  0.828400  0.650800  1.0  -0.0993
  C  C162  1  0.650000  0.751800  0.781100  1.0  -0.1246
  C  C163  1  0.737000  0.803400  0.747700  1.0  -0.0101
  C  C164  1  0.681300  0.725100  0.866500  1.0  0.0113
  C  C165  1  0.357000  0.785400  0.116200  1.0  -0.006
  C  C166  1  0.389700  0.801000  0.208500  1.0  -0.1725
  C  C167  1  0.339500  0.891000  0.335000  1.0  -0.0759
  C  C168  1  0.306500  0.868300  0.239600  1.0  -0.0344
  C  C169  1  0.683700  0.733200  0.349800  1.0  -0.1173
  C  C170  1  0.711600  0.708400  0.262800  1.0  -0.0151
  C  C171  1  0.702300  0.831300  0.137400  1.0  -0.0305
  C  C172  1  0.671000  0.862600  0.217400  1.0  -0.1464
  C  C173  1  0.822800  0.738400  0.264900  1.0  0.0234
  C  C174  1  0.832900  0.606500  0.158500  1.0  -0.0085
  C  C175  1  0.854400  0.719500  0.362300  1.0  -0.1628
  C  C176  1  0.864900  0.588300  0.247000  1.0  -0.087
  C  C177  1  0.880100  0.642300  0.338400  1.0  0.218
  C  C178  1  0.916700  0.625000  0.433100  1.0  -0.1135
  C  C179  1  0.125000  0.662900  0.431400  1.0  -0.1915
  C  C180  1  0.160600  0.690000  0.337100  1.0  0.212
  C  C181  1  0.204100  0.671600  0.349200  1.0  -0.1002
  C  C182  1  0.150000  0.748200  0.218900  1.0  -0.125
  C  C183  1  0.237000  0.696600  0.252300  1.0  -0.0089
  C  C184  1  0.181300  0.774900  0.133500  1.0  0.011
  C  C185  1  0.857000  0.714600  0.883800  1.0  -0.0103
  C  C186  1  0.889700  0.699000  0.791500  1.0  -0.1715
  C  C187  1  0.839500  0.609000  0.665000  1.0  -0.0799
  C  C188  1  0.806500  0.631700  0.760400  1.0  -0.0359
  C  C189  1  0.183700  0.766800  0.650200  1.0  -0.1197
  C  C190  1  0.211600  0.791600  0.737200  1.0  -0.0177
  C  C191  1  0.202300  0.668700  0.862600  1.0  -0.032
  C  C192  1  0.171000  0.637400  0.782600  1.0  -0.1481
  C  C193  1  0.177200  0.261600  0.264900  1.0  0.0186
  C  C194  1  0.167100  0.393500  0.158500  1.0  -0.01
  C  C195  1  0.145600  0.280500  0.362300  1.0  -0.1602
  C  C196  1  0.135100  0.411700  0.247000  1.0  -0.0895
  C  C197  1  0.119900  0.357700  0.338400  1.0  0.2113
  C  C198  1  0.083300  0.375000  0.433100  1.0  -0.1091
  C  C199  1  0.875000  0.337100  0.431400  1.0  -0.1959
  C  C200  1  0.839400  0.310000  0.337100  1.0  0.2156
  C  C201  1  0.795900  0.328400  0.349200  1.0  -0.0996
  C  C202  1  0.850000  0.251800  0.218900  1.0  -0.1253
  C  C203  1  0.763000  0.303400  0.252300  1.0  -0.0149
  C  C204  1  0.818700  0.225100  0.133500  1.0  0.012
  C  C205  1  0.143000  0.285400  0.883800  1.0  -0.0061
  C  C206  1  0.110300  0.301000  0.791500  1.0  -0.1735
  C  C207  1  0.160500  0.391000  0.665000  1.0  -0.0819
  C  C208  1  0.193500  0.368300  0.760400  1.0  -0.0331
  C  C209  1  0.816300  0.233200  0.650200  1.0  -0.1193
  C  C210  1  0.788400  0.208400  0.737200  1.0  -0.013
  C  C211  1  0.797700  0.331300  0.862600  1.0  -0.031
  C  C212  1  0.829000  0.362600  0.782600  1.0  -0.1463
  C  C213  1  0.322800  0.761600  0.264900  1.0  0.0222
  C  C214  1  0.332900  0.893500  0.158500  1.0  -0.0095
  C  C215  1  0.354400  0.780500  0.362300  1.0  -0.1629
  C  C216  1  0.364900  0.911700  0.247000  1.0  -0.0853
  C  C217  1  0.380100  0.857700  0.338400  1.0  0.2187
  C  C218  1  0.416700  0.875000  0.433100  1.0  -0.1141
  C  C219  1  0.625000  0.837100  0.431400  1.0  -0.1914
  C  C220  1  0.660600  0.810000  0.337100  1.0  0.2142
  C  C221  1  0.704100  0.828400  0.349200  1.0  -0.101
  C  C222  1  0.650000  0.751800  0.218900  1.0  -0.1254
  C  C223  1  0.737000  0.803400  0.252300  1.0  -0.0113
  C  C224  1  0.681300  0.725100  0.133500  1.0  0.0109
  C  C225  1  0.357000  0.785400  0.883800  1.0  -0.0085
  C  C226  1  0.389700  0.801000  0.791500  1.0  -0.1727
  C  C227  1  0.339500  0.891000  0.665000  1.0  -0.0796
  C  C228  1  0.306500  0.868300  0.760400  1.0  -0.0328
  C  C229  1  0.683700  0.733200  0.650200  1.0  -0.1188
  C  C230  1  0.711600  0.708400  0.737200  1.0  -0.0159
  C  C231  1  0.702300  0.831300  0.862600  1.0  -0.0282
  C  C232  1  0.671000  0.862600  0.782600  1.0  -0.1467
  C  C233  1  0.677200  0.238400  0.264900  1.0  0.0192
  C  C234  1  0.667100  0.106500  0.158500  1.0  -0.0098
  C  C235  1  0.645600  0.219500  0.362300  1.0  -0.1599
  C  C236  1  0.635100  0.088300  0.247000  1.0  -0.0896
  C  C237  1  0.619900  0.142300  0.338400  1.0  0.2112
  C  C238  1  0.583300  0.125000  0.433100  1.0  -0.1087
  C  C239  1  0.375000  0.162900  0.431400  1.0  -0.1961
  C  C240  1  0.339400  0.190000  0.337100  1.0  0.215
  C  C241  1  0.295900  0.171600  0.349200  1.0  -0.0995
  C  C242  1  0.350000  0.248200  0.218900  1.0  -0.1251
  C  C243  1  0.263000  0.196600  0.252300  1.0  -0.0124
  C  C244  1  0.318700  0.274900  0.133500  1.0  0.0096
  C  C245  1  0.643000  0.214600  0.883800  1.0  -0.007
  C  C246  1  0.610300  0.199000  0.791500  1.0  -0.1732
  C  C247  1  0.660500  0.109000  0.665000  1.0  -0.0816
  C  C248  1  0.693500  0.131700  0.760400  1.0  -0.0328
  C  C249  1  0.316300  0.266800  0.650200  1.0  -0.1203
  C  C250  1  0.288400  0.291600  0.737200  1.0  -0.0137
  C  C251  1  0.297700  0.168700  0.862600  1.0  -0.0275
  C  C252  1  0.329000  0.137400  0.782600  1.0  -0.1479
  C  C253  1  0.177200  0.261600  0.735100  1.0  0.0204
  C  C254  1  0.167100  0.393500  0.841500  1.0  -0.0114
  C  C255  1  0.145600  0.280500  0.637700  1.0  -0.159
  C  C256  1  0.135100  0.411700  0.753000  1.0  -0.0916
  C  C257  1  0.119900  0.357700  0.661600  1.0  0.2104
  C  C258  1  0.083300  0.375000  0.566900  1.0  -0.1095
  C  C259  1  0.875000  0.337100  0.568600  1.0  -0.196
  C  C260  1  0.839400  0.310000  0.662900  1.0  0.2159
  C  C261  1  0.795900  0.328400  0.650800  1.0  -0.0975
  C  C262  1  0.850000  0.251800  0.781100  1.0  -0.1251
  C  C263  1  0.763000  0.303400  0.747700  1.0  -0.014
  C  C264  1  0.818700  0.225100  0.866500  1.0  0.0114
  C  C265  1  0.143000  0.285400  0.116200  1.0  -0.0043
  C  C266  1  0.110300  0.301000  0.208500  1.0  -0.1742
  C  C267  1  0.160500  0.391000  0.335000  1.0  -0.0782
  C  C268  1  0.193500  0.368300  0.239600  1.0  -0.0328
  C  C269  1  0.816300  0.233200  0.349800  1.0  -0.1187
  C  C270  1  0.788400  0.208400  0.262800  1.0  -0.0117
  C  C271  1  0.797700  0.331300  0.137400  1.0  -0.0269
  C  C272  1  0.829000  0.362600  0.217400  1.0  -0.1461
  C  C273  1  0.822800  0.738400  0.735100  1.0  0.025
  C  C274  1  0.832900  0.606500  0.841500  1.0  -0.0084
  C  C275  1  0.854400  0.719500  0.637700  1.0  -0.1614
  C  C276  1  0.864900  0.588300  0.753000  1.0  -0.0877
  C  C277  1  0.880100  0.642300  0.661600  1.0  0.2167
  C  C278  1  0.916700  0.625000  0.566900  1.0  -0.1138
  C  C279  1  0.125000  0.662900  0.568600  1.0  -0.1922
  C  C280  1  0.160600  0.690000  0.662900  1.0  0.2128
  C  C281  1  0.204100  0.671600  0.650800  1.0  -0.099
  C  C282  1  0.150000  0.748200  0.781100  1.0  -0.1249
  C  C283  1  0.237000  0.696600  0.747700  1.0  -0.008
  C  C284  1  0.181300  0.774900  0.866500  1.0  0.0117
  C  C285  1  0.857000  0.714600  0.116200  1.0  -0.0074
  C  C286  1  0.889700  0.699000  0.208500  1.0  -0.171
  C  C287  1  0.839500  0.609000  0.335000  1.0  -0.0766
  C  C288  1  0.806500  0.631700  0.239600  1.0  -0.0351
  C  C289  1  0.183700  0.766800  0.349800  1.0  -0.1179
  C  C290  1  0.211600  0.791600  0.262800  1.0  -0.0165
  C  C291  1  0.202300  0.668700  0.137400  1.0  -0.0279
  C  C292  1  0.171000  0.637400  0.217400  1.0  -0.1487
  C  C293  1  0.781000  0.045500  0.000000  1.0  0.3974
  C  C294  1  0.799400  0.904900  0.000000  1.0  0.4276
  C  C295  1  0.219000  0.954500  0.000000  1.0  0.3983
  C  C296  1  0.200600  0.095100  0.000000  1.0  0.4283
  C  C297  1  0.719000  0.545500  0.000000  1.0  0.3962
  C  C298  1  0.700600  0.404900  0.000000  1.0  0.429
  C  C299  1  0.281000  0.454500  0.000000  1.0  0.3978
  C  C300  1  0.299400  0.595100  0.000000  1.0  0.4277
  C  C301  1  0.500600  0.106000  0.500000  1.0  -0.0749
  C  C302  1  0.454300  0.112400  0.500000  1.0  -0.077
  C  C303  1  0.499400  0.894000  0.500000  1.0  -0.074
  C  C304  1  0.545700  0.887600  0.500000  1.0  -0.0769
  C  C305  1  0.999400  0.606000  0.500000  1.0  -0.0748
  C  C306  1  0.045700  0.612400  0.500000  1.0  -0.0767
  C  C307  1  0.000600  0.394000  0.500000  1.0  -0.074
  C  C308  1  0.954300  0.387600  0.500000  1.0  -0.078
  S  S309  1  0.531080  0.101030  0.651980  1.0  -0.0221
  S  S310  1  0.423170  0.119590  0.652190  1.0  -0.0276
  S  S311  1  0.468920  0.898970  0.651980  1.0  -0.0187
  S  S312  1  0.576830  0.880410  0.652190  1.0  -0.0258
  S  S313  1  0.968920  0.601030  0.348020  1.0  -0.0204
  S  S314  1  0.076830  0.619590  0.347810  1.0  -0.0243
  S  S315  1  0.031080  0.398970  0.348020  1.0  -0.0217
  S  S316  1  0.923170  0.380410  0.347810  1.0  -0.0258
  S  S317  1  0.468920  0.898970  0.348020  1.0  -0.0199
  S  S318  1  0.576830  0.880410  0.347810  1.0  -0.0239
  S  S319  1  0.531080  0.101030  0.348020  1.0  -0.0226
  S  S320  1  0.423170  0.119590  0.347810  1.0  -0.0261
  S  S321  1  0.031080  0.398970  0.651980  1.0  -0.0211
  S  S322  1  0.923170  0.380410  0.652190  1.0  -0.028
  S  S323  1  0.968920  0.601030  0.651980  1.0  -0.0191
  S  S324  1  0.076830  0.619590  0.652190  1.0  -0.0257
  N  N325  1  0.687300  0.183500  0.854600  1.0  -0.1177
  N  N326  1  0.775420  0.252700  0.141900  1.0  -0.1538
  N  N327  1  0.312700  0.816500  0.854600  1.0  -0.1191
  N  N328  1  0.224580  0.747300  0.141900  1.0  -0.1531
  N  N329  1  0.812700  0.683500  0.145400  1.0  -0.1199
  N  N330  1  0.724580  0.752700  0.858100  1.0  -0.1438
  N  N331  1  0.187300  0.316500  0.145400  1.0  -0.1211
  N  N332  1  0.275420  0.247300  0.858100  1.0  -0.1445
  N  N333  1  0.312700  0.816500  0.145400  1.0  -0.1212
  N  N334  1  0.224580  0.747300  0.858100  1.0  -0.1444
  N  N335  1  0.687300  0.183500  0.145400  1.0  -0.1209
  N  N336  1  0.775420  0.252700  0.858100  1.0  -0.1446
  N  N337  1  0.187300  0.316500  0.854600  1.0  -0.1161
  N  N338  1  0.275420  0.247300  0.141900  1.0  -0.1511
  N  N339  1  0.812700  0.683500  0.854600  1.0  -0.1191
  N  N340  1  0.724580  0.752700  0.141900  1.0  -0.1555
  N  N341  1  0.757800  0.103600  0.000000  1.0  -0.4312
  N  N342  1  0.707900  0.333400  0.000000  1.0  -0.409
  N  N343  1  0.812800  0.984000  0.000000  1.0  -0.5057
  N  N344  1  0.242200  0.896400  0.000000  1.0  -0.4373
  N  N345  1  0.292100  0.666667  0.000000  1.0  -0.4029
  N  N346  1  0.187200  0.016000  0.000000  1.0  -0.5059
  N  N347  1  0.742200  0.603600  0.000000  1.0  -0.4322
  N  N348  1  0.792100  0.833400  0.000000  1.0  -0.4081
  N  N349  1  0.687200  0.484000  0.000000  1.0  -0.5053
  N  N350  1  0.257800  0.396400  0.000000  1.0  -0.4379
  N  N351  1  0.207900  0.166600  0.000000  1.0  -0.4084
  N  N352  1  0.312800  0.516000  0.000000  1.0  -0.5055
