# generated using pymatgen
data_FeH8C17S2N9
_symmetry_space_group_name_H-M   'P 1'
_cell_length_a   8.29360000
_cell_length_b   16.25390000
_cell_length_c   17.00730000
_cell_angle_alpha   90.00000000
_cell_angle_beta   100.02300000
_cell_angle_gamma   90.00000000
_symmetry_Int_Tables_number   1
_chemical_formula_structural   FeH8C17S2N9
_chemical_formula_sum   'Fe4 H32 C68 S8 N36'
_cell_volume   2257.65056816
_cell_formula_units_Z   4
loop_
 _symmetry_equiv_pos_site_id
 _symmetry_equiv_pos_as_xyz
  1  'x, y, z'
loop_
 _atom_site_type_symbol
 _atom_site_label
 _atom_site_symmetry_multiplicity
 _atom_site_fract_x
 _atom_site_fract_y
 _atom_site_fract_z
 _atom_site_occupancy
 _atom_site_charge
  Fe  Fe1  1  0.016560  0.753110  0.233040  1.0  0.9151
  Fe  Fe2  1  0.983440  0.253110  0.266960  1.0  0.9161
  Fe  Fe3  1  0.983440  0.246890  0.766960  1.0  0.9163
  Fe  Fe4  1  0.016560  0.746890  0.733040  1.0  0.9153
  H  H5  1  0.896900  0.899800  0.125900  1.0  0.083
  H  H6  1  0.671800  0.977300  0.077600  1.0  0.1296
  H  H7  1  0.397600  0.819900  0.176900  1.0  0.1158
  H  H8  1  0.631200  0.747700  0.227600  1.0  0.0805
  H  H9  1  0.455900  0.187200  0.068600  1.0  0.1347
  H  H10  1  0.678700  0.263800  0.130000  1.0  0.0896
  H  H11  1  0.768800  0.107400  0.305600  1.0  0.098
  H  H12  1  0.547000  0.027100  0.249800  1.0  0.1309
  H  H13  1  0.103100  0.399800  0.374100  1.0  0.0834
  H  H14  1  0.328200  0.477300  0.422400  1.0  0.1296
  H  H15  1  0.602400  0.319900  0.323100  1.0  0.1162
  H  H16  1  0.368800  0.247700  0.272400  1.0  0.0808
  H  H17  1  0.544100  0.687200  0.431400  1.0  0.1352
  H  H18  1  0.321300  0.763800  0.370000  1.0  0.0899
  H  H19  1  0.231200  0.607400  0.194400  1.0  0.0973
  H  H20  1  0.453000  0.527100  0.250200  1.0  0.131
  H  H21  1  0.103100  0.100200  0.874100  1.0  0.0835
  H  H22  1  0.328200  0.022700  0.922400  1.0  0.13
  H  H23  1  0.602400  0.180100  0.823100  1.0  0.1165
  H  H24  1  0.368800  0.252300  0.772400  1.0  0.0812
  H  H25  1  0.544100  0.812800  0.931400  1.0  0.135
  H  H26  1  0.321300  0.736200  0.870000  1.0  0.0899
  H  H27  1  0.231200  0.892600  0.694400  1.0  0.0977
  H  H28  1  0.453000  0.972900  0.750200  1.0  0.1312
  H  H29  1  0.896900  0.600200  0.625900  1.0  0.0832
  H  H30  1  0.671800  0.522700  0.577600  1.0  0.1296
  H  H31  1  0.397600  0.680100  0.676900  1.0  0.1159
  H  H32  1  0.631200  0.752300  0.727600  1.0  0.0805
  H  H33  1  0.455900  0.312800  0.568600  1.0  0.1345
  H  H34  1  0.678700  0.236200  0.630000  1.0  0.0897
  H  H35  1  0.768800  0.392600  0.805600  1.0  0.0978
  H  H36  1  0.547000  0.472900  0.749800  1.0  0.1308
  C  C37  1  0.795900  0.884300  0.137800  1.0  0.1829
  C  C38  1  0.661200  0.931000  0.108400  1.0  -0.1757
  C  C39  1  0.510800  0.909300  0.124800  1.0  0.0303
  C  C40  1  0.499000  0.838200  0.167800  1.0  -0.1456
  C  C41  1  0.639600  0.794500  0.197100  1.0  0.1698
  C  C42  1  0.364000  0.961500  0.096800  1.0  -0.1408
  C  C43  1  0.349300  0.042300  0.109800  1.0  -0.1575
  C  C44  1  0.481600  0.096900  0.151800  1.0  0.0139
  C  C45  1  0.518900  0.169300  0.116100  1.0  -0.1296
  C  C46  1  0.654100  0.214700  0.153400  1.0  0.1862
  C  C47  1  0.706900  0.122800  0.256800  1.0  0.1703
  C  C48  1  0.573300  0.074100  0.223600  1.0  -0.144
  C  C49  1  0.072800  0.000500  0.023600  1.0  -0.007
  C  C50  1  0.182500  0.933600  0.269700  1.0  0.5578
  C  C51  1  0.165700  0.073200  0.285700  1.0  0.5564
  C  C52  1  0.981100  0.793100  0.414200  1.0  0.2482
  C  C53  1  0.029300  0.791800  0.551500  1.0  0.141
  C  C54  1  0.204100  0.384300  0.362200  1.0  0.1831
  C  C55  1  0.338800  0.431000  0.391600  1.0  -0.1765
  C  C56  1  0.489200  0.409300  0.375200  1.0  0.0305
  C  C57  1  0.501000  0.338200  0.332200  1.0  -0.1455
  C  C58  1  0.360400  0.294500  0.302900  1.0  0.1699
  C  C59  1  0.636000  0.461500  0.403200  1.0  -0.1391
  C  C60  1  0.650700  0.542300  0.390200  1.0  -0.1585
  C  C61  1  0.518400  0.596900  0.348200  1.0  0.0147
  C  C62  1  0.481100  0.669300  0.383900  1.0  -0.1302
  C  C63  1  0.345900  0.714700  0.346600  1.0  0.186
  C  C64  1  0.293100  0.622800  0.243200  1.0  0.1698
  C  C65  1  0.426700  0.574100  0.276400  1.0  -0.1414
  C  C66  1  0.927200  0.500500  0.476400  1.0  -0.0062
  C  C67  1  0.817500  0.433600  0.230300  1.0  0.5569
  C  C68  1  0.834300  0.573200  0.214300  1.0  0.5589
  C  C69  1  0.018900  0.293100  0.085800  1.0  0.2482
  C  C70  1  0.970700  0.291800  0.948500  1.0  0.1401
  C  C71  1  0.204100  0.115700  0.862200  1.0  0.183
  C  C72  1  0.338800  0.069000  0.891600  1.0  -0.1775
  C  C73  1  0.489200  0.090700  0.875200  1.0  0.0305
  C  C74  1  0.501000  0.161800  0.832200  1.0  -0.1452
  C  C75  1  0.360400  0.205500  0.802900  1.0  0.1692
  C  C76  1  0.636000  0.038500  0.903200  1.0  -0.1388
  C  C77  1  0.650700  0.957700  0.890200  1.0  -0.1588
  C  C78  1  0.518400  0.903100  0.848200  1.0  0.0154
  C  C79  1  0.481100  0.830700  0.883900  1.0  -0.129
  C  C80  1  0.345900  0.785300  0.846600  1.0  0.1861
  C  C81  1  0.293100  0.877200  0.743200  1.0  0.1695
  C  C82  1  0.426700  0.925900  0.776400  1.0  -0.1411
  C  C83  1  0.927200  0.999500  0.976400  1.0  -0.0063
  C  C84  1  0.817500  0.066400  0.730300  1.0  0.5587
  C  C85  1  0.834300  0.926800  0.714300  1.0  0.5586
  C  C86  1  0.018900  0.206900  0.585800  1.0  0.2491
  C  C87  1  0.970700  0.208200  0.448500  1.0  0.1405
  C  C88  1  0.795900  0.615700  0.637800  1.0  0.1829
  C  C89  1  0.661200  0.569000  0.608400  1.0  -0.1765
  C  C90  1  0.510800  0.590700  0.624800  1.0  0.0309
  C  C91  1  0.499000  0.661800  0.667800  1.0  -0.1461
  C  C92  1  0.639600  0.705500  0.697100  1.0  0.1682
  C  C93  1  0.364000  0.538500  0.596800  1.0  -0.1404
  C  C94  1  0.349300  0.457700  0.609800  1.0  -0.1579
  C  C95  1  0.481600  0.403100  0.651800  1.0  0.0142
  C  C96  1  0.518900  0.330700  0.616100  1.0  -0.1289
  C  C97  1  0.654100  0.285300  0.653400  1.0  0.1862
  C  C98  1  0.706900  0.377200  0.756800  1.0  0.1702
  C  C99  1  0.573300  0.425900  0.723600  1.0  -0.1426
  C  C100  1  0.072800  0.499500  0.523600  1.0  -0.0071
  C  C101  1  0.182500  0.566400  0.769700  1.0  0.5568
  C  C102  1  0.165700  0.426800  0.785700  1.0  0.5565
  C  C103  1  0.981100  0.706900  0.914200  1.0  0.2486
  C  C104  1  0.029300  0.708200  0.051500  1.0  0.1412
  S  S105  1  0.161700  0.088920  0.071510  1.0  0.0744
  S  S106  1  0.195040  0.911270  0.040030  1.0  0.0442
  S  S107  1  0.838300  0.588920  0.428490  1.0  0.0746
  S  S108  1  0.804960  0.411270  0.459970  1.0  0.0455
  S  S109  1  0.838300  0.911080  0.928490  1.0  0.0751
  S  S110  1  0.804960  0.088730  0.959970  1.0  0.0452
  S  S111  1  0.161700  0.411080  0.571510  1.0  0.0743
  S  S112  1  0.195040  0.588730  0.540030  1.0  0.0443
  N  N113  1  0.788700  0.817100  0.183100  1.0  -0.3084
  N  N114  1  0.748700  0.191000  0.220700  1.0  -0.3097
  N  N115  1  0.143000  0.870000  0.246200  1.0  -0.4798
  N  N116  1  0.111500  0.137600  0.276200  1.0  -0.4752
  N  N117  1  0.970200  0.771600  0.350600  1.0  -0.4789
  N  N118  1  0.058700  0.767200  0.614200  1.0  -0.4714
  N  N119  1  0.047000  0.832000  0.484600  1.0  -0.165
  N  N120  1  0.243500  0.003600  0.299600  1.0  -0.4194
  N  N121  1  0.934000  0.817300  0.482900  1.0  -0.1549
  N  N122  1  0.211300  0.317100  0.316900  1.0  -0.3086
  N  N123  1  0.251300  0.691000  0.279300  1.0  -0.3116
  N  N124  1  0.857000  0.370000  0.253800  1.0  -0.4804
  N  N125  1  0.888500  0.637600  0.223800  1.0  -0.475
  N  N126  1  0.029800  0.271600  0.149400  1.0  -0.4808
  N  N127  1  0.941300  0.267200  0.885800  1.0  -0.4696
  N  N128  1  0.953000  0.332000  0.015400  1.0  -0.1617
  N  N129  1  0.756500  0.503600  0.200400  1.0  -0.4169
  N  N130  1  0.066000  0.317300  0.017100  1.0  -0.1456
  N  N131  1  0.211300  0.182900  0.816900  1.0  -0.3075
  N  N132  1  0.251300  0.809000  0.779300  1.0  -0.3122
  N  N133  1  0.857000  0.130000  0.753800  1.0  -0.4802
  N  N134  1  0.888500  0.862400  0.723800  1.0  -0.4757
  N  N135  1  0.029800  0.228400  0.649400  1.0  -0.4799
  N  N136  1  0.941300  0.232800  0.385800  1.0  -0.4707
  N  N137  1  0.953000  0.168000  0.515400  1.0  -0.1636
  N  N138  1  0.756500  0.996400  0.700400  1.0  -0.4169
  N  N139  1  0.066000  0.182700  0.517100  1.0  -0.1458
  N  N140  1  0.788700  0.682900  0.683100  1.0  -0.3085
  N  N141  1  0.748700  0.309000  0.720700  1.0  -0.3099
  N  N142  1  0.143000  0.630000  0.746200  1.0  -0.4795
  N  N143  1  0.111500  0.362400  0.776200  1.0  -0.4764
  N  N144  1  0.970200  0.728400  0.850600  1.0  -0.4788
  N  N145  1  0.058700  0.732800  0.114200  1.0  -0.4715
  N  N146  1  0.047000  0.668000  0.984600  1.0  -0.1644
  N  N147  1  0.243500  0.496400  0.799600  1.0  -0.4193
  N  N148  1  0.934000  0.682700  0.982900  1.0  -0.1561
