# generated using pymatgen
data_FeH8C17S2N9
_symmetry_space_group_name_H-M   'P 1'
_cell_length_a   8.37550000
_cell_length_b   16.25490000
_cell_length_c   17.07480000
_cell_angle_alpha   90.00000000
_cell_angle_beta   101.16800000
_cell_angle_gamma   90.00000000
_symmetry_Int_Tables_number   1
_chemical_formula_structural   FeH8C17S2N9
_chemical_formula_sum   'Fe4 H32 C68 S8 N36'
_cell_volume   2280.59297040
_cell_formula_units_Z   4
loop_
 _symmetry_equiv_pos_site_id
 _symmetry_equiv_pos_as_xyz
  1  'x, y, z'
loop_
 _atom_site_type_symbol
 _atom_site_label
 _atom_site_symmetry_multiplicity
 _atom_site_fract_x
 _atom_site_fract_y
 _atom_site_fract_z
 _atom_site_occupancy
 _atom_site_charge
  Fe  Fe1  1  0.014800  0.750260  0.230960  1.0  0.8549
  Fe  Fe2  1  0.985200  0.250260  0.269040  1.0  0.8555
  Fe  Fe3  1  0.985200  0.249740  0.769040  1.0  0.8557
  Fe  Fe4  1  0.014800  0.749740  0.730960  1.0  0.855
  H  H5  1  0.892800  0.897000  0.123200  1.0  0.0785
  H  H6  1  0.666200  0.974900  0.076100  1.0  0.0943
  H  H7  1  0.399800  0.819800  0.177800  1.0  0.1204
  H  H8  1  0.633400  0.746100  0.224000  1.0  0.0637
  H  H9  1  0.455900  0.186500  0.070900  1.0  0.1254
  H  H10  1  0.679000  0.260100  0.131700  1.0  0.0767
  H  H11  1  0.773700  0.102300  0.305700  1.0  0.0785
  H  H12  1  0.549000  0.026600  0.251600  1.0  0.1166
  H  H13  1  0.107200  0.397000  0.376800  1.0  0.0792
  H  H14  1  0.333800  0.474900  0.423900  1.0  0.0942
  H  H15  1  0.600200  0.319800  0.322200  1.0  0.1204
  H  H16  1  0.366600  0.246100  0.276000  1.0  0.0642
  H  H17  1  0.544100  0.686500  0.429100  1.0  0.1256
  H  H18  1  0.321000  0.760100  0.368300  1.0  0.0767
  H  H19  1  0.226300  0.602300  0.194300  1.0  0.0777
  H  H20  1  0.451000  0.526600  0.248400  1.0  0.1171
  H  H21  1  0.107200  0.103000  0.876800  1.0  0.0792
  H  H22  1  0.333800  0.025100  0.923900  1.0  0.0945
  H  H23  1  0.600200  0.180200  0.822200  1.0  0.1204
  H  H24  1  0.366600  0.253900  0.776000  1.0  0.0643
  H  H25  1  0.544100  0.813500  0.929100  1.0  0.1256
  H  H26  1  0.321000  0.739900  0.868300  1.0  0.0764
  H  H27  1  0.226300  0.897700  0.694300  1.0  0.0783
  H  H28  1  0.451000  0.973400  0.748400  1.0  0.1175
  H  H29  1  0.892800  0.603000  0.623200  1.0  0.0786
  H  H30  1  0.666200  0.525100  0.576100  1.0  0.0942
  H  H31  1  0.399800  0.680200  0.677800  1.0  0.1204
  H  H32  1  0.633400  0.753900  0.724000  1.0  0.0635
  H  H33  1  0.455900  0.313500  0.570900  1.0  0.1253
  H  H34  1  0.679000  0.239900  0.631700  1.0  0.0766
  H  H35  1  0.773700  0.397700  0.805700  1.0  0.0786
  H  H36  1  0.549000  0.473400  0.751600  1.0  0.1167
  C  C37  1  0.793500  0.882000  0.135600  1.0  0.1484
  C  C38  1  0.657100  0.928700  0.107000  1.0  -0.1365
  C  C39  1  0.508700  0.908000  0.123600  1.0  0.0342
  C  C40  1  0.499000  0.837500  0.167100  1.0  -0.1822
  C  C41  1  0.640400  0.793600  0.194500  1.0  0.1688
  C  C42  1  0.363400  0.959700  0.095500  1.0  -0.1672
  C  C43  1  0.351000  0.040700  0.109700  1.0  -0.1748
  C  C44  1  0.482600  0.095800  0.151800  1.0  0.0391
  C  C45  1  0.519900  0.167500  0.118100  1.0  -0.1732
  C  C46  1  0.654100  0.211300  0.155200  1.0  0.1675
  C  C47  1  0.709600  0.119200  0.257700  1.0  0.1569
  C  C48  1  0.576400  0.072900  0.225000  1.0  -0.1908
  C  C49  1  0.074400  0.000200  0.022300  1.0  -0.0135
  C  C50  1  0.179400  0.931600  0.267100  1.0  0.5721
  C  C51  1  0.163900  0.069200  0.284000  1.0  0.5593
  C  C52  1  0.981900  0.790000  0.411400  1.0  0.284
  C  C53  1  0.028100  0.790900  0.550000  1.0  0.2147
  C  C54  1  0.206500  0.382000  0.364400  1.0  0.1489
  C  C55  1  0.342900  0.428700  0.393000  1.0  -0.1365
  C  C56  1  0.491300  0.408000  0.376400  1.0  0.0352
  C  C57  1  0.501000  0.337500  0.332900  1.0  -0.1819
  C  C58  1  0.359600  0.293600  0.305500  1.0  0.1683
  C  C59  1  0.636600  0.459700  0.404500  1.0  -0.1671
  C  C60  1  0.649000  0.540700  0.390300  1.0  -0.1758
  C  C61  1  0.517400  0.595800  0.348200  1.0  0.0404
  C  C62  1  0.480100  0.667500  0.381900  1.0  -0.1726
  C  C63  1  0.345900  0.711300  0.344800  1.0  0.166
  C  C64  1  0.290400  0.619200  0.242300  1.0  0.1558
  C  C65  1  0.423600  0.572900  0.275000  1.0  -0.1876
  C  C66  1  0.925600  0.500200  0.477700  1.0  -0.0127
  C  C67  1  0.820600  0.431600  0.232900  1.0  0.5735
  C  C68  1  0.836100  0.569200  0.216000  1.0  0.5622
  C  C69  1  0.018100  0.290000  0.088600  1.0  0.2842
  C  C70  1  0.971900  0.290900  0.950000  1.0  0.2148
  C  C71  1  0.206500  0.118000  0.864400  1.0  0.1489
  C  C72  1  0.342900  0.071300  0.893000  1.0  -0.1374
  C  C73  1  0.491300  0.092000  0.876400  1.0  0.0351
  C  C74  1  0.501000  0.162500  0.832900  1.0  -0.1819
  C  C75  1  0.359600  0.206400  0.805500  1.0  0.1683
  C  C76  1  0.636600  0.040300  0.904500  1.0  -0.1669
  C  C77  1  0.649000  0.959300  0.890300  1.0  -0.1759
  C  C78  1  0.517400  0.904200  0.848200  1.0  0.0409
  C  C79  1  0.480100  0.832500  0.881900  1.0  -0.171
  C  C80  1  0.345900  0.788700  0.844800  1.0  0.1667
  C  C81  1  0.290400  0.880800  0.742300  1.0  0.1553
  C  C82  1  0.423600  0.927100  0.775000  1.0  -0.1873
  C  C83  1  0.925600  0.999800  0.977700  1.0  -0.0127
  C  C84  1  0.820600  0.068400  0.732900  1.0  0.5736
  C  C85  1  0.836100  0.930800  0.716000  1.0  0.5617
  C  C86  1  0.018100  0.210000  0.588600  1.0  0.2846
  C  C87  1  0.971900  0.209100  0.450000  1.0  0.2131
  C  C88  1  0.793500  0.618000  0.635600  1.0  0.1484
  C  C89  1  0.657100  0.571300  0.607000  1.0  -0.1372
  C  C90  1  0.508700  0.592000  0.623600  1.0  0.0344
  C  C91  1  0.499000  0.662500  0.667100  1.0  -0.1826
  C  C92  1  0.640400  0.706400  0.694500  1.0  0.1675
  C  C93  1  0.363400  0.540300  0.595500  1.0  -0.1669
  C  C94  1  0.351000  0.459300  0.609700  1.0  -0.1749
  C  C95  1  0.482600  0.404200  0.651800  1.0  0.0395
  C  C96  1  0.519900  0.332500  0.618100  1.0  -0.1719
  C  C97  1  0.654100  0.288700  0.655200  1.0  0.1676
  C  C98  1  0.709600  0.380800  0.757700  1.0  0.1565
  C  C99  1  0.576400  0.427100  0.725000  1.0  -0.1899
  C  C100  1  0.074400  0.499800  0.522300  1.0  -0.0135
  C  C101  1  0.179400  0.568400  0.767100  1.0  0.5729
  C  C102  1  0.163900  0.430800  0.784000  1.0  0.5599
  C  C103  1  0.981900  0.710000  0.911400  1.0  0.2831
  C  C104  1  0.028100  0.709100  0.050000  1.0  0.2136
  S  S105  1  0.164080  0.087990  0.072180  1.0  0.0596
  S  S106  1  0.194430  0.910900  0.038570  1.0  0.0504
  S  S107  1  0.835920  0.587990  0.427820  1.0  0.0597
  S  S108  1  0.805570  0.410900  0.461430  1.0  0.0515
  S  S109  1  0.835920  0.912010  0.927820  1.0  0.0598
  S  S110  1  0.805570  0.089100  0.961430  1.0  0.051
  S  S111  1  0.164080  0.412010  0.572180  1.0  0.06
  S  S112  1  0.194430  0.589100  0.538570  1.0  0.0503
  N  N113  1  0.785800  0.815600  0.180900  1.0  -0.3032
  N  N114  1  0.750600  0.187400  0.223300  1.0  -0.3267
  N  N115  1  0.142700  0.866700  0.243900  1.0  -0.4973
  N  N116  1  0.111800  0.134500  0.278100  1.0  -0.4759
  N  N117  1  0.973500  0.768900  0.348800  1.0  -0.4764
  N  N118  1  0.051500  0.770400  0.611900  1.0  -0.4567
  N  N119  1  0.070000  0.823300  0.483300  1.0  -0.0213
  N  N120  1  0.245000  0.000800  0.295800  1.0  -0.413
  N  N121  1  0.937000  0.818800  0.476800  1.0  -0.0619
  N  N122  1  0.214200  0.315600  0.319100  1.0  -0.3047
  N  N123  1  0.249400  0.687400  0.276700  1.0  -0.3282
  N  N124  1  0.857300  0.366700  0.256100  1.0  -0.497
  N  N125  1  0.888200  0.634500  0.221900  1.0  -0.4751
  N  N126  1  0.026500  0.268900  0.151200  1.0  -0.4796
  N  N127  1  0.948500  0.270400  0.888100  1.0  -0.4552
  N  N128  1  0.930000  0.323300  0.016700  1.0  -0.0227
  N  N129  1  0.755000  0.500800  0.204200  1.0  -0.4114
  N  N130  1  0.063000  0.318800  0.023200  1.0  -0.0583
  N  N131  1  0.214200  0.184400  0.819100  1.0  -0.3037
  N  N132  1  0.249400  0.812600  0.776700  1.0  -0.3288
  N  N133  1  0.857300  0.133300  0.756100  1.0  -0.4974
  N  N134  1  0.888200  0.865500  0.721900  1.0  -0.4756
  N  N135  1  0.026500  0.231100  0.651200  1.0  -0.479
  N  N136  1  0.948500  0.229600  0.388100  1.0  -0.4554
  N  N137  1  0.930000  0.176700  0.516700  1.0  -0.0225
  N  N138  1  0.755000  0.999200  0.704200  1.0  -0.4115
  N  N139  1  0.063000  0.181200  0.523200  1.0  -0.0571
  N  N140  1  0.785800  0.684400  0.680900  1.0  -0.3034
  N  N141  1  0.750600  0.312600  0.723300  1.0  -0.3264
  N  N142  1  0.142700  0.633300  0.743900  1.0  -0.4976
  N  N143  1  0.111800  0.365500  0.778100  1.0  -0.4769
  N  N144  1  0.973500  0.731100  0.848800  1.0  -0.4765
  N  N145  1  0.051500  0.729600  0.111900  1.0  -0.456
  N  N146  1  0.070000  0.676700  0.983300  1.0  -0.019
  N  N147  1  0.245000  0.499200  0.795800  1.0  -0.413
  N  N148  1  0.937000  0.681200  0.976800  1.0  -0.061
