# generated using pymatgen
data_Cu2H37C35(N5O4)2
_symmetry_space_group_name_H-M   'P 1'
_cell_length_a   10.70200000
_cell_length_b   11.18600000
_cell_length_c   22.58400000
_cell_angle_alpha   93.80000000
_cell_angle_beta   90.13000000
_cell_angle_gamma   115.57000000
_symmetry_Int_Tables_number   1
_chemical_formula_structural   Cu2H37C35(N5O4)2
_chemical_formula_sum   'Cu4 H74 C70 N20 O16'
_cell_volume   2432.00183248
_cell_formula_units_Z   2
loop_
 _symmetry_equiv_pos_site_id
 _symmetry_equiv_pos_as_xyz
  1  'x, y, z'
loop_
 _atom_site_type_symbol
 _atom_site_label
 _atom_site_symmetry_multiplicity
 _atom_site_fract_x
 _atom_site_fract_y
 _atom_site_fract_z
 _atom_site_occupancy
 _atom_site_charge
  Cu  Cu1  1  0.200540  0.510490  0.725790  1.0  0.7269
  Cu  Cu2  1  0.799460  0.489510  0.274210  1.0  0.7263
  Cu  Cu3  1  0.500000  0.500000  0.500000  1.0  0.8579
  Cu  Cu4  1  0.000000  0.000000  0.000000  1.0  0.7763
  H  H5  1  0.639100  0.314000  0.518900  1.0  0.1018
  H  H6  1  0.321300  0.320300  0.602000  1.0  0.1171
  H  H7  1  0.360500  0.137300  0.637500  1.0  0.138
  H  H8  1  0.668100  0.127400  0.570600  1.0  0.0963
  H  H9  1  0.559100  0.054100  0.617800  1.0  0.0957
  H  H10  1  0.521500  0.907900  0.534900  1.0  0.0835
  H  H11  1  0.392900  0.939500  0.541000  1.0  0.0932
  H  H12  1  0.404200  0.595500  0.839200  1.0  0.107
  H  H13  1  0.147000  0.237300  0.780600  1.0  0.0942
  H  H14  1  0.274600  0.216600  0.865100  1.0  0.1345
  H  H15  1  0.424200  0.440700  0.957100  1.0  0.0913
  H  H16  1  0.530600  0.556300  0.922200  1.0  0.0926
  H  H17  1  0.511700  0.297200  0.917200  1.0  0.0786
  H  H18  1  0.628900  0.420200  0.952200  1.0  0.0963
  H  H19  1  0.596900  0.388600  0.827000  1.0  0.0615
  H  H20  1  0.713400  0.513400  0.861600  1.0  0.0817
  H  H21  1  0.812100  0.383400  0.897200  1.0  0.0917
  H  H22  1  0.691100  0.254400  0.868000  1.0  0.0932
  H  H23  1  0.017500  0.499600  0.834200  1.0  0.1009
  H  H24  1  0.887400  0.294100  0.681800  1.0  0.0985
  H  H25  1  0.689100  0.221600  0.747800  1.0  0.1417
  H  H26  1  0.470500  0.466000  0.734200  1.0  0.0936
  H  H27  1  0.409900  0.706900  0.633200  1.0  0.1068
  H  H28  1  0.636300  0.715200  0.611100  1.0  0.1342
  H  H29  1  0.728300  0.512100  0.639100  1.0  0.0724
  H  H30  1  0.703300  0.488100  0.706600  1.0  0.0785
  H  H31  1  0.925000  0.649100  0.695300  1.0  0.0886
  H  H32  1  0.867200  0.734400  0.662200  1.0  0.0789
  H  H33  1  0.834500  0.687700  0.783100  1.0  0.0818
  H  H34  1  0.764700  0.764400  0.750700  1.0  0.0659
  H  H35  1  0.056900  0.856500  0.766200  1.0  0.0904
  H  H36  1  0.990000  0.931800  0.730800  1.0  0.0901
  H  H37  1  0.048300  0.876300  0.880400  1.0  0.0974
  H  H38  1  0.865000  0.058400  0.795700  1.0  0.1263
  H  H39  1  0.875700  0.120500  0.901600  1.0  0.1046
  H  H40  1  0.050100  0.418000  0.411500  1.0  0.0947
  H  H41  1  0.191200  0.496500  0.955000  1.0  0.0886
  H  H42  1  0.360900  0.686000  0.481100  1.0  0.1022
  H  H43  1  0.678700  0.679700  0.398000  1.0  0.1172
  H  H44  1  0.639500  0.862700  0.362500  1.0  0.1375
  H  H45  1  0.331900  0.872600  0.429400  1.0  0.0941
  H  H46  1  0.440900  0.945900  0.382200  1.0  0.095
  H  H47  1  0.478500  0.092100  0.465100  1.0  0.0846
  H  H48  1  0.607100  0.060500  0.459000  1.0  0.0935
  H  H49  1  0.595800  0.404500  0.160800  1.0  0.1096
  H  H50  1  0.853000  0.762700  0.219400  1.0  0.094
  H  H51  1  0.725400  0.783400  0.134900  1.0  0.1353
  H  H52  1  0.575800  0.559300  0.042900  1.0  0.092
  H  H53  1  0.469400  0.443700  0.077800  1.0  0.0935
  H  H54  1  0.488300  0.702800  0.082800  1.0  0.0836
  H  H55  1  0.371100  0.579800  0.047800  1.0  0.0964
  H  H56  1  0.403100  0.611400  0.173000  1.0  0.0648
  H  H57  1  0.286600  0.486600  0.138400  1.0  0.0839
  H  H58  1  0.187900  0.616600  0.102800  1.0  0.0922
  H  H59  1  0.308900  0.745600  0.132000  1.0  0.092
  H  H60  1  0.982500  0.500400  0.165800  1.0  0.1012
  H  H61  1  0.112600  0.705900  0.318200  1.0  0.0991
  H  H62  1  0.310900  0.778400  0.252200  1.0  0.1412
  H  H63  1  0.529500  0.534000  0.265800  1.0  0.0928
  H  H64  1  0.590100  0.293100  0.366800  1.0  0.1069
  H  H65  1  0.363700  0.284800  0.388900  1.0  0.1347
  H  H66  1  0.271700  0.487900  0.360900  1.0  0.0715
  H  H67  1  0.296700  0.511900  0.293400  1.0  0.0761
  H  H68  1  0.075000  0.350900  0.304700  1.0  0.089
  H  H69  1  0.132800  0.265600  0.337800  1.0  0.0763
  H  H70  1  0.165500  0.312300  0.216900  1.0  0.0805
  H  H71  1  0.235300  0.235600  0.249300  1.0  0.0656
  H  H72  1  0.943100  0.143500  0.233800  1.0  0.0913
  H  H73  1  0.010000  0.068200  0.269200  1.0  0.09
  H  H74  1  0.951700  0.123700  0.119600  1.0  0.0976
  H  H75  1  0.135000  0.941600  0.204300  1.0  0.1267
  H  H76  1  0.124300  0.879500  0.098400  1.0  0.1044
  H  H77  1  0.949900  0.582000  0.588500  1.0  0.0936
  H  H78  1  0.808800  0.503500  0.045000  1.0  0.0892
  C  C79  1  0.565200  0.293700  0.544100  1.0  0.1337
  C  C80  1  0.390900  0.296400  0.589800  1.0  0.0351
  C  C81  1  0.411700  0.194900  0.609600  1.0  -0.1778
  C  C82  1  0.570200  0.089500  0.579000  1.0  -0.0257
  C  C83  1  0.490600  0.977200  0.532400  1.0  -0.1426
  C  C84  1  0.355200  0.503400  0.835030  1.0  0.1216
  C  C85  1  0.215200  0.307800  0.803200  1.0  0.0129
  C  C86  1  0.285100  0.295400  0.849700  1.0  -0.1544
  C  C87  1  0.474600  0.461000  0.920630  1.0  -0.0278
  C  C88  1  0.568100  0.392200  0.916980  1.0  -0.1398
  C  C89  1  0.656500  0.418600  0.862510  1.0  -0.1448
  C  C90  1  0.748200  0.347800  0.863130  1.0  -0.0278
  C  C91  1  0.961200  0.439500  0.804070  1.0  0.1443
  C  C92  1  0.889500  0.327000  0.720910  1.0  0.0283
  C  C93  1  0.778700  0.285900  0.757100  1.0  -0.1718
  C  C94  1  0.482400  0.526600  0.705960  1.0  0.1253
  C  C95  1  0.450000  0.658400  0.650630  1.0  0.0365
  C  C96  1  0.575400  0.663700  0.638510  1.0  -0.1601
  C  C97  1  0.718100  0.552000  0.677200  1.0  -0.0173
  C  C98  1  0.848800  0.673900  0.693400  1.0  -0.1553
  C  C99  1  0.844700  0.745000  0.751220  1.0  -0.1361
  C  C100  1  0.977100  0.875700  0.763370  1.0  -0.0211
  C  C101  1  0.004800  0.930100  0.872690  1.0  0.1436
  C  C102  1  0.903600  0.030100  0.825600  1.0  -0.1768
  C  C103  1  0.909600  0.063500  0.883900  1.0  0.0423
  C  C104  1  0.205500  0.395900  0.495020  1.0  0.6603
  C  C105  1  0.091600  0.442200  0.499430  1.0  -0.0767
  C  C106  1  0.030800  0.452200  0.447110  1.0  -0.0631
  C  C107  1  0.059000  0.487400  0.553110  1.0  -0.0917
  C  C108  1  0.110900  0.466800  0.611740  1.0  0.6621
  C  C109  1  0.071900  0.278900  0.008290  1.0  0.676
  C  C110  1  0.031100  0.392300  0.006600  1.0  -0.1202
  C  C111  1  0.917200  0.394800  0.033640  1.0  -0.0753
  C  C112  1  0.113900  0.498100  0.973080  1.0  -0.0674
  C  C113  1  0.823500  0.291300  0.073900  1.0  0.6752
  C  C114  1  0.434800  0.706300  0.455900  1.0  0.1341
  C  C115  1  0.609100  0.703600  0.410200  1.0  0.0352
  C  C116  1  0.588300  0.805100  0.390400  1.0  -0.1797
  C  C117  1  0.429800  0.910500  0.421000  1.0  -0.0261
  C  C118  1  0.509400  0.022800  0.467600  1.0  -0.143
  C  C119  1  0.644800  0.496600  0.164970  1.0  0.1219
  C  C120  1  0.784800  0.692200  0.196800  1.0  0.0145
  C  C121  1  0.714900  0.704600  0.150300  1.0  -0.1556
  C  C122  1  0.525400  0.539000  0.079370  1.0  -0.0286
  C  C123  1  0.431900  0.607800  0.083020  1.0  -0.1392
  C  C124  1  0.343500  0.581400  0.137490  1.0  -0.1461
  C  C125  1  0.251800  0.652200  0.136870  1.0  -0.026
  C  C126  1  0.038800  0.560500  0.195930  1.0  0.1455
  C  C127  1  0.110500  0.673000  0.279090  1.0  0.0291
  C  C128  1  0.221300  0.714100  0.242900  1.0  -0.1802
  C  C129  1  0.517600  0.473400  0.294040  1.0  0.1269
  C  C130  1  0.550000  0.341600  0.349370  1.0  0.0361
  C  C131  1  0.424600  0.336300  0.361490  1.0  -0.1588
  C  C132  1  0.281900  0.448000  0.322800  1.0  -0.0173
  C  C133  1  0.151200  0.326100  0.306600  1.0  -0.1532
  C  C134  1  0.155300  0.255000  0.248780  1.0  -0.1344
  C  C135  1  0.022900  0.124300  0.236630  1.0  -0.0216
  C  C136  1  0.995200  0.069900  0.127310  1.0  0.1431
  C  C137  1  0.096400  0.969900  0.174400  1.0  -0.1752
  C  C138  1  0.090400  0.936500  0.116100  1.0  0.042
  C  C139  1  0.794500  0.604100  0.504980  1.0  0.6597
  C  C140  1  0.908400  0.557800  0.500570  1.0  -0.0762
  C  C141  1  0.969200  0.547800  0.552890  1.0  -0.0625
  C  C142  1  0.941000  0.512600  0.446890  1.0  -0.0962
  C  C143  1  0.889100  0.533200  0.388260  1.0  0.661
  C  C144  1  0.928100  0.721100  0.991710  1.0  0.6754
  C  C145  1  0.968900  0.607700  0.993400  1.0  -0.1205
  C  C146  1  0.082800  0.605200  0.966360  1.0  -0.0746
  C  C147  1  0.886100  0.501900  0.026920  1.0  -0.0659
  C  C148  1  0.176500  0.708700  0.926100  1.0  0.6748
  N  N149  1  0.522700  0.193800  0.580480  1.0  0.0424
  N  N150  1  0.488000  0.358700  0.549070  1.0  -0.3812
  N  N151  1  0.390800  0.569100  0.693190  1.0  -0.3638
  N  N152  1  0.596200  0.580300  0.673690  1.0  0.0506
  N  N153  1  0.966200  0.945500  0.818690  1.0  0.044
  N  N154  1  0.973400  0.000700  0.913470  1.0  -0.3739
  N  N155  1  0.257700  0.437900  0.793830  1.0  -0.3649
  N  N156  1  0.374900  0.421200  0.870010  1.0  0.0563
  N  N157  1  0.827800  0.359300  0.809650  1.0  0.0615
  N  N158  1  0.004100  0.423600  0.750570  1.0  -0.3745
  N  N159  1  0.477300  0.806200  0.419520  1.0  0.0418
  N  N160  1  0.512000  0.641300  0.450930  1.0  -0.3798
  N  N161  1  0.609200  0.430900  0.306810  1.0  -0.3628
  N  N162  1  0.403800  0.419700  0.326310  1.0  0.0511
  N  N163  1  0.033800  0.054500  0.181310  1.0  0.0432
  N  N164  1  0.026600  0.999300  0.086530  1.0  -0.3745
  N  N165  1  0.742300  0.562100  0.206170  1.0  -0.3647
  N  N166  1  0.625100  0.578800  0.129990  1.0  0.0578
  N  N167  1  0.172200  0.640700  0.190350  1.0  0.0608
  N  N168  1  0.995900  0.576400  0.249430  1.0  -0.3765
  O  O169  1  0.186700  0.295300  0.463770  1.0  -0.6053
  O  O170  1  0.317300  0.477500  0.521380  1.0  -0.5999
  O  O171  1  0.117300  0.361500  0.618090  1.0  -0.5894
  O  O172  1  0.139300  0.559800  0.652550  1.0  -0.6013
  O  O173  1  0.973400  0.164400  0.011940  1.0  -0.5834
  O  O174  1  0.195500  0.303900  0.005140  1.0  -0.6202
  O  O175  1  0.873800  0.282100  0.121310  1.0  -0.6468
  O  O176  1  0.699800  0.228000  0.057450  1.0  -0.6006
  O  O177  1  0.813300  0.704700  0.536230  1.0  -0.6052
  O  O178  1  0.682700  0.522500  0.478620  1.0  -0.5996
  O  O179  1  0.882700  0.638500  0.381910  1.0  -0.5914
  O  O180  1  0.860700  0.440200  0.347450  1.0  -0.6012
  O  O181  1  0.026600  0.835600  0.988060  1.0  -0.58
  O  O182  1  0.804500  0.696100  0.994860  1.0  -0.6228
  O  O183  1  0.126200  0.717900  0.878690  1.0  -0.6437
  O  O184  1  0.300200  0.772000  0.942550  1.0  -0.6018
