# generated using pymatgen
data_CuH18C14(NO)4
_symmetry_space_group_name_H-M   'P 1'
_cell_length_a   8.73620000
_cell_length_b   8.90230000
_cell_length_c   24.05900000
_cell_angle_alpha   93.75000000
_cell_angle_beta   90.00000000
_cell_angle_gamma   90.00000000
_symmetry_Int_Tables_number   1
_chemical_formula_structural   CuH18C14(NO)4
_chemical_formula_sum   'Cu4 H72 C56 N16 O16'
_cell_volume   1867.11690413
_cell_formula_units_Z   4
loop_
 _symmetry_equiv_pos_site_id
 _symmetry_equiv_pos_as_xyz
  1  'x, y, z'
loop_
 _atom_site_type_symbol
 _atom_site_label
 _atom_site_symmetry_multiplicity
 _atom_site_fract_x
 _atom_site_fract_y
 _atom_site_fract_z
 _atom_site_occupancy
 _atom_site_charge
  Cu  Cu1  1  0.712660  0.750000  0.750000  1.0  0.8394
  Cu  Cu2  1  0.287340  0.250000  0.250000  1.0  0.8399
  Cu  Cu3  1  0.000000  0.500000  0.500000  1.0  0.8187
  Cu  Cu4  1  0.000000  0.000000  0.000000  1.0  0.8187
  H  H5  1  0.000600  0.550500  0.629700  1.0  0.0967
  H  H6  1  0.215600  0.233700  0.540100  1.0  0.107
  H  H7  1  0.279600  0.202500  0.638000  1.0  0.1414
  H  H8  1  0.117300  0.521600  0.724300  1.0  0.1138
  H  H9  1  0.255900  0.411400  0.726700  1.0  0.0827
  H  H10  1  0.085500  0.352200  0.789300  1.0  0.0784
  H  H11  1  0.952800  0.349900  0.746400  1.0  0.0778
  H  H12  1  0.653800  0.664300  0.623700  1.0  0.0964
  H  H13  1  0.647900  0.396500  0.745100  1.0  0.0981
  H  H14  1  0.586000  0.243800  0.659200  1.0  0.1451
  H  H15  1  0.519400  0.312700  0.557000  1.0  0.0849
  H  H16  1  0.683300  0.372400  0.543700  1.0  0.091
  H  H17  1  0.584200  0.612200  0.531600  1.0  0.0787
  H  H18  1  0.420000  0.558200  0.548100  1.0  0.0777
  H  H19  1  0.018000  0.003000  0.550100  1.0  0.1106
  H  H20  1  0.097800  0.945000  0.602700  1.0  0.1146
  H  H21  1  0.854800  0.059800  0.619400  1.0  0.1155
  H  H22  1  0.780700  0.920700  0.586600  1.0  0.1202
  H  H23  1  0.000600  0.949500  0.870300  1.0  0.0965
  H  H24  1  0.215600  0.266300  0.959900  1.0  0.107
  H  H25  1  0.279600  0.297500  0.862000  1.0  0.1415
  H  H26  1  0.117300  0.978400  0.775700  1.0  0.1139
  H  H27  1  0.255900  0.088600  0.773300  1.0  0.0821
  H  H28  1  0.085500  0.147800  0.710700  1.0  0.08
  H  H29  1  0.952800  0.150100  0.753600  1.0  0.078
  H  H30  1  0.653800  0.835700  0.876300  1.0  0.0972
  H  H31  1  0.647900  0.103500  0.754900  1.0  0.0983
  H  H32  1  0.586000  0.256200  0.840800  1.0  0.145
  H  H33  1  0.519400  0.187300  0.943000  1.0  0.0854
  H  H34  1  0.683300  0.127600  0.956300  1.0  0.0917
  H  H35  1  0.584200  0.887800  0.968400  1.0  0.0786
  H  H36  1  0.420000  0.941800  0.951900  1.0  0.0781
  H  H37  1  0.018000  0.497000  0.949900  1.0  0.1109
  H  H38  1  0.097800  0.555000  0.897300  1.0  0.1152
  H  H39  1  0.854800  0.440200  0.880600  1.0  0.117
  H  H40  1  0.780700  0.579300  0.913400  1.0  0.1201
  H  H41  1  0.999400  0.449500  0.370300  1.0  0.0962
  H  H42  1  0.784400  0.766300  0.459900  1.0  0.1068
  H  H43  1  0.720400  0.797500  0.362000  1.0  0.1414
  H  H44  1  0.882700  0.478400  0.275700  1.0  0.1136
  H  H45  1  0.744100  0.588600  0.273300  1.0  0.0831
  H  H46  1  0.914500  0.647800  0.210700  1.0  0.0804
  H  H47  1  0.047200  0.650100  0.253600  1.0  0.0789
  H  H48  1  0.346200  0.335700  0.376300  1.0  0.0973
  H  H49  1  0.352100  0.603500  0.254900  1.0  0.0983
  H  H50  1  0.414000  0.756200  0.340800  1.0  0.1447
  H  H51  1  0.480600  0.687300  0.443000  1.0  0.0845
  H  H52  1  0.316700  0.627600  0.456300  1.0  0.0915
  H  H53  1  0.415800  0.387800  0.468400  1.0  0.0791
  H  H54  1  0.580000  0.441800  0.451900  1.0  0.0779
  H  H55  1  0.982000  0.997000  0.449900  1.0  0.1114
  H  H56  1  0.902200  0.055000  0.397300  1.0  0.1152
  H  H57  1  0.145200  0.940200  0.380600  1.0  0.1163
  H  H58  1  0.219300  0.079300  0.413400  1.0  0.1199
  H  H59  1  0.999400  0.050500  0.129700  1.0  0.096
  H  H60  1  0.784400  0.733700  0.040100  1.0  0.1072
  H  H61  1  0.720400  0.702500  0.138000  1.0  0.1409
  H  H62  1  0.882700  0.021600  0.224300  1.0  0.1149
  H  H63  1  0.744100  0.911400  0.226700  1.0  0.0827
  H  H64  1  0.914500  0.852200  0.289300  1.0  0.0779
  H  H65  1  0.047200  0.849900  0.246400  1.0  0.0787
  H  H66  1  0.346200  0.164300  0.123700  1.0  0.0965
  H  H67  1  0.352100  0.896500  0.245100  1.0  0.0979
  H  H68  1  0.414000  0.743800  0.159200  1.0  0.1452
  H  H69  1  0.480600  0.812700  0.057000  1.0  0.0846
  H  H70  1  0.316700  0.872400  0.043700  1.0  0.091
  H  H71  1  0.415800  0.112200  0.031600  1.0  0.08
  H  H72  1  0.580000  0.058200  0.048100  1.0  0.0777
  H  H73  1  0.982000  0.503000  0.050100  1.0  0.1109
  H  H74  1  0.902200  0.445000  0.102700  1.0  0.1143
  H  H75  1  0.145200  0.559800  0.119400  1.0  0.1148
  H  H76  1  0.219300  0.420700  0.086600  1.0  0.1197
  C  C77  1  0.061400  0.467800  0.619100  1.0  0.1579
  C  C78  1  0.179800  0.293600  0.570400  1.0  0.0449
  C  C79  1  0.216000  0.275600  0.624400  1.0  -0.1632
  C  C80  1  0.149300  0.418300  0.715800  1.0  -0.0322
  C  C81  1  0.058700  0.320700  0.751200  1.0  -0.1345
  C  C82  1  0.645100  0.578500  0.643470  1.0  0.1434
  C  C83  1  0.641900  0.432300  0.709660  1.0  0.0393
  C  C84  1  0.607100  0.346300  0.662350  1.0  -0.1907
  C  C85  1  0.585800  0.400100  0.560730  1.0  -0.0327
  C  C86  1  0.515200  0.526600  0.530170  1.0  -0.1442
  C  C87  1  0.034700  0.775200  0.547050  1.0  0.6995
  C  C88  1  0.012500  0.927400  0.577330  1.0  -0.3024
  C  C89  1  0.866300  0.952700  0.610140  1.0  -0.2806
  C  C90  1  0.858000  0.871600  0.663080  1.0  0.6931
  C  C91  1  0.061400  0.032200  0.880900  1.0  0.1583
  C  C92  1  0.179800  0.206400  0.929600  1.0  0.0445
  C  C93  1  0.216000  0.224400  0.875600  1.0  -0.1633
  C  C94  1  0.149300  0.081700  0.784200  1.0  -0.0324
  C  C95  1  0.058700  0.179300  0.748800  1.0  -0.1346
  C  C96  1  0.645100  0.921500  0.856530  1.0  0.1436
  C  C97  1  0.641900  0.067700  0.790340  1.0  0.0385
  C  C98  1  0.607100  0.153700  0.837650  1.0  -0.1916
  C  C99  1  0.585800  0.099900  0.939270  1.0  -0.0315
  C  C100  1  0.515200  0.973400  0.969830  1.0  -0.1441
  C  C101  1  0.034700  0.724800  0.952950  1.0  0.7005
  C  C102  1  0.012500  0.572600  0.922670  1.0  -0.3026
  C  C103  1  0.866300  0.547300  0.889860  1.0  -0.2808
  C  C104  1  0.858000  0.628400  0.836920  1.0  0.6949
  C  C105  1  0.938600  0.532200  0.380900  1.0  0.1585
  C  C106  1  0.820200  0.706400  0.429600  1.0  0.0435
  C  C107  1  0.784000  0.724400  0.375600  1.0  -0.1636
  C  C108  1  0.850700  0.581700  0.284200  1.0  -0.0324
  C  C109  1  0.941300  0.679300  0.248800  1.0  -0.1348
  C  C110  1  0.354900  0.421500  0.356530  1.0  0.1436
  C  C111  1  0.358100  0.567700  0.290340  1.0  0.0377
  C  C112  1  0.392900  0.653700  0.337650  1.0  -0.1909
  C  C113  1  0.414200  0.599900  0.439270  1.0  -0.032
  C  C114  1  0.484800  0.473400  0.469830  1.0  -0.1451
  C  C115  1  0.965300  0.224800  0.452950  1.0  0.7
  C  C116  1  0.987500  0.072600  0.422670  1.0  -0.303
  C  C117  1  0.133700  0.047300  0.389860  1.0  -0.2809
  C  C118  1  0.142000  0.128400  0.336920  1.0  0.6947
  C  C119  1  0.938600  0.967800  0.119100  1.0  0.1582
  C  C120  1  0.820200  0.793600  0.070400  1.0  0.0444
  C  C121  1  0.784000  0.775600  0.124400  1.0  -0.1637
  C  C122  1  0.850700  0.918300  0.215800  1.0  -0.0318
  C  C123  1  0.941300  0.820700  0.251200  1.0  -0.134
  C  C124  1  0.354900  0.078500  0.143470  1.0  0.1426
  C  C125  1  0.358100  0.932300  0.209660  1.0  0.0386
  C  C126  1  0.392900  0.846300  0.162350  1.0  -0.1901
  C  C127  1  0.414200  0.900100  0.060730  1.0  -0.0326
  C  C128  1  0.484800  0.026600  0.030170  1.0  -0.1448
  C  C129  1  0.965300  0.275200  0.047050  1.0  0.6998
  C  C130  1  0.987500  0.427400  0.077330  1.0  -0.3026
  C  C131  1  0.133700  0.452700  0.110140  1.0  -0.2812
  C  C132  1  0.142000  0.371600  0.163080  1.0  0.6933
  N  N133  1  0.081700  0.414700  0.567470  1.0  -0.386
  N  N134  1  0.139900  0.386800  0.654810  1.0  0.0411
  N  N135  1  0.666100  0.575900  0.697970  1.0  -0.3891
  N  N136  1  0.610100  0.442800  0.620730  1.0  0.054
  N  N137  1  0.081700  0.085300  0.932530  1.0  -0.3861
  N  N138  1  0.139900  0.113200  0.845190  1.0  0.0408
  N  N139  1  0.666100  0.924100  0.802030  1.0  -0.3885
  N  N140  1  0.610100  0.057200  0.879270  1.0  0.0548
  N  N141  1  0.918300  0.585300  0.432530  1.0  -0.3861
  N  N142  1  0.860100  0.613200  0.345190  1.0  0.0406
  N  N143  1  0.333900  0.424100  0.302030  1.0  -0.3888
  N  N144  1  0.389900  0.557200  0.379270  1.0  0.055
  N  N145  1  0.918300  0.914700  0.067470  1.0  -0.3861
  N  N146  1  0.860100  0.886800  0.154810  1.0  0.0412
  N  N147  1  0.333900  0.075900  0.197970  1.0  -0.3884
  N  N148  1  0.389900  0.942800  0.120730  1.0  0.0543
  O  O149  1  0.965700  0.798700  0.680060  1.0  -0.6097
  O  O150  1  0.728500  0.882200  0.688440  1.0  -0.6296
  O  O151  1  0.925900  0.680300  0.546270  1.0  -0.5931
  O  O152  1  0.157500  0.750300  0.523050  1.0  -0.6487
  O  O153  1  0.965700  0.701300  0.819940  1.0  -0.6091
  O  O154  1  0.728500  0.617800  0.811560  1.0  -0.6304
  O  O155  1  0.925900  0.819700  0.953730  1.0  -0.5934
  O  O156  1  0.157500  0.749700  0.976950  1.0  -0.649
  O  O157  1  0.034300  0.201300  0.319940  1.0  -0.6095
  O  O158  1  0.271500  0.117800  0.311560  1.0  -0.6278
  O  O159  1  0.074100  0.319700  0.453730  1.0  -0.593
  O  O160  1  0.842500  0.249700  0.476950  1.0  -0.6493
  O  O161  1  0.034300  0.298700  0.180060  1.0  -0.6097
  O  O162  1  0.271500  0.382200  0.188440  1.0  -0.6277
  O  O163  1  0.074100  0.180300  0.046270  1.0  -0.5928
  O  O164  1  0.842500  0.250300  0.023050  1.0  -0.6493
