# generated using pymatgen
data_FeH16C28S4N7
_symmetry_space_group_name_H-M   'P 1'
_cell_length_a   29.95600000
_cell_length_b   9.73310000
_cell_length_c   15.52710000
_cell_angle_alpha   90.00000000
_cell_angle_beta   90.00000000
_cell_angle_gamma   90.00000000
_symmetry_Int_Tables_number   1
_chemical_formula_structural   FeH16C28S4N7
_chemical_formula_sum   'Fe4 H64 C112 S16 N28'
_cell_volume   4527.15493035
_cell_formula_units_Z   4
loop_
 _symmetry_equiv_pos_site_id
 _symmetry_equiv_pos_as_xyz
  1  'x, y, z'
loop_
 _atom_site_type_symbol
 _atom_site_label
 _atom_site_symmetry_multiplicity
 _atom_site_fract_x
 _atom_site_fract_y
 _atom_site_fract_z
 _atom_site_occupancy
 _atom_site_charge
  Fe  Fe1  1  0.250000  0.050200  0.250000  1.0  0.201
  Fe  Fe2  1  0.250000  0.949800  0.750000  1.0  0.201
  Fe  Fe3  1  0.750000  0.949800  0.750000  1.0  0.201
  Fe  Fe4  1  0.750000  0.050200  0.250000  1.0  0.201
  H  H5  1  0.155700  0.994100  0.275400  1.0  0.0836
  H  H6  1  0.144500  0.274000  0.052400  1.0  0.1141
  H  H7  1  0.196800  0.123700  0.097700  1.0  0.0621
  H  H8  1  0.101600  0.838500  0.240800  1.0  0.1053
  H  H9  1  0.157100  0.467600  0.281900  1.0  0.1202
  H  H10  1  0.244000  0.783700  0.145200  1.0  0.0819
  H  H11  1  0.209200  0.306200  0.317400  1.0  0.0677
  H  H12  1  0.191500  0.622000  0.107700  1.0  0.1188
  H  H13  1  0.344300  0.005900  0.775400  1.0  0.0836
  H  H14  1  0.355500  0.726000  0.552400  1.0  0.1138
  H  H15  1  0.303200  0.876300  0.597700  1.0  0.062
  H  H16  1  0.398400  0.161500  0.740800  1.0  0.1046
  H  H17  1  0.342900  0.532400  0.781900  1.0  0.1198
  H  H18  1  0.256000  0.216300  0.645200  1.0  0.082
  H  H19  1  0.290800  0.693800  0.817400  1.0  0.0672
  H  H20  1  0.308500  0.378000  0.607700  1.0  0.1195
  H  H21  1  0.344300  0.994100  0.224600  1.0  0.0837
  H  H22  1  0.355500  0.274000  0.447600  1.0  0.1143
  H  H23  1  0.303200  0.123700  0.402300  1.0  0.0626
  H  H24  1  0.398400  0.838500  0.259200  1.0  0.104
  H  H25  1  0.342900  0.467600  0.218100  1.0  0.119
  H  H26  1  0.256000  0.783700  0.354800  1.0  0.0811
  H  H27  1  0.290800  0.306200  0.182600  1.0  0.068
  H  H28  1  0.308500  0.622000  0.392300  1.0  0.1201
  H  H29  1  0.155700  0.005900  0.724600  1.0  0.0826
  H  H30  1  0.144500  0.726000  0.947600  1.0  0.1142
  H  H31  1  0.196800  0.876300  0.902300  1.0  0.0621
  H  H32  1  0.101600  0.161500  0.759200  1.0  0.1049
  H  H33  1  0.157100  0.532400  0.718100  1.0  0.1186
  H  H34  1  0.244000  0.216300  0.854800  1.0  0.0816
  H  H35  1  0.209200  0.693800  0.682600  1.0  0.068
  H  H36  1  0.191500  0.378000  0.892300  1.0  0.1199
  H  H37  1  0.844300  0.005900  0.724600  1.0  0.0835
  H  H38  1  0.855500  0.726000  0.947600  1.0  0.114
  H  H39  1  0.803200  0.876300  0.902300  1.0  0.0621
  H  H40  1  0.898400  0.161500  0.759200  1.0  0.1038
  H  H41  1  0.842900  0.532400  0.718100  1.0  0.1188
  H  H42  1  0.756000  0.216300  0.854800  1.0  0.0811
  H  H43  1  0.790800  0.693800  0.682600  1.0  0.0678
  H  H44  1  0.808500  0.378000  0.892300  1.0  0.1194
  H  H45  1  0.655700  0.994100  0.224600  1.0  0.0831
  H  H46  1  0.644500  0.274000  0.447600  1.0  0.1145
  H  H47  1  0.696800  0.123700  0.402300  1.0  0.0626
  H  H48  1  0.601600  0.838500  0.259200  1.0  0.1047
  H  H49  1  0.657100  0.467600  0.218100  1.0  0.1189
  H  H50  1  0.744000  0.783700  0.354800  1.0  0.0816
  H  H51  1  0.709200  0.306200  0.182600  1.0  0.0679
  H  H52  1  0.691500  0.622000  0.392300  1.0  0.1191
  H  H53  1  0.655700  0.005900  0.775400  1.0  0.0834
  H  H54  1  0.644500  0.726000  0.552400  1.0  0.114
  H  H55  1  0.696800  0.876300  0.597700  1.0  0.062
  H  H56  1  0.601600  0.161500  0.740800  1.0  0.106
  H  H57  1  0.657100  0.532400  0.781900  1.0  0.1206
  H  H58  1  0.744000  0.216300  0.645200  1.0  0.082
  H  H59  1  0.709200  0.693800  0.817400  1.0  0.0678
  H  H60  1  0.691500  0.378000  0.607700  1.0  0.12
  H  H61  1  0.844300  0.994100  0.275400  1.0  0.0832
  H  H62  1  0.855500  0.274000  0.052400  1.0  0.1139
  H  H63  1  0.803200  0.123700  0.097700  1.0  0.062
  H  H64  1  0.898400  0.838500  0.240800  1.0  0.104
  H  H65  1  0.842900  0.467600  0.281900  1.0  0.1198
  H  H66  1  0.756000  0.783700  0.145200  1.0  0.0821
  H  H67  1  0.790800  0.306200  0.317400  1.0  0.0673
  H  H68  1  0.808500  0.622000  0.107700  1.0  0.1198
  C  C69  1  0.023600  0.542100  0.112600  1.0  0.0371
  C  C70  1  0.163200  0.919200  0.241200  1.0  0.1297
  C  C71  1  0.104700  0.481300  0.141100  1.0  -0.1517
  C  C72  1  0.156400  0.281400  0.107500  1.0  -0.1784
  C  C73  1  0.187800  0.192900  0.135200  1.0  0.1467
  C  C74  1  0.130500  0.824800  0.220300  1.0  -0.1431
  C  C75  1  0.104000  0.616800  0.145000  1.0  -0.1228
  C  C76  1  0.139200  0.712000  0.170600  1.0  -0.0021
  C  C77  1  0.141900  0.387000  0.165100  1.0  -0.0004
  C  C78  1  0.292500  0.025500  0.069900  1.0  0.5373
  C  C79  1  0.163700  0.396800  0.243700  1.0  -0.1678
  C  C80  1  0.214900  0.795000  0.164700  1.0  0.144
  C  C81  1  0.195300  0.299500  0.264000  1.0  0.1457
  C  C82  1  0.183500  0.696700  0.141700  1.0  -0.1724
  C  C83  1  0.476400  0.457900  0.612600  1.0  0.0378
  C  C84  1  0.336800  0.080800  0.741200  1.0  0.1301
  C  C85  1  0.395300  0.518700  0.641100  1.0  -0.15
  C  C86  1  0.343600  0.718600  0.607500  1.0  -0.1774
  C  C87  1  0.312200  0.807100  0.635200  1.0  0.1468
  C  C88  1  0.369500  0.175200  0.720300  1.0  -0.1415
  C  C89  1  0.396000  0.383200  0.645000  1.0  -0.1212
  C  C90  1  0.360800  0.288000  0.670600  1.0  -0.0008
  C  C91  1  0.358100  0.613000  0.665100  1.0  -0.0006
  C  C92  1  0.207500  0.974500  0.569900  1.0  0.5358
  C  C93  1  0.336300  0.603200  0.743700  1.0  -0.1661
  C  C94  1  0.285100  0.205000  0.664700  1.0  0.144
  C  C95  1  0.304700  0.700500  0.764000  1.0  0.1471
  C  C96  1  0.316500  0.303300  0.641700  1.0  -0.172
  C  C97  1  0.476400  0.542100  0.387400  1.0  0.0378
  C  C98  1  0.336800  0.919200  0.258800  1.0  0.1303
  C  C99  1  0.395300  0.481300  0.358900  1.0  -0.151
  C  C100  1  0.343600  0.281400  0.392500  1.0  -0.1769
  C  C101  1  0.312200  0.192900  0.364800  1.0  0.1468
  C  C102  1  0.369500  0.824800  0.279700  1.0  -0.1412
  C  C103  1  0.396000  0.616800  0.355000  1.0  -0.1203
  C  C104  1  0.360800  0.712000  0.329400  1.0  -0.0012
  C  C105  1  0.358100  0.387000  0.334900  1.0  0.0003
  C  C106  1  0.207500  0.025500  0.430100  1.0  0.5339
  C  C107  1  0.336300  0.396800  0.256300  1.0  -0.1656
  C  C108  1  0.285100  0.795000  0.335300  1.0  0.1439
  C  C109  1  0.304700  0.299500  0.236000  1.0  0.1455
  C  C110  1  0.316500  0.696700  0.358300  1.0  -0.1717
  C  C111  1  0.023600  0.457900  0.887400  1.0  0.0375
  C  C112  1  0.163200  0.080800  0.758800  1.0  0.1302
  C  C113  1  0.104700  0.518700  0.858900  1.0  -0.1507
  C  C114  1  0.156400  0.718600  0.892500  1.0  -0.1777
  C  C115  1  0.187800  0.807100  0.864800  1.0  0.1468
  C  C116  1  0.130500  0.175200  0.779700  1.0  -0.1436
  C  C117  1  0.104000  0.383200  0.855000  1.0  -0.1213
  C  C118  1  0.139200  0.288000  0.829400  1.0  -0.0019
  C  C119  1  0.141900  0.613000  0.834900  1.0  -0.0004
  C  C120  1  0.292500  0.974500  0.930100  1.0  0.5357
  C  C121  1  0.163700  0.603200  0.756300  1.0  -0.1637
  C  C122  1  0.214900  0.205000  0.835300  1.0  0.1438
  C  C123  1  0.195300  0.700500  0.736000  1.0  0.1457
  C  C124  1  0.183500  0.303300  0.858300  1.0  -0.1718
  C  C125  1  0.976400  0.457900  0.887400  1.0  0.0379
  C  C126  1  0.836800  0.080800  0.758800  1.0  0.1301
  C  C127  1  0.895300  0.518700  0.858900  1.0  -0.1505
  C  C128  1  0.843600  0.718600  0.892500  1.0  -0.1774
  C  C129  1  0.812200  0.807100  0.864800  1.0  0.1467
  C  C130  1  0.869500  0.175200  0.779700  1.0  -0.1416
  C  C131  1  0.896000  0.383200  0.855000  1.0  -0.1204
  C  C132  1  0.860800  0.288000  0.829400  1.0  -0.001
  C  C133  1  0.858100  0.613000  0.834900  1.0  -0.0005
  C  C134  1  0.707500  0.974500  0.930100  1.0  0.5338
  C  C135  1  0.836300  0.603200  0.756300  1.0  -0.1651
  C  C136  1  0.785100  0.205000  0.835300  1.0  0.1438
  C  C137  1  0.804700  0.700500  0.736000  1.0  0.146
  C  C138  1  0.816500  0.303300  0.858300  1.0  -0.1718
  C  C139  1  0.523600  0.542100  0.387400  1.0  0.0374
  C  C140  1  0.663200  0.919200  0.258800  1.0  0.1299
  C  C141  1  0.604700  0.481300  0.358900  1.0  -0.1516
  C  C142  1  0.656400  0.281400  0.392500  1.0  -0.1775
  C  C143  1  0.687800  0.192900  0.364800  1.0  0.147
  C  C144  1  0.630500  0.824800  0.279700  1.0  -0.1426
  C  C145  1  0.604000  0.616800  0.355000  1.0  -0.1208
  C  C146  1  0.639200  0.712000  0.329400  1.0  -0.0021
  C  C147  1  0.641900  0.387000  0.334900  1.0  1e-04
  C  C148  1  0.792500  0.025500  0.430100  1.0  0.5355
  C  C149  1  0.663700  0.396800  0.256300  1.0  -0.1646
  C  C150  1  0.714900  0.795000  0.335300  1.0  0.144
  C  C151  1  0.695300  0.299500  0.236000  1.0  0.1452
  C  C152  1  0.683500  0.696700  0.358300  1.0  -0.1718
  C  C153  1  0.523600  0.457900  0.612600  1.0  0.0372
  C  C154  1  0.663200  0.080800  0.741200  1.0  0.13
  C  C155  1  0.604700  0.518700  0.641100  1.0  -0.1507
  C  C156  1  0.656400  0.718600  0.607500  1.0  -0.1781
  C  C157  1  0.687800  0.807100  0.635200  1.0  0.1472
  C  C158  1  0.630500  0.175200  0.720300  1.0  -0.1439
  C  C159  1  0.604000  0.383200  0.645000  1.0  -0.1234
  C  C160  1  0.639200  0.288000  0.670600  1.0  -0.0017
  C  C161  1  0.641900  0.613000  0.665100  1.0  -0.0009
  C  C162  1  0.792500  0.974500  0.569900  1.0  0.5373
  C  C163  1  0.663700  0.603200  0.743700  1.0  -0.1659
  C  C164  1  0.714900  0.205000  0.664700  1.0  0.1444
  C  C165  1  0.695300  0.700500  0.764000  1.0  0.1466
  C  C166  1  0.683500  0.303300  0.641700  1.0  -0.1719
  C  C167  1  0.976400  0.542100  0.112600  1.0  0.0377
  C  C168  1  0.836800  0.919200  0.241200  1.0  0.1302
  C  C169  1  0.895300  0.481300  0.141100  1.0  -0.1506
  C  C170  1  0.843600  0.281400  0.107500  1.0  -0.1774
  C  C171  1  0.812200  0.192900  0.135200  1.0  0.1467
  C  C172  1  0.869500  0.824800  0.220300  1.0  -0.1414
  C  C173  1  0.896000  0.616800  0.145000  1.0  -0.1211
  C  C174  1  0.860800  0.712000  0.170600  1.0  -0.0009
  C  C175  1  0.858100  0.387000  0.165100  1.0  0.0003
  C  C176  1  0.707500  0.025500  0.069900  1.0  0.5357
  C  C177  1  0.836300  0.396800  0.243700  1.0  -0.1677
  C  C178  1  0.785100  0.795000  0.164700  1.0  0.1438
  C  C179  1  0.804700  0.299500  0.264000  1.0  0.146
  C  C180  1  0.816500  0.696700  0.141700  1.0  -0.1725
  S  S181  1  0.052450  0.693400  0.118300  1.0  0.0641
  S  S182  1  0.055870  0.394500  0.108900  1.0  0.0921
  S  S183  1  0.447550  0.306600  0.618300  1.0  0.0658
  S  S184  1  0.444130  0.605500  0.608900  1.0  0.0916
  S  S185  1  0.447550  0.693400  0.381700  1.0  0.0646
  S  S186  1  0.444130  0.394500  0.391100  1.0  0.0922
  S  S187  1  0.052450  0.306600  0.881700  1.0  0.0644
  S  S188  1  0.055870  0.605500  0.891100  1.0  0.0909
  S  S189  1  0.947550  0.306600  0.881700  1.0  0.0652
  S  S190  1  0.944130  0.605500  0.891100  1.0  0.0915
  S  S191  1  0.552450  0.693400  0.381700  1.0  0.0639
  S  S192  1  0.555870  0.394500  0.391100  1.0  0.0923
  S  S193  1  0.552450  0.306600  0.618300  1.0  0.065
  S  S194  1  0.555870  0.605500  0.608900  1.0  0.0909
  S  S195  1  0.947550  0.693400  0.118300  1.0  0.0649
  S  S196  1  0.944130  0.394500  0.108900  1.0  0.0922
  N  N197  1  0.276800  0.045200  0.136200  1.0  -0.4285
  N  N198  1  0.207200  0.197600  0.213300  1.0  -0.3011
  N  N199  1  0.205600  0.906500  0.213800  1.0  -0.2928
  N  N200  1  0.223200  0.954800  0.636200  1.0  -0.4282
  N  N201  1  0.292800  0.802400  0.713300  1.0  -0.3014
  N  N202  1  0.294400  0.093500  0.713800  1.0  -0.2942
  N  N203  1  0.223200  0.045200  0.363800  1.0  -0.4286
  N  N204  1  0.292800  0.197600  0.286700  1.0  -0.302
  N  N205  1  0.294400  0.906500  0.286200  1.0  -0.2943
  N  N206  1  0.276800  0.954800  0.863800  1.0  -0.428
  N  N207  1  0.207200  0.802400  0.786700  1.0  -0.3011
  N  N208  1  0.205600  0.093500  0.786200  1.0  -0.2928
  N  N209  1  0.723200  0.954800  0.863800  1.0  -0.4282
  N  N210  1  0.792800  0.802400  0.786700  1.0  -0.3015
  N  N211  1  0.794400  0.093500  0.786200  1.0  -0.2942
  N  N212  1  0.776800  0.045200  0.363800  1.0  -0.4283
  N  N213  1  0.707200  0.197600  0.286700  1.0  -0.3013
  N  N214  1  0.705600  0.906500  0.286200  1.0  -0.2928
  N  N215  1  0.776800  0.954800  0.636200  1.0  -0.4286
  N  N216  1  0.707200  0.802400  0.713300  1.0  -0.3009
  N  N217  1  0.705600  0.093500  0.713800  1.0  -0.2926
  N  N218  1  0.723200  0.045200  0.136200  1.0  -0.4283
  N  N219  1  0.792800  0.197600  0.213300  1.0  -0.3019
  N  N220  1  0.794400  0.906500  0.213800  1.0  -0.2943
  N  N221  1  0.313600  0.000000  0.000000  1.0  -0.3883
  N  N222  1  0.186400  0.000000  0.500000  1.0  -0.3905
  N  N223  1  0.686400  0.000000  0.000000  1.0  -0.3905
  N  N224  1  0.813600  0.000000  0.500000  1.0  -0.3883
