# generated using pymatgen
data_La4Mo12PH6(C9O20)2
_symmetry_space_group_name_H-M   'P 1'
_cell_length_a   12.16550000
_cell_length_b   20.51440000
_cell_length_c   21.70120000
_cell_angle_alpha   90.00000000
_cell_angle_beta   90.00000000
_cell_angle_gamma   90.00000000
_symmetry_Int_Tables_number   1
_chemical_formula_structural   La4Mo12PH6(C9O20)2
_chemical_formula_sum   'La8 Mo24 P2 H12 C36 O80'
_cell_volume   5415.92363196
_cell_formula_units_Z   2
loop_
 _symmetry_equiv_pos_site_id
 _symmetry_equiv_pos_as_xyz
  1  'x, y, z'
loop_
 _atom_site_type_symbol
 _atom_site_label
 _atom_site_symmetry_multiplicity
 _atom_site_fract_x
 _atom_site_fract_y
 _atom_site_fract_z
 _atom_site_occupancy
 _atom_site_charge
  La  La1  1  0.425870  0.809830  0.467720  1.0  2.2244
  La  La2  1  0.997510  0.006010  0.323490  1.0  2.1542
  La  La3  1  0.425870  0.190170  0.532280  1.0  2.2245
  La  La4  1  0.997510  0.993990  0.676510  1.0  2.152
  La  La5  1  0.574130  0.690170  0.967720  1.0  2.2251
  La  La6  1  0.002490  0.493990  0.823490  1.0  2.1534
  La  La7  1  0.574130  0.309830  0.032280  1.0  2.2244
  La  La8  1  0.002490  0.506010  0.176510  1.0  2.1523
  Mo  Mo9  1  0.493580  0.004950  0.440740  1.0  1.1794
  Mo  Mo10  1  0.283820  0.101080  0.368650  1.0  1.2802
  Mo  Mo11  1  0.304060  0.935390  0.342070  1.0  1.5553
  Mo  Mo12  1  0.121940  0.850850  0.405540  1.0  1.5241
  Mo  Mo13  1  0.932230  0.062610  0.509020  1.0  1.2357
  Mo  Mo14  1  0.138430  0.158790  0.435630  1.0  1.2361
  Mo  Mo15  1  0.493580  0.995050  0.559260  1.0  1.1797
  Mo  Mo16  1  0.283820  0.898920  0.631350  1.0  1.2792
  Mo  Mo17  1  0.304060  0.064610  0.657930  1.0  1.556
  Mo  Mo18  1  0.121940  0.149150  0.594460  1.0  1.5228
  Mo  Mo19  1  0.932230  0.937390  0.490980  1.0  1.2369
  Mo  Mo20  1  0.138430  0.841210  0.564370  1.0  1.2357
  Mo  Mo21  1  0.506420  0.495050  0.940740  1.0  1.1797
  Mo  Mo22  1  0.716180  0.398920  0.868650  1.0  1.282
  Mo  Mo23  1  0.695940  0.564610  0.842070  1.0  1.5569
  Mo  Mo24  1  0.878060  0.649150  0.905540  1.0  1.5248
  Mo  Mo25  1  0.067770  0.437390  0.009020  1.0  1.234
  Mo  Mo26  1  0.861570  0.341210  0.935630  1.0  1.2355
  Mo  Mo27  1  0.506420  0.504950  0.059260  1.0  1.1811
  Mo  Mo28  1  0.716180  0.601080  0.131350  1.0  1.2806
  Mo  Mo29  1  0.695940  0.435390  0.157930  1.0  1.5545
  Mo  Mo30  1  0.878060  0.350850  0.094460  1.0  1.5187
  Mo  Mo31  1  0.067770  0.562610  0.990980  1.0  1.2349
  Mo  Mo32  1  0.861570  0.658790  0.064370  1.0  1.2361
  P  P33  1  0.210500  0.000000  0.500000  1.0  1.7068
  P  P34  1  0.789500  0.500000  0.000000  1.0  1.7067
  H  H35  1  0.760700  0.166900  0.193100  1.0  0.1086
  H  H36  1  0.507500  0.269700  0.263500  1.0  0.1123
  H  H37  1  0.693300  0.158900  0.374400  1.0  0.1044
  H  H38  1  0.760700  0.833100  0.806900  1.0  0.1081
  H  H39  1  0.507500  0.730300  0.736500  1.0  0.1123
  H  H40  1  0.693300  0.841100  0.625600  1.0  0.1045
  H  H41  1  0.239300  0.333100  0.693100  1.0  0.1095
  H  H42  1  0.492500  0.230300  0.763500  1.0  0.1126
  H  H43  1  0.306700  0.341100  0.874400  1.0  0.1045
  H  H44  1  0.239300  0.666900  0.306900  1.0  0.1093
  H  H45  1  0.492500  0.769700  0.236500  1.0  0.1121
  H  H46  1  0.306700  0.658900  0.125600  1.0  0.1045
  C  C47  1  0.743100  0.156100  0.285300  1.0  -0.1534
  C  C48  1  0.718800  0.180200  0.226700  1.0  0.0108
  C  C49  1  0.632800  0.224000  0.217900  1.0  -0.1949
  C  C50  1  0.567100  0.241900  0.268800  1.0  0.0185
  C  C51  1  0.592300  0.217700  0.326500  1.0  -0.1323
  C  C52  1  0.678300  0.175000  0.335200  1.0  0.0263
  C  C53  1  0.837900  0.111800  0.294900  1.0  0.675
  C  C54  1  0.605000  0.249300  0.155100  1.0  0.6758
  C  C55  1  0.518100  0.235300  0.381900  1.0  0.674
  C  C56  1  0.743100  0.843900  0.714700  1.0  -0.1534
  C  C57  1  0.718800  0.819800  0.773300  1.0  0.0111
  C  C58  1  0.632800  0.776000  0.782100  1.0  -0.1939
  C  C59  1  0.567100  0.758100  0.731200  1.0  0.0189
  C  C60  1  0.592300  0.782300  0.673500  1.0  -0.1323
  C  C61  1  0.678300  0.825000  0.664800  1.0  0.0255
  C  C62  1  0.837900  0.888200  0.705100  1.0  0.6741
  C  C63  1  0.605000  0.750700  0.844900  1.0  0.676
  C  C64  1  0.518100  0.764700  0.618100  1.0  0.6754
  C  C65  1  0.256900  0.343900  0.785300  1.0  -0.1538
  C  C66  1  0.281200  0.319800  0.726700  1.0  0.0112
  C  C67  1  0.367200  0.276000  0.717900  1.0  -0.1953
  C  C68  1  0.432900  0.258100  0.768800  1.0  0.0193
  C  C69  1  0.407700  0.282300  0.826500  1.0  -0.1329
  C  C70  1  0.321700  0.325000  0.835200  1.0  0.0251
  C  C71  1  0.162100  0.388200  0.794900  1.0  0.6751
  C  C72  1  0.395000  0.250700  0.655100  1.0  0.6739
  C  C73  1  0.481900  0.264700  0.881900  1.0  0.6759
  C  C74  1  0.256900  0.656100  0.214700  1.0  -0.1546
  C  C75  1  0.281200  0.680200  0.273300  1.0  0.0115
  C  C76  1  0.367200  0.724000  0.282100  1.0  -0.1939
  C  C77  1  0.432900  0.741900  0.231200  1.0  0.0186
  C  C78  1  0.407700  0.717700  0.173500  1.0  -0.1325
  C  C79  1  0.321700  0.675000  0.164800  1.0  0.0268
  C  C80  1  0.162100  0.611800  0.205100  1.0  0.6743
  C  C81  1  0.395000  0.749300  0.344900  1.0  0.6761
  C  C82  1  0.481900  0.735300  0.118100  1.0  0.6713
  O  O83  1  0.468800  0.929300  0.494700  1.0  -0.8517
  O  O84  1  0.443100  0.944900  0.372200  1.0  -0.6943
  O  O85  1  0.449700  0.079300  0.380400  1.0  -0.6258
  O  O86  1  0.284200  0.007900  0.441900  1.0  -0.7432
  O  O87  1  0.296100  0.852800  0.553100  1.0  -0.8362
  O  O88  1  0.124700  0.088400  0.374100  1.0  -0.8903
  O  O89  1  0.282200  0.019300  0.316300  1.0  -0.7517
  O  O90  1  0.142600  0.929900  0.353000  1.0  -0.993
  O  O91  1  0.281800  0.866600  0.405200  1.0  -0.9087
  O  O92  1  0.138100  0.805800  0.477600  1.0  -0.7039
  O  O93  1  0.980700  0.880700  0.419600  1.0  -0.7863
  O  O94  1  0.135400  0.060800  0.505900  1.0  -0.7307
  O  O95  1  0.956800  0.010600  0.435100  1.0  -0.8863
  O  O96  1  0.974100  0.141000  0.454400  1.0  -0.6422
  O  O97  1  0.878300  0.105500  0.347500  1.0  -0.6199
  O  O98  1  0.869800  0.073800  0.250000  1.0  -0.7306
  O  O99  1  0.661700  0.228700  0.109500  1.0  -0.71
  O  O100  1  0.528000  0.289700  0.148100  1.0  -0.699
  O  O101  1  0.517600  0.195100  0.426400  1.0  -0.7549
  O  O102  1  0.464300  0.287400  0.376500  1.0  -0.6092
  O  O103  1  0.468800  0.070700  0.505300  1.0  -0.8524
  O  O104  1  0.443100  0.055100  0.627800  1.0  -0.6945
  O  O105  1  0.449700  0.920700  0.619600  1.0  -0.6252
  O  O106  1  0.284200  0.992100  0.558100  1.0  -0.7451
  O  O107  1  0.296100  0.147200  0.446900  1.0  -0.8384
  O  O108  1  0.124700  0.911600  0.625900  1.0  -0.8903
  O  O109  1  0.282200  0.980700  0.683700  1.0  -0.7505
  O  O110  1  0.142600  0.070100  0.647000  1.0  -0.9784
  O  O111  1  0.281800  0.133400  0.594800  1.0  -0.9093
  O  O112  1  0.138100  0.194200  0.522400  1.0  -0.7036
  O  O113  1  0.980700  0.119300  0.580400  1.0  -0.7859
  O  O114  1  0.135400  0.939200  0.494100  1.0  -0.7289
  O  O115  1  0.956800  0.989400  0.564900  1.0  -0.8846
  O  O116  1  0.974100  0.859000  0.545600  1.0  -0.6419
  O  O117  1  0.878300  0.894500  0.652500  1.0  -0.6199
  O  O118  1  0.869800  0.926200  0.750000  1.0  -0.7283
  O  O119  1  0.661700  0.771300  0.890500  1.0  -0.712
  O  O120  1  0.528000  0.710300  0.851900  1.0  -0.6995
  O  O121  1  0.517600  0.804900  0.573600  1.0  -0.7568
  O  O122  1  0.464300  0.712600  0.623500  1.0  -0.629
  O  O123  1  0.531200  0.570700  0.994700  1.0  -0.8516
  O  O124  1  0.556900  0.555100  0.872200  1.0  -0.6952
  O  O125  1  0.550300  0.420700  0.880400  1.0  -0.627
  O  O126  1  0.715800  0.492100  0.941900  1.0  -0.7435
  O  O127  1  0.703900  0.647200  0.053100  1.0  -0.8386
  O  O128  1  0.875300  0.411600  0.874100  1.0  -0.89
  O  O129  1  0.717800  0.480700  0.816300  1.0  -0.7531
  O  O130  1  0.857400  0.570100  0.853000  1.0  -1.0101
  O  O131  1  0.718200  0.633400  0.905200  1.0  -0.9078
  O  O132  1  0.861900  0.694200  0.977600  1.0  -0.7026
  O  O133  1  0.019300  0.619300  0.919600  1.0  -0.7865
  O  O134  1  0.864600  0.439200  0.005900  1.0  -0.7277
  O  O135  1  0.043200  0.489400  0.935100  1.0  -0.8861
  O  O136  1  0.025900  0.359000  0.954400  1.0  -0.6413
  O  O137  1  0.121700  0.394500  0.847500  1.0  -0.6207
  O  O138  1  0.130200  0.426200  0.750000  1.0  -0.729
  O  O139  1  0.338300  0.271300  0.609500  1.0  -0.7132
  O  O140  1  0.472000  0.210300  0.648100  1.0  -0.6992
  O  O141  1  0.482400  0.304900  0.926400  1.0  -0.7544
  O  O142  1  0.535700  0.212600  0.876500  1.0  -0.609
  O  O143  1  0.531200  0.429300  0.005300  1.0  -0.8515
  O  O144  1  0.556900  0.444900  0.127800  1.0  -0.6955
  O  O145  1  0.550300  0.579300  0.119600  1.0  -0.6254
  O  O146  1  0.715800  0.507900  0.058100  1.0  -0.7451
  O  O147  1  0.703900  0.352800  0.946900  1.0  -0.837
  O  O148  1  0.875300  0.588400  0.125900  1.0  -0.8892
  O  O149  1  0.717800  0.519300  0.183700  1.0  -0.7507
  O  O150  1  0.857400  0.429900  0.147000  1.0  -0.9812
  O  O151  1  0.718200  0.366600  0.094800  1.0  -0.9088
  O  O152  1  0.861900  0.305800  0.022400  1.0  -0.7024
  O  O153  1  0.019300  0.380700  0.080400  1.0  -0.7873
  O  O154  1  0.864600  0.560800  0.994100  1.0  -0.729
  O  O155  1  0.043200  0.510600  0.064900  1.0  -0.8857
  O  O156  1  0.025900  0.641000  0.045600  1.0  -0.6421
  O  O157  1  0.121700  0.605500  0.152500  1.0  -0.6208
  O  O158  1  0.130200  0.573800  0.250000  1.0  -0.7193
  O  O159  1  0.338300  0.728700  0.390500  1.0  -0.7134
  O  O160  1  0.472000  0.789700  0.351900  1.0  -0.6991
  O  O161  1  0.482400  0.695100  0.073600  1.0  -0.7585
  O  O162  1  0.535700  0.787400  0.123500  1.0  -0.5925
