# generated using pymatgen
data_La4Mo12PH2(C5O18)2
_symmetry_space_group_name_H-M   'P 1'
_cell_length_a   12.31920000
_cell_length_b   12.36540000
_cell_length_c   25.11140000
_cell_angle_alpha   81.89700000
_cell_angle_beta   85.38900000
_cell_angle_gamma   88.56400000
_symmetry_Int_Tables_number   1
_chemical_formula_structural   La4Mo12PH2(C5O18)2
_chemical_formula_sum   'La8 Mo24 P2 H4 C20 O72'
_cell_volume   3774.45292194
_cell_formula_units_Z   2
loop_
 _symmetry_equiv_pos_site_id
 _symmetry_equiv_pos_as_xyz
  1  'x, y, z'
loop_
 _atom_site_type_symbol
 _atom_site_label
 _atom_site_symmetry_multiplicity
 _atom_site_fract_x
 _atom_site_fract_y
 _atom_site_fract_z
 _atom_site_occupancy
 _atom_site_charge
  La  La1  1  0.723240  0.094750  0.585250  1.0  2.1569
  La  La2  1  0.993760  0.818010  0.839100  1.0  2.095
  La  La3  1  0.699510  0.329240  0.862880  1.0  2.1369
  La  La4  1  0.217740  0.340640  0.649810  1.0  2.0995
  La  La5  1  0.276760  0.905250  0.414750  1.0  2.1583
  La  La6  1  0.006240  0.181990  0.160900  1.0  2.0938
  La  La7  1  0.300490  0.670760  0.137120  1.0  2.1395
  La  La8  1  0.782260  0.659360  0.350190  1.0  2.1048
  Mo  Mo9  1  0.935900  0.898410  0.671430  1.0  1.1995
  Mo  Mo10  1  0.042610  0.128660  0.592840  1.0  1.4709
  Mo  Mo11  1  0.170120  0.018770  0.707030  1.0  1.2049
  Mo  Mo12  1  0.761170  0.894980  0.738480  1.0  1.2358
  Mo  Mo13  1  0.620660  0.144790  0.750340  1.0  1.1718
  Mo  Mo14  1  0.742420  0.006480  0.859160  1.0  1.4403
  Mo  Mo15  1  0.950090  0.120980  0.889130  1.0  1.4496
  Mo  Mo16  1  0.170190  0.103960  0.795580  1.0  1.2353
  Mo  Mo17  1  0.026500  0.353940  0.803440  1.0  1.1649
  Mo  Mo18  1  0.926030  0.442550  0.722490  1.0  1.2036
  Mo  Mo19  1  0.685430  0.323510  0.691990  1.0  1.1473
  Mo  Mo20  1  0.910850  0.348150  0.600900  1.0  1.4507
  Mo  Mo21  1  0.064100  0.101590  0.328570  1.0  1.2032
  Mo  Mo22  1  0.957390  0.871340  0.407160  1.0  1.467
  Mo  Mo23  1  0.829880  0.981230  0.292970  1.0  1.2067
  Mo  Mo24  1  0.238830  0.105020  0.261520  1.0  1.2385
  Mo  Mo25  1  0.379340  0.855210  0.249660  1.0  1.1693
  Mo  Mo26  1  0.257580  0.993520  0.140840  1.0  1.4353
  Mo  Mo27  1  0.049910  0.879020  0.110870  1.0  1.4517
  Mo  Mo28  1  0.829810  0.896040  0.204420  1.0  1.2357
  Mo  Mo29  1  0.973500  0.646060  0.196560  1.0  1.1664
  Mo  Mo30  1  0.073970  0.557450  0.277510  1.0  1.2033
  Mo  Mo31  1  0.314570  0.676490  0.308010  1.0  1.1455
  Mo  Mo32  1  0.089150  0.651850  0.399100  1.0  1.4468
  P  P33  1  0.911710  0.150920  0.735340  1.0  1.6747
  P  P34  1  0.088290  0.849080  0.264660  1.0  1.6745
  H  H35  1  0.989600  0.316600  0.990900  1.0  0.1119
  H  H36  1  0.686100  0.497500  0.512800  1.0  0.1133
  H  H37  1  0.010400  0.683400  0.009100  1.0  0.1115
  H  H38  1  0.313900  0.502500  0.487200  1.0  0.1162
  C  C39  1  0.838200  0.422300  0.936600  1.0  0.6856
  C  C40  1  0.922300  0.464300  0.971100  1.0  -0.0959
  C  C41  1  0.924000  0.575200  0.976900  1.0  -0.1304
  C  C42  1  0.994700  0.390200  0.994400  1.0  -0.0271
  C  C43  1  0.839400  0.659900  0.952900  1.0  0.752
  C  C44  1  0.440900  0.403300  0.511700  1.0  -0.1326
  C  C45  1  0.612100  0.498300  0.507700  1.0  -0.0457
  C  C46  1  0.551800  0.400900  0.519300  1.0  -0.0958
  C  C47  1  0.611400  0.298200  0.540100  1.0  0.7056
  C  C48  1  0.370700  0.299500  0.521300  1.0  0.7434
  C  C49  1  0.161800  0.577700  0.063400  1.0  0.6908
  C  C50  1  0.077700  0.535700  0.028900  1.0  -0.0949
  C  C51  1  0.076000  0.424800  0.023100  1.0  -0.1293
  C  C52  1  0.005300  0.609800  0.005600  1.0  -0.0314
  C  C53  1  0.160600  0.340100  0.047100  1.0  0.7521
  C  C54  1  0.559100  0.596700  0.488300  1.0  -0.1316
  C  C55  1  0.387900  0.501700  0.492300  1.0  -0.0549
  C  C56  1  0.448200  0.599100  0.480700  1.0  -0.0862
  C  C57  1  0.388600  0.701800  0.459900  1.0  0.7061
  C  C58  1  0.629300  0.700500  0.478700  1.0  0.7444
  O  O59  1  0.914000  0.865300  0.750100  1.0  -0.939
  O  O60  1  0.795100  0.968500  0.666200  1.0  -0.9258
  O  O61  1  0.096500  0.893000  0.682400  1.0  -0.7405
  O  O62  1  0.978000  0.995200  0.600800  1.0  -0.7921
  O  O63  1  0.980500  0.084200  0.697200  1.0  -0.7343
  O  O64  1  0.164400  0.086700  0.628200  1.0  -0.7278
  O  O65  1  0.893800  0.192800  0.593200  1.0  -0.9623
  O  O66  1  0.055100  0.276500  0.612700  1.0  -0.9434
  O  O67  1  0.107700  0.969000  0.780300  1.0  -0.914
  O  O68  1  0.188400  0.170500  0.720400  1.0  -0.9365
  O  O69  1  0.620700  0.982100  0.739600  1.0  -0.7356
  O  O70  1  0.747800  0.890200  0.819000  1.0  -0.7536
  O  O71  1  0.808400  0.084400  0.760500  1.0  -0.7243
  O  O72  1  0.674200  0.173600  0.674700  1.0  -0.8383
  O  O73  1  0.677600  0.279100  0.771500  1.0  -0.9607
  O  O74  1  0.629400  0.080900  0.830300  1.0  -0.7442
  O  O75  1  0.900700  0.981700  0.865900  1.0  -0.9348
  O  O76  1  0.798100  0.150000  0.872400  1.0  -0.9338
  O  O77  1  0.975000  0.267800  0.875200  1.0  -0.6675
  O  O78  1  0.089000  0.072700  0.868900  1.0  -0.7548
  O  O79  1  0.981400  0.172000  0.782800  1.0  -0.7047
  O  O80  1  0.167800  0.262000  0.811900  1.0  -0.7486
  O  O81  1  0.873900  0.380600  0.794200  1.0  -0.8264
  O  O82  1  0.068700  0.373100  0.725800  1.0  -0.9266
  O  O83  1  0.951600  0.448600  0.642000  1.0  -0.7391
  O  O84  1  0.763400  0.462900  0.707700  1.0  -0.7387
  O  O85  1  0.875500  0.261800  0.704800  1.0  -0.7035
  O  O86  1  0.766800  0.355700  0.619700  1.0  -0.6612
  O  O87  1  0.701700  0.281000  0.520400  1.0  -0.648
  O  O88  1  0.562500  0.233300  0.578200  1.0  -0.6922
  O  O89  1  0.879700  0.745400  0.923000  1.0  -0.82
  O  O90  1  0.744300  0.641800  0.965100  1.0  -0.5183
  O  O91  1  0.818700  0.477400  0.890700  1.0  -0.688
  O  O92  1  0.797300  0.333800  0.951500  1.0  -0.6418
  O  O93  1  0.290500  0.299400  0.556300  1.0  -0.798
  O  O94  1  0.399600  0.223100  0.493900  1.0  -0.6217
  O  O95  1  0.086000  0.134700  0.249900  1.0  -0.9401
  O  O96  1  0.204900  0.031500  0.333800  1.0  -0.9253
  O  O97  1  0.903500  0.107000  0.317600  1.0  -0.7386
  O  O98  1  0.022000  0.004800  0.399200  1.0  -0.7912
  O  O99  1  0.019500  0.915800  0.302800  1.0  -0.7395
  O  O100  1  0.835600  0.913300  0.371800  1.0  -0.7229
  O  O101  1  0.106200  0.807200  0.406800  1.0  -0.9607
  O  O102  1  0.944900  0.723500  0.387300  1.0  -0.9433
  O  O103  1  0.892300  0.031000  0.219700  1.0  -0.8999
  O  O104  1  0.811600  0.829500  0.279600  1.0  -0.9365
  O  O105  1  0.379300  0.017900  0.260400  1.0  -0.7363
  O  O106  1  0.252200  0.109800  0.181000  1.0  -0.7525
  O  O107  1  0.191600  0.915600  0.239500  1.0  -0.7232
  O  O108  1  0.325800  0.826400  0.325300  1.0  -0.8374
  O  O109  1  0.322400  0.720900  0.228500  1.0  -0.9626
  O  O110  1  0.370600  0.919100  0.169700  1.0  -0.7451
  O  O111  1  0.099300  0.018300  0.134100  1.0  -0.938
  O  O112  1  0.201900  0.850000  0.127600  1.0  -0.9364
  O  O113  1  0.025000  0.732200  0.124800  1.0  -0.6754
  O  O114  1  0.911000  0.927300  0.131100  1.0  -0.7551
  O  O115  1  0.018600  0.828000  0.217200  1.0  -0.705
  O  O116  1  0.832200  0.738000  0.188100  1.0  -0.7487
  O  O117  1  0.126100  0.619400  0.205800  1.0  -0.8179
  O  O118  1  0.931300  0.626900  0.274200  1.0  -0.9251
  O  O119  1  0.048400  0.551400  0.358000  1.0  -0.7479
  O  O120  1  0.236600  0.537100  0.292300  1.0  -0.7448
  O  O121  1  0.124500  0.738200  0.295200  1.0  -0.7024
  O  O122  1  0.233200  0.644300  0.380300  1.0  -0.659
  O  O123  1  0.298300  0.719000  0.479600  1.0  -0.6497
  O  O124  1  0.437500  0.766700  0.421800  1.0  -0.6834
  O  O125  1  0.120300  0.254600  0.077000  1.0  -0.811
  O  O126  1  0.255700  0.358200  0.034900  1.0  -0.5191
  O  O127  1  0.181300  0.522600  0.109300  1.0  -0.671
  O  O128  1  0.202700  0.666200  0.048500  1.0  -0.644
  O  O129  1  0.709500  0.700600  0.443700  1.0  -0.7997
  O  O130  1  0.600400  0.776900  0.506100  1.0  -0.6263
