# generated using pymatgen
data_CdH11C11(NO2)2
_symmetry_space_group_name_H-M   'P 1'
_cell_length_a   8.79990000
_cell_length_b   10.84750000
_cell_length_c   16.81320000
_cell_angle_alpha   76.60000000
_cell_angle_beta   82.10500000
_cell_angle_gamma   90.13500000
_symmetry_Int_Tables_number   1
_chemical_formula_structural   CdH11C11(NO2)2
_chemical_formula_sum   'Cd4 H44 C44 N8 O16'
_cell_volume   1545.47115321
_cell_formula_units_Z   4
loop_
 _symmetry_equiv_pos_site_id
 _symmetry_equiv_pos_as_xyz
  1  'x, y, z'
loop_
 _atom_site_type_symbol
 _atom_site_label
 _atom_site_symmetry_multiplicity
 _atom_site_fract_x
 _atom_site_fract_y
 _atom_site_fract_z
 _atom_site_occupancy
 _atom_site_charge
  Cd  Cd1  1  0.277960  0.739830  0.758060  1.0  0.9144
  Cd  Cd2  1  0.967440  0.286090  0.754790  1.0  0.9682
  Cd  Cd3  1  0.722040  0.260170  0.241940  1.0  0.9189
  Cd  Cd4  1  0.032560  0.713910  0.245210  1.0  0.9679
  H  H5  1  0.554000  0.669000  0.703300  1.0  0.2241
  H  H6  1  0.399000  0.865000  0.850600  1.0  0.2905
  H  H7  1  0.257200  0.397400  0.805700  1.0  0.0854
  H  H8  1  0.613000  0.474400  0.626600  1.0  0.1086
  H  H9  1  0.482100  0.372500  0.549900  1.0  0.1043
  H  H10  1  0.241200  0.290300  0.600900  1.0  0.081
  H  H11  1  0.480500  0.481600  0.837500  1.0  0.0925
  H  H12  1  0.635700  0.487200  0.778100  1.0  0.0869
  H  H13  1  0.714800  0.693200  0.796600  1.0  0.0822
  H  H14  1  0.568600  0.679900  0.863400  1.0  0.0787
  H  H15  1  0.651000  0.891400  0.816300  1.0  0.0759
  H  H16  1  0.631900  0.885900  0.725700  1.0  0.088
  H  H17  1  0.294500  0.035800  0.782100  1.0  0.0993
  H  H18  1  0.435600  0.049500  0.712400  1.0  0.0891
  H  H19  1  0.663500  0.154400  0.725200  1.0  0.0843
  H  H20  1  0.340500  0.076300  0.921900  1.0  0.1097
  H  H21  1  0.482900  0.194500  0.985100  1.0  0.1071
  H  H22  1  0.718500  0.281900  0.918300  1.0  0.0668
  H  H23  1  0.030600  0.910200  0.955400  1.0  0.0751
  H  H24  1  0.027200  0.585900  0.044100  1.0  0.0782
  H  H25  1  0.232800  0.834700  0.472200  1.0  0.0862
  H  H26  1  0.110800  0.594500  0.530400  1.0  0.076
  H  H27  1  0.446000  0.331000  0.296700  1.0  0.219
  H  H28  1  0.601000  0.135000  0.149400  1.0  0.2925
  H  H29  1  0.742800  0.602600  0.194300  1.0  0.0858
  H  H30  1  0.387000  0.525600  0.373400  1.0  0.1082
  H  H31  1  0.517900  0.627500  0.450100  1.0  0.1042
  H  H32  1  0.758800  0.709700  0.399100  1.0  0.0803
  H  H33  1  0.519500  0.518400  0.162500  1.0  0.0927
  H  H34  1  0.364300  0.512800  0.221900  1.0  0.0858
  H  H35  1  0.285200  0.306800  0.203400  1.0  0.0804
  H  H36  1  0.431400  0.320100  0.136600  1.0  0.0795
  H  H37  1  0.349000  0.108600  0.183700  1.0  0.0754
  H  H38  1  0.368100  0.114100  0.274300  1.0  0.0882
  H  H39  1  0.705500  0.964200  0.217900  1.0  0.0959
  H  H40  1  0.564400  0.950500  0.287600  1.0  0.0906
  H  H41  1  0.336500  0.845600  0.274800  1.0  0.0837
  H  H42  1  0.659500  0.923700  0.078100  1.0  0.1096
  H  H43  1  0.517100  0.805500  0.014900  1.0  0.1062
  H  H44  1  0.281500  0.718100  0.081700  1.0  0.0662
  H  H45  1  0.969400  0.089800  0.044600  1.0  0.0755
  H  H46  1  0.972800  0.414100  0.955900  1.0  0.079
  H  H47  1  0.767200  0.165300  0.527800  1.0  0.0851
  H  H48  1  0.889200  0.405500  0.469600  1.0  0.0757
  C  C49  1  0.302900  0.393600  0.753100  1.0  0.1368
  C  C50  1  0.449100  0.447000  0.725100  1.0  0.0908
  C  C51  1  0.515200  0.439100  0.647800  1.0  -0.0596
  C  C52  1  0.437200  0.379400  0.602000  1.0  -0.1179
  C  C53  1  0.293600  0.330100  0.632900  1.0  0.1706
  C  C54  1  0.529200  0.510800  0.780800  1.0  -0.0767
  C  C55  1  0.607100  0.712700  0.805400  1.0  -0.0003
  C  C56  1  0.591400  0.852800  0.783400  1.0  -0.0133
  C  C57  1  0.403600  0.022200  0.771500  1.0  -0.0736
  C  C58  1  0.626600  0.160900  0.778600  1.0  0.1315
  C  C59  1  0.488500  0.102600  0.814400  1.0  0.0754
  C  C60  1  0.433800  0.114800  0.894700  1.0  -0.0571
  C  C61  1  0.519000  0.183800  0.932600  1.0  -0.1152
  C  C62  1  0.659700  0.237400  0.891600  1.0  0.1618
  C  C63  1  0.015800  0.096600  0.886800  1.0  0.6841
  C  C64  1  0.013000  0.991800  0.962300  1.0  -0.2242
  C  C65  1  0.147200  0.620000  0.924000  1.0  0.6825
  C  C66  1  0.039100  0.551700  0.997900  1.0  -0.2178
  C  C67  1  0.243300  0.751900  0.596800  1.0  0.716
  C  C68  1  0.205900  0.760000  0.512000  1.0  -0.2025
  C  C69  1  0.138000  0.669200  0.490600  1.0  -0.1756
  C  C70  1  0.100800  0.677800  0.405500  1.0  0.6928
  C  C71  1  0.697100  0.606400  0.246900  1.0  0.1368
  C  C72  1  0.550900  0.553000  0.274900  1.0  0.0914
  C  C73  1  0.484800  0.560900  0.352200  1.0  -0.0595
  C  C74  1  0.562800  0.620600  0.398000  1.0  -0.1195
  C  C75  1  0.706400  0.669900  0.367100  1.0  0.1713
  C  C76  1  0.470800  0.489200  0.219200  1.0  -0.0762
  C  C77  1  0.392900  0.287300  0.194600  1.0  0.0003
  C  C78  1  0.408600  0.147200  0.216600  1.0  -0.0152
  C  C79  1  0.596400  0.977800  0.228500  1.0  -0.0733
  C  C80  1  0.373400  0.839100  0.221400  1.0  0.1311
  C  C81  1  0.511500  0.897400  0.185600  1.0  0.0756
  C  C82  1  0.566200  0.885200  0.105300  1.0  -0.058
  C  C83  1  0.481000  0.816200  0.067400  1.0  -0.1153
  C  C84  1  0.340300  0.762600  0.108400  1.0  0.161
  C  C85  1  0.984200  0.903400  0.113200  1.0  0.6854
  C  C86  1  0.987000  0.008200  0.037700  1.0  -0.2249
  C  C87  1  0.852800  0.380000  0.076000  1.0  0.6841
  C  C88  1  0.960900  0.448300  0.002100  1.0  -0.216
  C  C89  1  0.756700  0.248100  0.403200  1.0  0.7171
  C  C90  1  0.794100  0.240000  0.488000  1.0  -0.2028
  C  C91  1  0.862000  0.330800  0.509400  1.0  -0.1771
  C  C92  1  0.899200  0.322200  0.594500  1.0  0.6967
  N  N93  1  0.224200  0.336700  0.708100  1.0  -0.373
  N  N94  1  0.521700  0.650300  0.755100  1.0  -0.3828
  N  N95  1  0.429700  0.886600  0.798100  1.0  -0.3669
  N  N96  1  0.713500  0.227500  0.815500  1.0  -0.3649
  N  N97  1  0.775800  0.663300  0.291900  1.0  -0.371
  N  N98  1  0.478300  0.349700  0.244900  1.0  -0.3806
  N  N99  1  0.570300  0.113400  0.201900  1.0  -0.3686
  N  N100  1  0.286500  0.772500  0.184500  1.0  -0.3663
  O  O101  1  0.021900  0.209900  0.891900  1.0  -0.6092
  O  O102  1  0.006800  0.066800  0.820200  1.0  -0.6005
  O  O103  1  0.144500  0.588100  0.857000  1.0  -0.6089
  O  O104  1  0.232100  0.706600  0.931200  1.0  -0.6204
  O  O105  1  0.178200  0.669800  0.655000  1.0  -0.5903
  O  O106  1  0.339200  0.829600  0.607000  1.0  -0.6238
  O  O107  1  0.092700  0.579200  0.380500  1.0  -0.6107
  O  O108  1  0.077100  0.786000  0.361700  1.0  -0.6108
  O  O109  1  0.978100  0.790100  0.108100  1.0  -0.6075
  O  O110  1  0.993200  0.933200  0.179800  1.0  -0.602
  O  O111  1  0.855500  0.411900  0.143000  1.0  -0.6099
  O  O112  1  0.767900  0.293400  0.068800  1.0  -0.6216
  O  O113  1  0.821800  0.330200  0.345000  1.0  -0.5905
  O  O114  1  0.660800  0.170400  0.393000  1.0  -0.6215
  O  O115  1  0.907300  0.420800  0.619500  1.0  -0.6089
  O  O116  1  0.922900  0.214000  0.638300  1.0  -0.6101
