# generated using pymatgen
data_Co3H18C30N3O13
_symmetry_space_group_name_H-M   'P 1'
_cell_length_a   18.97820000
_cell_length_b   18.97820000
_cell_length_c   18.97820000
_cell_angle_alpha   109.47100000
_cell_angle_beta   109.47100000
_cell_angle_gamma   109.47100000
_symmetry_Int_Tables_number   1
_chemical_formula_structural   Co3H18C30N3O13
_chemical_formula_sum   'Co12 H72 C120 N12 O52'
_cell_volume   5261.94996504
_cell_formula_units_Z   4
loop_
 _symmetry_equiv_pos_site_id
 _symmetry_equiv_pos_as_xyz
  1  'x, y, z'
loop_
 _atom_site_type_symbol
 _atom_site_label
 _atom_site_symmetry_multiplicity
 _atom_site_fract_x
 _atom_site_fract_y
 _atom_site_fract_z
 _atom_site_occupancy
 _atom_site_charge
  Co  Co1  1  0.886150  0.349650  0.000000  1.0  1.086
  Co  Co2  1  0.349650  0.886150  0.000000  1.0  1.0856
  Co  Co3  1  0.650350  0.650350  0.536500  1.0  1.0876
  Co  Co4  1  0.113850  0.113850  0.463500  1.0  1.0857
  Co  Co5  1  0.536500  0.650350  0.650350  1.0  1.0864
  Co  Co6  1  0.463500  0.113850  0.113850  1.0  1.0856
  Co  Co7  1  0.000000  0.886150  0.349650  1.0  1.0857
  Co  Co8  1  0.000000  0.349650  0.886150  1.0  1.0875
  Co  Co9  1  0.886150  0.000000  0.349650  1.0  1.086
  Co  Co10  1  0.349650  0.000000  0.886150  1.0  1.0865
  Co  Co11  1  0.113850  0.463500  0.113850  1.0  1.0877
  Co  Co12  1  0.650350  0.536500  0.650350  1.0  1.0877
  H  H13  1  0.876900  0.691200  0.238900  1.0  0.0896
  H  H14  1  0.127600  0.353800  0.278200  1.0  0.104
  H  H15  1  0.873200  0.564200  0.161600  1.0  0.1201
  H  H16  1  0.452300  0.638000  0.761100  1.0  0.0891
  H  H17  1  0.075600  0.849400  0.721800  1.0  0.1047
  H  H18  1  0.402600  0.711600  0.838400  1.0  0.1208
  H  H19  1  0.547700  0.308800  0.185700  1.0  0.0894
  H  H20  1  0.924400  0.646200  0.773800  1.0  0.1062
  H  H21  1  0.597400  0.435800  0.309000  1.0  0.1212
  H  H22  1  0.123100  0.362000  0.814300  1.0  0.0881
  H  H23  1  0.872400  0.150600  0.226200  1.0  0.1041
  H  H24  1  0.126800  0.288400  0.691000  1.0  0.12
  H  H25  1  0.185700  0.547700  0.308800  1.0  0.0908
  H  H26  1  0.773800  0.924400  0.646200  1.0  0.1068
  H  H27  1  0.309000  0.597400  0.435800  1.0  0.1211
  H  H28  1  0.814300  0.123100  0.362000  1.0  0.0882
  H  H29  1  0.226200  0.872400  0.150600  1.0  0.1046
  H  H30  1  0.691000  0.126800  0.288400  1.0  0.1215
  H  H31  1  0.238900  0.876900  0.691200  1.0  0.0909
  H  H32  1  0.278200  0.127600  0.353800  1.0  0.1044
  H  H33  1  0.161600  0.873200  0.564200  1.0  0.1202
  H  H34  1  0.761100  0.452300  0.638000  1.0  0.0896
  H  H35  1  0.721800  0.075600  0.849400  1.0  0.1059
  H  H36  1  0.838400  0.402600  0.711600  1.0  0.1205
  H  H37  1  0.638000  0.761100  0.452300  1.0  0.0903
  H  H38  1  0.849400  0.721800  0.075600  1.0  0.1041
  H  H39  1  0.711600  0.838400  0.402600  1.0  0.1202
  H  H40  1  0.691200  0.238900  0.876900  1.0  0.0896
  H  H41  1  0.353800  0.278200  0.127600  1.0  0.1051
  H  H42  1  0.564200  0.161600  0.873200  1.0  0.1203
  H  H43  1  0.362000  0.814300  0.123100  1.0  0.0887
  H  H44  1  0.150600  0.226200  0.872400  1.0  0.1052
  H  H45  1  0.288400  0.691000  0.126800  1.0  0.1208
  H  H46  1  0.308800  0.185700  0.547700  1.0  0.0885
  H  H47  1  0.646200  0.773800  0.924400  1.0  0.1061
  H  H48  1  0.435800  0.309000  0.597400  1.0  0.1195
  H  H49  1  0.638000  0.452300  0.761100  1.0  0.09
  H  H50  1  0.849400  0.075600  0.721800  1.0  0.1057
  H  H51  1  0.711600  0.402600  0.838400  1.0  0.1215
  H  H52  1  0.691200  0.876900  0.238900  1.0  0.0901
  H  H53  1  0.353800  0.127600  0.278200  1.0  0.1046
  H  H54  1  0.564200  0.873200  0.161600  1.0  0.1203
  H  H55  1  0.362000  0.123100  0.814300  1.0  0.0887
  H  H56  1  0.150600  0.872400  0.226200  1.0  0.1041
  H  H57  1  0.288400  0.126800  0.691000  1.0  0.1213
  H  H58  1  0.308800  0.547700  0.185700  1.0  0.0893
  H  H59  1  0.646200  0.924400  0.773800  1.0  0.1069
  H  H60  1  0.435800  0.597400  0.309000  1.0  0.1204
  H  H61  1  0.876900  0.238900  0.691200  1.0  0.0903
  H  H62  1  0.127600  0.278200  0.353800  1.0  0.1043
  H  H63  1  0.873200  0.161600  0.564200  1.0  0.1202
  H  H64  1  0.452300  0.761100  0.638000  1.0  0.0896
  H  H65  1  0.075600  0.721800  0.849400  1.0  0.1054
  H  H66  1  0.402600  0.838400  0.711600  1.0  0.1202
  H  H67  1  0.547700  0.185700  0.308800  1.0  0.0898
  H  H68  1  0.924400  0.773800  0.646200  1.0  0.1062
  H  H69  1  0.597400  0.309000  0.435800  1.0  0.121
  H  H70  1  0.123100  0.814300  0.362000  1.0  0.0875
  H  H71  1  0.872400  0.226200  0.150600  1.0  0.1052
  H  H72  1  0.126800  0.691000  0.288400  1.0  0.1196
  H  H73  1  0.185700  0.308800  0.547700  1.0  0.0886
  H  H74  1  0.773800  0.646200  0.924400  1.0  0.1052
  H  H75  1  0.309000  0.435800  0.597400  1.0  0.1208
  H  H76  1  0.814300  0.362000  0.123100  1.0  0.0884
  H  H77  1  0.226200  0.150600  0.872400  1.0  0.1049
  H  H78  1  0.691000  0.288400  0.126800  1.0  0.1206
  H  H79  1  0.238900  0.691200  0.876900  1.0  0.0908
  H  H80  1  0.278200  0.353800  0.127600  1.0  0.1049
  H  H81  1  0.161600  0.564200  0.873200  1.0  0.1206
  H  H82  1  0.761100  0.638000  0.452300  1.0  0.0877
  H  H83  1  0.721800  0.849400  0.075600  1.0  0.1043
  H  H84  1  0.838400  0.711600  0.402600  1.0  0.1192
  C  C85  1  0.928600  0.692600  0.247200  1.0  0.1554
  C  C86  1  0.075500  0.310800  0.264900  1.0  -0.047
  C  C87  1  0.925700  0.615300  0.200200  1.0  -0.1048
  C  C88  1  0.445400  0.681400  0.752800  1.0  0.1544
  C  C89  1  0.045900  0.810600  0.735100  1.0  -0.0472
  C  C90  1  0.415100  0.725500  0.799800  1.0  -0.1095
  C  C91  1  0.554600  0.307400  0.236000  1.0  0.1576
  C  C92  1  0.954100  0.689200  0.764700  1.0  -0.0477
  C  C93  1  0.584900  0.384700  0.310400  1.0  -0.108
  C  C94  1  0.071400  0.318600  0.764000  1.0  0.1631
  C  C95  1  0.924500  0.189400  0.235300  1.0  -0.0477
  C  C96  1  0.074300  0.274500  0.689600  1.0  -0.1066
  C  C97  1  0.236000  0.554600  0.307400  1.0  0.1561
  C  C98  1  0.764700  0.954100  0.689200  1.0  -0.0481
  C  C99  1  0.310400  0.584900  0.384700  1.0  -0.108
  C  C100  1  0.764000  0.071400  0.318600  1.0  0.1623
  C  C101  1  0.235300  0.924500  0.189400  1.0  -0.0468
  C  C102  1  0.689600  0.074300  0.274500  1.0  -0.1101
  C  C103  1  0.247200  0.928600  0.692600  1.0  0.1589
  C  C104  1  0.264900  0.075500  0.310800  1.0  -0.0477
  C  C105  1  0.200200  0.925700  0.615300  1.0  -0.109
  C  C106  1  0.752800  0.445400  0.681400  1.0  0.1578
  C  C107  1  0.735100  0.045900  0.810600  1.0  -0.0471
  C  C108  1  0.799800  0.415100  0.725500  1.0  -0.1075
  C  C109  1  0.681400  0.752800  0.445400  1.0  0.1563
  C  C110  1  0.810600  0.735100  0.045900  1.0  -0.0454
  C  C111  1  0.725500  0.799800  0.415100  1.0  -0.1066
  C  C112  1  0.692600  0.247200  0.928600  1.0  0.1604
  C  C113  1  0.310800  0.264900  0.075500  1.0  -0.0489
  C  C114  1  0.615300  0.200200  0.925700  1.0  -0.1096
  C  C115  1  0.318600  0.764000  0.071400  1.0  0.1637
  C  C116  1  0.189400  0.235300  0.924500  1.0  -0.0481
  C  C117  1  0.274500  0.689600  0.074300  1.0  -0.1075
  C  C118  1  0.307400  0.236000  0.554600  1.0  0.157
  C  C119  1  0.689200  0.764700  0.954100  1.0  -0.0455
  C  C120  1  0.384700  0.310400  0.584900  1.0  -0.1063
  C  C121  1  0.681400  0.445400  0.752800  1.0  0.1563
  C  C122  1  0.810600  0.045900  0.735100  1.0  -0.047
  C  C123  1  0.725500  0.415100  0.799800  1.0  -0.1073
  C  C124  1  0.692600  0.928600  0.247200  1.0  0.1575
  C  C125  1  0.310800  0.075500  0.264900  1.0  -0.0473
  C  C126  1  0.615300  0.925700  0.200200  1.0  -0.1077
  C  C127  1  0.318600  0.071400  0.764000  1.0  0.1641
  C  C128  1  0.189400  0.924500  0.235300  1.0  -0.0473
  C  C129  1  0.274500  0.074300  0.689600  1.0  -0.1098
  C  C130  1  0.307400  0.554600  0.236000  1.0  0.1578
  C  C131  1  0.689200  0.954100  0.764700  1.0  -0.0476
  C  C132  1  0.384700  0.584900  0.310400  1.0  -0.1083
  C  C133  1  0.928600  0.247200  0.692600  1.0  0.1599
  C  C134  1  0.075500  0.264900  0.310800  1.0  -0.048
  C  C135  1  0.925700  0.200200  0.615300  1.0  -0.1073
  C  C136  1  0.445400  0.752800  0.681400  1.0  0.1587
  C  C137  1  0.045900  0.735100  0.810600  1.0  -0.046
  C  C138  1  0.415100  0.799800  0.725500  1.0  -0.107
  C  C139  1  0.554600  0.236000  0.307400  1.0  0.1562
  C  C140  1  0.954100  0.764700  0.689200  1.0  -0.046
  C  C141  1  0.584900  0.310400  0.384700  1.0  -0.1081
  C  C142  1  0.071400  0.764000  0.318600  1.0  0.1644
  C  C143  1  0.924500  0.235300  0.189400  1.0  -0.0478
  C  C144  1  0.074300  0.689600  0.274500  1.0  -0.1058
  C  C145  1  0.236000  0.307400  0.554600  1.0  0.1517
  C  C146  1  0.764700  0.689200  0.954100  1.0  -0.0445
  C  C147  1  0.310400  0.384700  0.584900  1.0  -0.1058
  C  C148  1  0.764000  0.318600  0.071400  1.0  0.1613
  C  C149  1  0.235300  0.189400  0.924500  1.0  -0.0496
  C  C150  1  0.689600  0.274500  0.074300  1.0  -0.1059
  C  C151  1  0.247200  0.692600  0.928600  1.0  0.16
  C  C152  1  0.264900  0.310800  0.075500  1.0  -0.0499
  C  C153  1  0.200200  0.615300  0.925700  1.0  -0.1072
  C  C154  1  0.752800  0.681400  0.445400  1.0  0.1554
  C  C155  1  0.735100  0.810600  0.045900  1.0  -0.0462
  C  C156  1  0.799800  0.725500  0.415100  1.0  -0.1075
  C  C157  1  0.000000  0.336100  0.149900  1.0  0.7451
  C  C158  1  0.000000  0.292300  0.201500  1.0  -0.0665
  C  C159  1  0.000000  0.538000  0.157200  1.0  0.6961
  C  C160  1  0.000000  0.616900  0.212300  1.0  -0.0849
  C  C161  1  0.186200  0.850100  0.850100  1.0  0.7409
  C  C162  1  0.090800  0.798500  0.798500  1.0  -0.0617
  C  C163  1  0.380800  0.842800  0.842800  1.0  0.6921
  C  C164  1  0.404600  0.787700  0.787700  1.0  -0.0881
  C  C165  1  0.813800  0.663900  0.663900  1.0  0.7434
  C  C166  1  0.909200  0.707700  0.707700  1.0  -0.0673
  C  C167  1  0.619200  0.462000  0.462000  1.0  0.6934
  C  C168  1  0.595400  0.383100  0.383100  1.0  -0.0887
  C  C169  1  0.000000  0.149900  0.336100  1.0  0.7433
  C  C170  1  0.000000  0.201500  0.292300  1.0  -0.0672
  C  C171  1  0.000000  0.157200  0.538000  1.0  0.6959
  C  C172  1  0.000000  0.212300  0.616900  1.0  -0.0859
  C  C173  1  0.663900  0.813800  0.663900  1.0  0.742
  C  C174  1  0.707700  0.909200  0.707700  1.0  -0.0659
  C  C175  1  0.462000  0.619200  0.462000  1.0  0.6924
  C  C176  1  0.383100  0.595400  0.383100  1.0  -0.0853
  C  C177  1  0.336100  0.000000  0.149900  1.0  0.7451
  C  C178  1  0.292300  0.000000  0.201500  1.0  -0.0685
  C  C179  1  0.538000  0.000000  0.157200  1.0  0.6969
  C  C180  1  0.616900  0.000000  0.212300  1.0  -0.0898
  C  C181  1  0.149900  0.000000  0.336100  1.0  0.7442
  C  C182  1  0.201500  0.000000  0.292300  1.0  -0.0673
  C  C183  1  0.157200  0.000000  0.538000  1.0  0.6959
  C  C184  1  0.212300  0.000000  0.616900  1.0  -0.0866
  C  C185  1  0.850100  0.186200  0.850100  1.0  0.7411
  C  C186  1  0.798500  0.090800  0.798500  1.0  -0.06
  C  C187  1  0.842800  0.380800  0.842800  1.0  0.691
  C  C188  1  0.787700  0.404600  0.787700  1.0  -0.0846
  C  C189  1  0.850100  0.850100  0.186200  1.0  0.7405
  C  C190  1  0.798500  0.798500  0.090800  1.0  -0.0617
  C  C191  1  0.842800  0.842800  0.380800  1.0  0.6911
  C  C192  1  0.787700  0.787700  0.404600  1.0  -0.086
  C  C193  1  0.336100  0.149900  0.000000  1.0  0.7436
  C  C194  1  0.292300  0.201500  0.000000  1.0  -0.0676
  C  C195  1  0.538000  0.157200  0.000000  1.0  0.6965
  C  C196  1  0.616900  0.212300  0.000000  1.0  -0.0877
  C  C197  1  0.149900  0.336100  0.000000  1.0  0.744
  C  C198  1  0.201500  0.292300  0.000000  1.0  -0.0672
  C  C199  1  0.157200  0.538000  0.000000  1.0  0.6966
  C  C200  1  0.212300  0.616900  0.000000  1.0  -0.0865
  C  C201  1  0.663900  0.663900  0.813800  1.0  0.7446
  C  C202  1  0.707700  0.707700  0.909200  1.0  -0.0666
  C  C203  1  0.462000  0.462000  0.619200  1.0  0.6933
  C  C204  1  0.383100  0.383100  0.595400  1.0  -0.0872
  N  N205  1  0.765500  0.301500  0.000000  1.0  -0.2966
  N  N206  1  0.301500  0.765500  0.000000  1.0  -0.2987
  N  N207  1  0.698500  0.698500  0.464000  1.0  -0.2848
  N  N208  1  0.234500  0.234500  0.536000  1.0  -0.2804
  N  N209  1  0.464000  0.698500  0.698500  1.0  -0.2811
  N  N210  1  0.536000  0.234500  0.234500  1.0  -0.284
  N  N211  1  0.000000  0.765500  0.301500  1.0  -0.2966
  N  N212  1  0.000000  0.301500  0.765500  1.0  -0.3015
  N  N213  1  0.765500  0.000000  0.301500  1.0  -0.2936
  N  N214  1  0.301500  0.000000  0.765500  1.0  -0.2975
  N  N215  1  0.234500  0.536000  0.234500  1.0  -0.2822
  N  N216  1  0.698500  0.464000  0.698500  1.0  -0.2826
  O  O217  1  0.926000  0.472500  0.098100  1.0  -0.6062
  O  O218  1  0.929100  0.316000  0.093300  1.0  -0.5915
  O  O219  1  0.374400  0.827900  0.901900  1.0  -0.6095
  O  O220  1  0.222700  0.835800  0.906700  1.0  -0.5917
  O  O221  1  0.625600  0.527500  0.453500  1.0  -0.6048
  O  O222  1  0.777300  0.684000  0.613100  1.0  -0.5999
  O  O223  1  0.074000  0.172100  0.546500  1.0  -0.6059
  O  O224  1  0.070900  0.164200  0.386900  1.0  -0.5959
  O  O225  1  0.453500  0.625600  0.527500  1.0  -0.6037
  O  O226  1  0.613100  0.777300  0.684000  1.0  -0.601
  O  O227  1  0.546500  0.074000  0.172100  1.0  -0.6074
  O  O228  1  0.386900  0.070900  0.164200  1.0  -0.5986
  O  O229  1  0.098100  0.926000  0.472500  1.0  -0.6048
  O  O230  1  0.093300  0.929100  0.316000  1.0  -0.594
  O  O231  1  0.901900  0.374400  0.827900  1.0  -0.6098
  O  O232  1  0.906700  0.222700  0.835800  1.0  -0.592
  O  O233  1  0.827900  0.901900  0.374400  1.0  -0.6106
  O  O234  1  0.835800  0.906700  0.222700  1.0  -0.593
  O  O235  1  0.472500  0.098100  0.926000  1.0  -0.6067
  O  O236  1  0.316000  0.093300  0.929100  1.0  -0.592
  O  O237  1  0.172100  0.546500  0.074000  1.0  -0.604
  O  O238  1  0.164200  0.386900  0.070900  1.0  -0.5953
  O  O239  1  0.527500  0.453500  0.625600  1.0  -0.6065
  O  O240  1  0.684000  0.613100  0.777300  1.0  -0.6023
  O  O241  1  0.827900  0.374400  0.901900  1.0  -0.6092
  O  O242  1  0.835800  0.222700  0.906700  1.0  -0.5924
  O  O243  1  0.472500  0.926000  0.098100  1.0  -0.6068
  O  O244  1  0.316000  0.929100  0.093300  1.0  -0.595
  O  O245  1  0.172100  0.074000  0.546500  1.0  -0.6057
  O  O246  1  0.164200  0.070900  0.386900  1.0  -0.5967
  O  O247  1  0.527500  0.625600  0.453500  1.0  -0.6042
  O  O248  1  0.684000  0.777300  0.613100  1.0  -0.6001
  O  O249  1  0.926000  0.098100  0.472500  1.0  -0.6061
  O  O250  1  0.929100  0.093300  0.316000  1.0  -0.593
  O  O251  1  0.374400  0.901900  0.827900  1.0  -0.6117
  O  O252  1  0.222700  0.906700  0.835800  1.0  -0.593
  O  O253  1  0.625600  0.453500  0.527500  1.0  -0.6041
  O  O254  1  0.777300  0.613100  0.684000  1.0  -0.6024
  O  O255  1  0.074000  0.546500  0.172100  1.0  -0.6068
  O  O256  1  0.070900  0.386900  0.164200  1.0  -0.5963
  O  O257  1  0.453500  0.527500  0.625600  1.0  -0.6058
  O  O258  1  0.613100  0.684000  0.777300  1.0  -0.6012
  O  O259  1  0.546500  0.172100  0.074000  1.0  -0.6045
  O  O260  1  0.386900  0.164200  0.070900  1.0  -0.5943
  O  O261  1  0.098100  0.472500  0.926000  1.0  -0.6048
  O  O262  1  0.093300  0.316000  0.929100  1.0  -0.5907
  O  O263  1  0.901900  0.827900  0.374400  1.0  -0.6101
  O  O264  1  0.906700  0.835800  0.222700  1.0  -0.5927
  O  O265  1  0.000000  0.403200  0.000000  1.0  -0.9435
  O  O266  1  0.403200  0.000000  0.000000  1.0  -0.9415
  O  O267  1  0.596800  0.596800  0.596800  1.0  -0.9448
  O  O268  1  0.000000  0.000000  0.403200  1.0  -0.9432
