# generated using pymatgen
data_CoPO4
_symmetry_space_group_name_H-M   'P 1'
_cell_length_a   10.27680000
_cell_length_b   10.30160000
_cell_length_c   18.83640000
_cell_angle_alpha   90.00000000
_cell_angle_beta   90.00000000
_cell_angle_gamma   90.00000000
_symmetry_Int_Tables_number   1
_chemical_formula_structural   CoPO4
_chemical_formula_sum   'Co16 P16 O64'
_cell_volume   1994.16225452
_cell_formula_units_Z   16
loop_
 _symmetry_equiv_pos_site_id
 _symmetry_equiv_pos_as_xyz
  1  'x, y, z'
loop_
 _atom_site_type_symbol
 _atom_site_label
 _atom_site_symmetry_multiplicity
 _atom_site_fract_x
 _atom_site_fract_y
 _atom_site_fract_z
 _atom_site_occupancy
 _atom_site_charge
  Co  Co1  1  0.572180  0.867880  0.060580  1.0  1.0869
  Co  Co2  1  0.595380  0.136960  0.200760  1.0  1.1385
  Co  Co3  1  0.909360  0.897690  0.194700  1.0  1.1229
  Co  Co4  1  0.848400  0.165330  0.032300  1.0  1.0836
  Co  Co5  1  0.927820  0.132120  0.560580  1.0  1.0859
  Co  Co6  1  0.904620  0.863040  0.700760  1.0  1.1396
  Co  Co7  1  0.590640  0.102310  0.694700  1.0  1.1228
  Co  Co8  1  0.651600  0.834670  0.532300  1.0  1.0836
  Co  Co9  1  0.427820  0.367880  0.439420  1.0  1.0855
  Co  Co10  1  0.404620  0.636960  0.299240  1.0  1.1398
  Co  Co11  1  0.090640  0.397690  0.305300  1.0  1.1227
  Co  Co12  1  0.151600  0.665330  0.467700  1.0  1.0832
  Co  Co13  1  0.072180  0.632120  0.939420  1.0  1.0859
  Co  Co14  1  0.095380  0.363040  0.799240  1.0  1.1403
  Co  Co15  1  0.409360  0.602310  0.805300  1.0  1.1221
  Co  Co16  1  0.348400  0.334670  0.967700  1.0  1.084
  P  P17  1  0.594290  0.847870  0.231520  1.0  1.7585
  P  P18  1  0.896260  0.208740  0.200150  1.0  1.7849
  P  P19  1  0.889020  0.847710  0.032610  1.0  1.853
  P  P20  1  0.561480  0.135030  0.029100  1.0  1.8411
  P  P21  1  0.905710  0.152130  0.731520  1.0  1.7586
  P  P22  1  0.603740  0.791260  0.700150  1.0  1.7844
  P  P23  1  0.610980  0.152290  0.532610  1.0  1.8527
  P  P24  1  0.938520  0.864970  0.529100  1.0  1.8416
  P  P25  1  0.405710  0.347870  0.268480  1.0  1.7624
  P  P26  1  0.103740  0.708740  0.299850  1.0  1.7973
  P  P27  1  0.110980  0.347710  0.467390  1.0  1.8731
  P  P28  1  0.438520  0.635030  0.470900  1.0  1.8409
  P  P29  1  0.094290  0.652130  0.768480  1.0  1.7627
  P  P30  1  0.396260  0.291260  0.799850  1.0  1.7988
  P  P31  1  0.389020  0.652290  0.967390  1.0  1.8733
  P  P32  1  0.061480  0.364970  0.970900  1.0  1.8399
  O  O33  1  0.745200  0.815600  0.032000  1.0  -0.7782
  O  O34  1  0.546700  0.801000  0.159000  1.0  -0.7112
  O  O35  1  0.954200  0.772400  0.973500  1.0  -0.7045
  O  O36  1  0.502400  0.010600  0.998000  1.0  -0.6917
  O  O37  1  0.760400  0.203200  0.234100  1.0  -0.7218
  O  O38  1  0.554000  0.752000  0.289500  1.0  -0.687
  O  O39  1  0.620800  0.090800  0.100700  1.0  -0.8582
  O  O40  1  0.532100  0.980000  0.248600  1.0  -0.7044
  O  O41  1  0.742700  0.860700  0.235200  1.0  -0.8101
  O  O42  1  0.966300  0.078000  0.207900  1.0  -0.7073
  O  O43  1  0.974700  0.313600  0.237700  1.0  -0.7449
  O  O44  1  0.950900  0.809400  0.104700  1.0  -0.6801
  O  O45  1  0.914700  0.991600  0.019900  1.0  -0.7663
  O  O46  1  0.459900  0.241000  0.038100  1.0  -0.6799
  O  O47  1  0.888800  0.247900  0.121700  1.0  -0.7382
  O  O48  1  0.677100  0.182000  0.983900  1.0  -0.7065
  O  O49  1  0.754800  0.184400  0.532000  1.0  -0.7784
  O  O50  1  0.953300  0.199000  0.659000  1.0  -0.7103
  O  O51  1  0.545800  0.227600  0.473500  1.0  -0.7043
  O  O52  1  0.997600  0.989400  0.498000  1.0  -0.6913
  O  O53  1  0.739600  0.796800  0.734100  1.0  -0.7208
  O  O54  1  0.946000  0.248000  0.789500  1.0  -0.6874
  O  O55  1  0.879200  0.909200  0.600700  1.0  -0.8585
  O  O56  1  0.967900  0.020000  0.748600  1.0  -0.7045
  O  O57  1  0.757300  0.139300  0.735200  1.0  -0.8095
  O  O58  1  0.533700  0.922000  0.707900  1.0  -0.706
  O  O59  1  0.525300  0.686400  0.737700  1.0  -0.7432
  O  O60  1  0.549100  0.190600  0.604700  1.0  -0.6794
  O  O61  1  0.585300  0.008400  0.519900  1.0  -0.7662
  O  O62  1  0.040100  0.759000  0.538100  1.0  -0.6795
  O  O63  1  0.611200  0.752100  0.621700  1.0  -0.7375
  O  O64  1  0.822900  0.818000  0.483900  1.0  -0.705
  O  O65  1  0.254800  0.315600  0.468000  1.0  -0.7772
  O  O66  1  0.453300  0.301000  0.341000  1.0  -0.7104
  O  O67  1  0.045800  0.272400  0.526500  1.0  -0.7074
  O  O68  1  0.497600  0.510600  0.502000  1.0  -0.6921
  O  O69  1  0.239600  0.703200  0.265900  1.0  -0.7213
  O  O70  1  0.446000  0.252000  0.210500  1.0  -0.6856
  O  O71  1  0.379200  0.590800  0.399300  1.0  -0.8592
  O  O72  1  0.467900  0.480000  0.251400  1.0  -0.7056
  O  O73  1  0.257300  0.360700  0.264800  1.0  -0.8105
  O  O74  1  0.033700  0.578000  0.292100  1.0  -0.7067
  O  O75  1  0.025300  0.813600  0.262300  1.0  -0.7439
  O  O76  1  0.049100  0.309400  0.395300  1.0  -0.679
  O  O77  1  0.085300  0.491600  0.480100  1.0  -0.7657
  O  O78  1  0.540100  0.741000  0.461900  1.0  -0.6792
  O  O79  1  0.111200  0.747900  0.378300  1.0  -0.7384
  O  O80  1  0.322900  0.682000  0.516100  1.0  -0.7064
  O  O81  1  0.245200  0.684400  0.968000  1.0  -0.7774
  O  O82  1  0.046700  0.699000  0.841000  1.0  -0.7104
  O  O83  1  0.454200  0.727600  0.026500  1.0  -0.7069
  O  O84  1  0.002400  0.489400  0.002000  1.0  -0.6913
  O  O85  1  0.260400  0.296800  0.765900  1.0  -0.7225
  O  O86  1  0.054000  0.748000  0.710500  1.0  -0.6843
  O  O87  1  0.120800  0.409200  0.899300  1.0  -0.8595
  O  O88  1  0.032100  0.520000  0.751400  1.0  -0.7069
  O  O89  1  0.242700  0.639300  0.764800  1.0  -0.8099
  O  O90  1  0.466300  0.422000  0.792100  1.0  -0.7078
  O  O91  1  0.474700  0.186400  0.762300  1.0  -0.7434
  O  O92  1  0.450900  0.690600  0.895300  1.0  -0.6803
  O  O93  1  0.414700  0.508400  0.980100  1.0  -0.7656
  O  O94  1  0.959900  0.259000  0.961900  1.0  -0.6804
  O  O95  1  0.388800  0.252100  0.878300  1.0  -0.7371
  O  O96  1  0.177100  0.318000  0.016100  1.0  -0.706
