# generated using pymatgen
data_SmIn3H9C27O22
_symmetry_space_group_name_H-M   'P 1'
_cell_length_a   16.88450000
_cell_length_b   16.88450000
_cell_length_c   16.88450000
_cell_angle_alpha   90.00000000
_cell_angle_beta   90.00000000
_cell_angle_gamma   90.00000000
_symmetry_Int_Tables_number   1
_chemical_formula_structural   SmIn3H9C27O22
_chemical_formula_sum   'Sm4 In12 H36 C108 O88'
_cell_volume   4813.54031195
_cell_formula_units_Z   4
loop_
 _symmetry_equiv_pos_site_id
 _symmetry_equiv_pos_as_xyz
  1  'x, y, z'
loop_
 _atom_site_type_symbol
 _atom_site_label
 _atom_site_symmetry_multiplicity
 _atom_site_fract_x
 _atom_site_fract_y
 _atom_site_fract_z
 _atom_site_occupancy
 _atom_site_charge
  Sm  Sm1  1  0.083940  0.416060  0.583940  1.0  2.0947
  Sm  Sm2  1  0.416060  0.583940  0.083940  1.0  2.0953
  Sm  Sm3  1  0.916060  0.916060  0.916060  1.0  2.0928
  Sm  Sm4  1  0.583940  0.083940  0.416060  1.0  2.0914
  In  In5  1  0.992240  0.614150  0.549750  1.0  1.6632
  In  In6  1  0.507760  0.385850  0.049750  1.0  1.6662
  In  In7  1  0.007760  0.114150  0.950250  1.0  1.6638
  In  In8  1  0.492240  0.885850  0.450250  1.0  1.6643
  In  In9  1  0.549750  0.992240  0.614150  1.0  1.6631
  In  In10  1  0.049750  0.507760  0.385850  1.0  1.6633
  In  In11  1  0.950250  0.007760  0.114150  1.0  1.6636
  In  In12  1  0.450250  0.492240  0.885850  1.0  1.6619
  In  In13  1  0.614150  0.549750  0.992240  1.0  1.6626
  In  In14  1  0.385850  0.049750  0.507760  1.0  1.6624
  In  In15  1  0.114150  0.950250  0.007760  1.0  1.6637
  In  In16  1  0.885850  0.450250  0.492240  1.0  1.6642
  H  H17  1  0.140800  0.823300  0.506500  1.0  0.1183
  H  H18  1  0.045200  0.718300  0.788500  1.0  0.1314
  H  H19  1  0.769000  0.611300  0.788800  1.0  0.119
  H  H20  1  0.359200  0.176700  0.006500  1.0  0.1185
  H  H21  1  0.454800  0.281700  0.288500  1.0  0.1316
  H  H22  1  0.731000  0.388700  0.288800  1.0  0.1192
  H  H23  1  0.859200  0.323300  0.993500  1.0  0.1186
  H  H24  1  0.954800  0.218300  0.711500  1.0  0.1313
  H  H25  1  0.231000  0.111300  0.711200  1.0  0.1191
  H  H26  1  0.640800  0.676700  0.493500  1.0  0.1182
  H  H27  1  0.545200  0.781700  0.211500  1.0  0.1316
  H  H28  1  0.269000  0.888700  0.211200  1.0  0.1192
  H  H29  1  0.506500  0.140800  0.823300  1.0  0.1159
  H  H30  1  0.788500  0.045200  0.718300  1.0  0.1319
  H  H31  1  0.788800  0.769000  0.611300  1.0  0.1203
  H  H32  1  0.006500  0.359200  0.176700  1.0  0.1158
  H  H33  1  0.288500  0.454800  0.281700  1.0  0.1316
  H  H34  1  0.288800  0.731000  0.388700  1.0  0.1201
  H  H35  1  0.993500  0.859200  0.323300  1.0  0.116
  H  H36  1  0.711500  0.954800  0.218300  1.0  0.1326
  H  H37  1  0.711200  0.231000  0.111300  1.0  0.1205
  H  H38  1  0.493500  0.640800  0.676700  1.0  0.1161
  H  H39  1  0.211500  0.545200  0.781700  1.0  0.132
  H  H40  1  0.211200  0.269000  0.888700  1.0  0.1203
  H  H41  1  0.823300  0.506500  0.140800  1.0  0.1183
  H  H42  1  0.718300  0.788500  0.045200  1.0  0.1333
  H  H43  1  0.611300  0.788800  0.769000  1.0  0.1195
  H  H44  1  0.176700  0.006500  0.359200  1.0  0.1175
  H  H45  1  0.281700  0.288500  0.454800  1.0  0.1339
  H  H46  1  0.388700  0.288800  0.731000  1.0  0.1194
  H  H47  1  0.323300  0.993500  0.859200  1.0  0.1183
  H  H48  1  0.218300  0.711500  0.954800  1.0  0.1335
  H  H49  1  0.111300  0.711200  0.231000  1.0  0.1194
  H  H50  1  0.676700  0.493500  0.640800  1.0  0.1184
  H  H51  1  0.781700  0.211500  0.545200  1.0  0.1327
  H  H52  1  0.888700  0.211200  0.269000  1.0  0.1195
  C  C53  1  0.122900  0.627100  0.773800  1.0  -0.1342
  C  C54  1  0.058300  0.831500  0.420900  1.0  -0.1415
  C  C55  1  0.124800  0.853500  0.463200  1.0  0.0301
  C  C56  1  0.087900  0.595100  0.696700  1.0  0.7139
  C  C57  1  0.009900  0.759500  0.443600  1.0  0.74
  C  C58  1  0.090300  0.694700  0.809400  1.0  0.0095
  C  C59  1  0.859300  0.637800  0.662700  1.0  0.7025
  C  C60  1  0.750300  0.655500  0.761800  1.0  0.0329
  C  C61  1  0.789300  0.682100  0.695100  1.0  -0.1565
  C  C62  1  0.377100  0.372900  0.273800  1.0  -0.1339
  C  C63  1  0.441700  0.168500  0.920900  1.0  -0.1444
  C  C64  1  0.375200  0.146500  0.963200  1.0  0.0304
  C  C65  1  0.412100  0.404900  0.196700  1.0  0.7134
  C  C66  1  0.490100  0.240500  0.943600  1.0  0.7405
  C  C67  1  0.409700  0.305300  0.309400  1.0  0.0092
  C  C68  1  0.640700  0.362200  0.162700  1.0  0.7036
  C  C69  1  0.749700  0.344500  0.261800  1.0  0.0324
  C  C70  1  0.710700  0.317900  0.195100  1.0  -0.1562
  C  C71  1  0.877100  0.127100  0.726200  1.0  -0.134
  C  C72  1  0.941700  0.331500  0.079100  1.0  -0.1435
  C  C73  1  0.875200  0.353500  0.036800  1.0  0.0287
  C  C74  1  0.912100  0.095100  0.803300  1.0  0.7142
  C  C75  1  0.990100  0.259500  0.056400  1.0  0.7401
  C  C76  1  0.909700  0.194700  0.690600  1.0  0.0101
  C  C77  1  0.140700  0.137800  0.837300  1.0  0.7035
  C  C78  1  0.249700  0.155500  0.738200  1.0  0.0326
  C  C79  1  0.210700  0.182100  0.804900  1.0  -0.1553
  C  C80  1  0.622900  0.872900  0.226200  1.0  -0.1338
  C  C81  1  0.558300  0.668500  0.579100  1.0  -0.1426
  C  C82  1  0.624800  0.646500  0.536800  1.0  0.0298
  C  C83  1  0.587900  0.904900  0.303300  1.0  0.7143
  C  C84  1  0.509900  0.740500  0.556400  1.0  0.7411
  C  C85  1  0.590300  0.805300  0.190600  1.0  0.009
  C  C86  1  0.359300  0.862200  0.337300  1.0  0.7021
  C  C87  1  0.250300  0.844500  0.238200  1.0  0.0335
  C  C88  1  0.289300  0.817900  0.304900  1.0  -0.1567
  C  C89  1  0.773800  0.122900  0.627100  1.0  -0.1336
  C  C90  1  0.420900  0.058300  0.831500  1.0  -0.1434
  C  C91  1  0.463200  0.124800  0.853500  1.0  0.0261
  C  C92  1  0.696700  0.087900  0.595100  1.0  0.7122
  C  C93  1  0.443600  0.009900  0.759500  1.0  0.7414
  C  C94  1  0.809400  0.090300  0.694700  1.0  0.0103
  C  C95  1  0.662700  0.859300  0.637800  1.0  0.707
  C  C96  1  0.761800  0.750300  0.655500  1.0  0.0333
  C  C97  1  0.695100  0.789300  0.682100  1.0  -0.1552
  C  C98  1  0.273800  0.377100  0.372900  1.0  -0.1331
  C  C99  1  0.920900  0.441700  0.168500  1.0  -0.1429
  C  C100  1  0.963200  0.375200  0.146500  1.0  0.026
  C  C101  1  0.196700  0.412100  0.404900  1.0  0.7121
  C  C102  1  0.943600  0.490100  0.240500  1.0  0.7414
  C  C103  1  0.309400  0.409700  0.305300  1.0  0.0103
  C  C104  1  0.162700  0.640700  0.362200  1.0  0.7067
  C  C105  1  0.261800  0.749700  0.344500  1.0  0.0333
  C  C106  1  0.195100  0.710700  0.317900  1.0  -0.1559
  C  C107  1  0.726200  0.877100  0.127100  1.0  -0.1336
  C  C108  1  0.079100  0.941700  0.331500  1.0  -0.1411
  C  C109  1  0.036800  0.875200  0.353500  1.0  0.0249
  C  C110  1  0.803300  0.912100  0.095100  1.0  0.7124
  C  C111  1  0.056400  0.990100  0.259500  1.0  0.7429
  C  C112  1  0.690600  0.909700  0.194700  1.0  0.0112
  C  C113  1  0.837300  0.140700  0.137800  1.0  0.7058
  C  C114  1  0.738200  0.249700  0.155500  1.0  0.0326
  C  C115  1  0.804900  0.210700  0.182100  1.0  -0.1554
  C  C116  1  0.226200  0.622900  0.872900  1.0  -0.1337
  C  C117  1  0.579100  0.558300  0.668500  1.0  -0.1439
  C  C118  1  0.536800  0.624800  0.646500  1.0  0.0246
  C  C119  1  0.303300  0.587900  0.904900  1.0  0.7112
  C  C120  1  0.556400  0.509900  0.740500  1.0  0.7411
  C  C121  1  0.190600  0.590300  0.805300  1.0  0.011
  C  C122  1  0.337300  0.359300  0.862200  1.0  0.7054
  C  C123  1  0.238200  0.250300  0.844500  1.0  0.0323
  C  C124  1  0.304900  0.289300  0.817900  1.0  -0.1554
  C  C125  1  0.627100  0.773800  0.122900  1.0  -0.1336
  C  C126  1  0.831500  0.420900  0.058300  1.0  -0.1403
  C  C127  1  0.853500  0.463200  0.124800  1.0  0.0254
  C  C128  1  0.595100  0.696700  0.087900  1.0  0.7119
  C  C129  1  0.759500  0.443600  0.009900  1.0  0.7404
  C  C130  1  0.694700  0.809400  0.090300  1.0  0.0089
  C  C131  1  0.637800  0.662700  0.859300  1.0  0.7062
  C  C132  1  0.655500  0.761800  0.750300  1.0  0.0321
  C  C133  1  0.682100  0.695100  0.789300  1.0  -0.1567
  C  C134  1  0.372900  0.273800  0.377100  1.0  -0.1338
  C  C135  1  0.168500  0.920900  0.441700  1.0  -0.1385
  C  C136  1  0.146500  0.963200  0.375200  1.0  0.0257
  C  C137  1  0.404900  0.196700  0.412100  1.0  0.7123
  C  C138  1  0.240500  0.943600  0.490100  1.0  0.7397
  C  C139  1  0.305300  0.309400  0.409700  1.0  0.007
  C  C140  1  0.362200  0.162700  0.640700  1.0  0.7062
  C  C141  1  0.344500  0.261800  0.749700  1.0  0.0336
  C  C142  1  0.317900  0.195100  0.710700  1.0  -0.1574
  C  C143  1  0.127100  0.726200  0.877100  1.0  -0.1331
  C  C144  1  0.331500  0.079100  0.941700  1.0  -0.1369
  C  C145  1  0.353500  0.036800  0.875200  1.0  0.0253
  C  C146  1  0.095100  0.803300  0.912100  1.0  0.7127
  C  C147  1  0.259500  0.056400  0.990100  1.0  0.7389
  C  C148  1  0.194700  0.690600  0.909700  1.0  0.0071
  C  C149  1  0.137800  0.837300  0.140700  1.0  0.7063
  C  C150  1  0.155500  0.738200  0.249700  1.0  0.032
  C  C151  1  0.182100  0.804900  0.210700  1.0  -0.157
  C  C152  1  0.872900  0.226200  0.622900  1.0  -0.1335
  C  C153  1  0.668500  0.579100  0.558300  1.0  -0.1413
  C  C154  1  0.646500  0.536800  0.624800  1.0  0.0257
  C  C155  1  0.904900  0.303300  0.587900  1.0  0.7118
  C  C156  1  0.740500  0.556400  0.509900  1.0  0.7399
  C  C157  1  0.805300  0.190600  0.590300  1.0  0.0085
  C  C158  1  0.862200  0.337300  0.359300  1.0  0.7054
  C  C159  1  0.844500  0.238200  0.250300  1.0  0.0315
  C  C160  1  0.817900  0.304900  0.289300  1.0  -0.1581
  O  O161  1  0.088800  0.542600  0.505600  1.0  -0.7346
  O  O162  1  0.038400  0.718600  0.499600  1.0  -0.6096
  O  O163  1  0.886900  0.663200  0.596800  1.0  -0.5832
  O  O164  1  0.885100  0.580000  0.700100  1.0  -0.5326
  O  O165  1  0.946700  0.743200  0.409000  1.0  -0.5276
  O  O166  1  0.053600  0.646600  0.654100  1.0  -0.5914
  O  O167  1  0.096000  0.524200  0.682000  1.0  -0.6812
  O  O168  1  0.411200  0.457400  0.005600  1.0  -0.7339
  O  O169  1  0.461600  0.281400  0.999600  1.0  -0.6077
  O  O170  1  0.613100  0.336800  0.096800  1.0  -0.5824
  O  O171  1  0.614900  0.420000  0.200100  1.0  -0.5317
  O  O172  1  0.553300  0.256800  0.909000  1.0  -0.5287
  O  O173  1  0.446400  0.353400  0.154100  1.0  -0.5912
  O  O174  1  0.404000  0.475800  0.182000  1.0  -0.6812
  O  O175  1  0.911200  0.042600  0.994400  1.0  -0.7346
  O  O176  1  0.961600  0.218600  0.000400  1.0  -0.6088
  O  O177  1  0.113100  0.163200  0.903200  1.0  -0.583
  O  O178  1  0.114900  0.080000  0.799900  1.0  -0.534
  O  O179  1  0.053300  0.243200  0.091000  1.0  -0.53
  O  O180  1  0.946400  0.146600  0.845900  1.0  -0.5924
  O  O181  1  0.904000  0.024200  0.818000  1.0  -0.6827
  O  O182  1  0.588800  0.957400  0.494400  1.0  -0.7348
  O  O183  1  0.538400  0.781400  0.500400  1.0  -0.6096
  O  O184  1  0.386900  0.836800  0.403200  1.0  -0.5833
  O  O185  1  0.385100  0.920000  0.299900  1.0  -0.5327
  O  O186  1  0.446700  0.756800  0.591000  1.0  -0.5286
  O  O187  1  0.553600  0.853400  0.345900  1.0  -0.5916
  O  O188  1  0.596000  0.975800  0.318000  1.0  -0.6826
  O  O189  1  0.505600  0.088800  0.542600  1.0  -0.7363
  O  O190  1  0.499600  0.038400  0.718600  1.0  -0.6077
  O  O191  1  0.596800  0.886900  0.663200  1.0  -0.5807
  O  O192  1  0.700100  0.885100  0.580000  1.0  -0.5359
  O  O193  1  0.409000  0.946700  0.743200  1.0  -0.5175
  O  O194  1  0.654100  0.053600  0.646600  1.0  -0.5902
  O  O195  1  0.682000  0.096000  0.524200  1.0  -0.6843
  O  O196  1  0.005600  0.411200  0.457400  1.0  -0.7348
  O  O197  1  0.999600  0.461600  0.281400  1.0  -0.6076
  O  O198  1  0.096800  0.613100  0.336800  1.0  -0.5801
  O  O199  1  0.200100  0.614900  0.420000  1.0  -0.5395
  O  O200  1  0.909000  0.553300  0.256800  1.0  -0.5206
  O  O201  1  0.154100  0.446400  0.353400  1.0  -0.5885
  O  O202  1  0.182000  0.404000  0.475800  1.0  -0.6877
  O  O203  1  0.994400  0.911200  0.042600  1.0  -0.7352
  O  O204  1  0.000400  0.961600  0.218600  1.0  -0.6073
  O  O205  1  0.903200  0.113100  0.163200  1.0  -0.5809
  O  O206  1  0.799900  0.114900  0.080000  1.0  -0.5367
  O  O207  1  0.091000  0.053300  0.243200  1.0  -0.5191
  O  O208  1  0.845900  0.946400  0.146600  1.0  -0.5894
  O  O209  1  0.818000  0.904000  0.024200  1.0  -0.6847
  O  O210  1  0.494400  0.588800  0.957400  1.0  -0.7364
  O  O211  1  0.500400  0.538400  0.781400  1.0  -0.6075
  O  O212  1  0.403200  0.386900  0.836800  1.0  -0.5808
  O  O213  1  0.299900  0.385100  0.920000  1.0  -0.5361
  O  O214  1  0.591000  0.446700  0.756800  1.0  -0.5158
  O  O215  1  0.345900  0.553600  0.853400  1.0  -0.5887
  O  O216  1  0.318000  0.596000  0.975800  1.0  -0.6881
  O  O217  1  0.542600  0.505600  0.088800  1.0  -0.7345
  O  O218  1  0.718600  0.499600  0.038400  1.0  -0.6101
  O  O219  1  0.663200  0.596800  0.886900  1.0  -0.5798
  O  O220  1  0.580000  0.700100  0.885100  1.0  -0.5319
  O  O221  1  0.743200  0.409000  0.946700  1.0  -0.5254
  O  O222  1  0.646600  0.654100  0.053600  1.0  -0.5895
  O  O223  1  0.524200  0.682000  0.096000  1.0  -0.6836
  O  O224  1  0.457400  0.005600  0.411200  1.0  -0.7352
  O  O225  1  0.281400  0.999600  0.461600  1.0  -0.6112
  O  O226  1  0.336800  0.096800  0.613100  1.0  -0.5796
  O  O227  1  0.420000  0.200100  0.614900  1.0  -0.5328
  O  O228  1  0.256800  0.909000  0.553300  1.0  -0.521
  O  O229  1  0.353400  0.154100  0.446400  1.0  -0.5909
  O  O230  1  0.475800  0.182000  0.404000  1.0  -0.6845
  O  O231  1  0.042600  0.994400  0.911200  1.0  -0.7349
  O  O232  1  0.218600  0.000400  0.961600  1.0  -0.6099
  O  O233  1  0.163200  0.903200  0.113100  1.0  -0.5802
  O  O234  1  0.080000  0.799900  0.114900  1.0  -0.5319
  O  O235  1  0.243200  0.091000  0.053300  1.0  -0.5226
  O  O236  1  0.146600  0.845900  0.946400  1.0  -0.5901
  O  O237  1  0.024200  0.818000  0.904000  1.0  -0.6836
  O  O238  1  0.957400  0.494400  0.588800  1.0  -0.7342
  O  O239  1  0.781400  0.500400  0.538400  1.0  -0.6103
  O  O240  1  0.836800  0.403200  0.386900  1.0  -0.5803
  O  O241  1  0.920000  0.299900  0.385100  1.0  -0.5318
  O  O242  1  0.756800  0.591000  0.446700  1.0  -0.5258
  O  O243  1  0.853400  0.345900  0.553600  1.0  -0.5906
  O  O244  1  0.975800  0.318000  0.596000  1.0  -0.6835
  O  O245  1  0.939800  0.560200  0.439800  1.0  -0.808
  O  O246  1  0.560200  0.439800  0.939800  1.0  -0.8087
  O  O247  1  0.060200  0.060200  0.060200  1.0  -0.8087
  O  O248  1  0.439800  0.939800  0.560200  1.0  -0.808
