# generated using pymatgen
data_Pr2In3H45C81O22
_symmetry_space_group_name_H-M   'P 1'
_cell_length_a   27.13440000
_cell_length_b   27.13440000
_cell_length_c   27.13440000
_cell_angle_alpha   90.00000000
_cell_angle_beta   90.00000000
_cell_angle_gamma   90.00000000
_symmetry_Int_Tables_number   1
_chemical_formula_structural   Pr2In3H45C81O22
_chemical_formula_sum   'Pr8 In12 H180 C324 O88'
_cell_volume   19978.39835988
_cell_formula_units_Z   4
loop_
 _symmetry_equiv_pos_site_id
 _symmetry_equiv_pos_as_xyz
  1  'x, y, z'
loop_
 _atom_site_type_symbol
 _atom_site_label
 _atom_site_symmetry_multiplicity
 _atom_site_fract_x
 _atom_site_fract_y
 _atom_site_fract_z
 _atom_site_occupancy
 _atom_site_charge
  Pr  Pr1  1  0.052400  0.552400  0.947600  1.0  2.1639
  Pr  Pr2  1  0.909840  0.409840  0.090160  1.0  2.1488
  Pr  Pr3  1  0.447600  0.447600  0.447600  1.0  2.1625
  Pr  Pr4  1  0.590160  0.590160  0.590160  1.0  2.1478
  Pr  Pr5  1  0.947600  0.052400  0.552400  1.0  2.1685
  Pr  Pr6  1  0.090160  0.909840  0.409840  1.0  2.1473
  Pr  Pr7  1  0.552400  0.947600  0.052400  1.0  2.1668
  Pr  Pr8  1  0.409840  0.090160  0.909840  1.0  2.1478
  In  In9  1  0.929460  0.526720  0.006030  1.0  1.6375
  In  In10  1  0.570540  0.473280  0.506030  1.0  1.6368
  In  In11  1  0.070540  0.026720  0.493970  1.0  1.6366
  In  In12  1  0.429460  0.973280  0.993970  1.0  1.6382
  In  In13  1  0.006030  0.929460  0.526720  1.0  1.6397
  In  In14  1  0.506030  0.570540  0.473280  1.0  1.639
  In  In15  1  0.493970  0.070540  0.026720  1.0  1.637
  In  In16  1  0.993970  0.429460  0.973280  1.0  1.6365
  In  In17  1  0.526720  0.006030  0.929460  1.0  1.6359
  In  In18  1  0.473280  0.506030  0.570540  1.0  1.6388
  In  In19  1  0.026720  0.493970  0.070540  1.0  1.6354
  In  In20  1  0.973280  0.993970  0.429460  1.0  1.6386
  H  H21  1  0.772800  0.405700  0.038700  1.0  0.1252
  H  H22  1  0.681300  0.412900  0.008700  1.0  0.1176
  H  H23  1  0.723800  0.463800  0.879600  1.0  0.1115
  H  H24  1  0.796500  0.488700  0.915800  1.0  0.1043
  H  H25  1  0.651800  0.457700  0.860900  1.0  0.0985
  H  H26  1  0.849700  0.653000  0.940700  1.0  0.0971
  H  H27  1  0.818700  0.724400  0.916000  1.0  0.1191
  H  H28  1  0.950700  0.761300  0.862700  1.0  0.1186
  H  H29  1  0.977600  0.688900  0.887300  1.0  0.0816
  H  H30  1  0.804000  0.804700  0.906100  1.0  0.0893
  H  H31  1  0.886500  0.635600  0.120600  1.0  0.1251
  H  H32  1  0.874800  0.727200  0.264400  1.0  0.1131
  H  H33  1  0.830000  0.512400  0.186500  1.0  0.1752
  H  H34  1  0.864900  0.695000  0.182500  1.0  0.1586
  H  H35  1  0.808100  0.570600  0.248800  1.0  0.1182
  H  H36  1  0.727200  0.594300  0.538700  1.0  0.124
  H  H37  1  0.818700  0.587100  0.508700  1.0  0.1151
  H  H38  1  0.776200  0.536200  0.379600  1.0  0.1113
  H  H39  1  0.703500  0.511300  0.415800  1.0  0.1037
  H  H40  1  0.848200  0.542300  0.360900  1.0  0.0993
  H  H41  1  0.650300  0.347000  0.440700  1.0  0.0963
  H  H42  1  0.681300  0.275600  0.416000  1.0  0.1182
  H  H43  1  0.549300  0.238700  0.362700  1.0  0.1197
  H  H44  1  0.522400  0.311100  0.387300  1.0  0.0783
  H  H45  1  0.696000  0.195300  0.406100  1.0  0.0887
  H  H46  1  0.613500  0.364400  0.620600  1.0  0.1254
  H  H47  1  0.625200  0.272800  0.764400  1.0  0.1132
  H  H48  1  0.670000  0.487600  0.686500  1.0  0.1762
  H  H49  1  0.635100  0.305000  0.682500  1.0  0.1587
  H  H50  1  0.691900  0.429400  0.748800  1.0  0.1163
  H  H51  1  0.227200  0.905700  0.461300  1.0  0.1239
  H  H52  1  0.318700  0.912900  0.491300  1.0  0.1169
  H  H53  1  0.276200  0.963800  0.620400  1.0  0.1101
  H  H54  1  0.203500  0.988700  0.584200  1.0  0.104
  H  H55  1  0.348200  0.957700  0.639100  1.0  0.0996
  H  H56  1  0.150300  0.153000  0.559300  1.0  0.0966
  H  H57  1  0.181300  0.224400  0.584000  1.0  0.1186
  H  H58  1  0.049300  0.261300  0.637300  1.0  0.1199
  H  H59  1  0.022400  0.188900  0.612700  1.0  0.0828
  H  H60  1  0.196000  0.304700  0.593900  1.0  0.0891
  H  H61  1  0.113500  0.135600  0.379400  1.0  0.1259
  H  H62  1  0.125200  0.227200  0.235600  1.0  0.1131
  H  H63  1  0.170000  0.012400  0.313500  1.0  0.1763
  H  H64  1  0.135100  0.195000  0.317500  1.0  0.1588
  H  H65  1  0.191900  0.070600  0.251200  1.0  0.1159
  H  H66  1  0.272800  0.094300  0.961300  1.0  0.1208
  H  H67  1  0.181300  0.087100  0.991300  1.0  0.1155
  H  H68  1  0.223800  0.036200  0.120400  1.0  0.1118
  H  H69  1  0.296500  0.011300  0.084200  1.0  0.104
  H  H70  1  0.151800  0.042300  0.139100  1.0  0.0998
  H  H71  1  0.349700  0.847000  0.059300  1.0  0.0968
  H  H72  1  0.318700  0.775600  0.084000  1.0  0.1191
  H  H73  1  0.450700  0.738700  0.137300  1.0  0.1195
  H  H74  1  0.477600  0.811100  0.112700  1.0  0.0763
  H  H75  1  0.304000  0.695300  0.093900  1.0  0.0893
  H  H76  1  0.386500  0.864400  0.879400  1.0  0.1259
  H  H77  1  0.374800  0.772800  0.735600  1.0  0.1126
  H  H78  1  0.330000  0.987600  0.813500  1.0  0.1762
  H  H79  1  0.364900  0.805000  0.817500  1.0  0.1583
  H  H80  1  0.308100  0.929400  0.751200  1.0  0.118
  H  H81  1  0.038700  0.772800  0.405700  1.0  0.1233
  H  H82  1  0.008700  0.681300  0.412900  1.0  0.1178
  H  H83  1  0.879600  0.723800  0.463800  1.0  0.1096
  H  H84  1  0.915800  0.796500  0.488700  1.0  0.1042
  H  H85  1  0.860900  0.651800  0.457700  1.0  0.1004
  H  H86  1  0.940700  0.849700  0.653000  1.0  0.097
  H  H87  1  0.916000  0.818700  0.724400  1.0  0.1204
  H  H88  1  0.862700  0.950700  0.761300  1.0  0.1183
  H  H89  1  0.887300  0.977600  0.688900  1.0  0.0816
  H  H90  1  0.906100  0.804000  0.804700  1.0  0.0886
  H  H91  1  0.120600  0.886500  0.635600  1.0  0.1263
  H  H92  1  0.264400  0.874800  0.727200  1.0  0.113
  H  H93  1  0.186500  0.830000  0.512400  1.0  0.1772
  H  H94  1  0.182500  0.864900  0.695000  1.0  0.1591
  H  H95  1  0.248800  0.808100  0.570600  1.0  0.1157
  H  H96  1  0.538700  0.727200  0.594300  1.0  0.1217
  H  H97  1  0.508700  0.818700  0.587100  1.0  0.1165
  H  H98  1  0.379600  0.776200  0.536200  1.0  0.1094
  H  H99  1  0.415800  0.703500  0.511300  1.0  0.1039
  H  H100  1  0.360900  0.848200  0.542300  1.0  0.1015
  H  H101  1  0.440700  0.650300  0.347000  1.0  0.0977
  H  H102  1  0.416000  0.681300  0.275600  1.0  0.121
  H  H103  1  0.362700  0.549300  0.238700  1.0  0.119
  H  H104  1  0.387300  0.522400  0.311100  1.0  0.0767
  H  H105  1  0.406100  0.696000  0.195300  1.0  0.0886
  H  H106  1  0.620600  0.613500  0.364400  1.0  0.1267
  H  H107  1  0.764400  0.625200  0.272800  1.0  0.113
  H  H108  1  0.686500  0.670000  0.487600  1.0  0.1784
  H  H109  1  0.682500  0.635100  0.305000  1.0  0.1585
  H  H110  1  0.748800  0.691900  0.429400  1.0  0.1166
  H  H111  1  0.461300  0.227200  0.905700  1.0  0.1231
  H  H112  1  0.491300  0.318700  0.912900  1.0  0.1167
  H  H113  1  0.620400  0.276200  0.963800  1.0  0.11
  H  H114  1  0.584200  0.203500  0.988700  1.0  0.1035
  H  H115  1  0.639100  0.348200  0.957700  1.0  0.101
  H  H116  1  0.559300  0.150300  0.153000  1.0  0.0975
  H  H117  1  0.584000  0.181300  0.224400  1.0  0.1213
  H  H118  1  0.637300  0.049300  0.261300  1.0  0.1197
  H  H119  1  0.612700  0.022400  0.188900  1.0  0.0819
  H  H120  1  0.593900  0.196000  0.304700  1.0  0.0891
  H  H121  1  0.379400  0.113500  0.135600  1.0  0.1252
  H  H122  1  0.235600  0.125200  0.227200  1.0  0.1127
  H  H123  1  0.313500  0.170000  0.012400  1.0  0.1754
  H  H124  1  0.317500  0.135100  0.195000  1.0  0.1577
  H  H125  1  0.251200  0.191900  0.070600  1.0  0.1162
  H  H126  1  0.961300  0.272800  0.094300  1.0  0.1206
  H  H127  1  0.991300  0.181300  0.087100  1.0  0.116
  H  H128  1  0.120400  0.223800  0.036200  1.0  0.1095
  H  H129  1  0.084200  0.296500  0.011300  1.0  0.105
  H  H130  1  0.139100  0.151800  0.042300  1.0  0.1011
  H  H131  1  0.059300  0.349700  0.847000  1.0  0.0978
  H  H132  1  0.084000  0.318700  0.775600  1.0  0.1204
  H  H133  1  0.137300  0.450700  0.738700  1.0  0.1198
  H  H134  1  0.112700  0.477600  0.811100  1.0  0.0762
  H  H135  1  0.093900  0.304000  0.695300  1.0  0.0895
  H  H136  1  0.879400  0.386500  0.864400  1.0  0.1259
  H  H137  1  0.735600  0.374800  0.772800  1.0  0.1134
  H  H138  1  0.813500  0.330000  0.987600  1.0  0.1754
  H  H139  1  0.817500  0.364900  0.805000  1.0  0.1585
  H  H140  1  0.751200  0.308100  0.929400  1.0  0.118
  H  H141  1  0.405700  0.038700  0.772800  1.0  0.1266
  H  H142  1  0.412900  0.008700  0.681300  1.0  0.1185
  H  H143  1  0.463800  0.879600  0.723800  1.0  0.1101
  H  H144  1  0.488700  0.915800  0.796500  1.0  0.1026
  H  H145  1  0.457700  0.860900  0.651800  1.0  0.1002
  H  H146  1  0.653000  0.940700  0.849700  1.0  0.0978
  H  H147  1  0.724400  0.916000  0.818700  1.0  0.1204
  H  H148  1  0.761300  0.862700  0.950700  1.0  0.1203
  H  H149  1  0.688900  0.887300  0.977600  1.0  0.0807
  H  H150  1  0.804700  0.906100  0.804000  1.0  0.0882
  H  H151  1  0.635600  0.120600  0.886500  1.0  0.1243
  H  H152  1  0.727200  0.264400  0.874800  1.0  0.1136
  H  H153  1  0.512400  0.186500  0.830000  1.0  0.1762
  H  H154  1  0.695000  0.182500  0.864900  1.0  0.1575
  H  H155  1  0.570600  0.248800  0.808100  1.0  0.1167
  H  H156  1  0.594300  0.538700  0.727200  1.0  0.1228
  H  H157  1  0.587100  0.508700  0.818700  1.0  0.1161
  H  H158  1  0.536200  0.379600  0.776200  1.0  0.1094
  H  H159  1  0.511300  0.415800  0.703500  1.0  0.1028
  H  H160  1  0.542300  0.360900  0.848200  1.0  0.0999
  H  H161  1  0.347000  0.440700  0.650300  1.0  0.0978
  H  H162  1  0.275600  0.416000  0.681300  1.0  0.1208
  H  H163  1  0.238700  0.362700  0.549300  1.0  0.1196
  H  H164  1  0.311100  0.387300  0.522400  1.0  0.0771
  H  H165  1  0.195300  0.406100  0.696000  1.0  0.0877
  H  H166  1  0.364400  0.620600  0.613500  1.0  0.1241
  H  H167  1  0.272800  0.764400  0.625200  1.0  0.1135
  H  H168  1  0.487600  0.686500  0.670000  1.0  0.1748
  H  H169  1  0.305000  0.682500  0.635100  1.0  0.158
  H  H170  1  0.429400  0.748800  0.691900  1.0  0.1165
  H  H171  1  0.905700  0.461300  0.227200  1.0  0.1259
  H  H172  1  0.912900  0.491300  0.318700  1.0  0.1185
  H  H173  1  0.963800  0.620400  0.276200  1.0  0.1096
  H  H174  1  0.988700  0.584200  0.203500  1.0  0.1035
  H  H175  1  0.957700  0.639100  0.348200  1.0  0.1
  H  H176  1  0.153000  0.559300  0.150300  1.0  0.0979
  H  H177  1  0.224400  0.584000  0.181300  1.0  0.1209
  H  H178  1  0.261300  0.637300  0.049300  1.0  0.1206
  H  H179  1  0.188900  0.612700  0.022400  1.0  0.0819
  H  H180  1  0.304700  0.593900  0.196000  1.0  0.0882
  H  H181  1  0.135600  0.379400  0.113500  1.0  0.124
  H  H182  1  0.227200  0.235600  0.125200  1.0  0.1137
  H  H183  1  0.012400  0.313500  0.170000  1.0  0.174
  H  H184  1  0.195000  0.317500  0.135100  1.0  0.1576
  H  H185  1  0.070600  0.251200  0.191900  1.0  0.1171
  H  H186  1  0.094300  0.961300  0.272800  1.0  0.1236
  H  H187  1  0.087100  0.991300  0.181300  1.0  0.1141
  H  H188  1  0.036200  0.120400  0.223800  1.0  0.1094
  H  H189  1  0.011300  0.084200  0.296500  1.0  0.1031
  H  H190  1  0.042300  0.139100  0.151800  1.0  0.1002
  H  H191  1  0.847000  0.059300  0.349700  1.0  0.0974
  H  H192  1  0.775600  0.084000  0.318700  1.0  0.1203
  H  H193  1  0.738700  0.137300  0.450700  1.0  0.1208
  H  H194  1  0.811100  0.112700  0.477600  1.0  0.0762
  H  H195  1  0.695300  0.093900  0.304000  1.0  0.0879
  H  H196  1  0.864400  0.879400  0.386500  1.0  0.1249
  H  H197  1  0.772800  0.735600  0.374800  1.0  0.1119
  H  H198  1  0.987600  0.813500  0.330000  1.0  0.1751
  H  H199  1  0.805000  0.817500  0.364900  1.0  0.1569
  H  H200  1  0.929400  0.751200  0.308100  1.0  0.1177
  C  C201  1  0.839500  0.465700  0.998700  1.0  0.6446
  C  C202  1  0.789800  0.452800  0.979900  1.0  -0.0919
  C  C203  1  0.761800  0.421600  0.010400  1.0  -0.0997
  C  C204  1  0.708300  0.418400  0.988200  1.0  -0.0232
  C  C205  1  0.701300  0.424200  0.935700  1.0  0.0693
  C  C206  1  0.731700  0.453200  0.911200  1.0  -0.168
  C  C207  1  0.775700  0.467800  0.933300  1.0  -0.0625
  C  C208  1  0.655000  0.406800  0.910700  1.0  0.0132
  C  C209  1  0.636700  0.429000  0.871900  1.0  -0.0889
  C  C210  1  0.940200  0.617900  0.938700  1.0  0.6804
  C  C211  1  0.918200  0.664900  0.920000  1.0  -0.0531
  C  C212  1  0.870200  0.675700  0.925100  1.0  -0.0131
  C  C213  1  0.851400  0.716400  0.909200  1.0  -0.2067
  C  C214  1  0.881700  0.749000  0.880900  1.0  0.0758
  C  C215  1  0.929100  0.738800  0.877100  1.0  -0.1556
  C  C216  1  0.945000  0.697200  0.893900  1.0  -0.0706
  C  C217  1  0.860900  0.798700  0.860100  1.0  0.0666
  C  C218  1  0.819000  0.819600  0.879200  1.0  -0.1126
  C  C219  1  0.870000  0.623700  0.148100  1.0  -0.0684
  C  C220  1  0.876900  0.541100  0.106400  1.0  0.4934
  C  C221  1  0.816700  0.677500  0.256600  1.0  -0.1006
  C  C222  1  0.844200  0.718100  0.276900  1.0  -0.0879
  C  C223  1  0.861500  0.571700  0.146500  1.0  -0.1131
  C  C224  1  0.836800  0.546000  0.185100  1.0  -0.0983
  C  C225  1  0.858200  0.661400  0.183800  1.0  -0.1246
  C  C226  1  0.833800  0.634300  0.221200  1.0  -0.125
  C  C227  1  0.824600  0.582400  0.221100  1.0  -0.0782
  C  C228  1  0.660500  0.534300  0.498700  1.0  0.6464
  C  C229  1  0.710200  0.547200  0.479900  1.0  -0.0926
  C  C230  1  0.738200  0.578400  0.510400  1.0  -0.1014
  C  C231  1  0.791700  0.581600  0.488200  1.0  -0.0215
  C  C232  1  0.798700  0.575800  0.435700  1.0  0.0703
  C  C233  1  0.768300  0.546800  0.411200  1.0  -0.165
  C  C234  1  0.724300  0.532200  0.433300  1.0  -0.0702
  C  C235  1  0.845000  0.593200  0.410700  1.0  0.0124
  C  C236  1  0.863300  0.571000  0.371900  1.0  -0.0898
  C  C237  1  0.559800  0.382100  0.438700  1.0  0.6788
  C  C238  1  0.581800  0.335100  0.420000  1.0  -0.0537
  C  C239  1  0.629800  0.324300  0.425100  1.0  -0.0104
  C  C240  1  0.648600  0.283600  0.409200  1.0  -0.2066
  C  C241  1  0.618300  0.251000  0.380900  1.0  0.0767
  C  C242  1  0.570900  0.261200  0.377100  1.0  -0.1579
  C  C243  1  0.555000  0.302800  0.393900  1.0  -0.0721
  C  C244  1  0.639100  0.201300  0.360100  1.0  0.064
  C  C245  1  0.681000  0.180400  0.379200  1.0  -0.1047
  C  C246  1  0.630000  0.376300  0.648100  1.0  -0.0685
  C  C247  1  0.623100  0.458900  0.606400  1.0  0.4952
  C  C248  1  0.683300  0.322500  0.756600  1.0  -0.1007
  C  C249  1  0.655800  0.281900  0.776900  1.0  -0.0893
  C  C250  1  0.638500  0.428300  0.646500  1.0  -0.1132
  C  C251  1  0.663200  0.454000  0.685100  1.0  -0.0958
  C  C252  1  0.641800  0.338600  0.683800  1.0  -0.1219
  C  C253  1  0.666200  0.365700  0.721200  1.0  -0.1275
  C  C254  1  0.675400  0.417600  0.721100  1.0  -0.077
  C  C255  1  0.160500  0.965700  0.501300  1.0  0.6429
  C  C256  1  0.210200  0.952800  0.520100  1.0  -0.0903
  C  C257  1  0.238200  0.921600  0.489600  1.0  -0.0999
  C  C258  1  0.291700  0.918400  0.511800  1.0  -0.024
  C  C259  1  0.298700  0.924200  0.564300  1.0  0.0706
  C  C260  1  0.268300  0.953200  0.588800  1.0  -0.1641
  C  C261  1  0.224300  0.967800  0.566700  1.0  -0.0666
  C  C262  1  0.345000  0.906800  0.589300  1.0  0.012
  C  C263  1  0.363300  0.929000  0.628100  1.0  -0.0909
  C  C264  1  0.059800  0.117900  0.561300  1.0  0.6811
  C  C265  1  0.081800  0.164900  0.580000  1.0  -0.0545
  C  C266  1  0.129800  0.175700  0.574900  1.0  -0.0102
  C  C267  1  0.148600  0.216400  0.590800  1.0  -0.2071
  C  C268  1  0.118300  0.249000  0.619100  1.0  0.0763
  C  C269  1  0.070900  0.238800  0.622900  1.0  -0.1582
  C  C270  1  0.055000  0.197200  0.606100  1.0  -0.0691
  C  C271  1  0.139100  0.298700  0.639900  1.0  0.0632
  C  C272  1  0.181000  0.319600  0.620800  1.0  -0.1055
  C  C273  1  0.130000  0.123700  0.351900  1.0  -0.0659
  C  C274  1  0.123100  0.041100  0.393600  1.0  0.493
  C  C275  1  0.183300  0.177500  0.243400  1.0  -0.1022
  C  C276  1  0.155800  0.218100  0.223100  1.0  -0.0903
  C  C277  1  0.138500  0.071700  0.353500  1.0  -0.1122
  C  C278  1  0.163200  0.046000  0.314900  1.0  -0.095
  C  C279  1  0.141800  0.161400  0.316200  1.0  -0.1219
  C  C280  1  0.166200  0.134300  0.278800  1.0  -0.1301
  C  C281  1  0.175400  0.082400  0.278900  1.0  -0.0753
  C  C282  1  0.339500  0.034300  0.001300  1.0  0.6467
  C  C283  1  0.289800  0.047200  0.020100  1.0  -0.0909
  C  C284  1  0.261800  0.078400  0.989600  1.0  -0.1012
  C  C285  1  0.208300  0.081600  0.011800  1.0  -0.0255
  C  C286  1  0.201300  0.075800  0.064300  1.0  0.0702
  C  C287  1  0.231700  0.046800  0.088800  1.0  -0.1658
  C  C288  1  0.275700  0.032200  0.066700  1.0  -0.0673
  C  C289  1  0.155000  0.093200  0.089300  1.0  0.0124
  C  C290  1  0.136700  0.071000  0.128100  1.0  -0.0901
  C  C291  1  0.440200  0.882100  0.061300  1.0  0.6788
  C  C292  1  0.418200  0.835100  0.080000  1.0  -0.0528
  C  C293  1  0.370200  0.824300  0.074900  1.0  -0.0158
  C  C294  1  0.351400  0.783600  0.090800  1.0  -0.2067
  C  C295  1  0.381700  0.751000  0.119100  1.0  0.0761
  C  C296  1  0.429100  0.761200  0.122900  1.0  -0.1571
  C  C297  1  0.445000  0.802800  0.106100  1.0  -0.0687
  C  C298  1  0.360900  0.701300  0.139900  1.0  0.0612
  C  C299  1  0.319000  0.680400  0.120800  1.0  -0.1059
  C  C300  1  0.370000  0.876300  0.851900  1.0  -0.068
  C  C301  1  0.376900  0.958900  0.893600  1.0  0.4922
  C  C302  1  0.316700  0.822500  0.743400  1.0  -0.101
  C  C303  1  0.344200  0.781900  0.723100  1.0  -0.0889
  C  C304  1  0.361500  0.928300  0.853500  1.0  -0.1146
  C  C305  1  0.336800  0.954000  0.814900  1.0  -0.0936
  C  C306  1  0.358200  0.838600  0.816200  1.0  -0.1236
  C  C307  1  0.333800  0.865700  0.778800  1.0  -0.1278
  C  C308  1  0.324600  0.917600  0.778900  1.0  -0.0789
  C  C309  1  0.998700  0.839500  0.465700  1.0  0.6471
  C  C310  1  0.979900  0.789800  0.452800  1.0  -0.0889
  C  C311  1  0.010400  0.761800  0.421600  1.0  -0.1052
  C  C312  1  0.988200  0.708300  0.418400  1.0  -0.0241
  C  C313  1  0.935700  0.701300  0.424200  1.0  0.0681
  C  C314  1  0.911200  0.731700  0.453200  1.0  -0.1692
  C  C315  1  0.933300  0.775700  0.467800  1.0  -0.0653
  C  C316  1  0.910700  0.655000  0.406800  1.0  0.0123
  C  C317  1  0.871900  0.636700  0.429000  1.0  -0.0909
  C  C318  1  0.938700  0.940200  0.617900  1.0  0.682
  C  C319  1  0.920000  0.918200  0.664900  1.0  -0.0526
  C  C320  1  0.925100  0.870200  0.675700  1.0  -0.0156
  C  C321  1  0.909200  0.851400  0.716400  1.0  -0.2084
  C  C322  1  0.880900  0.881700  0.749000  1.0  0.0759
  C  C323  1  0.877100  0.929100  0.738800  1.0  -0.158
  C  C324  1  0.893900  0.945000  0.697200  1.0  -0.0813
  C  C325  1  0.860100  0.860900  0.798700  1.0  0.0637
  C  C326  1  0.879200  0.819000  0.819600  1.0  -0.1151
  C  C327  1  0.148100  0.870000  0.623700  1.0  -0.0661
  C  C328  1  0.106400  0.876900  0.541100  1.0  0.4901
  C  C329  1  0.256600  0.816700  0.677500  1.0  -0.0994
  C  C330  1  0.276900  0.844200  0.718100  1.0  -0.0902
  C  C331  1  0.146500  0.861500  0.571700  1.0  -0.1178
  C  C332  1  0.185100  0.836800  0.546000  1.0  -0.0934
  C  C333  1  0.183800  0.858200  0.661400  1.0  -0.1216
  C  C334  1  0.221200  0.833800  0.634300  1.0  -0.1265
  C  C335  1  0.221100  0.824600  0.582400  1.0  -0.0738
  C  C336  1  0.498700  0.660500  0.534300  1.0  0.6479
  C  C337  1  0.479900  0.710200  0.547200  1.0  -0.0912
  C  C338  1  0.510400  0.738200  0.578400  1.0  -0.1025
  C  C339  1  0.488200  0.791700  0.581600  1.0  -0.0239
  C  C340  1  0.435700  0.798700  0.575800  1.0  0.0682
  C  C341  1  0.411200  0.768300  0.546800  1.0  -0.166
  C  C342  1  0.433300  0.724300  0.532200  1.0  -0.0628
  C  C343  1  0.410700  0.845000  0.593200  1.0  0.0123
  C  C344  1  0.371900  0.863300  0.571000  1.0  -0.0924
  C  C345  1  0.438700  0.559800  0.382100  1.0  0.6836
  C  C346  1  0.420000  0.581800  0.335100  1.0  -0.0536
  C  C347  1  0.425100  0.629800  0.324300  1.0  -0.0097
  C  C348  1  0.409200  0.648600  0.283600  1.0  -0.2104
  C  C349  1  0.380900  0.618300  0.251000  1.0  0.0762
  C  C350  1  0.377100  0.570900  0.261200  1.0  -0.1619
  C  C351  1  0.393900  0.555000  0.302800  1.0  -0.0799
  C  C352  1  0.360100  0.639100  0.201300  1.0  0.0647
  C  C353  1  0.379200  0.681000  0.180400  1.0  -0.1057
  C  C354  1  0.648100  0.630000  0.376300  1.0  -0.0668
  C  C355  1  0.606400  0.623100  0.458900  1.0  0.4907
  C  C356  1  0.756600  0.683300  0.322500  1.0  -0.1016
  C  C357  1  0.776900  0.655800  0.281900  1.0  -0.089
  C  C358  1  0.646500  0.638500  0.428300  1.0  -0.1161
  C  C359  1  0.685100  0.663200  0.454000  1.0  -0.0927
  C  C360  1  0.683800  0.641800  0.338600  1.0  -0.1162
  C  C361  1  0.721200  0.666200  0.365700  1.0  -0.1269
  C  C362  1  0.721100  0.675400  0.417600  1.0  -0.0745
  C  C363  1  0.501300  0.160500  0.965700  1.0  0.6464
  C  C364  1  0.520100  0.210200  0.952800  1.0  -0.0861
  C  C365  1  0.489600  0.238200  0.921600  1.0  -0.1065
  C  C366  1  0.511800  0.291700  0.918400  1.0  -0.0273
  C  C367  1  0.564300  0.298700  0.924200  1.0  0.0683
  C  C368  1  0.588800  0.268300  0.953200  1.0  -0.1627
  C  C369  1  0.566700  0.224300  0.967800  1.0  -0.0615
  C  C370  1  0.589300  0.345000  0.906800  1.0  0.0085
  C  C371  1  0.628100  0.363300  0.929000  1.0  -0.0895
  C  C372  1  0.561300  0.059800  0.117900  1.0  0.6833
  C  C373  1  0.580000  0.081800  0.164900  1.0  -0.0535
  C  C374  1  0.574900  0.129800  0.175700  1.0  -0.0161
  C  C375  1  0.590800  0.148600  0.216400  1.0  -0.2104
  C  C376  1  0.619100  0.118300  0.249000  1.0  0.0758
  C  C377  1  0.622900  0.070900  0.238800  1.0  -0.1613
  C  C378  1  0.606100  0.055000  0.197200  1.0  -0.0745
  C  C379  1  0.639900  0.139100  0.298700  1.0  0.0609
  C  C380  1  0.620800  0.181000  0.319600  1.0  -0.1059
  C  C381  1  0.351900  0.130000  0.123700  1.0  -0.0626
  C  C382  1  0.393600  0.123100  0.041100  1.0  0.4907
  C  C383  1  0.243400  0.183300  0.177500  1.0  -0.1041
  C  C384  1  0.223100  0.155800  0.218100  1.0  -0.0875
  C  C385  1  0.353500  0.138500  0.071700  1.0  -0.1149
  C  C386  1  0.314900  0.163200  0.046000  1.0  -0.0912
  C  C387  1  0.316200  0.141800  0.161400  1.0  -0.1163
  C  C388  1  0.278800  0.166200  0.134300  1.0  -0.1235
  C  C389  1  0.278900  0.175400  0.082400  1.0  -0.0762
  C  C390  1  0.001300  0.339500  0.034300  1.0  0.6479
  C  C391  1  0.020100  0.289800  0.047200  1.0  -0.0918
  C  C392  1  0.989600  0.261800  0.078400  1.0  -0.1089
  C  C393  1  0.011800  0.208300  0.081600  1.0  -0.0265
  C  C394  1  0.064300  0.201300  0.075800  1.0  0.0682
  C  C395  1  0.088800  0.231700  0.046800  1.0  -0.1664
  C  C396  1  0.066700  0.275700  0.032200  1.0  -0.0625
  C  C397  1  0.089300  0.155000  0.093200  1.0  0.0086
  C  C398  1  0.128100  0.136700  0.071000  1.0  -0.092
  C  C399  1  0.061300  0.440200  0.882100  1.0  0.6844
  C  C400  1  0.080000  0.418200  0.835100  1.0  -0.0547
  C  C401  1  0.074900  0.370200  0.824300  1.0  -0.0147
  C  C402  1  0.090800  0.351400  0.783600  1.0  -0.2089
  C  C403  1  0.119100  0.381700  0.751000  1.0  0.0762
  C  C404  1  0.122900  0.429100  0.761200  1.0  -0.159
  C  C405  1  0.106100  0.445000  0.802800  1.0  -0.0749
  C  C406  1  0.139900  0.360900  0.701300  1.0  0.0612
  C  C407  1  0.120800  0.319000  0.680400  1.0  -0.1074
  C  C408  1  0.851900  0.370000  0.876300  1.0  -0.065
  C  C409  1  0.893600  0.376900  0.958900  1.0  0.4904
  C  C410  1  0.743400  0.316700  0.822500  1.0  -0.1036
  C  C411  1  0.723100  0.344200  0.781900  1.0  -0.0902
  C  C412  1  0.853500  0.361500  0.928300  1.0  -0.1165
  C  C413  1  0.814900  0.336800  0.954000  1.0  -0.0894
  C  C414  1  0.816200  0.358200  0.838600  1.0  -0.1174
  C  C415  1  0.778800  0.333800  0.865700  1.0  -0.1248
  C  C416  1  0.778900  0.324600  0.917600  1.0  -0.0736
  C  C417  1  0.465700  0.998700  0.839500  1.0  0.648
  C  C418  1  0.452800  0.979900  0.789800  1.0  -0.0972
  C  C419  1  0.421600  0.010400  0.761800  1.0  -0.1079
  C  C420  1  0.418400  0.988200  0.708300  1.0  -0.0266
  C  C421  1  0.424200  0.935700  0.701300  1.0  0.0699
  C  C422  1  0.453200  0.911200  0.731700  1.0  -0.1695
  C  C423  1  0.467800  0.933300  0.775700  1.0  -0.06
  C  C424  1  0.406800  0.910700  0.655000  1.0  0.0151
  C  C425  1  0.429000  0.871900  0.636700  1.0  -0.0878
  C  C426  1  0.617900  0.938700  0.940200  1.0  0.6838
  C  C427  1  0.664900  0.920000  0.918200  1.0  -0.0539
  C  C428  1  0.675700  0.925100  0.870200  1.0  -0.013
  C  C429  1  0.716400  0.909200  0.851400  1.0  -0.208
  C  C430  1  0.749000  0.880900  0.881700  1.0  0.0759
  C  C431  1  0.738800  0.877100  0.929100  1.0  -0.156
  C  C432  1  0.697200  0.893900  0.945000  1.0  -0.0745
  C  C433  1  0.798700  0.860100  0.860900  1.0  0.0656
  C  C434  1  0.819600  0.879200  0.819000  1.0  -0.1141
  C  C435  1  0.623700  0.148100  0.870000  1.0  -0.0655
  C  C436  1  0.541100  0.106400  0.876900  1.0  0.4897
  C  C437  1  0.677500  0.256600  0.816700  1.0  -0.1019
  C  C438  1  0.718100  0.276900  0.844200  1.0  -0.0931
  C  C439  1  0.571700  0.146500  0.861500  1.0  -0.1142
  C  C440  1  0.546000  0.185100  0.836800  1.0  -0.0941
  C  C441  1  0.661400  0.183800  0.858200  1.0  -0.1173
  C  C442  1  0.634300  0.221200  0.833800  1.0  -0.1261
  C  C443  1  0.582400  0.221100  0.824600  1.0  -0.0771
  C  C444  1  0.534300  0.498700  0.660500  1.0  0.65
  C  C445  1  0.547200  0.479900  0.710200  1.0  -0.0907
  C  C446  1  0.578400  0.510400  0.738200  1.0  -0.1073
  C  C447  1  0.581600  0.488200  0.791700  1.0  -0.0268
  C  C448  1  0.575800  0.435700  0.798700  1.0  0.07
  C  C449  1  0.546800  0.411200  0.768300  1.0  -0.17
  C  C450  1  0.532200  0.433300  0.724300  1.0  -0.0666
  C  C451  1  0.593200  0.410700  0.845000  1.0  0.0155
  C  C452  1  0.571000  0.371900  0.863300  1.0  -0.0916
  C  C453  1  0.382100  0.438700  0.559800  1.0  0.6846
  C  C454  1  0.335100  0.420000  0.581800  1.0  -0.0526
  C  C455  1  0.324300  0.425100  0.629800  1.0  -0.0082
  C  C456  1  0.283600  0.409200  0.648600  1.0  -0.2091
  C  C457  1  0.251000  0.380900  0.618300  1.0  0.0756
  C  C458  1  0.261200  0.377100  0.570900  1.0  -0.1624
  C  C459  1  0.302800  0.393900  0.555000  1.0  -0.0763
  C  C460  1  0.201300  0.360100  0.639100  1.0  0.0648
  C  C461  1  0.180400  0.379200  0.681000  1.0  -0.1038
  C  C462  1  0.376300  0.648100  0.630000  1.0  -0.0676
  C  C463  1  0.458900  0.606400  0.623100  1.0  0.4894
  C  C464  1  0.322500  0.756600  0.683300  1.0  -0.1013
  C  C465  1  0.281900  0.776900  0.655800  1.0  -0.0928
  C  C466  1  0.428300  0.646500  0.638500  1.0  -0.114
  C  C467  1  0.454000  0.685100  0.663200  1.0  -0.0914
  C  C468  1  0.338600  0.683800  0.641800  1.0  -0.1265
  C  C469  1  0.365700  0.721200  0.666200  1.0  -0.1304
  C  C470  1  0.417600  0.721100  0.675400  1.0  -0.0741
  C  C471  1  0.965700  0.501300  0.160500  1.0  0.649
  C  C472  1  0.952800  0.520100  0.210200  1.0  -0.0926
  C  C473  1  0.921600  0.489600  0.238200  1.0  -0.1059
  C  C474  1  0.918400  0.511800  0.291700  1.0  -0.0233
  C  C475  1  0.924200  0.564300  0.298700  1.0  0.0685
  C  C476  1  0.953200  0.588800  0.268300  1.0  -0.1705
  C  C477  1  0.967800  0.566700  0.224300  1.0  -0.0628
  C  C478  1  0.906800  0.589300  0.345000  1.0  0.0147
  C  C479  1  0.929000  0.628100  0.363300  1.0  -0.0896
  C  C480  1  0.117900  0.561300  0.059800  1.0  0.6836
  C  C481  1  0.164900  0.580000  0.081800  1.0  -0.0546
  C  C482  1  0.175700  0.574900  0.129800  1.0  -0.0133
  C  C483  1  0.216400  0.590800  0.148600  1.0  -0.2091
  C  C484  1  0.249000  0.619100  0.118300  1.0  0.0758
  C  C485  1  0.238800  0.622900  0.070900  1.0  -0.1618
  C  C486  1  0.197200  0.606100  0.055000  1.0  -0.0741
  C  C487  1  0.298700  0.639900  0.139100  1.0  0.0618
  C  C488  1  0.319600  0.620800  0.181000  1.0  -0.1072
  C  C489  1  0.123700  0.351900  0.130000  1.0  -0.0694
  C  C490  1  0.041100  0.393600  0.123100  1.0  0.4896
  C  C491  1  0.177500  0.243400  0.183300  1.0  -0.1017
  C  C492  1  0.218100  0.223100  0.155800  1.0  -0.0935
  C  C493  1  0.071700  0.353500  0.138500  1.0  -0.1122
  C  C494  1  0.046000  0.314900  0.163200  1.0  -0.0892
  C  C495  1  0.161400  0.316200  0.141800  1.0  -0.1195
  C  C496  1  0.134300  0.278800  0.166200  1.0  -0.126
  C  C497  1  0.082400  0.278900  0.175400  1.0  -0.076
  C  C498  1  0.034300  0.001300  0.339500  1.0  0.6507
  C  C499  1  0.047200  0.020100  0.289800  1.0  -0.0915
  C  C500  1  0.078400  0.989600  0.261800  1.0  -0.1052
  C  C501  1  0.081600  0.011800  0.208300  1.0  -0.0217
  C  C502  1  0.075800  0.064300  0.201300  1.0  0.0689
  C  C503  1  0.046800  0.088800  0.231700  1.0  -0.1716
  C  C504  1  0.032200  0.066700  0.275700  1.0  -0.0628
  C  C505  1  0.093200  0.089300  0.155000  1.0  0.0144
  C  C506  1  0.071000  0.128100  0.136700  1.0  -0.0903
  C  C507  1  0.882100  0.061300  0.440200  1.0  0.686
  C  C508  1  0.835100  0.080000  0.418200  1.0  -0.0515
  C  C509  1  0.824300  0.074900  0.370200  1.0  -0.0129
  C  C510  1  0.783600  0.090800  0.351400  1.0  -0.208
  C  C511  1  0.751000  0.119100  0.381700  1.0  0.0755
  C  C512  1  0.761200  0.122900  0.429100  1.0  -0.16
  C  C513  1  0.802800  0.106100  0.445000  1.0  -0.072
  C  C514  1  0.701300  0.139900  0.360900  1.0  0.0607
  C  C515  1  0.680400  0.120800  0.319000  1.0  -0.1059
  C  C516  1  0.876300  0.851900  0.370000  1.0  -0.0684
  C  C517  1  0.958900  0.893600  0.376900  1.0  0.4896
  C  C518  1  0.822500  0.743400  0.316700  1.0  -0.1016
  C  C519  1  0.781900  0.723100  0.344200  1.0  -0.0946
  C  C520  1  0.928300  0.853500  0.361500  1.0  -0.1129
  C  C521  1  0.954000  0.814900  0.336800  1.0  -0.0891
  C  C522  1  0.838600  0.816200  0.358200  1.0  -0.1236
  C  C523  1  0.865700  0.778800  0.333800  1.0  -0.1262
  C  C524  1  0.917600  0.778900  0.324600  1.0  -0.0755
  O  O525  1  0.001390  0.555720  0.026850  1.0  -0.8101
  O  O526  1  0.862600  0.496500  0.977800  1.0  -0.5695
  O  O527  1  0.843700  0.456900  0.043800  1.0  -0.6431
  O  O528  1  0.984850  0.611040  0.936900  1.0  -0.7054
  O  O529  1  0.908500  0.590500  0.966000  1.0  -0.5884
  O  O530  1  0.886100  0.491600  0.123700  1.0  -0.6854
  O  O531  1  0.896500  0.562000  0.068000  1.0  -0.6286
  O  O532  1  0.498610  0.444280  0.526850  1.0  -0.8079
  O  O533  1  0.637400  0.503500  0.477800  1.0  -0.5677
  O  O534  1  0.656300  0.543100  0.543800  1.0  -0.6427
  O  O535  1  0.515150  0.388960  0.436900  1.0  -0.704
  O  O536  1  0.591500  0.409500  0.466000  1.0  -0.5873
  O  O537  1  0.613900  0.508400  0.623700  1.0  -0.6856
  O  O538  1  0.603500  0.438000  0.568000  1.0  -0.6275
  O  O539  1  0.998610  0.055720  0.473150  1.0  -0.81
  O  O540  1  0.137400  0.996500  0.522200  1.0  -0.5676
  O  O541  1  0.156300  0.956900  0.456200  1.0  -0.6413
  O  O542  1  0.015150  0.111040  0.563100  1.0  -0.7038
  O  O543  1  0.091500  0.090500  0.534000  1.0  -0.5883
  O  O544  1  0.113900  0.991600  0.376300  1.0  -0.6855
  O  O545  1  0.103500  0.062000  0.432000  1.0  -0.6298
  O  O546  1  0.501390  0.944280  0.973150  1.0  -0.8089
  O  O547  1  0.362600  0.003500  0.022200  1.0  -0.5679
  O  O548  1  0.343700  0.043100  0.956200  1.0  -0.6408
  O  O549  1  0.484850  0.888960  0.063100  1.0  -0.7048
  O  O550  1  0.408500  0.909500  0.034000  1.0  -0.5896
  O  O551  1  0.386100  0.008400  0.876300  1.0  -0.6863
  O  O552  1  0.396500  0.938000  0.932000  1.0  -0.6317
  O  O553  1  0.026850  0.001390  0.555720  1.0  -0.8076
  O  O554  1  0.977800  0.862600  0.496500  1.0  -0.5721
  O  O555  1  0.043800  0.843700  0.456900  1.0  -0.6409
  O  O556  1  0.936900  0.984850  0.611040  1.0  -0.7018
  O  O557  1  0.966000  0.908500  0.590500  1.0  -0.5901
  O  O558  1  0.123700  0.886100  0.491600  1.0  -0.686
  O  O559  1  0.068000  0.896500  0.562000  1.0  -0.6266
  O  O560  1  0.526850  0.498610  0.444280  1.0  -0.8122
  O  O561  1  0.477800  0.637400  0.503500  1.0  -0.5718
  O  O562  1  0.543800  0.656300  0.543100  1.0  -0.641
  O  O563  1  0.436900  0.515150  0.388960  1.0  -0.7023
  O  O564  1  0.466000  0.591500  0.409500  1.0  -0.5886
  O  O565  1  0.623700  0.613900  0.508400  1.0  -0.6887
  O  O566  1  0.568000  0.603500  0.438000  1.0  -0.6273
  O  O567  1  0.473150  0.998610  0.055720  1.0  -0.8067
  O  O568  1  0.522200  0.137400  0.996500  1.0  -0.5724
  O  O569  1  0.456200  0.156300  0.956900  1.0  -0.6385
  O  O570  1  0.563100  0.015150  0.111040  1.0  -0.7014
  O  O571  1  0.534000  0.091500  0.090500  1.0  -0.588
  O  O572  1  0.376300  0.113900  0.991600  1.0  -0.685
  O  O573  1  0.432000  0.103500  0.062000  1.0  -0.6266
  O  O574  1  0.973150  0.501390  0.944280  1.0  -0.8123
  O  O575  1  0.022200  0.362600  0.003500  1.0  -0.5731
  O  O576  1  0.956200  0.343700  0.043100  1.0  -0.6389
  O  O577  1  0.063100  0.484850  0.888960  1.0  -0.7016
  O  O578  1  0.034000  0.408500  0.909500  1.0  -0.5897
  O  O579  1  0.876300  0.386100  0.008400  1.0  -0.6891
  O  O580  1  0.932000  0.396500  0.938000  1.0  -0.6292
  O  O581  1  0.555720  0.026850  0.001390  1.0  -0.8075
  O  O582  1  0.496500  0.977800  0.862600  1.0  -0.5724
  O  O583  1  0.456900  0.043800  0.843700  1.0  -0.6333
  O  O584  1  0.611040  0.936900  0.984850  1.0  -0.7015
  O  O585  1  0.590500  0.966000  0.908500  1.0  -0.5879
  O  O586  1  0.491600  0.123700  0.886100  1.0  -0.673
  O  O587  1  0.562000  0.068000  0.896500  1.0  -0.6263
  O  O588  1  0.444280  0.526850  0.498610  1.0  -0.8057
  O  O589  1  0.503500  0.477800  0.637400  1.0  -0.5722
  O  O590  1  0.543100  0.543800  0.656300  1.0  -0.6334
  O  O591  1  0.388960  0.436900  0.515150  1.0  -0.7036
  O  O592  1  0.409500  0.466000  0.591500  1.0  -0.5889
  O  O593  1  0.508400  0.623700  0.613900  1.0  -0.673
  O  O594  1  0.438000  0.568000  0.603500  1.0  -0.6265
  O  O595  1  0.055720  0.473150  0.998610  1.0  -0.8071
  O  O596  1  0.996500  0.522200  0.137400  1.0  -0.5725
  O  O597  1  0.956900  0.456200  0.156300  1.0  -0.6348
  O  O598  1  0.111040  0.563100  0.015150  1.0  -0.704
  O  O599  1  0.090500  0.534000  0.091500  1.0  -0.5881
  O  O600  1  0.991600  0.376300  0.113900  1.0  -0.6735
  O  O601  1  0.062000  0.432000  0.103500  1.0  -0.628
  O  O602  1  0.944280  0.973150  0.501390  1.0  -0.8056
  O  O603  1  0.003500  0.022200  0.362600  1.0  -0.5711
  O  O604  1  0.043100  0.956200  0.343700  1.0  -0.6347
  O  O605  1  0.888960  0.063100  0.484850  1.0  -0.7009
  O  O606  1  0.909500  0.034000  0.408500  1.0  -0.5897
  O  O607  1  0.008400  0.876300  0.386100  1.0  -0.6722
  O  O608  1  0.938000  0.932000  0.396500  1.0  -0.6291
  O  O609  1  0.961370  0.461370  0.038630  1.0  -0.8968
  O  O610  1  0.538630  0.538630  0.538630  1.0  -0.8972
  O  O611  1  0.038630  0.961370  0.461370  1.0  -0.8974
  O  O612  1  0.461370  0.038630  0.961370  1.0  -0.8969
