# generated using pymatgen
data_NdIn3H9C27O22
_symmetry_space_group_name_H-M   'P 1'
_cell_length_a   16.87530000
_cell_length_b   16.87530000
_cell_length_c   16.87530000
_cell_angle_alpha   90.00000000
_cell_angle_beta   90.00000000
_cell_angle_gamma   90.00000000
_symmetry_Int_Tables_number   1
_chemical_formula_structural   NdIn3H9C27O22
_chemical_formula_sum   'Nd4 In12 H36 C108 O88'
_cell_volume   4805.67621549
_cell_formula_units_Z   4
loop_
 _symmetry_equiv_pos_site_id
 _symmetry_equiv_pos_as_xyz
  1  'x, y, z'
loop_
 _atom_site_type_symbol
 _atom_site_label
 _atom_site_symmetry_multiplicity
 _atom_site_fract_x
 _atom_site_fract_y
 _atom_site_fract_z
 _atom_site_occupancy
 _atom_site_charge
  Nd  Nd1  1  0.415440  0.415440  0.415440  1.0  2.061
  Nd  Nd2  1  0.084560  0.584560  0.915440  1.0  2.0584
  Nd  Nd3  1  0.584560  0.915440  0.084560  1.0  2.0628
  Nd  Nd4  1  0.915440  0.084560  0.584560  1.0  2.064
  In  In5  1  0.507700  0.614170  0.450500  1.0  1.6658
  In  In6  1  0.992300  0.385830  0.950500  1.0  1.6657
  In  In7  1  0.492300  0.114170  0.049500  1.0  1.6656
  In  In8  1  0.007700  0.885830  0.549500  1.0  1.6664
  In  In9  1  0.450500  0.507700  0.614170  1.0  1.6631
  In  In10  1  0.950500  0.992300  0.385830  1.0  1.6628
  In  In11  1  0.049500  0.492300  0.114170  1.0  1.6648
  In  In12  1  0.549500  0.007700  0.885830  1.0  1.6643
  In  In13  1  0.614170  0.450500  0.507700  1.0  1.6635
  In  In14  1  0.385830  0.950500  0.992300  1.0  1.6632
  In  In15  1  0.114170  0.049500  0.492300  1.0  1.6635
  In  In16  1  0.885830  0.549500  0.007700  1.0  1.663
  H  H17  1  0.453600  0.719000  0.210300  1.0  0.1213
  H  H18  1  0.712400  0.768500  0.391100  1.0  0.1285
  H  H19  1  0.360700  0.822500  0.494400  1.0  0.1124
  H  H20  1  0.046400  0.281000  0.710300  1.0  0.1217
  H  H21  1  0.787600  0.231500  0.891100  1.0  0.1282
  H  H22  1  0.139300  0.177500  0.994400  1.0  0.1124
  H  H23  1  0.546400  0.219000  0.289700  1.0  0.1215
  H  H24  1  0.287600  0.268500  0.108900  1.0  0.1284
  H  H25  1  0.639300  0.322500  0.005600  1.0  0.1125
  H  H26  1  0.953600  0.781000  0.789700  1.0  0.1215
  H  H27  1  0.212400  0.731500  0.608900  1.0  0.1288
  H  H28  1  0.860700  0.677500  0.505600  1.0  0.1128
  H  H29  1  0.210300  0.453600  0.719000  1.0  0.1221
  H  H30  1  0.391100  0.712400  0.768500  1.0  0.1275
  H  H31  1  0.494400  0.360700  0.822500  1.0  0.11
  H  H32  1  0.710300  0.046400  0.281000  1.0  0.1218
  H  H33  1  0.891100  0.787600  0.231500  1.0  0.1273
  H  H34  1  0.994400  0.139300  0.177500  1.0  0.1099
  H  H35  1  0.289700  0.546400  0.219000  1.0  0.1217
  H  H36  1  0.108900  0.287600  0.268500  1.0  0.1275
  H  H37  1  0.005600  0.639300  0.322500  1.0  0.1099
  H  H38  1  0.789700  0.953600  0.781000  1.0  0.1217
  H  H39  1  0.608900  0.212400  0.731500  1.0  0.1276
  H  H40  1  0.505600  0.860700  0.677500  1.0  0.1097
  H  H41  1  0.719000  0.210300  0.453600  1.0  0.1231
  H  H42  1  0.768500  0.391100  0.712400  1.0  0.1268
  H  H43  1  0.822500  0.494400  0.360700  1.0  0.1125
  H  H44  1  0.281000  0.710300  0.046400  1.0  0.1225
  H  H45  1  0.231500  0.891100  0.787600  1.0  0.1274
  H  H46  1  0.177500  0.994400  0.139300  1.0  0.1124
  H  H47  1  0.219000  0.289700  0.546400  1.0  0.1228
  H  H48  1  0.268500  0.108900  0.287600  1.0  0.127
  H  H49  1  0.322500  0.005600  0.639300  1.0  0.1115
  H  H50  1  0.781000  0.789700  0.953600  1.0  0.1232
  H  H51  1  0.731500  0.608900  0.212400  1.0  0.1269
  H  H52  1  0.677500  0.505600  0.860700  1.0  0.111
  C  C53  1  0.377200  0.626500  0.225900  1.0  -0.1272
  C  C54  1  0.411600  0.597500  0.302900  1.0  0.7213
  C  C55  1  0.490500  0.759700  0.557100  1.0  0.7344
  C  C56  1  0.640800  0.637700  0.337100  1.0  0.6864
  C  C57  1  0.408700  0.694900  0.189300  1.0  0.0091
  C  C58  1  0.738300  0.750600  0.345900  1.0  0.0082
  C  C59  1  0.442000  0.830800  0.580200  1.0  -0.151
  C  C60  1  0.376000  0.852900  0.537800  1.0  0.0238
  C  C61  1  0.711300  0.682800  0.304100  1.0  -0.1314
  C  C62  1  0.122800  0.373500  0.725900  1.0  -0.1271
  C  C63  1  0.088400  0.402500  0.802900  1.0  0.7208
  C  C64  1  0.009500  0.240300  0.057100  1.0  0.735
  C  C65  1  0.859200  0.362300  0.837100  1.0  0.6859
  C  C66  1  0.091300  0.305100  0.689300  1.0  0.0083
  C  C67  1  0.761700  0.249400  0.845900  1.0  0.0082
  C  C68  1  0.058000  0.169200  0.080200  1.0  -0.1496
  C  C69  1  0.124000  0.147100  0.037800  1.0  0.0243
  C  C70  1  0.788700  0.317200  0.804100  1.0  -0.1332
  C  C71  1  0.622800  0.126500  0.274100  1.0  -0.1277
  C  C72  1  0.588400  0.097500  0.197100  1.0  0.72
  C  C73  1  0.509500  0.259700  0.942900  1.0  0.7349
  C  C74  1  0.359200  0.137700  0.162900  1.0  0.6859
  C  C75  1  0.591300  0.194900  0.310700  1.0  0.0086
  C  C76  1  0.261700  0.250600  0.154100  1.0  0.0076
  C  C77  1  0.558000  0.330800  0.919800  1.0  -0.1493
  C  C78  1  0.624000  0.352900  0.962200  1.0  0.0235
  C  C79  1  0.288700  0.182800  0.195900  1.0  -0.1333
  C  C80  1  0.877200  0.873500  0.774100  1.0  -0.1272
  C  C81  1  0.911600  0.902500  0.697100  1.0  0.7198
  C  C82  1  0.990500  0.740300  0.442900  1.0  0.7349
  C  C83  1  0.140800  0.862300  0.662900  1.0  0.6856
  C  C84  1  0.908700  0.805100  0.810700  1.0  0.0085
  C  C85  1  0.238300  0.749400  0.654100  1.0  0.0081
  C  C86  1  0.942000  0.669200  0.419800  1.0  -0.1518
  C  C87  1  0.876000  0.647100  0.462200  1.0  0.0232
  C  C88  1  0.211300  0.817200  0.695900  1.0  -0.1322
  C  C89  1  0.225900  0.377200  0.626500  1.0  -0.1272
  C  C90  1  0.302900  0.411600  0.597500  1.0  0.7177
  C  C91  1  0.557100  0.490500  0.759700  1.0  0.7367
  C  C92  1  0.337100  0.640800  0.637700  1.0  0.6882
  C  C93  1  0.189300  0.408700  0.694900  1.0  0.0088
  C  C94  1  0.345900  0.738300  0.750600  1.0  0.0056
  C  C95  1  0.580200  0.442000  0.830800  1.0  -0.1504
  C  C96  1  0.537800  0.376000  0.852900  1.0  0.02
  C  C97  1  0.304100  0.711300  0.682800  1.0  -0.1326
  C  C98  1  0.725900  0.122800  0.373500  1.0  -0.1273
  C  C99  1  0.802900  0.088400  0.402500  1.0  0.717
  C  C100  1  0.057100  0.009500  0.240300  1.0  0.7359
  C  C101  1  0.837100  0.859200  0.362300  1.0  0.688
  C  C102  1  0.689300  0.091300  0.305100  1.0  0.0088
  C  C103  1  0.845900  0.761700  0.249400  1.0  0.0062
  C  C104  1  0.080200  0.058000  0.169200  1.0  -0.1522
  C  C105  1  0.037800  0.124000  0.147100  1.0  0.0196
  C  C106  1  0.804100  0.788700  0.317200  1.0  -0.1326
  C  C107  1  0.274100  0.622800  0.126500  1.0  -0.127
  C  C108  1  0.197100  0.588400  0.097500  1.0  0.7175
  C  C109  1  0.942900  0.509500  0.259700  1.0  0.7358
  C  C110  1  0.162900  0.359200  0.137700  1.0  0.689
  C  C111  1  0.310700  0.591300  0.194900  1.0  0.008
  C  C112  1  0.154100  0.261700  0.250600  1.0  0.0057
  C  C113  1  0.919800  0.558000  0.330800  1.0  -0.1512
  C  C114  1  0.962200  0.624000  0.352900  1.0  0.0208
  C  C115  1  0.195900  0.288700  0.182800  1.0  -0.1326
  C  C116  1  0.774100  0.877200  0.873500  1.0  -0.1265
  C  C117  1  0.697100  0.911600  0.902500  1.0  0.7179
  C  C118  1  0.442900  0.990500  0.740300  1.0  0.7361
  C  C119  1  0.662900  0.140800  0.862300  1.0  0.6895
  C  C120  1  0.810700  0.908700  0.805100  1.0  0.0071
  C  C121  1  0.654100  0.238300  0.749400  1.0  0.0054
  C  C122  1  0.419800  0.942000  0.669200  1.0  -0.151
  C  C123  1  0.462200  0.876000  0.647100  1.0  0.0209
  C  C124  1  0.695900  0.211300  0.817200  1.0  -0.1337
  C  C125  1  0.626500  0.225900  0.377200  1.0  -0.1268
  C  C126  1  0.597500  0.302900  0.411600  1.0  0.7181
  C  C127  1  0.759700  0.557100  0.490500  1.0  0.7368
  C  C128  1  0.637700  0.337100  0.640800  1.0  0.6894
  C  C129  1  0.694900  0.189300  0.408700  1.0  0.0065
  C  C130  1  0.750600  0.345900  0.738300  1.0  0.0079
  C  C131  1  0.830800  0.580200  0.442000  1.0  -0.1461
  C  C132  1  0.852900  0.537800  0.376000  1.0  0.0176
  C  C133  1  0.682800  0.304100  0.711300  1.0  -0.1331
  C  C134  1  0.373500  0.725900  0.122800  1.0  -0.1276
  C  C135  1  0.402500  0.802900  0.088400  1.0  0.7169
  C  C136  1  0.240300  0.057100  0.009500  1.0  0.7364
  C  C137  1  0.362300  0.837100  0.859200  1.0  0.689
  C  C138  1  0.305100  0.689300  0.091300  1.0  0.0062
  C  C139  1  0.249400  0.845900  0.761700  1.0  0.0074
  C  C140  1  0.169200  0.080200  0.058000  1.0  -0.15
  C  C141  1  0.147100  0.037800  0.124000  1.0  0.018
  C  C142  1  0.317200  0.804100  0.788700  1.0  -0.1286
  C  C143  1  0.126500  0.274100  0.622800  1.0  -0.1269
  C  C144  1  0.097500  0.197100  0.588400  1.0  0.7185
  C  C145  1  0.259700  0.942900  0.509500  1.0  0.7383
  C  C146  1  0.137700  0.162900  0.359200  1.0  0.688
  C  C147  1  0.194900  0.310700  0.591300  1.0  0.007
  C  C148  1  0.250600  0.154100  0.261700  1.0  0.0091
  C  C149  1  0.330800  0.919800  0.558000  1.0  -0.1478
  C  C150  1  0.352900  0.962200  0.624000  1.0  0.0188
  C  C151  1  0.182800  0.195900  0.288700  1.0  -0.1273
  C  C152  1  0.873500  0.774100  0.877200  1.0  -0.1271
  C  C153  1  0.902500  0.697100  0.911600  1.0  0.7176
  C  C154  1  0.740300  0.442900  0.990500  1.0  0.7371
  C  C155  1  0.862300  0.662900  0.140800  1.0  0.6906
  C  C156  1  0.805100  0.810700  0.908700  1.0  0.0059
  C  C157  1  0.749400  0.654100  0.238300  1.0  0.0077
  C  C158  1  0.669200  0.419800  0.942000  1.0  -0.1478
  C  C159  1  0.647100  0.462200  0.876000  1.0  0.0186
  C  C160  1  0.817200  0.695900  0.211300  1.0  -0.1336
  O  O161  1  0.410500  0.543000  0.495400  1.0  -0.7393
  O  O162  1  0.462500  0.719500  0.500400  1.0  -0.6244
  O  O163  1  0.613300  0.662800  0.402900  1.0  -0.614
  O  O164  1  0.617000  0.580000  0.300300  1.0  -0.5039
  O  O165  1  0.447400  0.646900  0.345000  1.0  -0.5755
  O  O166  1  0.552900  0.743000  0.590600  1.0  -0.492
  O  O167  1  0.403700  0.524100  0.316600  1.0  -0.6639
  O  O168  1  0.089500  0.457000  0.995400  1.0  -0.7402
  O  O169  1  0.037500  0.280500  0.000400  1.0  -0.6255
  O  O170  1  0.886700  0.337200  0.902900  1.0  -0.6144
  O  O171  1  0.883000  0.420000  0.800300  1.0  -0.5023
  O  O172  1  0.052600  0.353100  0.845000  1.0  -0.5754
  O  O173  1  0.947100  0.257000  0.090600  1.0  -0.492
  O  O174  1  0.096300  0.475900  0.816600  1.0  -0.6647
  O  O175  1  0.589500  0.043000  0.004600  1.0  -0.7396
  O  O176  1  0.537500  0.219500  0.999600  1.0  -0.6258
  O  O177  1  0.386700  0.162800  0.097100  1.0  -0.6143
  O  O178  1  0.383000  0.080000  0.199700  1.0  -0.5027
  O  O179  1  0.552600  0.146900  0.155000  1.0  -0.5755
  O  O180  1  0.447100  0.243000  0.909400  1.0  -0.4918
  O  O181  1  0.596300  0.024100  0.183400  1.0  -0.6643
  O  O182  1  0.910500  0.957000  0.504600  1.0  -0.7386
  O  O183  1  0.962500  0.780500  0.499600  1.0  -0.6243
  O  O184  1  0.113300  0.837200  0.597100  1.0  -0.6131
  O  O185  1  0.117000  0.920000  0.699700  1.0  -0.5023
  O  O186  1  0.947400  0.853100  0.655000  1.0  -0.5753
  O  O187  1  0.052900  0.757000  0.409400  1.0  -0.4909
  O  O188  1  0.903700  0.975900  0.683400  1.0  -0.6639
  O  O189  1  0.495400  0.410500  0.543000  1.0  -0.7396
  O  O190  1  0.500400  0.462500  0.719500  1.0  -0.6229
  O  O191  1  0.402900  0.613300  0.662800  1.0  -0.6111
  O  O192  1  0.300300  0.617000  0.580000  1.0  -0.5044
  O  O193  1  0.345000  0.447400  0.646900  1.0  -0.5742
  O  O194  1  0.590600  0.552900  0.743000  1.0  -0.4837
  O  O195  1  0.316600  0.403700  0.524100  1.0  -0.6708
  O  O196  1  0.995400  0.089500  0.457000  1.0  -0.7415
  O  O197  1  0.000400  0.037500  0.280500  1.0  -0.6232
  O  O198  1  0.902900  0.886700  0.337200  1.0  -0.6112
  O  O199  1  0.800300  0.883000  0.420000  1.0  -0.5047
  O  O200  1  0.845000  0.052600  0.353100  1.0  -0.5723
  O  O201  1  0.090600  0.947100  0.257000  1.0  -0.4825
  O  O202  1  0.816600  0.096300  0.475900  1.0  -0.6717
  O  O203  1  0.004600  0.589500  0.043000  1.0  -0.7415
  O  O204  1  0.999600  0.537500  0.219500  1.0  -0.6229
  O  O205  1  0.097100  0.386700  0.162800  1.0  -0.6106
  O  O206  1  0.199700  0.383000  0.080000  1.0  -0.5046
  O  O207  1  0.155000  0.552600  0.146900  1.0  -0.5742
  O  O208  1  0.909400  0.447100  0.243000  1.0  -0.4835
  O  O209  1  0.183400  0.596300  0.024100  1.0  -0.672
  O  O210  1  0.504600  0.910500  0.957000  1.0  -0.7396
  O  O211  1  0.499600  0.962500  0.780500  1.0  -0.6229
  O  O212  1  0.597100  0.113300  0.837200  1.0  -0.6101
  O  O213  1  0.699700  0.117000  0.920000  1.0  -0.5068
  O  O214  1  0.655000  0.947400  0.853100  1.0  -0.5716
  O  O215  1  0.409400  0.052900  0.757000  1.0  -0.4844
  O  O216  1  0.683400  0.903700  0.975900  1.0  -0.6727
  O  O217  1  0.543000  0.495400  0.410500  1.0  -0.7399
  O  O218  1  0.719500  0.500400  0.462500  1.0  -0.6247
  O  O219  1  0.662800  0.402900  0.613300  1.0  -0.6117
  O  O220  1  0.580000  0.300300  0.617000  1.0  -0.503
  O  O221  1  0.646900  0.345000  0.447400  1.0  -0.5752
  O  O222  1  0.743000  0.590600  0.552900  1.0  -0.487
  O  O223  1  0.524100  0.316600  0.403700  1.0  -0.6656
  O  O224  1  0.457000  0.995400  0.089500  1.0  -0.7391
  O  O225  1  0.280500  0.000400  0.037500  1.0  -0.6252
  O  O226  1  0.337200  0.902900  0.886700  1.0  -0.6112
  O  O227  1  0.420000  0.800300  0.883000  1.0  -0.5024
  O  O228  1  0.353100  0.845000  0.052600  1.0  -0.5751
  O  O229  1  0.257000  0.090600  0.947100  1.0  -0.4867
  O  O230  1  0.475900  0.816600  0.096300  1.0  -0.6692
  O  O231  1  0.043000  0.004600  0.589500  1.0  -0.739
  O  O232  1  0.219500  0.999600  0.537500  1.0  -0.6254
  O  O233  1  0.162800  0.097100  0.386700  1.0  -0.6114
  O  O234  1  0.080000  0.199700  0.383000  1.0  -0.5025
  O  O235  1  0.146900  0.155000  0.552600  1.0  -0.5744
  O  O236  1  0.243000  0.909400  0.447100  1.0  -0.4863
  O  O237  1  0.024100  0.183400  0.596300  1.0  -0.6654
  O  O238  1  0.957000  0.504600  0.910500  1.0  -0.7403
  O  O239  1  0.780500  0.499600  0.962500  1.0  -0.6266
  O  O240  1  0.837200  0.597100  0.113300  1.0  -0.6104
  O  O241  1  0.920000  0.699700  0.117000  1.0  -0.5032
  O  O242  1  0.853100  0.655000  0.947400  1.0  -0.5747
  O  O243  1  0.757000  0.409400  0.052900  1.0  -0.4854
  O  O244  1  0.975900  0.683400  0.903700  1.0  -0.6689
  O  O245  1  0.560300  0.560300  0.560300  1.0  -0.8184
  O  O246  1  0.939700  0.439700  0.060300  1.0  -0.8173
  O  O247  1  0.439700  0.060300  0.939700  1.0  -0.8178
  O  O248  1  0.060300  0.939700  0.439700  1.0  -0.8186
