# generated using pymatgen
data_MnInH19(C4O)9
_symmetry_space_group_name_H-M   'P 1'
_cell_length_a   22.56270000
_cell_length_b   22.56270000
_cell_length_c   22.56270000
_cell_angle_alpha   107.96800000
_cell_angle_beta   107.96800000
_cell_angle_gamma   107.96800000
_symmetry_Int_Tables_number   1
_chemical_formula_structural   MnInH19(C4O)9
_chemical_formula_sum   'Mn6 In6 H114 C216 O54'
_cell_volume   9301.60147050
_cell_formula_units_Z   6
loop_
 _symmetry_equiv_pos_site_id
 _symmetry_equiv_pos_as_xyz
  1  'x, y, z'
loop_
 _atom_site_type_symbol
 _atom_site_label
 _atom_site_symmetry_multiplicity
 _atom_site_fract_x
 _atom_site_fract_y
 _atom_site_fract_z
 _atom_site_occupancy
 _atom_site_charge
  Mn  Mn1  1  0.950240  0.464130  0.532610  1.0  1.125
  Mn  Mn2  1  0.532610  0.950240  0.464130  1.0  1.1268
  Mn  Mn3  1  0.464130  0.532610  0.950240  1.0  1.1265
  Mn  Mn4  1  0.049760  0.535870  0.467390  1.0  1.126
  Mn  Mn5  1  0.467390  0.049760  0.535870  1.0  1.1282
  Mn  Mn6  1  0.535870  0.467390  0.049760  1.0  1.1277
  In  In7  1  0.869770  0.457620  0.360890  1.0  1.5583
  In  In8  1  0.360890  0.869770  0.457620  1.0  1.5594
  In  In9  1  0.457620  0.360890  0.869770  1.0  1.5582
  In  In10  1  0.130230  0.542380  0.639110  1.0  1.5562
  In  In11  1  0.639110  0.130230  0.542380  1.0  1.5575
  In  In12  1  0.542380  0.639110  0.130230  1.0  1.5572
  H  H13  1  0.730000  0.540000  0.623400  1.0  0.1143
  H  H14  1  0.713800  0.108400  0.134300  1.0  0.1174
  H  H15  1  0.582500  0.097000  0.941600  1.0  0.1094
  H  H16  1  0.514100  0.715100  0.907100  1.0  0.1015
  H  H17  1  0.613200  0.011000  0.071900  1.0  0.1098
  H  H18  1  0.410700  0.899000  0.784900  1.0  0.1043
  H  H19  1  0.621300  0.512200  0.430800  1.0  0.0995
  H  H20  1  0.554000  0.917600  0.082300  1.0  0.1072
  H  H21  1  0.493800  0.889500  0.868200  1.0  0.118
  H  H22  1  0.527300  0.813000  0.888700  1.0  0.1197
  H  H23  1  0.541700  0.820200  0.100500  1.0  0.1128
  H  H24  1  0.809400  0.513600  0.590800  1.0  0.11
  H  H25  1  0.698800  0.481800  0.396300  1.0  0.1162
  H  H26  1  0.671300  0.296400  0.135500  1.0  0.1116
  H  H27  1  0.369800  0.874800  0.668500  1.0  0.1148
  H  H28  1  0.578400  0.064700  0.830100  1.0  0.1184
  H  H29  1  0.599400  0.187100  0.041300  1.0  0.1047
  H  H30  1  0.779300  0.214700  0.231900  1.0  0.1189
  H  H31  1  0.535200  0.039500  0.712800  1.0  0.1048
  H  H32  1  0.623400  0.730000  0.540000  1.0  0.1152
  H  H33  1  0.134300  0.713800  0.108400  1.0  0.1199
  H  H34  1  0.941600  0.582500  0.097000  1.0  0.11
  H  H35  1  0.907100  0.514100  0.715100  1.0  0.1007
  H  H36  1  0.071900  0.613200  0.011000  1.0  0.1082
  H  H37  1  0.784900  0.410700  0.899000  1.0  0.1038
  H  H38  1  0.430800  0.621300  0.512200  1.0  0.0984
  H  H39  1  0.082300  0.554000  0.917600  1.0  0.1082
  H  H40  1  0.868200  0.493800  0.889500  1.0  0.1184
  H  H41  1  0.888700  0.527300  0.813000  1.0  0.1202
  H  H42  1  0.100500  0.541700  0.820200  1.0  0.1129
  H  H43  1  0.590800  0.809400  0.513600  1.0  0.1092
  H  H44  1  0.396300  0.698800  0.481800  1.0  0.117
  H  H45  1  0.135500  0.671300  0.296400  1.0  0.1101
  H  H46  1  0.668500  0.369800  0.874800  1.0  0.1151
  H  H47  1  0.830100  0.578400  0.064700  1.0  0.1167
  H  H48  1  0.041300  0.599400  0.187100  1.0  0.1049
  H  H49  1  0.231900  0.779300  0.214700  1.0  0.1185
  H  H50  1  0.712800  0.535200  0.039500  1.0  0.1054
  H  H51  1  0.540000  0.623400  0.730000  1.0  0.1156
  H  H52  1  0.108400  0.134300  0.713800  1.0  0.1199
  H  H53  1  0.097000  0.941600  0.582500  1.0  0.1089
  H  H54  1  0.715100  0.907100  0.514100  1.0  0.1015
  H  H55  1  0.011000  0.071900  0.613200  1.0  0.1089
  H  H56  1  0.899000  0.784900  0.410700  1.0  0.1056
  H  H57  1  0.512200  0.430800  0.621300  1.0  0.0998
  H  H58  1  0.917600  0.082300  0.554000  1.0  0.1078
  H  H59  1  0.889500  0.868200  0.493800  1.0  0.1184
  H  H60  1  0.813000  0.888700  0.527300  1.0  0.1207
  H  H61  1  0.820200  0.100500  0.541700  1.0  0.1133
  H  H62  1  0.513600  0.590800  0.809400  1.0  0.1092
  H  H63  1  0.481800  0.396300  0.698800  1.0  0.1168
  H  H64  1  0.296400  0.135500  0.671300  1.0  0.1111
  H  H65  1  0.874800  0.668500  0.369800  1.0  0.114
  H  H66  1  0.064700  0.830100  0.578400  1.0  0.1181
  H  H67  1  0.187100  0.041300  0.599400  1.0  0.1041
  H  H68  1  0.214700  0.231900  0.779300  1.0  0.1179
  H  H69  1  0.039500  0.712800  0.535200  1.0  0.1037
  H  H70  1  0.270000  0.460000  0.376600  1.0  0.1149
  H  H71  1  0.286200  0.891600  0.865700  1.0  0.1178
  H  H72  1  0.417500  0.903000  0.058400  1.0  0.1086
  H  H73  1  0.485900  0.284900  0.092900  1.0  0.1015
  H  H74  1  0.386800  0.989000  0.928100  1.0  0.1104
  H  H75  1  0.589300  0.101000  0.215100  1.0  0.1058
  H  H76  1  0.378700  0.487800  0.569200  1.0  0.0997
  H  H77  1  0.446000  0.082400  0.917700  1.0  0.1077
  H  H78  1  0.506200  0.110500  0.131800  1.0  0.117
  H  H79  1  0.472700  0.187000  0.111300  1.0  0.1201
  H  H80  1  0.458300  0.179800  0.899500  1.0  0.1131
  H  H81  1  0.190600  0.486400  0.409200  1.0  0.1101
  H  H82  1  0.301200  0.518200  0.603700  1.0  0.1161
  H  H83  1  0.328700  0.703600  0.864500  1.0  0.111
  H  H84  1  0.630200  0.125200  0.331500  1.0  0.115
  H  H85  1  0.421600  0.935300  0.169900  1.0  0.1178
  H  H86  1  0.400600  0.812900  0.958700  1.0  0.1047
  H  H87  1  0.220700  0.785300  0.768100  1.0  0.1185
  H  H88  1  0.464800  0.960500  0.287200  1.0  0.1043
  H  H89  1  0.376600  0.270000  0.460000  1.0  0.1156
  H  H90  1  0.865700  0.286200  0.891600  1.0  0.1204
  H  H91  1  0.058400  0.417500  0.903000  1.0  0.1093
  H  H92  1  0.092900  0.485900  0.284900  1.0  0.101
  H  H93  1  0.928100  0.386800  0.989000  1.0  0.1085
  H  H94  1  0.215100  0.589300  0.101000  1.0  0.1049
  H  H95  1  0.569200  0.378700  0.487800  1.0  0.0988
  H  H96  1  0.917700  0.446000  0.082400  1.0  0.1096
  H  H97  1  0.131800  0.506200  0.110500  1.0  0.1179
  H  H98  1  0.111300  0.472700  0.187000  1.0  0.1189
  H  H99  1  0.899500  0.458300  0.179800  1.0  0.1133
  H  H100  1  0.409200  0.190600  0.486400  1.0  0.1087
  H  H101  1  0.603700  0.301200  0.518200  1.0  0.1166
  H  H102  1  0.864500  0.328700  0.703600  1.0  0.1114
  H  H103  1  0.331500  0.630200  0.125200  1.0  0.1156
  H  H104  1  0.169900  0.421600  0.935300  1.0  0.117
  H  H105  1  0.958700  0.400600  0.812900  1.0  0.1045
  H  H106  1  0.768100  0.220700  0.785300  1.0  0.1182
  H  H107  1  0.287200  0.464800  0.960500  1.0  0.1047
  H  H108  1  0.460000  0.376600  0.270000  1.0  0.115
  H  H109  1  0.891600  0.865700  0.286200  1.0  0.1183
  H  H110  1  0.903000  0.058400  0.417500  1.0  0.1089
  H  H111  1  0.284900  0.092900  0.485900  1.0  0.1019
  H  H112  1  0.989000  0.928100  0.386800  1.0  0.1104
  H  H113  1  0.101000  0.215100  0.589300  1.0  0.1061
  H  H114  1  0.487800  0.569200  0.378700  1.0  0.0989
  H  H115  1  0.082400  0.917700  0.446000  1.0  0.1079
  H  H116  1  0.110500  0.131800  0.506200  1.0  0.1191
  H  H117  1  0.187000  0.111300  0.472700  1.0  0.1199
  H  H118  1  0.179800  0.899500  0.458300  1.0  0.1131
  H  H119  1  0.486400  0.409200  0.190600  1.0  0.1094
  H  H120  1  0.518200  0.603700  0.301200  1.0  0.1174
  H  H121  1  0.703600  0.864500  0.328700  1.0  0.1108
  H  H122  1  0.125200  0.331500  0.630200  1.0  0.1142
  H  H123  1  0.935300  0.169900  0.421600  1.0  0.118
  H  H124  1  0.812900  0.958700  0.400600  1.0  0.1042
  H  H125  1  0.785300  0.768100  0.220700  1.0  0.1179
  H  H126  1  0.960500  0.287200  0.464800  1.0  0.1036
  C  C127  1  0.724340  0.529660  0.578200  1.0  -0.0818
  C  C128  1  0.703700  0.145500  0.134900  1.0  -0.1182
  C  C129  1  0.648840  0.135450  0.078310  1.0  0.0234
  C  C130  1  0.573960  0.057520  0.949120  1.0  -0.0927
  C  C131  1  0.521880  0.755610  0.942150  1.0  -0.036
  C  C132  1  0.592880  0.006070  0.026950  1.0  -0.1234
  C  C133  1  0.603510  0.064920  0.016870  1.0  0.0237
  C  C134  1  0.437290  0.926960  0.770850  1.0  -0.1467
  C  C135  1  0.500940  0.981910  0.819650  1.0  0.0181
  C  C136  1  0.532350  0.992420  0.893530  1.0  0.0381
  C  C137  1  0.659130  0.512620  0.463050  1.0  -0.0781
  C  C138  1  0.546460  0.877200  0.047140  1.0  -0.0952
  C  C139  1  0.780450  0.337620  0.254830  1.0  0.6808
  C  C140  1  0.521900  0.933560  0.905540  1.0  -0.1193
  C  C141  1  0.543670  0.876430  0.984040  1.0  0.0734
  C  C142  1  0.552860  0.939810  0.972430  1.0  0.0104
  C  C143  1  0.530460  0.814830  0.931410  1.0  -0.1291
  C  C144  1  0.817610  0.483280  0.470050  1.0  0.7438
  C  C145  1  0.538180  0.818480  0.057740  1.0  -0.0363
  C  C146  1  0.524760  0.756940  0.004720  1.0  -0.1348
  C  C147  1  0.516380  0.693830  0.017290  1.0  0.7413
  C  C148  1  0.771740  0.513290  0.558570  1.0  -0.0715
  C  C149  1  0.619960  0.553300  0.553820  1.0  -0.0085
  C  C150  1  0.705880  0.494710  0.442130  1.0  -0.0515
  C  C151  1  0.597800  0.597330  0.531620  1.0  0.0273
  C  C152  1  0.667980  0.530920  0.530760  1.0  -0.0742
  C  C153  1  0.763380  0.496250  0.490580  1.0  -0.1436
  C  C154  1  0.450650  0.954690  0.680260  1.0  -0.1483
  C  C155  1  0.732650  0.267210  0.192440  1.0  -0.1323
  C  C156  1  0.679220  0.258510  0.136070  1.0  -0.0417
  C  C157  1  0.412340  0.912740  0.701120  1.0  -0.0505
  C  C158  1  0.536820  0.025410  0.797870  1.0  -0.1322
  C  C159  1  0.636410  0.192760  0.079030  1.0  -0.1201
  C  C160  1  0.744400  0.209700  0.192900  1.0  -0.0533
  C  C161  1  0.510490  0.010260  0.727150  1.0  -0.0301
  C  C162  1  0.423910  0.933090  0.601700  1.0  0.7423
  C  C163  1  0.578200  0.724340  0.529660  1.0  -0.0861
  C  C164  1  0.134900  0.703700  0.145500  1.0  -0.1209
  C  C165  1  0.078310  0.648840  0.135450  1.0  0.0254
  C  C166  1  0.949120  0.573960  0.057520  1.0  -0.0942
  C  C167  1  0.942150  0.521880  0.755610  1.0  -0.0357
  C  C168  1  0.026950  0.592880  0.006070  1.0  -0.123
  C  C169  1  0.016870  0.603510  0.064920  1.0  0.0238
  C  C170  1  0.770850  0.437290  0.926960  1.0  -0.148
  C  C171  1  0.819650  0.500940  0.981910  1.0  0.0186
  C  C172  1  0.893530  0.532350  0.992420  1.0  0.0398
  C  C173  1  0.463050  0.659130  0.512620  1.0  -0.0796
  C  C174  1  0.047140  0.546460  0.877200  1.0  -0.0978
  C  C175  1  0.254830  0.780450  0.337620  1.0  0.6818
  C  C176  1  0.905540  0.521900  0.933560  1.0  -0.1222
  C  C177  1  0.984040  0.543670  0.876430  1.0  0.0723
  C  C178  1  0.972430  0.552860  0.939810  1.0  0.0143
  C  C179  1  0.931410  0.530460  0.814830  1.0  -0.125
  C  C180  1  0.470050  0.817610  0.483280  1.0  0.7444
  C  C181  1  0.057740  0.538180  0.818480  1.0  -0.0341
  C  C182  1  0.004720  0.524760  0.756940  1.0  -0.1326
  C  C183  1  0.017290  0.516380  0.693830  1.0  0.743
  C  C184  1  0.558570  0.771740  0.513290  1.0  -0.0721
  C  C185  1  0.553820  0.619960  0.553300  1.0  -0.0087
  C  C186  1  0.442130  0.705880  0.494710  1.0  -0.0514
  C  C187  1  0.531620  0.597800  0.597330  1.0  0.0297
  C  C188  1  0.530760  0.667980  0.530920  1.0  -0.0766
  C  C189  1  0.490580  0.763380  0.496250  1.0  -0.144
  C  C190  1  0.680260  0.450650  0.954690  1.0  -0.1488
  C  C191  1  0.192440  0.732650  0.267210  1.0  -0.1326
  C  C192  1  0.136070  0.679220  0.258510  1.0  -0.0424
  C  C193  1  0.701120  0.412340  0.912740  1.0  -0.0529
  C  C194  1  0.797870  0.536820  0.025410  1.0  -0.1295
  C  C195  1  0.079030  0.636410  0.192760  1.0  -0.1231
  C  C196  1  0.192900  0.744400  0.209700  1.0  -0.056
  C  C197  1  0.727150  0.510490  0.010260  1.0  -0.0306
  C  C198  1  0.601700  0.423910  0.933090  1.0  0.742
  C  C199  1  0.529660  0.578200  0.724340  1.0  -0.0858
  C  C200  1  0.145500  0.134900  0.703700  1.0  -0.119
  C  C201  1  0.135450  0.078310  0.648840  1.0  0.0297
  C  C202  1  0.057520  0.949120  0.573960  1.0  -0.0955
  C  C203  1  0.755610  0.942150  0.521880  1.0  -0.0383
  C  C204  1  0.006070  0.026950  0.592880  1.0  -0.123
  C  C205  1  0.064920  0.016870  0.603510  1.0  0.0223
  C  C206  1  0.926960  0.770850  0.437290  1.0  -0.1463
  C  C207  1  0.981910  0.819650  0.500940  1.0  0.0172
  C  C208  1  0.992420  0.893530  0.532350  1.0  0.0403
  C  C209  1  0.512620  0.463050  0.659130  1.0  -0.0782
  C  C210  1  0.877200  0.047140  0.546460  1.0  -0.1017
  C  C211  1  0.337620  0.254830  0.780450  1.0  0.678
  C  C212  1  0.933560  0.905540  0.521900  1.0  -0.1241
  C  C213  1  0.876430  0.984040  0.543670  1.0  0.0753
  C  C214  1  0.939810  0.972430  0.552860  1.0  0.0183
  C  C215  1  0.814830  0.931410  0.530460  1.0  -0.1334
  C  C216  1  0.483280  0.470050  0.817610  1.0  0.7459
  C  C217  1  0.818480  0.057740  0.538180  1.0  -0.0406
  C  C218  1  0.756940  0.004720  0.524760  1.0  -0.1326
  C  C219  1  0.693830  0.017290  0.516380  1.0  0.7421
  C  C220  1  0.513290  0.558570  0.771740  1.0  -0.0745
  C  C221  1  0.553300  0.553820  0.619960  1.0  -0.0078
  C  C222  1  0.494710  0.442130  0.705880  1.0  -0.0484
  C  C223  1  0.597330  0.531620  0.597800  1.0  0.0328
  C  C224  1  0.530920  0.530760  0.667980  1.0  -0.0723
  C  C225  1  0.496250  0.490580  0.763380  1.0  -0.1457
  C  C226  1  0.954690  0.680260  0.450650  1.0  -0.149
  C  C227  1  0.267210  0.192440  0.732650  1.0  -0.1329
  C  C228  1  0.258510  0.136070  0.679220  1.0  -0.0388
  C  C229  1  0.912740  0.701120  0.412340  1.0  -0.0535
  C  C230  1  0.025410  0.797870  0.536820  1.0  -0.1317
  C  C231  1  0.192760  0.079030  0.636410  1.0  -0.116
  C  C232  1  0.209700  0.192900  0.744400  1.0  -0.0541
  C  C233  1  0.010260  0.727150  0.510490  1.0  -0.0257
  C  C234  1  0.933090  0.601700  0.423910  1.0  0.7406
  C  C235  1  0.275660  0.470340  0.421800  1.0  -0.0825
  C  C236  1  0.296300  0.854500  0.865100  1.0  -0.1187
  C  C237  1  0.351160  0.864550  0.921690  1.0  0.0232
  C  C238  1  0.426040  0.942480  0.050880  1.0  -0.0897
  C  C239  1  0.478120  0.244390  0.057850  1.0  -0.0356
  C  C240  1  0.407120  0.993930  0.973050  1.0  -0.1237
  C  C241  1  0.396490  0.935080  0.983130  1.0  0.0229
  C  C242  1  0.562710  0.073040  0.229150  1.0  -0.1478
  C  C243  1  0.499060  0.018090  0.180350  1.0  0.0178
  C  C244  1  0.467650  0.007580  0.106470  1.0  0.0365
  C  C245  1  0.340870  0.487380  0.536950  1.0  -0.0757
  C  C246  1  0.453540  0.122800  0.952860  1.0  -0.0958
  C  C247  1  0.219550  0.662380  0.745170  1.0  0.6807
  C  C248  1  0.478100  0.066440  0.094460  1.0  -0.1199
  C  C249  1  0.456330  0.123570  0.015960  1.0  0.0728
  C  C250  1  0.447140  0.060190  0.027570  1.0  0.0126
  C  C251  1  0.469540  0.185170  0.068590  1.0  -0.1252
  C  C252  1  0.182390  0.516720  0.529950  1.0  0.7451
  C  C253  1  0.461820  0.181520  0.942260  1.0  -0.0359
  C  C254  1  0.475240  0.243060  0.995280  1.0  -0.1349
  C  C255  1  0.483620  0.306170  0.982710  1.0  0.741
  C  C256  1  0.228260  0.486710  0.441430  1.0  -0.0725
  C  C257  1  0.380040  0.446700  0.446180  1.0  -0.008
  C  C258  1  0.294120  0.505290  0.557870  1.0  -0.0494
  C  C259  1  0.402200  0.402670  0.468380  1.0  0.027
  C  C260  1  0.332020  0.469080  0.469240  1.0  -0.074
  C  C261  1  0.236620  0.503750  0.509420  1.0  -0.1436
  C  C262  1  0.549350  0.045310  0.319740  1.0  -0.1495
  C  C263  1  0.267350  0.732790  0.807560  1.0  -0.132
  C  C264  1  0.320780  0.741490  0.863930  1.0  -0.0434
  C  C265  1  0.587660  0.087260  0.298880  1.0  -0.0523
  C  C266  1  0.463180  0.974590  0.202130  1.0  -0.1303
  C  C267  1  0.363590  0.807240  0.920970  1.0  -0.1203
  C  C268  1  0.255600  0.790300  0.807100  1.0  -0.0559
  C  C269  1  0.489510  0.989740  0.272850  1.0  -0.0304
  C  C270  1  0.576090  0.066910  0.398300  1.0  0.7437
  C  C271  1  0.421800  0.275660  0.470340  1.0  -0.0845
  C  C272  1  0.865100  0.296300  0.854500  1.0  -0.123
  C  C273  1  0.921690  0.351160  0.864550  1.0  0.0233
  C  C274  1  0.050880  0.426040  0.942480  1.0  -0.095
  C  C275  1  0.057850  0.478120  0.244390  1.0  -0.0367
  C  C276  1  0.973050  0.407120  0.993930  1.0  -0.121
  C  C277  1  0.983130  0.396490  0.935080  1.0  0.023
  C  C278  1  0.229150  0.562710  0.073040  1.0  -0.1482
  C  C279  1  0.180350  0.499060  0.018090  1.0  0.0174
  C  C280  1  0.106470  0.467650  0.007580  1.0  0.039
  C  C281  1  0.536950  0.340870  0.487380  1.0  -0.0799
  C  C282  1  0.952860  0.453540  0.122800  1.0  -0.0996
  C  C283  1  0.745170  0.219550  0.662380  1.0  0.6811
  C  C284  1  0.094460  0.478100  0.066440  1.0  -0.1208
  C  C285  1  0.015960  0.456330  0.123570  1.0  0.0732
  C  C286  1  0.027570  0.447140  0.060190  1.0  0.016
  C  C287  1  0.068590  0.469540  0.185170  1.0  -0.1231
  C  C288  1  0.529950  0.182390  0.516720  1.0  0.7425
  C  C289  1  0.942260  0.461820  0.181520  1.0  -0.0356
  C  C290  1  0.995280  0.475240  0.243060  1.0  -0.1329
  C  C291  1  0.982710  0.483620  0.306170  1.0  0.7457
  C  C292  1  0.441430  0.228260  0.486710  1.0  -0.0715
  C  C293  1  0.446180  0.380040  0.446700  1.0  -0.0084
  C  C294  1  0.557870  0.294120  0.505290  1.0  -0.0497
  C  C295  1  0.468380  0.402200  0.402670  1.0  0.0316
  C  C296  1  0.469240  0.332020  0.469080  1.0  -0.0757
  C  C297  1  0.509420  0.236620  0.503750  1.0  -0.143
  C  C298  1  0.319740  0.549350  0.045310  1.0  -0.1485
  C  C299  1  0.807560  0.267350  0.732790  1.0  -0.1323
  C  C300  1  0.863930  0.320780  0.741490  1.0  -0.0439
  C  C301  1  0.298880  0.587660  0.087260  1.0  -0.0556
  C  C302  1  0.202130  0.463180  0.974590  1.0  -0.1296
  C  C303  1  0.920970  0.363590  0.807240  1.0  -0.1218
  C  C304  1  0.807100  0.255600  0.790300  1.0  -0.0538
  C  C305  1  0.272850  0.489510  0.989740  1.0  -0.031
  C  C306  1  0.398300  0.576090  0.066910  1.0  0.7413
  C  C307  1  0.470340  0.421800  0.275660  1.0  -0.0861
  C  C308  1  0.854500  0.865100  0.296300  1.0  -0.1204
  C  C309  1  0.864550  0.921690  0.351160  1.0  0.027
  C  C310  1  0.942480  0.050880  0.426040  1.0  -0.0954
  C  C311  1  0.244390  0.057850  0.478120  1.0  -0.0379
  C  C312  1  0.993930  0.973050  0.407120  1.0  -0.1233
  C  C313  1  0.935080  0.983130  0.396490  1.0  0.0199
  C  C314  1  0.073040  0.229150  0.562710  1.0  -0.1495
  C  C315  1  0.018090  0.180350  0.499060  1.0  0.0168
  C  C316  1  0.007580  0.106470  0.467650  1.0  0.0397
  C  C317  1  0.487380  0.536950  0.340870  1.0  -0.0801
  C  C318  1  0.122800  0.952860  0.453540  1.0  -0.1005
  C  C319  1  0.662380  0.745170  0.219550  1.0  0.6776
  C  C320  1  0.066440  0.094460  0.478100  1.0  -0.1214
  C  C321  1  0.123570  0.015960  0.456330  1.0  0.0755
  C  C322  1  0.060190  0.027570  0.447140  1.0  0.0134
  C  C323  1  0.185170  0.068590  0.469540  1.0  -0.1339
  C  C324  1  0.516720  0.529950  0.182390  1.0  0.7468
  C  C325  1  0.181520  0.942260  0.461820  1.0  -0.0392
  C  C326  1  0.243060  0.995280  0.475240  1.0  -0.1342
  C  C327  1  0.306170  0.982710  0.483620  1.0  0.7403
  C  C328  1  0.486710  0.441430  0.228260  1.0  -0.0728
  C  C329  1  0.446700  0.446180  0.380040  1.0  -0.0079
  C  C330  1  0.505290  0.557870  0.294120  1.0  -0.0495
  C  C331  1  0.402670  0.468380  0.402200  1.0  0.0333
  C  C332  1  0.469080  0.469240  0.332020  1.0  -0.074
  C  C333  1  0.503750  0.509420  0.236620  1.0  -0.1457
  C  C334  1  0.045310  0.319740  0.549350  1.0  -0.1492
  C  C335  1  0.732790  0.807560  0.267350  1.0  -0.1327
  C  C336  1  0.741490  0.863930  0.320780  1.0  -0.04
  C  C337  1  0.087260  0.298880  0.587660  1.0  -0.0549
  C  C338  1  0.974590  0.202130  0.463180  1.0  -0.1313
  C  C339  1  0.807240  0.920970  0.363590  1.0  -0.1183
  C  C340  1  0.790300  0.807100  0.255600  1.0  -0.0539
  C  C341  1  0.989740  0.272850  0.489510  1.0  -0.0277
  C  C342  1  0.066910  0.398300  0.576090  1.0  0.7423
  O  O343  1  0.876560  0.505280  0.517920  1.0  -0.6191
  O  O344  1  0.494570  0.637430  0.965870  1.0  -0.6318
  O  O345  1  0.828910  0.340960  0.304370  1.0  -0.5516
  O  O346  1  0.771730  0.389430  0.255390  1.0  -0.5892
  O  O347  1  0.531350  0.703630  0.079160  1.0  -0.606
  O  O348  1  0.799400  0.453000  0.406340  1.0  -0.5788
  O  O349  1  0.949800  0.448340  0.432590  1.0  -0.8248
  O  O350  1  0.453970  0.978530  0.586500  1.0  -0.7023
  O  O351  1  0.377270  0.877820  0.559010  1.0  -0.5618
  O  O352  1  0.517920  0.876560  0.505280  1.0  -0.6192
  O  O353  1  0.965870  0.494570  0.637430  1.0  -0.6322
  O  O354  1  0.304370  0.828910  0.340960  1.0  -0.5508
  O  O355  1  0.255390  0.771730  0.389430  1.0  -0.585
  O  O356  1  0.079160  0.531350  0.703630  1.0  -0.6102
  O  O357  1  0.406340  0.799400  0.453000  1.0  -0.5774
  O  O358  1  0.432590  0.949800  0.448340  1.0  -0.8247
  O  O359  1  0.586500  0.453970  0.978530  1.0  -0.703
  O  O360  1  0.559010  0.377270  0.877820  1.0  -0.5635
  O  O361  1  0.505280  0.517920  0.876560  1.0  -0.6177
  O  O362  1  0.637430  0.965870  0.494570  1.0  -0.6315
  O  O363  1  0.340960  0.304370  0.828910  1.0  -0.5505
  O  O364  1  0.389430  0.255390  0.771730  1.0  -0.5904
  O  O365  1  0.703630  0.079160  0.531350  1.0  -0.6092
  O  O366  1  0.453000  0.406340  0.799400  1.0  -0.5792
  O  O367  1  0.448340  0.432590  0.949800  1.0  -0.8238
  O  O368  1  0.978530  0.586500  0.453970  1.0  -0.7022
  O  O369  1  0.877820  0.559010  0.377270  1.0  -0.5628
  O  O370  1  0.123440  0.494720  0.482080  1.0  -0.6188
  O  O371  1  0.505430  0.362570  0.034130  1.0  -0.6318
  O  O372  1  0.171090  0.659040  0.695630  1.0  -0.5515
  O  O373  1  0.228270  0.610570  0.744610  1.0  -0.5909
  O  O374  1  0.468650  0.296370  0.920840  1.0  -0.6054
  O  O375  1  0.200600  0.547000  0.593660  1.0  -0.5782
  O  O376  1  0.050200  0.551660  0.567410  1.0  -0.8252
  O  O377  1  0.546030  0.021470  0.413500  1.0  -0.701
  O  O378  1  0.622730  0.122180  0.440990  1.0  -0.5616
  O  O379  1  0.482080  0.123440  0.494720  1.0  -0.6204
  O  O380  1  0.034130  0.505430  0.362570  1.0  -0.6327
  O  O381  1  0.695630  0.171090  0.659040  1.0  -0.5494
  O  O382  1  0.744610  0.228270  0.610570  1.0  -0.5835
  O  O383  1  0.920840  0.468650  0.296370  1.0  -0.6091
  O  O384  1  0.593660  0.200600  0.547000  1.0  -0.5787
  O  O385  1  0.567410  0.050200  0.551660  1.0  -0.8233
  O  O386  1  0.413500  0.546030  0.021470  1.0  -0.7054
  O  O387  1  0.440990  0.622730  0.122180  1.0  -0.5638
  O  O388  1  0.494720  0.482080  0.123440  1.0  -0.6192
  O  O389  1  0.362570  0.034130  0.505430  1.0  -0.6332
  O  O390  1  0.659040  0.695630  0.171090  1.0  -0.5525
  O  O391  1  0.610570  0.744610  0.228270  1.0  -0.5899
  O  O392  1  0.296370  0.920840  0.468650  1.0  -0.61
  O  O393  1  0.547000  0.593660  0.200600  1.0  -0.5769
  O  O394  1  0.551660  0.567410  0.050200  1.0  -0.8257
  O  O395  1  0.021470  0.413500  0.546030  1.0  -0.7029
  O  O396  1  0.122180  0.440990  0.622730  1.0  -0.5651
