# generated using pymatgen
data_Co6P8H3O32
_symmetry_space_group_name_H-M   'P 1'
_cell_length_a   31.95000000
_cell_length_b   8.35960000
_cell_length_c   15.91950000
_cell_angle_alpha   90.00000000
_cell_angle_beta   96.64500000
_cell_angle_gamma   90.00000000
_symmetry_Int_Tables_number   1
_chemical_formula_structural   Co6P8H3O32
_chemical_formula_sum   'Co24 P32 H12 O128'
_cell_volume   4223.36319181
_cell_formula_units_Z   4
loop_
 _symmetry_equiv_pos_site_id
 _symmetry_equiv_pos_as_xyz
  1  'x, y, z'
loop_
 _atom_site_type_symbol
 _atom_site_label
 _atom_site_symmetry_multiplicity
 _atom_site_fract_x
 _atom_site_fract_y
 _atom_site_fract_z
 _atom_site_occupancy
 _atom_site_charge
  Co  Co1  1  0.128230  0.719060  0.059460  1.0  1.0018
  Co  Co2  1  0.371630  0.208070  0.910450  1.0  0.9559
  Co  Co3  1  0.249500  0.505050  0.108840  1.0  1.1296
  Co  Co4  1  0.246470  0.486260  0.366720  1.0  1.1306
  Co  Co5  1  0.507740  0.261920  0.988540  1.0  1.0104
  Co  Co6  1  0.993640  0.758790  0.013600  1.0  1.0725
  Co  Co7  1  0.871770  0.219060  0.440540  1.0  1.0016
  Co  Co8  1  0.628370  0.708070  0.589550  1.0  0.958
  Co  Co9  1  0.750500  0.005050  0.391160  1.0  1.1324
  Co  Co10  1  0.753530  0.986260  0.133280  1.0  1.1297
  Co  Co11  1  0.492260  0.761920  0.511460  1.0  1.0114
  Co  Co12  1  0.006360  0.258790  0.486400  1.0  1.071
  Co  Co13  1  0.871770  0.280940  0.940540  1.0  1.0016
  Co  Co14  1  0.628370  0.791930  0.089550  1.0  0.958
  Co  Co15  1  0.750500  0.494950  0.891160  1.0  1.1323
  Co  Co16  1  0.753530  0.513740  0.633280  1.0  1.1296
  Co  Co17  1  0.492260  0.738080  0.011460  1.0  1.0114
  Co  Co18  1  0.006360  0.241210  0.986400  1.0  1.0711
  Co  Co19  1  0.128230  0.780940  0.559460  1.0  1.0017
  Co  Co20  1  0.371630  0.291930  0.410450  1.0  0.9559
  Co  Co21  1  0.249500  0.994950  0.608840  1.0  1.1294
  Co  Co22  1  0.246470  0.013740  0.866720  1.0  1.1306
  Co  Co23  1  0.507740  0.238080  0.488540  1.0  1.0104
  Co  Co24  1  0.993640  0.741210  0.513600  1.0  1.0725
  P  P25  1  0.169330  0.468000  0.205450  1.0  1.737
  P  P26  1  0.219040  0.792900  0.990270  1.0  1.7318
  P  P27  1  0.063800  0.982700  0.109750  1.0  1.8116
  P  P28  1  0.281700  0.344900  0.941570  1.0  1.7901
  P  P29  1  0.435210  0.037100  0.059960  1.0  1.8487
  P  P30  1  0.056360  0.554800  0.919350  1.0  1.7334
  P  P31  1  0.442750  0.481000  0.871120  1.0  1.729
  P  P32  1  0.325500  0.529900  0.276850  1.0  1.7535
  P  P33  1  0.830670  0.968000  0.294550  1.0  1.7385
  P  P34  1  0.780960  0.292900  0.509730  1.0  1.7315
  P  P35  1  0.936200  0.482700  0.390250  1.0  1.8094
  P  P36  1  0.718300  0.844900  0.558430  1.0  1.7906
  P  P37  1  0.564790  0.537100  0.440040  1.0  1.8483
  P  P38  1  0.943640  0.054800  0.580650  1.0  1.7324
  P  P39  1  0.557250  0.981000  0.628880  1.0  1.7297
  P  P40  1  0.674500  0.029900  0.223150  1.0  1.754
  P  P41  1  0.830670  0.532000  0.794550  1.0  1.7375
  P  P42  1  0.780960  0.207100  0.009730  1.0  1.7315
  P  P43  1  0.936200  0.017300  0.890250  1.0  1.8089
  P  P44  1  0.718300  0.655100  0.058430  1.0  1.7897
  P  P45  1  0.564790  0.962900  0.940040  1.0  1.8489
  P  P46  1  0.943640  0.445200  0.080650  1.0  1.7351
  P  P47  1  0.557250  0.519000  0.128880  1.0  1.7299
  P  P48  1  0.674500  0.470100  0.723150  1.0  1.7543
  P  P49  1  0.169330  0.032000  0.705450  1.0  1.7363
  P  P50  1  0.219040  0.707100  0.490270  1.0  1.7318
  P  P51  1  0.063800  0.517300  0.609750  1.0  1.8111
  P  P52  1  0.281700  0.155100  0.441570  1.0  1.7888
  P  P53  1  0.435210  0.462900  0.559960  1.0  1.8493
  P  P54  1  0.056360  0.945200  0.419350  1.0  1.7359
  P  P55  1  0.442750  0.019000  0.371120  1.0  1.7292
  P  P56  1  0.325500  0.970100  0.776850  1.0  1.7542
  H  H57  1  0.068100  0.006200  0.235500  1.0  0.4606
  H  H58  1  0.303900  0.506200  0.864800  1.0  0.5232
  H  H59  1  0.425400  0.064900  0.180900  1.0  0.4576
  H  H60  1  0.931900  0.506200  0.264500  1.0  0.4579
  H  H61  1  0.696100  0.006200  0.635200  1.0  0.524
  H  H62  1  0.574600  0.564900  0.319100  1.0  0.4578
  H  H63  1  0.931900  0.993800  0.764500  1.0  0.4579
  H  H64  1  0.696100  0.493800  0.135200  1.0  0.524
  H  H65  1  0.574600  0.935100  0.819100  1.0  0.458
  H  H66  1  0.068100  0.493800  0.735500  1.0  0.4602
  H  H67  1  0.303900  0.993800  0.364800  1.0  0.5234
  H  H68  1  0.425400  0.435100  0.680900  1.0  0.4582
  O  O69  1  0.171400  0.769100  0.988100  1.0  -0.7081
  O  O70  1  0.148900  0.624300  0.168600  1.0  -0.7264
  O  O71  1  0.085390  0.577200  0.002500  1.0  -0.7675
  O  O72  1  0.109200  0.929000  0.104000  1.0  -0.6555
  O  O73  1  0.405200  0.047300  0.979300  1.0  -0.7472
  O  O74  1  0.324480  0.270100  0.972100  1.0  -0.6859
  O  O75  1  0.399960  0.411400  0.885300  1.0  -0.7369
  O  O76  1  0.353300  0.382400  0.298100  1.0  -0.6763
  O  O77  1  0.295200  0.491400  0.198900  1.0  -0.7805
  O  O78  1  0.254800  0.362700  0.013300  1.0  -0.7328
  O  O79  1  0.199030  0.398500  0.144000  1.0  -0.6635
  O  O80  1  0.243600  0.725700  0.070800  1.0  -0.6983
  O  O81  1  0.258000  0.248500  0.868300  1.0  -0.6561
  O  O82  1  0.302000  0.578600  0.351300  1.0  -0.6776
  O  O83  1  0.194500  0.510700  0.289400  1.0  -0.7629
  O  O84  1  0.229000  0.972500  0.981900  1.0  -0.6557
  O  O85  1  0.478100  0.354900  0.885900  1.0  -0.6901
  O  O86  1  0.470400  0.164000  0.063800  1.0  -0.7567
  O  O87  1  0.453800  0.868600  0.072300  1.0  -0.6746
  O  O88  1  0.451700  0.624700  0.931000  1.0  -0.7505
  O  O89  1  0.019000  0.673200  0.917100  1.0  -0.6985
  O  O90  1  0.051100  0.107400  0.042000  1.0  -0.8024
  O  O91  1  0.034400  0.837300  0.105200  1.0  -0.7027
  O  O92  1  0.038700  0.381600  0.917000  1.0  -0.7135
  O  O93  1  0.135700  0.342400  0.214500  1.0  -0.4888
  O  O94  1  0.232500  0.713500  0.909600  1.0  -0.7279
  O  O95  1  0.061500  0.069200  0.196700  1.0  -0.6063
  O  O96  1  0.289300  0.515100  0.903700  1.0  -0.5537
  O  O97  1  0.409500  0.070000  0.136600  1.0  -0.5919
  O  O98  1  0.079500  0.577400  0.842100  1.0  -0.6064
  O  O99  1  0.442000  0.540900  0.779500  1.0  -0.6744
  O  O100  1  0.354000  0.674800  0.260200  1.0  -0.5103
  O  O101  1  0.828600  0.269100  0.511900  1.0  -0.7085
  O  O102  1  0.851100  0.124300  0.331400  1.0  -0.7253
  O  O103  1  0.914610  0.077200  0.497500  1.0  -0.7682
  O  O104  1  0.890800  0.429000  0.396000  1.0  -0.6527
  O  O105  1  0.594800  0.547300  0.520700  1.0  -0.7465
  O  O106  1  0.675520  0.770100  0.527900  1.0  -0.6875
  O  O107  1  0.600040  0.911400  0.614700  1.0  -0.7373
  O  O108  1  0.646700  0.882400  0.201900  1.0  -0.6753
  O  O109  1  0.704800  0.991400  0.301100  1.0  -0.778
  O  O110  1  0.745200  0.862700  0.486700  1.0  -0.7316
  O  O111  1  0.800970  0.898500  0.356000  1.0  -0.6644
  O  O112  1  0.756400  0.225700  0.429200  1.0  -0.6973
  O  O113  1  0.742000  0.748500  0.631700  1.0  -0.6572
  O  O114  1  0.698000  0.078600  0.148700  1.0  -0.6767
  O  O115  1  0.805500  0.010700  0.210600  1.0  -0.761
  O  O116  1  0.771000  0.472500  0.518100  1.0  -0.6564
  O  O117  1  0.521900  0.854900  0.614100  1.0  -0.6888
  O  O118  1  0.529600  0.664000  0.436200  1.0  -0.7577
  O  O119  1  0.546200  0.368600  0.427700  1.0  -0.6773
  O  O120  1  0.548300  0.124700  0.569000  1.0  -0.7495
  O  O121  1  0.981000  0.173200  0.582900  1.0  -0.697
  O  O122  1  0.948900  0.607400  0.458000  1.0  -0.8024
  O  O123  1  0.965600  0.337300  0.394800  1.0  -0.7036
  O  O124  1  0.961300  0.881600  0.583000  1.0  -0.7132
  O  O125  1  0.864300  0.842400  0.285500  1.0  -0.4887
  O  O126  1  0.767500  0.213500  0.590400  1.0  -0.7295
  O  O127  1  0.938500  0.569200  0.303300  1.0  -0.604
  O  O128  1  0.710700  0.015100  0.596300  1.0  -0.5568
  O  O129  1  0.590500  0.570000  0.363400  1.0  -0.5897
  O  O130  1  0.920500  0.077400  0.657900  1.0  -0.6064
  O  O131  1  0.558000  0.040900  0.720500  1.0  -0.6752
  O  O132  1  0.646000  0.174800  0.239800  1.0  -0.5103
  O  O133  1  0.828600  0.230900  0.011900  1.0  -0.7087
  O  O134  1  0.851100  0.375700  0.831400  1.0  -0.7249
  O  O135  1  0.914610  0.422800  0.997500  1.0  -0.7677
  O  O136  1  0.890800  0.071000  0.896000  1.0  -0.6526
  O  O137  1  0.594800  0.952700  0.020700  1.0  -0.746
  O  O138  1  0.675520  0.729900  0.027900  1.0  -0.6874
  O  O139  1  0.600040  0.588600  0.114700  1.0  -0.7376
  O  O140  1  0.646700  0.617600  0.701900  1.0  -0.6762
  O  O141  1  0.704800  0.508600  0.801100  1.0  -0.7781
  O  O142  1  0.745200  0.637300  0.986700  1.0  -0.7317
  O  O143  1  0.800970  0.601500  0.856000  1.0  -0.6642
  O  O144  1  0.756400  0.274300  0.929200  1.0  -0.6975
  O  O145  1  0.742000  0.751500  0.131700  1.0  -0.6571
  O  O146  1  0.698000  0.421400  0.648700  1.0  -0.6778
  O  O147  1  0.805500  0.489300  0.710600  1.0  -0.7609
  O  O148  1  0.771000  0.027500  0.018100  1.0  -0.6564
  O  O149  1  0.521900  0.645100  0.114100  1.0  -0.6885
  O  O150  1  0.529600  0.836000  0.936200  1.0  -0.7578
  O  O151  1  0.546200  0.131400  0.927700  1.0  -0.6761
  O  O152  1  0.548300  0.375300  0.069000  1.0  -0.7484
  O  O153  1  0.981000  0.326800  0.082900  1.0  -0.6982
  O  O154  1  0.948900  0.892600  0.958000  1.0  -0.8028
  O  O155  1  0.965600  0.162700  0.894800  1.0  -0.7024
  O  O156  1  0.961300  0.618400  0.083000  1.0  -0.7143
  O  O157  1  0.864300  0.657600  0.785500  1.0  -0.487
  O  O158  1  0.767500  0.286500  0.090400  1.0  -0.7294
  O  O159  1  0.938500  0.930800  0.803300  1.0  -0.6053
  O  O160  1  0.710700  0.484900  0.096300  1.0  -0.5567
  O  O161  1  0.590500  0.930000  0.863400  1.0  -0.5891
  O  O162  1  0.920500  0.422600  0.157900  1.0  -0.6067
  O  O163  1  0.558000  0.459100  0.220500  1.0  -0.6792
  O  O164  1  0.646000  0.325200  0.739800  1.0  -0.5093
  O  O165  1  0.171400  0.730900  0.488100  1.0  -0.7085
  O  O166  1  0.148900  0.875700  0.668600  1.0  -0.7258
  O  O167  1  0.085390  0.922800  0.502500  1.0  -0.7674
  O  O168  1  0.109200  0.571000  0.604000  1.0  -0.6555
  O  O169  1  0.405200  0.452700  0.479300  1.0  -0.7467
  O  O170  1  0.324480  0.229900  0.472100  1.0  -0.686
  O  O171  1  0.399960  0.088600  0.385300  1.0  -0.7372
  O  O172  1  0.353300  0.117600  0.798100  1.0  -0.6769
  O  O173  1  0.295200  0.008600  0.698900  1.0  -0.7802
  O  O174  1  0.254800  0.137300  0.513300  1.0  -0.7334
  O  O175  1  0.199030  0.101500  0.644000  1.0  -0.6642
  O  O176  1  0.243600  0.774300  0.570800  1.0  -0.6979
  O  O177  1  0.258000  0.251500  0.368300  1.0  -0.6563
  O  O178  1  0.302000  0.921400  0.851300  1.0  -0.6787
  O  O179  1  0.194500  0.989300  0.789400  1.0  -0.7627
  O  O180  1  0.229000  0.527500  0.481900  1.0  -0.6564
  O  O181  1  0.478100  0.145100  0.385900  1.0  -0.6895
  O  O182  1  0.470400  0.336000  0.563800  1.0  -0.7568
  O  O183  1  0.453800  0.631400  0.572300  1.0  -0.6736
  O  O184  1  0.451700  0.875300  0.431000  1.0  -0.7493
  O  O185  1  0.019000  0.826800  0.417100  1.0  -0.6997
  O  O186  1  0.051100  0.392600  0.542000  1.0  -0.803
  O  O187  1  0.034400  0.662700  0.605200  1.0  -0.7023
  O  O188  1  0.038700  0.118400  0.417000  1.0  -0.7144
  O  O189  1  0.135700  0.157600  0.714500  1.0  -0.4869
  O  O190  1  0.232500  0.786500  0.409600  1.0  -0.7275
  O  O191  1  0.061500  0.430800  0.696700  1.0  -0.6071
  O  O192  1  0.289300  0.984900  0.403700  1.0  -0.5544
  O  O193  1  0.409500  0.430000  0.636600  1.0  -0.5918
  O  O194  1  0.079500  0.922600  0.342100  1.0  -0.6071
  O  O195  1  0.442000  0.959100  0.279500  1.0  -0.6781
  O  O196  1  0.354000  0.825200  0.760200  1.0  -0.5093
