# generated using pymatgen
data_BaCoH4(C3O4)2
_symmetry_space_group_name_H-M   'P 1'
_cell_length_a   6.78300000
_cell_length_b   18.97400000
_cell_length_c   9.39400000
_cell_angle_alpha   90.00000000
_cell_angle_beta   90.00000000
_cell_angle_gamma   90.00000000
_symmetry_Int_Tables_number   1
_chemical_formula_structural   BaCoH4(C3O4)2
_chemical_formula_sum   'Ba4 Co4 H16 C24 O32'
_cell_volume   1209.01383095
_cell_formula_units_Z   4
loop_
 _symmetry_equiv_pos_site_id
 _symmetry_equiv_pos_as_xyz
  1  'x, y, z'
loop_
 _atom_site_type_symbol
 _atom_site_label
 _atom_site_symmetry_multiplicity
 _atom_site_fract_x
 _atom_site_fract_y
 _atom_site_fract_z
 _atom_site_occupancy
 _atom_site_charge
  Ba  Ba1  1  0.750000  0.750000  0.972940  1.0  1.7184
  Ba  Ba2  1  0.250000  0.250000  0.527060  1.0  1.7185
  Ba  Ba3  1  0.250000  0.250000  0.027060  1.0  1.7185
  Ba  Ba4  1  0.750000  0.750000  0.472940  1.0  1.7184
  Co  Co5  1  0.500000  0.500000  0.000000  1.0  1.1712
  Co  Co6  1  0.000000  0.000000  0.000000  1.0  1.1712
  Co  Co7  1  0.000000  0.500000  0.500000  1.0  1.1712
  Co  Co8  1  0.500000  0.000000  0.500000  1.0  1.1712
  H  H9  1  0.645400  0.584500  0.400100  1.0  0.1431
  H  H10  1  0.436200  0.569700  0.338000  1.0  0.1872
  H  H11  1  0.854600  0.915500  0.400100  1.0  0.1443
  H  H12  1  0.063800  0.930300  0.338000  1.0  0.189
  H  H13  1  0.145400  0.415500  0.099900  1.0  0.1442
  H  H14  1  0.936200  0.430300  0.162000  1.0  0.1877
  H  H15  1  0.354600  0.084500  0.099900  1.0  0.1443
  H  H16  1  0.563800  0.069700  0.162000  1.0  0.1878
  H  H17  1  0.354600  0.415500  0.599900  1.0  0.1439
  H  H18  1  0.563800  0.430300  0.662000  1.0  0.1883
  H  H19  1  0.145400  0.084500  0.599900  1.0  0.1441
  H  H20  1  0.936200  0.069700  0.662000  1.0  0.1873
  H  H21  1  0.854600  0.584500  0.900100  1.0  0.1431
  H  H22  1  0.063800  0.569700  0.838000  1.0  0.1884
  H  H23  1  0.645400  0.915500  0.900100  1.0  0.1448
  H  H24  1  0.436200  0.930300  0.838000  1.0  0.1878
  C  C25  1  0.618700  0.615700  0.194500  1.0  0.8413
  C  C26  1  0.576000  0.566500  0.317400  1.0  -0.5835
  C  C27  1  0.626700  0.489700  0.303200  1.0  0.7934
  C  C28  1  0.881300  0.884300  0.194500  1.0  0.8414
  C  C29  1  0.924000  0.933500  0.317400  1.0  -0.5833
  C  C30  1  0.873300  0.010300  0.303200  1.0  0.7939
  C  C31  1  0.118700  0.384300  0.305500  1.0  0.8409
  C  C32  1  0.076000  0.433500  0.182600  1.0  -0.582
  C  C33  1  0.126700  0.510300  0.196800  1.0  0.7938
  C  C34  1  0.381300  0.115700  0.305500  1.0  0.8405
  C  C35  1  0.424000  0.066500  0.182600  1.0  -0.5812
  C  C36  1  0.373300  0.989700  0.196800  1.0  0.7935
  C  C37  1  0.381300  0.384300  0.805500  1.0  0.8405
  C  C38  1  0.424000  0.433500  0.682600  1.0  -0.581
  C  C39  1  0.373300  0.510300  0.696800  1.0  0.794
  C  C40  1  0.118700  0.115700  0.805500  1.0  0.8397
  C  C41  1  0.076000  0.066500  0.682600  1.0  -0.5823
  C  C42  1  0.126700  0.989700  0.696800  1.0  0.7934
  C  C43  1  0.881300  0.615700  0.694500  1.0  0.8417
  C  C44  1  0.924000  0.566500  0.817400  1.0  -0.5821
  C  C45  1  0.873300  0.489700  0.803200  1.0  0.7935
  C  C46  1  0.618700  0.884300  0.694500  1.0  0.842
  C  C47  1  0.576000  0.933500  0.817400  1.0  -0.5846
  C  C48  1  0.626700  0.010300  0.803200  1.0  0.7936
  O  O49  1  0.615700  0.593680  0.066200  1.0  -0.7001
  O  O50  1  0.650800  0.678840  0.223300  1.0  -0.8273
  O  O51  1  0.571400  0.455850  0.193800  1.0  -0.6535
  O  O52  1  0.719700  0.460840  0.402200  1.0  -0.6483
  O  O53  1  0.884300  0.906320  0.066200  1.0  -0.7009
  O  O54  1  0.849200  0.821160  0.223300  1.0  -0.8269
  O  O55  1  0.928600  0.044150  0.193800  1.0  -0.6552
  O  O56  1  0.780300  0.039160  0.402200  1.0  -0.6474
  O  O57  1  0.115700  0.406320  0.433800  1.0  -0.7007
  O  O58  1  0.150800  0.321160  0.276700  1.0  -0.8262
  O  O59  1  0.071400  0.544150  0.306200  1.0  -0.6542
  O  O60  1  0.219700  0.539160  0.097800  1.0  -0.6478
  O  O61  1  0.384300  0.093680  0.433800  1.0  -0.699
  O  O62  1  0.349200  0.178840  0.276700  1.0  -0.8275
  O  O63  1  0.428600  0.955850  0.306200  1.0  -0.6539
  O  O64  1  0.280300  0.960840  0.097800  1.0  -0.6485
  O  O65  1  0.384300  0.406320  0.933800  1.0  -0.7012
  O  O66  1  0.349200  0.321160  0.776700  1.0  -0.8272
  O  O67  1  0.428600  0.544150  0.806200  1.0  -0.6546
  O  O68  1  0.280300  0.539160  0.597800  1.0  -0.6474
  O  O69  1  0.115700  0.093680  0.933800  1.0  -0.6985
  O  O70  1  0.150800  0.178840  0.776700  1.0  -0.8251
  O  O71  1  0.071400  0.955850  0.806200  1.0  -0.6528
  O  O72  1  0.219700  0.960840  0.597800  1.0  -0.6486
  O  O73  1  0.884300  0.593680  0.566200  1.0  -0.7005
  O  O74  1  0.849200  0.678840  0.723300  1.0  -0.8278
  O  O75  1  0.928600  0.455850  0.693800  1.0  -0.6544
  O  O76  1  0.780300  0.460840  0.902200  1.0  -0.6483
  O  O77  1  0.615700  0.906320  0.566200  1.0  -0.7006
  O  O78  1  0.650800  0.821160  0.723300  1.0  -0.8242
  O  O79  1  0.571400  0.044150  0.693800  1.0  -0.6542
  O  O80  1  0.719700  0.039160  0.902200  1.0  -0.6477
