# generated using pymatgen
data_ZnH13C24(NO2)2
_symmetry_space_group_name_H-M   'P 1'
_cell_length_a   16.93810000
_cell_length_b   16.93810000
_cell_length_c   32.59800000
_cell_angle_alpha   87.77340000
_cell_angle_beta   87.77340000
_cell_angle_gamma   70.32820000
_symmetry_Int_Tables_number   1
_chemical_formula_structural   ZnH13C24(NO2)2
_chemical_formula_sum   'Zn8 H104 C192 N16 O32'
_cell_volume   8796.55353054
_cell_formula_units_Z   8
loop_
 _symmetry_equiv_pos_site_id
 _symmetry_equiv_pos_as_xyz
  1  'x, y, z'
loop_
 _atom_site_type_symbol
 _atom_site_label
 _atom_site_symmetry_multiplicity
 _atom_site_fract_x
 _atom_site_fract_y
 _atom_site_fract_z
 _atom_site_occupancy
 _atom_site_charge
  Zn  Zn1  1  0.313590  0.855930  0.442890  1.0  0.844
  Zn  Zn2  1  0.851260  0.797060  0.194730  1.0  1.0517
  Zn  Zn3  1  0.855930  0.313590  0.942890  1.0  0.842
  Zn  Zn4  1  0.797060  0.851260  0.694730  1.0  1.051
  Zn  Zn5  1  0.144070  0.686410  0.057110  1.0  0.8421
  Zn  Zn6  1  0.202940  0.148740  0.305270  1.0  1.0508
  Zn  Zn7  1  0.686410  0.144070  0.557110  1.0  0.8448
  Zn  Zn8  1  0.148740  0.202940  0.805270  1.0  1.0524
  H  H9  1  0.292800  0.783200  0.292900  1.0  0.1102
  H  H10  1  0.434400  0.784200  0.296400  1.0  0.1159
  H  H11  1  0.625500  0.823700  0.417400  1.0  0.11
  H  H12  1  0.603900  0.846300  0.491300  1.0  0.1277
  H  H13  1  0.346200  0.886800  0.595300  1.0  0.1184
  H  H14  1  0.203100  0.885700  0.592600  1.0  0.1346
  H  H15  1  0.019000  0.839000  0.475600  1.0  0.1367
  H  H16  1  0.044000  0.808800  0.401600  1.0  0.122
  H  H17  1  0.078000  0.911800  0.321600  1.0  0.1046
  H  H18  1  0.996400  0.879600  0.273100  1.0  0.1142
  H  H19  1  0.126200  0.638600  0.286000  1.0  0.1075
  H  H20  1  0.205900  0.667700  0.335900  1.0  0.1301
  H  H21  1  0.998600  0.672400  0.204600  1.0  0.3796
  H  H22  1  0.505000  0.906200  0.312300  1.0  0.1005
  H  H23  1  0.614200  0.885400  0.265500  1.0  0.1292
  H  H24  1  0.742900  0.673100  0.322200  1.0  0.1188
  H  H25  1  0.629800  0.691800  0.368700  1.0  0.1116
  H  H26  1  0.707700  0.878100  0.236200  1.0  0.1985
  H  H27  1  0.439100  0.994700  0.560400  1.0  0.1173
  H  H28  1  0.517000  0.009800  0.616900  1.0  0.0863
  H  H29  1  0.647500  0.765500  0.613300  1.0  0.1065
  H  H30  1  0.568800  0.751400  0.559700  1.0  0.1188
  H  H31  1  0.024300  0.989100  0.538900  1.0  0.0883
  H  H32  1  0.917600  0.996000  0.585300  1.0  0.0935
  H  H33  1  0.019700  0.754500  0.611200  1.0  0.1022
  H  H34  1  0.126400  0.742600  0.561800  1.0  0.1333
  H  H35  1  0.783200  0.292800  0.792900  1.0  0.1095
  H  H36  1  0.784200  0.434400  0.796400  1.0  0.1133
  H  H37  1  0.823700  0.625500  0.917400  1.0  0.1111
  H  H38  1  0.846300  0.603900  0.991300  1.0  0.1305
  H  H39  1  0.886800  0.346200  0.095300  1.0  0.1181
  H  H40  1  0.885700  0.203100  0.092600  1.0  0.1351
  H  H41  1  0.839000  0.019000  0.975600  1.0  0.1372
  H  H42  1  0.808800  0.044000  0.901600  1.0  0.1219
  H  H43  1  0.911800  0.078000  0.821600  1.0  0.107
  H  H44  1  0.879600  0.996400  0.773100  1.0  0.1131
  H  H45  1  0.638600  0.126200  0.786000  1.0  0.1072
  H  H46  1  0.667700  0.205900  0.835900  1.0  0.1297
  H  H47  1  0.672400  0.998600  0.704600  1.0  0.3793
  H  H48  1  0.906200  0.505000  0.812300  1.0  0.0995
  H  H49  1  0.885400  0.614200  0.765500  1.0  0.13
  H  H50  1  0.673100  0.742900  0.822200  1.0  0.1192
  H  H51  1  0.691800  0.629800  0.868700  1.0  0.1125
  H  H52  1  0.878100  0.707700  0.736200  1.0  0.1968
  H  H53  1  0.994700  0.439100  0.060400  1.0  0.1181
  H  H54  1  0.009800  0.517000  0.116900  1.0  0.0858
  H  H55  1  0.765500  0.647500  0.113300  1.0  0.1069
  H  H56  1  0.751400  0.568800  0.059700  1.0  0.12
  H  H57  1  0.989100  0.024300  0.038900  1.0  0.0891
  H  H58  1  0.996000  0.917600  0.085300  1.0  0.0932
  H  H59  1  0.754500  0.019700  0.111200  1.0  0.1025
  H  H60  1  0.742600  0.126400  0.061800  1.0  0.133
  H  H61  1  0.216800  0.707200  0.207100  1.0  0.1093
  H  H62  1  0.215800  0.565600  0.203600  1.0  0.1132
  H  H63  1  0.176300  0.374500  0.082600  1.0  0.111
  H  H64  1  0.153700  0.396100  0.008700  1.0  0.1294
  H  H65  1  0.113200  0.653800  0.904700  1.0  0.1164
  H  H66  1  0.114300  0.796900  0.907400  1.0  0.1336
  H  H67  1  0.161000  0.981000  0.024400  1.0  0.1371
  H  H68  1  0.191200  0.956000  0.098400  1.0  0.1217
  H  H69  1  0.088200  0.922000  0.178400  1.0  0.1063
  H  H70  1  0.120400  0.003600  0.226900  1.0  0.1143
  H  H71  1  0.361400  0.873800  0.214000  1.0  0.1071
  H  H72  1  0.332300  0.794100  0.164100  1.0  0.129
  H  H73  1  0.327600  0.001400  0.295400  1.0  0.3796
  H  H74  1  0.093800  0.495000  0.187700  1.0  0.0995
  H  H75  1  0.114600  0.385800  0.234500  1.0  0.1306
  H  H76  1  0.326900  0.257100  0.177800  1.0  0.1192
  H  H77  1  0.308200  0.370200  0.131300  1.0  0.1125
  H  H78  1  0.121900  0.292300  0.263800  1.0  0.1959
  H  H79  1  0.005300  0.560900  0.939600  1.0  0.1172
  H  H80  1  0.990200  0.483000  0.883100  1.0  0.0861
  H  H81  1  0.234500  0.352500  0.886700  1.0  0.1069
  H  H82  1  0.248600  0.431200  0.940300  1.0  0.1193
  H  H83  1  0.010900  0.975700  0.961100  1.0  0.0892
  H  H84  1  0.004000  0.082400  0.914700  1.0  0.0936
  H  H85  1  0.245500  0.980300  0.888800  1.0  0.1024
  H  H86  1  0.257400  0.873600  0.938200  1.0  0.1322
  H  H87  1  0.707200  0.216800  0.707100  1.0  0.1104
  H  H88  1  0.565600  0.215800  0.703600  1.0  0.1162
  H  H89  1  0.374500  0.176300  0.582600  1.0  0.1111
  H  H90  1  0.396100  0.153700  0.508700  1.0  0.1277
  H  H91  1  0.653800  0.113200  0.404700  1.0  0.117
  H  H92  1  0.796900  0.114300  0.407400  1.0  0.134
  H  H93  1  0.981000  0.161000  0.524400  1.0  0.1364
  H  H94  1  0.956000  0.191200  0.598400  1.0  0.1208
  H  H95  1  0.922000  0.088200  0.678400  1.0  0.1052
  H  H96  1  0.003600  0.120400  0.726900  1.0  0.1136
  H  H97  1  0.873800  0.361400  0.714000  1.0  0.1076
  H  H98  1  0.794100  0.332300  0.664100  1.0  0.1323
  H  H99  1  0.001400  0.327600  0.795400  1.0  0.38
  H  H100  1  0.495000  0.093800  0.687700  1.0  0.1004
  H  H101  1  0.385800  0.114600  0.734500  1.0  0.1286
  H  H102  1  0.257100  0.326900  0.677800  1.0  0.1195
  H  H103  1  0.370200  0.308200  0.631300  1.0  0.1127
  H  H104  1  0.292300  0.121900  0.763800  1.0  0.1962
  H  H105  1  0.560900  0.005300  0.439600  1.0  0.1171
  H  H106  1  0.483000  0.990200  0.383100  1.0  0.0866
  H  H107  1  0.352500  0.234500  0.386700  1.0  0.1072
  H  H108  1  0.431200  0.248600  0.440300  1.0  0.1183
  H  H109  1  0.975700  0.010900  0.461100  1.0  0.0884
  H  H110  1  0.082400  0.004000  0.414700  1.0  0.0938
  H  H111  1  0.980300  0.245500  0.388800  1.0  0.1026
  H  H112  1  0.873600  0.257400  0.438200  1.0  0.1335
  C  C113  1  0.161360  0.823960  0.406800  1.0  0.1655
  C  C114  1  0.199010  0.810010  0.367840  1.0  -0.0721
  C  C115  1  0.279200  0.806800  0.356720  1.0  0.1928
  C  C116  1  0.318000  0.792000  0.316350  1.0  -0.1488
  C  C117  1  0.395600  0.792800  0.318200  1.0  -0.1647
  C  C118  1  0.409600  0.809200  0.360170  1.0  0.2027
  C  C119  1  0.484180  0.811980  0.374370  1.0  -0.0897
  C  C120  1  0.499960  0.822760  0.416440  1.0  0.0625
  C  C121  1  0.576550  0.828350  0.432580  1.0  -0.1586
  C  C122  1  0.564800  0.841400  0.473210  1.0  -0.1494
  C  C123  1  0.480530  0.846130  0.483060  1.0  0.149
  C  C124  1  0.441430  0.861430  0.522070  1.0  -0.0688
  C  C125  1  0.359770  0.866770  0.531810  1.0  0.2281
  C  C126  1  0.320400  0.879600  0.571770  1.0  -0.1132
  C  C127  1  0.241700  0.879500  0.570780  1.0  -0.1666
  C  C128  1  0.230030  0.867630  0.528180  1.0  0.2144
  C  C129  1  0.155860  0.859660  0.514080  1.0  -0.0801
  C  C130  1  0.141640  0.845440  0.473620  1.0  0.1688
  C  C131  1  0.067140  0.835540  0.459960  1.0  -0.1802
  C  C132  1  0.081060  0.820060  0.418860  1.0  -0.1509
  C  C133  1  0.145930  0.794930  0.334560  1.0  0.1015
  C  C134  1  0.087500  0.856100  0.315320  1.0  -0.1179
  C  C135  1  0.039800  0.836800  0.285260  1.0  -0.0208
  C  C136  1  0.056250  0.756650  0.273840  1.0  -0.1104
  C  C137  1  0.116300  0.693900  0.293100  1.0  -0.0199
  C  C138  1  0.163500  0.710900  0.323300  1.0  -0.1369
  C  C139  1  0.001000  0.741800  0.241360  1.0  0.6482
  C  C140  1  0.553700  0.801300  0.345130  1.0  0.0939
  C  C141  1  0.551900  0.858100  0.314600  1.0  -0.153
  C  C142  1  0.618400  0.846000  0.286740  1.0  -0.175
  C  C143  1  0.688760  0.779160  0.289530  1.0  -0.0662
  C  C144  1  0.694800  0.720000  0.319920  1.0  -0.0638
  C  C145  1  0.626400  0.731800  0.347820  1.0  -0.1392
  C  C146  1  0.764100  0.763700  0.259950  1.0  0.622
  C  C147  1  0.496920  0.869520  0.556220  1.0  0.0995
  C  C148  1  0.480500  0.948500  0.571610  1.0  -0.1165
  C  C149  1  0.528550  0.957750  0.605140  1.0  -0.0496
  C  C150  1  0.592800  0.888200  0.620070  1.0  -0.1008
  C  C151  1  0.605600  0.812600  0.603120  1.0  -0.0057
  C  C152  1  0.557900  0.803700  0.570940  1.0  -0.1468
  C  C153  1  0.643800  0.900800  0.653370  1.0  0.7002
  C  C154  1  0.085160  0.867560  0.544520  1.0  0.0533
  C  C155  1  0.023700  0.940300  0.552830  1.0  -0.1288
  C  C156  1  0.959900  0.944900  0.581150  1.0  -0.0675
  C  C157  1  0.958370  0.875970  0.603020  1.0  -0.1231
  C  C158  1  0.020300  0.801900  0.595980  1.0  -0.0379
  C  C159  1  0.085100  0.794100  0.566580  1.0  -0.1843
  C  C160  1  0.892200  0.877800  0.634550  1.0  0.6943
  C  C161  1  0.823960  0.161360  0.906800  1.0  0.1639
  C  C162  1  0.810010  0.199010  0.867840  1.0  -0.0714
  C  C163  1  0.806800  0.279200  0.856720  1.0  0.1928
  C  C164  1  0.792000  0.318000  0.816350  1.0  -0.1455
  C  C165  1  0.792800  0.395600  0.818200  1.0  -0.1607
  C  C166  1  0.809200  0.409600  0.860170  1.0  0.2052
  C  C167  1  0.811980  0.484180  0.874370  1.0  -0.0888
  C  C168  1  0.822760  0.499960  0.916440  1.0  0.0596
  C  C169  1  0.828350  0.576550  0.932580  1.0  -0.1593
  C  C170  1  0.841400  0.564800  0.973210  1.0  -0.1517
  C  C171  1  0.846130  0.480530  0.983060  1.0  0.1517
  C  C172  1  0.861430  0.441430  0.022070  1.0  -0.0685
  C  C173  1  0.866770  0.359770  0.031810  1.0  0.2296
  C  C174  1  0.879600  0.320400  0.071770  1.0  -0.1138
  C  C175  1  0.879500  0.241700  0.070780  1.0  -0.1651
  C  C176  1  0.867630  0.230030  0.028180  1.0  0.2136
  C  C177  1  0.859660  0.155860  0.014080  1.0  -0.079
  C  C178  1  0.845440  0.141640  0.973620  1.0  0.1686
  C  C179  1  0.835540  0.067140  0.959960  1.0  -0.1836
  C  C180  1  0.820060  0.081060  0.918860  1.0  -0.1528
  C  C181  1  0.794930  0.145930  0.834560  1.0  0.1019
  C  C182  1  0.856100  0.087500  0.815320  1.0  -0.1205
  C  C183  1  0.836800  0.039800  0.785260  1.0  -0.0215
  C  C184  1  0.756650  0.056250  0.773840  1.0  -0.1108
  C  C185  1  0.693900  0.116300  0.793100  1.0  -0.0158
  C  C186  1  0.710900  0.163500  0.823300  1.0  -0.1383
  C  C187  1  0.741800  0.001000  0.741360  1.0  0.6516
  C  C188  1  0.801300  0.553700  0.845130  1.0  0.0942
  C  C189  1  0.858100  0.551900  0.814600  1.0  -0.1526
  C  C190  1  0.846000  0.618400  0.786740  1.0  -0.1718
  C  C191  1  0.779160  0.688760  0.789530  1.0  -0.0663
  C  C192  1  0.720000  0.694800  0.819920  1.0  -0.0608
  C  C193  1  0.731800  0.626400  0.847820  1.0  -0.1419
  C  C194  1  0.763700  0.764100  0.759950  1.0  0.6209
  C  C195  1  0.869520  0.496920  0.056220  1.0  0.0982
  C  C196  1  0.948500  0.480500  0.071610  1.0  -0.1163
  C  C197  1  0.957750  0.528550  0.105140  1.0  -0.0484
  C  C198  1  0.888200  0.592800  0.120070  1.0  -0.1028
  C  C199  1  0.812600  0.605600  0.103120  1.0  -0.0019
  C  C200  1  0.803700  0.557900  0.070940  1.0  -0.1489
  C  C201  1  0.900800  0.643800  0.153370  1.0  0.7034
  C  C202  1  0.867560  0.085160  0.044520  1.0  0.0522
  C  C203  1  0.940300  0.023700  0.052830  1.0  -0.1301
  C  C204  1  0.944900  0.959900  0.081150  1.0  -0.0674
  C  C205  1  0.875970  0.958370  0.103020  1.0  -0.1191
  C  C206  1  0.801900  0.020300  0.095980  1.0  -0.0338
  C  C207  1  0.794100  0.085100  0.066580  1.0  -0.1917
  C  C208  1  0.877800  0.892200  0.134550  1.0  0.6975
  C  C209  1  0.176040  0.838640  0.093200  1.0  0.1662
  C  C210  1  0.189990  0.800990  0.132160  1.0  -0.0707
  C  C211  1  0.193200  0.720800  0.143280  1.0  0.196
  C  C212  1  0.208000  0.682000  0.183650  1.0  -0.1448
  C  C213  1  0.207200  0.604400  0.181800  1.0  -0.1598
  C  C214  1  0.190800  0.590400  0.139830  1.0  0.2063
  C  C215  1  0.188020  0.515820  0.125630  1.0  -0.087
  C  C216  1  0.177240  0.500040  0.083560  1.0  0.0611
  C  C217  1  0.171650  0.423450  0.067420  1.0  -0.1605
  C  C218  1  0.158600  0.435200  0.026790  1.0  -0.1525
  C  C219  1  0.153870  0.519470  0.016940  1.0  0.1501
  C  C220  1  0.138570  0.558570  0.977930  1.0  -0.0684
  C  C221  1  0.133230  0.640230  0.968190  1.0  0.2316
  C  C222  1  0.120400  0.679600  0.928230  1.0  -0.1123
  C  C223  1  0.120500  0.758300  0.929220  1.0  -0.1639
  C  C224  1  0.132370  0.769970  0.971820  1.0  0.2163
  C  C225  1  0.140340  0.844140  0.985920  1.0  -0.0796
  C  C226  1  0.154560  0.858360  0.026380  1.0  0.1678
  C  C227  1  0.164460  0.932860  0.040040  1.0  -0.1815
  C  C228  1  0.179940  0.918940  0.081140  1.0  -0.1518
  C  C229  1  0.205070  0.854070  0.165440  1.0  0.1016
  C  C230  1  0.143900  0.912500  0.184680  1.0  -0.1179
  C  C231  1  0.163200  0.960200  0.214740  1.0  -0.0215
  C  C232  1  0.243350  0.943750  0.226160  1.0  -0.1116
  C  C233  1  0.306100  0.883700  0.206900  1.0  -0.0147
  C  C234  1  0.289100  0.836500  0.176700  1.0  -0.1362
  C  C235  1  0.258200  0.999000  0.258640  1.0  0.6523
  C  C236  1  0.198700  0.446300  0.154870  1.0  0.0944
  C  C237  1  0.141900  0.448100  0.185400  1.0  -0.1534
  C  C238  1  0.154000  0.381600  0.213260  1.0  -0.1701
  C  C239  1  0.220840  0.311240  0.210470  1.0  -0.0662
  C  C240  1  0.280000  0.305200  0.180080  1.0  -0.063
  C  C241  1  0.268200  0.373600  0.152180  1.0  -0.138
  C  C242  1  0.236300  0.235900  0.240050  1.0  0.6219
  C  C243  1  0.130480  0.503080  0.943780  1.0  0.0991
  C  C244  1  0.051500  0.519500  0.928390  1.0  -0.1156
  C  C245  1  0.042250  0.471450  0.894860  1.0  -0.0483
  C  C246  1  0.111800  0.407200  0.879930  1.0  -0.1034
  C  C247  1  0.187400  0.394400  0.896880  1.0  -0.0028
  C  C248  1  0.196300  0.442100  0.929060  1.0  -0.1479
  C  C249  1  0.099200  0.356200  0.846630  1.0  0.7034
  C  C250  1  0.132440  0.914840  0.955480  1.0  0.0543
  C  C251  1  0.059700  0.976300  0.947170  1.0  -0.1298
  C  C252  1  0.055100  0.040100  0.918850  1.0  -0.0655
  C  C253  1  0.124030  0.041630  0.896980  1.0  -0.1215
  C  C254  1  0.198100  0.979700  0.904020  1.0  -0.0317
  C  C255  1  0.205900  0.914900  0.933420  1.0  -0.1866
  C  C256  1  0.122200  0.107800  0.865450  1.0  0.6958
  C  C257  1  0.838640  0.176040  0.593200  1.0  0.1654
  C  C258  1  0.800990  0.189990  0.632160  1.0  -0.0716
  C  C259  1  0.720800  0.193200  0.643280  1.0  0.1947
  C  C260  1  0.682000  0.208000  0.683650  1.0  -0.1477
  C  C261  1  0.604400  0.207200  0.681800  1.0  -0.1642
  C  C262  1  0.590400  0.190800  0.639830  1.0  0.2045
  C  C263  1  0.515820  0.188020  0.625630  1.0  -0.0886
  C  C264  1  0.500040  0.177240  0.583560  1.0  0.0617
  C  C265  1  0.423450  0.171650  0.567420  1.0  -0.1613
  C  C266  1  0.435200  0.158600  0.526790  1.0  -0.1522
  C  C267  1  0.519470  0.153870  0.516940  1.0  0.151
  C  C268  1  0.558570  0.138570  0.477930  1.0  -0.0687
  C  C269  1  0.640230  0.133230  0.468190  1.0  0.2304
  C  C270  1  0.679600  0.120400  0.428230  1.0  -0.113
  C  C271  1  0.758300  0.120500  0.429220  1.0  -0.164
  C  C272  1  0.769970  0.132370  0.471820  1.0  0.2132
  C  C273  1  0.844140  0.140340  0.485920  1.0  -0.0796
  C  C274  1  0.858360  0.154560  0.526380  1.0  0.1671
  C  C275  1  0.932860  0.164460  0.540040  1.0  -0.179
  C  C276  1  0.918940  0.179940  0.581140  1.0  -0.1508
  C  C277  1  0.854070  0.205070  0.665440  1.0  0.101
  C  C278  1  0.912500  0.143900  0.684680  1.0  -0.1178
  C  C279  1  0.960200  0.163200  0.714740  1.0  -0.0224
  C  C280  1  0.943750  0.243350  0.726160  1.0  -0.1117
  C  C281  1  0.883700  0.306100  0.706900  1.0  -0.0167
  C  C282  1  0.836500  0.289100  0.676700  1.0  -0.1384
  C  C283  1  0.999000  0.258200  0.758640  1.0  0.649
  C  C284  1  0.446300  0.198700  0.654870  1.0  0.0952
  C  C285  1  0.448100  0.141900  0.685400  1.0  -0.1525
  C  C286  1  0.381600  0.154000  0.713260  1.0  -0.1736
  C  C287  1  0.311240  0.220840  0.710470  1.0  -0.067
  C  C288  1  0.305200  0.280000  0.680080  1.0  -0.0622
  C  C289  1  0.373600  0.268200  0.652180  1.0  -0.1367
  C  C290  1  0.235900  0.236300  0.740050  1.0  0.6207
  C  C291  1  0.503080  0.130480  0.443780  1.0  0.0993
  C  C292  1  0.519500  0.051500  0.428390  1.0  -0.1149
  C  C293  1  0.471450  0.042250  0.394860  1.0  -0.049
  C  C294  1  0.407200  0.111800  0.379930  1.0  -0.1007
  C  C295  1  0.394400  0.187400  0.396880  1.0  -0.0031
  C  C296  1  0.442100  0.196300  0.429060  1.0  -0.1436
  C  C297  1  0.356200  0.099200  0.346630  1.0  0.7005
  C  C298  1  0.914840  0.132440  0.455480  1.0  0.0533
  C  C299  1  0.976300  0.059700  0.447170  1.0  -0.1296
  C  C300  1  0.040100  0.055100  0.418850  1.0  -0.0678
  C  C301  1  0.041630  0.124030  0.396980  1.0  -0.1228
  C  C302  1  0.979700  0.198100  0.404020  1.0  -0.0362
  C  C303  1  0.914900  0.205900  0.433420  1.0  -0.1852
  C  C304  1  0.107800  0.122200  0.365450  1.0  0.694
  N  N305  1  0.336560  0.818960  0.382930  1.0  -0.3988
  N  N306  1  0.440310  0.835310  0.448260  1.0  -0.4226
  N  N307  1  0.301270  0.860870  0.505470  1.0  -0.3712
  N  N308  1  0.200240  0.837040  0.441400  1.0  -0.4295
  N  N309  1  0.818960  0.336560  0.882930  1.0  -0.399
  N  N310  1  0.835310  0.440310  0.948260  1.0  -0.4198
  N  N311  1  0.860870  0.301270  0.005470  1.0  -0.3715
  N  N312  1  0.837040  0.200240  0.941400  1.0  -0.4265
  N  N313  1  0.181040  0.663440  0.117070  1.0  -0.3986
  N  N314  1  0.164690  0.559690  0.051740  1.0  -0.4195
  N  N315  1  0.139130  0.698730  0.994530  1.0  -0.3723
  N  N316  1  0.162960  0.799760  0.058600  1.0  -0.4243
  N  N317  1  0.663440  0.181040  0.617070  1.0  -0.3997
  N  N318  1  0.559690  0.164690  0.551740  1.0  -0.4246
  N  N319  1  0.698730  0.139130  0.494530  1.0  -0.3713
  N  N320  1  0.799760  0.162960  0.558600  1.0  -0.4309
  O  O321  1  0.020170  0.663770  0.232430  1.0  -0.5219
  O  O322  1  0.945200  0.801000  0.226270  1.0  -0.5541
  O  O323  1  0.826010  0.701210  0.261080  1.0  -0.4382
  O  O324  1  0.753720  0.827120  0.232400  1.0  -0.6379
  O  O325  1  0.707750  0.842150  0.661370  1.0  -0.5634
  O  O326  1  0.619700  0.969900  0.671020  1.0  -0.5764
  O  O327  1  0.901170  0.820970  0.660980  1.0  -0.5848
  O  O328  1  0.822780  0.939780  0.632400  1.0  -0.621
  O  O329  1  0.663770  0.020170  0.732430  1.0  -0.5222
  O  O330  1  0.801000  0.945200  0.726270  1.0  -0.555
  O  O331  1  0.701210  0.826010  0.761080  1.0  -0.4416
  O  O332  1  0.827120  0.753720  0.732400  1.0  -0.6364
  O  O333  1  0.842150  0.707750  0.161370  1.0  -0.5673
  O  O334  1  0.969900  0.619700  0.171020  1.0  -0.5762
  O  O335  1  0.820970  0.901170  0.160980  1.0  -0.5845
  O  O336  1  0.939780  0.822780  0.132400  1.0  -0.6198
  O  O337  1  0.336230  0.979830  0.267570  1.0  -0.523
  O  O338  1  0.199000  0.054800  0.273730  1.0  -0.5541
  O  O339  1  0.298790  0.173990  0.238920  1.0  -0.4423
  O  O340  1  0.172880  0.246280  0.267600  1.0  -0.638
  O  O341  1  0.157850  0.292250  0.838630  1.0  -0.5649
  O  O342  1  0.030100  0.380300  0.828980  1.0  -0.5768
  O  O343  1  0.179030  0.098830  0.839020  1.0  -0.5846
  O  O344  1  0.060220  0.177220  0.867600  1.0  -0.6201
  O  O345  1  0.979830  0.336230  0.767570  1.0  -0.5234
  O  O346  1  0.054800  0.199000  0.773730  1.0  -0.5548
  O  O347  1  0.173990  0.298790  0.738920  1.0  -0.4373
  O  O348  1  0.246280  0.172880  0.767600  1.0  -0.6375
  O  O349  1  0.292250  0.157850  0.338630  1.0  -0.5633
  O  O350  1  0.380300  0.030100  0.328980  1.0  -0.5774
  O  O351  1  0.098830  0.179030  0.339020  1.0  -0.5898
  O  O352  1  0.177220  0.060220  0.367600  1.0  -0.6169
