# generated using pymatgen
data_SrCo(CN)6
_symmetry_space_group_name_H-M   'P 1'
_cell_length_a   11.21700000
_cell_length_b   11.21700000
_cell_length_c   11.21700000
_cell_angle_alpha   90.00000000
_cell_angle_beta   90.00000000
_cell_angle_gamma   90.00000000
_symmetry_Int_Tables_number   1
_chemical_formula_structural   SrCo(CN)6
_chemical_formula_sum   'Sr4 Co4 C24 N24'
_cell_volume   1411.33515531
_cell_formula_units_Z   4
loop_
 _symmetry_equiv_pos_site_id
 _symmetry_equiv_pos_as_xyz
  1  'x, y, z'
loop_
 _atom_site_type_symbol
 _atom_site_label
 _atom_site_symmetry_multiplicity
 _atom_site_fract_x
 _atom_site_fract_y
 _atom_site_fract_z
 _atom_site_occupancy
 _atom_site_charge
  Sr  Sr1  1  0.500000  0.000000  0.000000  1.0  1.5429
  Sr  Sr2  1  0.500000  0.500000  0.500000  1.0  1.5429
  Sr  Sr3  1  0.000000  0.500000  0.000000  1.0  1.5429
  Sr  Sr4  1  0.000000  0.000000  0.500000  1.0  1.5429
  Co  Co5  1  0.500000  0.500000  0.000000  1.0  -0.2587
  Co  Co6  1  0.000000  0.500000  0.500000  1.0  -0.2587
  Co  Co7  1  0.500000  0.000000  0.500000  1.0  -0.2587
  Co  Co8  1  0.000000  0.000000  0.000000  1.0  -0.2587
  C  C9  1  0.500000  0.668500  0.000000  1.0  0.2176
  C  C10  1  0.500000  0.168500  0.500000  1.0  0.2176
  C  C11  1  0.500000  0.331500  0.000000  1.0  0.2197
  C  C12  1  0.500000  0.831500  0.500000  1.0  0.2169
  C  C13  1  0.000000  0.331500  0.500000  1.0  0.22
  C  C14  1  0.000000  0.168500  0.000000  1.0  0.2178
  C  C15  1  0.000000  0.500000  0.668500  1.0  0.2181
  C  C16  1  0.000000  0.000000  0.168500  1.0  0.2213
  C  C17  1  0.000000  0.500000  0.331500  1.0  0.221
  C  C18  1  0.000000  0.000000  0.831500  1.0  0.2178
  C  C19  1  0.500000  0.000000  0.331500  1.0  0.221
  C  C20  1  0.500000  0.500000  0.831500  1.0  0.2178
  C  C21  1  0.668500  0.000000  0.500000  1.0  0.2196
  C  C22  1  0.168500  0.000000  0.000000  1.0  0.2196
  C  C23  1  0.168500  0.500000  0.500000  1.0  0.2196
  C  C24  1  0.331500  0.000000  0.500000  1.0  0.22
  C  C25  1  0.831500  0.000000  0.000000  1.0  0.2172
  C  C26  1  0.668500  0.500000  0.000000  1.0  0.2196
  C  C27  1  0.331500  0.500000  0.000000  1.0  0.22
  C  C28  1  0.831500  0.500000  0.500000  1.0  0.2116
  C  C29  1  0.500000  0.000000  0.668500  1.0  0.2181
  C  C30  1  0.500000  0.500000  0.168500  1.0  0.2213
  C  C31  1  0.000000  0.668500  0.500000  1.0  0.2178
  C  C32  1  0.000000  0.831500  0.000000  1.0  0.2197
  N  N33  1  0.500000  0.769800  0.000000  1.0  -0.4346
  N  N34  1  0.500000  0.269800  0.500000  1.0  -0.4346
  N  N35  1  0.500000  0.230200  0.000000  1.0  -0.4339
  N  N36  1  0.500000  0.730200  0.500000  1.0  -0.4339
  N  N37  1  0.000000  0.230200  0.500000  1.0  -0.4339
  N  N38  1  0.000000  0.269800  0.000000  1.0  -0.4346
  N  N39  1  0.000000  0.500000  0.769800  1.0  -0.4337
  N  N40  1  0.000000  0.000000  0.269800  1.0  -0.4337
  N  N41  1  0.000000  0.500000  0.230200  1.0  -0.4329
  N  N42  1  0.000000  0.000000  0.730200  1.0  -0.4329
  N  N43  1  0.500000  0.000000  0.230200  1.0  -0.4329
  N  N44  1  0.500000  0.500000  0.730200  1.0  -0.4329
  N  N45  1  0.769800  0.000000  0.500000  1.0  -0.4314
  N  N46  1  0.269800  0.000000  0.000000  1.0  -0.4314
  N  N47  1  0.269800  0.500000  0.500000  1.0  -0.4314
  N  N48  1  0.230200  0.000000  0.500000  1.0  -0.4305
  N  N49  1  0.730200  0.000000  0.000000  1.0  -0.4305
  N  N50  1  0.769800  0.500000  0.000000  1.0  -0.4314
  N  N51  1  0.230200  0.500000  0.000000  1.0  -0.4305
  N  N52  1  0.730200  0.500000  0.500000  1.0  -0.4305
  N  N53  1  0.500000  0.000000  0.769800  1.0  -0.4337
  N  N54  1  0.500000  0.500000  0.269800  1.0  -0.4337
  N  N55  1  0.000000  0.769800  0.500000  1.0  -0.4346
  N  N56  1  0.000000  0.730200  0.000000  1.0  -0.4339
