# generated using pymatgen
data_SrCo(CN)6
_symmetry_space_group_name_H-M   'P 1'
_cell_length_a   7.87700000
_cell_length_b   15.69300000
_cell_length_c   11.20000000
_cell_angle_alpha   90.00000000
_cell_angle_beta   91.77000000
_cell_angle_gamma   90.00000000
_symmetry_Int_Tables_number   1
_chemical_formula_structural   SrCo(CN)6
_chemical_formula_sum   'Sr4 Co4 C24 N24'
_cell_volume   1383.81354905
_cell_formula_units_Z   4
loop_
 _symmetry_equiv_pos_site_id
 _symmetry_equiv_pos_as_xyz
  1  'x, y, z'
loop_
 _atom_site_type_symbol
 _atom_site_label
 _atom_site_symmetry_multiplicity
 _atom_site_fract_x
 _atom_site_fract_y
 _atom_site_fract_z
 _atom_site_occupancy
 _atom_site_charge
  Sr  Sr1  1  0.249040  0.404520  0.195870  1.0  1.6922
  Sr  Sr2  1  0.250960  0.904520  0.304130  1.0  1.693
  Sr  Sr3  1  0.750960  0.595480  0.804130  1.0  1.6931
  Sr  Sr4  1  0.749040  0.095480  0.695870  1.0  1.6924
  Co  Co5  1  0.748490  0.145790  0.199960  1.0  -0.2642
  Co  Co6  1  0.751510  0.645790  0.300040  1.0  -0.2652
  Co  Co7  1  0.251510  0.854210  0.800040  1.0  -0.2651
  Co  Co8  1  0.248490  0.354210  0.699960  1.0  -0.2641
  C  C9  1  0.601700  0.241750  0.199300  1.0  0.2404
  C  C10  1  0.757900  0.151320  0.369400  1.0  0.229
  C  C11  1  0.552000  0.075700  0.205500  1.0  0.2304
  C  C12  1  0.742000  0.140540  0.030400  1.0  0.2681
  C  C13  1  0.940400  0.219200  0.197800  1.0  0.2331
  C  C14  1  0.603000  0.550350  0.299100  1.0  0.2511
  C  C15  1  0.898300  0.741750  0.300700  1.0  0.2418
  C  C16  1  0.742100  0.651320  0.130600  1.0  0.2287
  C  C17  1  0.948000  0.575700  0.294500  1.0  0.2312
  C  C18  1  0.758000  0.640540  0.469600  1.0  0.2671
  C  C19  1  0.559600  0.719200  0.302200  1.0  0.2348
  C  C20  1  0.897000  0.050350  0.200900  1.0  0.2549
  C  C21  1  0.398300  0.758250  0.800700  1.0  0.2438
  C  C22  1  0.242100  0.848680  0.630600  1.0  0.2288
  C  C23  1  0.448000  0.924300  0.794500  1.0  0.231
  C  C24  1  0.258000  0.859460  0.969600  1.0  0.2671
  C  C25  1  0.059600  0.780800  0.802200  1.0  0.234
  C  C26  1  0.397000  0.449650  0.700900  1.0  0.2523
  C  C27  1  0.101700  0.258250  0.699300  1.0  0.2431
  C  C28  1  0.257900  0.348680  0.869400  1.0  0.2289
  C  C29  1  0.052000  0.424300  0.705500  1.0  0.2299
  C  C30  1  0.242000  0.359460  0.530400  1.0  0.2681
  C  C31  1  0.440400  0.280800  0.697800  1.0  0.2358
  C  C32  1  0.103000  0.949650  0.799100  1.0  0.2517
  N  N33  1  0.508300  0.297500  0.204200  1.0  -0.4352
  N  N34  1  0.762100  0.156720  0.471400  1.0  -0.5033
  N  N35  1  0.057400  0.262420  0.197200  1.0  -0.4645
  N  N36  1  0.744000  0.136450  0.928500  1.0  -0.4746
  N  N37  1  0.428800  0.036460  0.211700  1.0  -0.531
  N  N38  1  0.508700  0.494610  0.302900  1.0  -0.4752
  N  N39  1  0.991700  0.797500  0.295800  1.0  -0.4357
  N  N40  1  0.737900  0.656720  0.028600  1.0  -0.5033
  N  N41  1  0.442600  0.762420  0.302800  1.0  -0.4647
  N  N42  1  0.756000  0.636450  0.571500  1.0  -0.476
  N  N43  1  0.071200  0.536460  0.288300  1.0  -0.5323
  N  N44  1  0.991300  0.994610  0.197100  1.0  -0.4757
  N  N45  1  0.491700  0.702500  0.795800  1.0  -0.4286
  N  N46  1  0.237900  0.843280  0.528600  1.0  -0.5032
  N  N47  1  0.942600  0.737580  0.802800  1.0  -0.4633
  N  N48  1  0.256000  0.863550  0.071500  1.0  -0.4759
  N  N49  1  0.571200  0.963540  0.788300  1.0  -0.5328
  N  N50  1  0.491300  0.505390  0.697100  1.0  -0.4809
  N  N51  1  0.008300  0.202500  0.704200  1.0  -0.4288
  N  N52  1  0.262100  0.343280  0.971400  1.0  -0.5031
  N  N53  1  0.557400  0.237580  0.697200  1.0  -0.4632
  N  N54  1  0.244000  0.363550  0.428500  1.0  -0.4751
  N  N55  1  0.928800  0.463540  0.711700  1.0  -0.5315
  N  N56  1  0.008700  0.005390  0.802900  1.0  -0.4794
