# generated using pymatgen
data_SrCo(CN)6
_symmetry_space_group_name_H-M   'P 1'
_cell_length_a   7.71580000
_cell_length_b   16.21800000
_cell_length_c   11.26600000
_cell_angle_alpha   90.00000000
_cell_angle_beta   90.72000000
_cell_angle_gamma   90.00000000
_symmetry_Int_Tables_number   1
_chemical_formula_structural   SrCo(CN)6
_chemical_formula_sum   'Sr4 Co4 C24 N24'
_cell_volume   1409.65784756
_cell_formula_units_Z   4
loop_
 _symmetry_equiv_pos_site_id
 _symmetry_equiv_pos_as_xyz
  1  'x, y, z'
loop_
 _atom_site_type_symbol
 _atom_site_label
 _atom_site_symmetry_multiplicity
 _atom_site_fract_x
 _atom_site_fract_y
 _atom_site_fract_z
 _atom_site_occupancy
 _atom_site_charge
  Sr  Sr1  1  0.247720  0.400850  0.197840  1.0  1.6688
  Sr  Sr2  1  0.252280  0.900850  0.302160  1.0  1.6697
  Sr  Sr3  1  0.752280  0.599150  0.802160  1.0  1.67
  Sr  Sr4  1  0.747720  0.099150  0.697840  1.0  1.6691
  Co  Co5  1  0.748000  0.143660  0.203260  1.0  -0.3094
  Co  Co6  1  0.752000  0.643660  0.296740  1.0  -0.3093
  Co  Co7  1  0.252000  0.856340  0.796740  1.0  -0.3094
  Co  Co8  1  0.248000  0.356340  0.703260  1.0  -0.3094
  C  C9  1  0.601700  0.550800  0.291500  1.0  0.258
  C  C10  1  0.551900  0.072900  0.207800  1.0  0.2544
  C  C11  1  0.746600  0.137400  0.033600  1.0  0.2908
  C  C12  1  0.941100  0.216100  0.202700  1.0  0.2479
  C  C13  1  0.752000  0.149800  0.370300  1.0  0.2697
  C  C14  1  0.597000  0.236300  0.199300  1.0  0.2562
  C  C15  1  0.898300  0.050800  0.208500  1.0  0.2584
  C  C16  1  0.948100  0.572900  0.292200  1.0  0.2553
  C  C17  1  0.753400  0.637400  0.466400  1.0  0.2894
  C  C18  1  0.558900  0.716100  0.297300  1.0  0.2468
  C  C19  1  0.748000  0.649800  0.129700  1.0  0.2683
  C  C20  1  0.903000  0.736300  0.300700  1.0  0.2556
  C  C21  1  0.398300  0.449200  0.708500  1.0  0.2572
  C  C22  1  0.448100  0.927100  0.792200  1.0  0.2538
  C  C23  1  0.253400  0.862600  0.966400  1.0  0.2895
  C  C24  1  0.058900  0.783900  0.797300  1.0  0.2485
  C  C25  1  0.248000  0.850200  0.629700  1.0  0.2683
  C  C26  1  0.403000  0.763700  0.800700  1.0  0.2566
  C  C27  1  0.101700  0.949200  0.791500  1.0  0.2573
  C  C28  1  0.051900  0.427100  0.707800  1.0  0.2533
  C  C29  1  0.246600  0.362600  0.533600  1.0  0.2907
  C  C30  1  0.441100  0.283900  0.702700  1.0  0.2472
  C  C31  1  0.252000  0.350200  0.870300  1.0  0.2698
  C  C32  1  0.097000  0.263700  0.699300  1.0  0.257
  N  N33  1  0.510200  0.495200  0.288700  1.0  -0.5135
  N  N34  1  0.433400  0.030100  0.210200  1.0  -0.5185
  N  N35  1  0.747300  0.132500  0.934100  1.0  -0.418
  N  N36  1  0.056800  0.260100  0.205800  1.0  -0.4862
  N  N37  1  0.753200  0.154600  0.472500  1.0  -0.5318
  N  N38  1  0.504900  0.291600  0.200300  1.0  -0.4681
  N  N39  1  0.989800  0.995200  0.211300  1.0  -0.5142
  N  N40  1  0.066600  0.530100  0.289800  1.0  -0.5199
  N  N41  1  0.752700  0.632500  0.565900  1.0  -0.4173
  N  N42  1  0.443200  0.760100  0.294200  1.0  -0.4853
  N  N43  1  0.746800  0.654600  0.027500  1.0  -0.5316
  N  N44  1  0.995100  0.791600  0.299700  1.0  -0.4676
  N  N45  1  0.489800  0.504800  0.711300  1.0  -0.5158
  N  N46  1  0.566600  0.969900  0.789800  1.0  -0.5201
  N  N47  1  0.252700  0.867500  0.065900  1.0  -0.4175
  N  N48  1  0.943200  0.739900  0.794200  1.0  -0.4846
  N  N49  1  0.246800  0.845400  0.527500  1.0  -0.5308
  N  N50  1  0.495100  0.708400  0.799700  1.0  -0.465
  N  N51  1  0.010200  0.004800  0.788700  1.0  -0.5154
  N  N52  1  0.933400  0.469900  0.710200  1.0  -0.5186
  N  N53  1  0.247300  0.367500  0.434100  1.0  -0.418
  N  N54  1  0.556800  0.239900  0.705800  1.0  -0.4857
  N  N55  1  0.253200  0.345400  0.972500  1.0  -0.5314
  N  N56  1  0.004900  0.208400  0.700300  1.0  -0.4652
