# generated using pymatgen
data_NdH12(C7O2)3
_symmetry_space_group_name_H-M   'P 1'
_cell_length_a   8.66310000
_cell_length_b   14.24220000
_cell_length_c   14.54970000
_cell_angle_alpha   113.51300000
_cell_angle_beta   107.32000000
_cell_angle_gamma   90.00000000
_symmetry_Int_Tables_number   1
_chemical_formula_structural   NdH12(C7O2)3
_chemical_formula_sum   'Nd2 H24 C42 O12'
_cell_volume   1556.94043852
_cell_formula_units_Z   2
loop_
 _symmetry_equiv_pos_site_id
 _symmetry_equiv_pos_as_xyz
  1  'x, y, z'
loop_
 _atom_site_type_symbol
 _atom_site_label
 _atom_site_symmetry_multiplicity
 _atom_site_fract_x
 _atom_site_fract_y
 _atom_site_fract_z
 _atom_site_occupancy
 _atom_site_charge
  Nd  Nd1  1  0.115490  0.005020  0.547160  1.0  2.3163
  Nd  Nd2  1  0.568330  0.994980  0.452840  1.0  2.3167
  H  H3  1  0.110300  0.292800  0.487000  1.0  0.0836
  H  H4  1  0.095100  0.449100  0.473200  1.0  0.1005
  H  H5  1  0.616900  0.365500  0.313400  1.0  0.1083
  H  H6  1  0.628300  0.212100  0.332800  1.0  0.1082
  H  H7  1  0.027700  0.609600  0.521400  1.0  0.1042
  H  H8  1  0.995300  0.770200  0.521600  1.0  0.0969
  H  H9  1  0.622900  0.642000  0.249600  1.0  0.0938
  H  H10  1  0.655900  0.479800  0.247000  1.0  0.1183
  H  H11  1  0.352600  0.712900  0.224400  1.0  0.0982
  H  H12  1  0.276600  0.557200  0.075800  1.0  0.1183
  H  H13  1  0.810100  0.575300  0.057400  1.0  0.1219
  H  H14  1  0.886100  0.730900  0.205400  1.0  0.0941
  H  H15  1  0.623300  0.707200  0.513000  1.0  0.0844
  H  H16  1  0.621900  0.550900  0.526800  1.0  0.1019
  H  H17  1  0.303500  0.634500  0.686600  1.0  0.1087
  H  H18  1  0.295500  0.787900  0.667200  1.0  0.1094
  H  H19  1  0.506300  0.390400  0.478600  1.0  0.1061
  H  H20  1  0.473700  0.229800  0.478400  1.0  0.0965
  H  H21  1  0.373300  0.358000  0.750400  1.0  0.095
  H  H22  1  0.408900  0.520200  0.753000  1.0  0.1191
  H  H23  1  0.128200  0.287100  0.775600  1.0  0.0981
  H  H24  1  0.200800  0.442800  0.924200  1.0  0.1191
  H  H25  1  0.752700  0.424700  0.942600  1.0  0.1217
  H  H26  1  0.680700  0.269100  0.794600  1.0  0.0943
  C  C27  1  0.877540  0.138500  0.427880  1.0  0.7891
  C  C28  1  0.869820  0.237400  0.413640  1.0  -0.1302
  C  C29  1  0.010400  0.308200  0.454000  1.0  -0.0155
  C  C30  1  0.001100  0.401800  0.444600  1.0  -0.1363
  C  C31  1  0.853130  0.425800  0.393260  1.0  0.0521
  C  C32  1  0.715700  0.352200  0.350200  1.0  -0.1032
  C  C33  1  0.722320  0.259300  0.360840  1.0  -0.0508
  C  C34  1  0.840200  0.527400  0.386800  1.0  0.0467
  C  C35  1  0.944400  0.615900  0.467400  1.0  -0.1205
  C  C36  1  0.924900  0.712400  0.467600  1.0  -0.072
  C  C37  1  0.801580  0.723600  0.388160  1.0  -0.1279
  C  C38  1  0.702890  0.635500  0.304980  1.0  -0.0558
  C  C39  1  0.722000  0.537900  0.303600  1.0  -0.1581
  C  C40  1  0.760980  0.828200  0.395760  1.0  0.6728
  C  C41  1  0.178350  0.838800  0.325300  1.0  0.7558
  C  C42  1  0.126400  0.738500  0.229000  1.0  -0.1502
  C  C43  1  0.242900  0.686000  0.190400  1.0  -0.0375
  C  C44  1  0.196500  0.592300  0.100400  1.0  -0.1359
  C  C45  1  0.033700  0.550500  0.046600  1.0  0.0196
  C  C46  1  0.919700  0.603000  0.089400  1.0  -0.1347
  C  C47  1  0.965500  0.696600  0.179200  1.0  -0.0322
  C  C48  1  0.449660  0.861500  0.572120  1.0  0.7939
  C  C49  1  0.456180  0.762600  0.586360  1.0  -0.1326
  C  C50  1  0.556400  0.691800  0.546000  1.0  -0.014
  C  C51  1  0.556500  0.598200  0.555400  1.0  -0.1356
  C  C52  1  0.459870  0.574200  0.606740  1.0  0.0485
  C  C53  1  0.365500  0.647800  0.649800  1.0  -0.1024
  C  C54  1  0.361480  0.740700  0.639160  1.0  -0.0512
  C  C55  1  0.453400  0.472600  0.613200  1.0  0.0445
  C  C56  1  0.477000  0.384100  0.532600  1.0  -0.1167
  C  C57  1  0.457300  0.287600  0.532400  1.0  -0.073
  C  C58  1  0.413420  0.276400  0.611840  1.0  -0.129
  C  C59  1  0.397910  0.364500  0.695020  1.0  -0.0546
  C  C60  1  0.418400  0.462100  0.696400  1.0  -0.1596
  C  C61  1  0.365220  0.171800  0.604240  1.0  0.6736
  C  C62  1  0.853050  0.161200  0.674700  1.0  0.7567
  C  C63  1  0.897400  0.261500  0.771000  1.0  -0.1507
  C  C64  1  0.052500  0.314000  0.809600  1.0  -0.0396
  C  C65  1  0.096100  0.407700  0.899600  1.0  -0.1346
  C  C66  1  0.987100  0.449500  0.953400  1.0  0.0167
  C  C67  1  0.830300  0.397000  0.910600  1.0  -0.134
  C  C68  1  0.786300  0.303400  0.820800  1.0  -0.0366
  O  O69  1  0.013850  0.108100  0.449500  1.0  -0.7115
  O  O70  1  0.745550  0.093200  0.417900  1.0  -0.7863
  O  O71  1  0.841840  0.909100  0.479080  1.0  -0.8328
  O  O72  1  0.640950  0.835300  0.327100  1.0  -0.6571
  O  O73  1  0.074180  0.877900  0.369360  1.0  -0.6793
  O  O74  1  0.324730  0.877600  0.357860  1.0  -0.7723
  O  O75  1  0.564350  0.891900  0.550500  1.0  -0.7147
  O  O76  1  0.327650  0.906800  0.582100  1.0  -0.7855
  O  O77  1  0.362760  0.090900  0.520920  1.0  -0.8335
  O  O78  1  0.313850  0.164700  0.672900  1.0  -0.6583
  O  O79  1  0.704820  0.122100  0.630640  1.0  -0.6754
  O  O80  1  0.966870  0.122400  0.642140  1.0  -0.7722
