# generated using pymatgen
data_AlH5C8O5
_symmetry_space_group_name_H-M   'P 1'
_cell_length_a   16.78070000
_cell_length_b   6.61250000
_cell_length_c   12.71430000
_cell_angle_alpha   90.00000000
_cell_angle_beta   90.00000000
_cell_angle_gamma   90.00000000
_symmetry_Int_Tables_number   1
_chemical_formula_structural   AlH5C8O5
_chemical_formula_sum   'Al4 H20 C32 O20'
_cell_volume   1410.80897214
_cell_formula_units_Z   4
loop_
 _symmetry_equiv_pos_site_id
 _symmetry_equiv_pos_as_xyz
  1  'x, y, z'
loop_
 _atom_site_type_symbol
 _atom_site_label
 _atom_site_symmetry_multiplicity
 _atom_site_fract_x
 _atom_site_fract_y
 _atom_site_fract_z
 _atom_site_occupancy
 _atom_site_charge
  Al  Al1  1  0.500000  0.750000  0.750000  1.0  1.8145
  Al  Al2  1  0.000000  0.250000  0.250000  1.0  1.8145
  Al  Al3  1  0.500000  0.250000  0.750000  1.0  1.8149
  Al  Al4  1  0.000000  0.750000  0.250000  1.0  1.8149
  H  H5  1  0.324490  0.347230  0.963440  1.0  0.1163
  H  H6  1  0.189010  0.347580  0.070620  1.0  0.1233
  H  H7  1  0.500000  0.500000  0.886550  1.0  0.4292
  H  H8  1  0.500000  0.000000  0.614050  1.0  0.3487
  H  H9  1  0.824490  0.847230  0.463440  1.0  0.1163
  H  H10  1  0.689010  0.847580  0.570620  1.0  0.1233
  H  H11  1  0.000000  0.000000  0.386550  1.0  0.4292
  H  H12  1  0.000000  0.500000  0.114050  1.0  0.3487
  H  H13  1  0.675510  0.652770  0.963440  1.0  0.1168
  H  H14  1  0.810990  0.652420  0.070620  1.0  0.1247
  H  H15  1  0.175510  0.152770  0.463440  1.0  0.1168
  H  H16  1  0.310990  0.152420  0.570620  1.0  0.1247
  H  H17  1  0.324490  0.652770  0.963440  1.0  0.117
  H  H18  1  0.189010  0.652420  0.070620  1.0  0.1236
  H  H19  1  0.824490  0.152770  0.463440  1.0  0.117
  H  H20  1  0.689010  0.152420  0.570620  1.0  0.1236
  H  H21  1  0.675510  0.347230  0.963440  1.0  0.1174
  H  H22  1  0.810990  0.347580  0.070620  1.0  0.1233
  H  H23  1  0.175510  0.847230  0.463440  1.0  0.1174
  H  H24  1  0.310990  0.847580  0.570620  1.0  0.1233
  C  C25  1  0.295300  0.198000  0.986500  1.0  -0.0585
  C  C26  1  0.218100  0.198200  0.047600  1.0  -0.065
  C  C27  1  0.795300  0.698000  0.486500  1.0  -0.0585
  C  C28  1  0.718100  0.698200  0.547600  1.0  -0.065
  C  C29  1  0.704700  0.802000  0.986500  1.0  -0.0603
  C  C30  1  0.781900  0.801800  0.047600  1.0  -0.0652
  C  C31  1  0.204700  0.302000  0.486500  1.0  -0.0603
  C  C32  1  0.281900  0.301800  0.547600  1.0  -0.0652
  C  C33  1  0.295300  0.802000  0.986500  1.0  -0.0597
  C  C34  1  0.218100  0.801800  0.047600  1.0  -0.0642
  C  C35  1  0.795300  0.302000  0.486500  1.0  -0.0597
  C  C36  1  0.718100  0.301800  0.547600  1.0  -0.0642
  C  C37  1  0.704700  0.198000  0.986500  1.0  -0.0593
  C  C38  1  0.781900  0.198200  0.047600  1.0  -0.0646
  C  C39  1  0.204700  0.698000  0.486500  1.0  -0.0593
  C  C40  1  0.281900  0.698200  0.547600  1.0  -0.0646
  C  C41  1  0.194600  0.000000  0.066200  1.0  -0.0777
  C  C42  1  0.318600  0.000000  0.968000  1.0  -0.0611
  C  C43  1  0.386000  0.000000  0.891800  1.0  0.5917
  C  C44  1  0.694600  0.500000  0.566200  1.0  -0.0777
  C  C45  1  0.818600  0.500000  0.468000  1.0  -0.0611
  C  C46  1  0.886000  0.500000  0.391800  1.0  0.5917
  C  C47  1  0.805400  0.000000  0.066200  1.0  -0.0776
  C  C48  1  0.681400  0.000000  0.968000  1.0  -0.0611
  C  C49  1  0.614000  0.000000  0.891800  1.0  0.5921
  C  C50  1  0.305400  0.500000  0.566200  1.0  -0.0776
  C  C51  1  0.181400  0.500000  0.468000  1.0  -0.0611
  C  C52  1  0.114000  0.500000  0.391800  1.0  0.5921
  C  C53  1  0.621100  0.500000  0.631200  1.0  0.6682
  C  C54  1  0.121100  0.000000  0.131200  1.0  0.6682
  C  C55  1  0.378900  0.500000  0.631200  1.0  0.6675
  C  C56  1  0.878900  0.000000  0.131200  1.0  0.6675
  O  O57  1  0.423800  0.848600  0.847800  1.0  -0.671
  O  O58  1  0.588200  0.337700  0.665200  1.0  -0.6563
  O  O59  1  0.923800  0.348600  0.347800  1.0  -0.671
  O  O60  1  0.088200  0.837700  0.165200  1.0  -0.6563
  O  O61  1  0.576200  0.151400  0.847800  1.0  -0.6706
  O  O62  1  0.411800  0.662300  0.665200  1.0  -0.6574
  O  O63  1  0.076200  0.651400  0.347800  1.0  -0.6706
  O  O64  1  0.911800  0.162300  0.165200  1.0  -0.6574
  O  O65  1  0.423800  0.151400  0.847800  1.0  -0.6709
  O  O66  1  0.588200  0.662300  0.665200  1.0  -0.6573
  O  O67  1  0.923800  0.651400  0.347800  1.0  -0.6709
  O  O68  1  0.088200  0.162300  0.165200  1.0  -0.6573
  O  O69  1  0.576200  0.848600  0.847800  1.0  -0.6705
  O  O70  1  0.411800  0.337700  0.665200  1.0  -0.6563
  O  O71  1  0.076200  0.348600  0.347800  1.0  -0.6705
  O  O72  1  0.911800  0.837700  0.165200  1.0  -0.6563
  O  O73  1  0.500000  0.500000  0.807900  1.0  -0.9029
  O  O74  1  0.000000  0.000000  0.307900  1.0  -0.9029
  O  O75  1  0.500000  0.000000  0.692700  1.0  -0.9017
  O  O76  1  0.000000  0.500000  0.192700  1.0  -0.9017
