# generated using pymatgen
data_AlH5C8O5
_symmetry_space_group_name_H-M   'P 1'
_cell_length_a   6.56030000
_cell_length_b   15.98460000
_cell_length_c   13.44410000
_cell_angle_alpha   90.00000000
_cell_angle_beta   90.00000000
_cell_angle_gamma   90.00000000
_symmetry_Int_Tables_number   1
_chemical_formula_structural   AlH5C8O5
_chemical_formula_sum   'Al4 H20 C32 O20'
_cell_volume   1409.79902881
_cell_formula_units_Z   4
loop_
 _symmetry_equiv_pos_site_id
 _symmetry_equiv_pos_as_xyz
  1  'x, y, z'
loop_
 _atom_site_type_symbol
 _atom_site_label
 _atom_site_symmetry_multiplicity
 _atom_site_fract_x
 _atom_site_fract_y
 _atom_site_fract_z
 _atom_site_occupancy
 _atom_site_charge
  Al  Al1  1  0.744920  0.003130  0.245970  1.0  1.8198
  Al  Al2  1  0.244020  0.502700  0.746100  1.0  1.8246
  Al  Al3  1  0.244610  0.003060  0.246450  1.0  1.8262
  Al  Al4  1  0.744820  0.502920  0.746550  1.0  1.8247
  H  H5  1  0.170450  0.805990  0.430350  1.0  0.1064
  H  H6  1  0.170140  0.685830  0.542880  1.0  0.1061
  H  H7  1  0.669970  0.306250  0.931160  1.0  0.1123
  H  H8  1  0.670670  0.185950  0.043380  1.0  0.1044
  H  H9  1  0.823870  0.195730  0.436230  1.0  0.1117
  H  H10  1  0.823750  0.316270  0.548400  1.0  0.1084
  H  H11  1  0.323670  0.696530  0.935160  1.0  0.1139
  H  H12  1  0.323840  0.816440  0.048300  1.0  0.1074
  H  H13  1  0.167020  0.196040  0.435880  1.0  0.1123
  H  H14  1  0.166900  0.316700  0.547840  1.0  0.1075
  H  H15  1  0.666790  0.696670  0.934990  1.0  0.1089
  H  H16  1  0.667160  0.816680  0.047900  1.0  0.1087
  H  H17  1  0.827490  0.805990  0.430570  1.0  0.1097
  H  H18  1  0.826730  0.685670  0.543450  1.0  0.1065
  H  H19  1  0.326890  0.306550  0.930930  1.0  0.1145
  H  H20  1  0.327010  0.186060  0.043470  1.0  0.1059
  H  H21  1  0.992760  0.503770  0.628820  1.0  0.4494
  H  H22  1  0.492970  0.504240  0.863740  1.0  0.4704
  H  H23  1  0.495520  0.005730  0.129150  1.0  0.4656
  H  H24  1  0.994840  0.005420  0.364020  1.0  0.4684
  C  C25  1  0.314430  0.780800  0.455330  1.0  -0.0792
  C  C26  1  0.314120  0.711880  0.519630  1.0  -0.08
  C  C27  1  0.813890  0.281060  0.956090  1.0  -0.0667
  C  C28  1  0.814330  0.212110  0.020180  1.0  -0.0743
  C  C29  1  0.679630  0.220830  0.460920  1.0  -0.0656
  C  C30  1  0.679660  0.289950  0.524950  1.0  -0.0778
  C  C31  1  0.179570  0.721400  0.960200  1.0  -0.0686
  C  C32  1  0.179800  0.790320  0.024470  1.0  -0.0793
  C  C33  1  0.311280  0.221040  0.460670  1.0  -0.0633
  C  C34  1  0.311090  0.290150  0.524750  1.0  -0.0872
  C  C35  1  0.811100  0.721490  0.960030  1.0  -0.0765
  C  C36  1  0.811180  0.790410  0.024330  1.0  -0.0806
  C  C37  1  0.682930  0.780790  0.455560  1.0  -0.0918
  C  C38  1  0.682420  0.711730  0.519940  1.0  -0.0813
  C  C39  1  0.182570  0.281250  0.955960  1.0  -0.0743
  C  C40  1  0.182730  0.212160  0.020130  1.0  -0.081
  C  C41  1  0.497770  0.677740  0.554760  1.0  -0.1045
  C  C42  1  0.498680  0.817290  0.424120  1.0  -0.1041
  C  C43  1  0.497110  0.608490  0.628700  1.0  0.7142
  C  C44  1  0.498250  0.891570  0.357130  1.0  0.7216
  C  C45  1  0.998460  0.178100  0.055120  1.0  -0.1023
  C  C46  1  0.997780  0.317630  0.924750  1.0  -0.1035
  C  C47  1  0.997870  0.108740  0.128940  1.0  0.7125
  C  C48  1  0.997110  0.391860  0.857690  1.0  0.718
  C  C49  1  0.495530  0.324740  0.558710  1.0  -0.1032
  C  C50  1  0.495520  0.184930  0.428610  1.0  -0.1064
  C  C51  1  0.495710  0.395170  0.630910  1.0  0.7088
  C  C52  1  0.495180  0.111720  0.360080  1.0  0.7229
  C  C53  1  0.995600  0.824890  0.058550  1.0  -0.1045
  C  C54  1  0.995470  0.685580  0.927690  1.0  -0.1036
  C  C55  1  0.995290  0.895190  0.131140  1.0  0.7109
  C  C56  1  0.995660  0.612280  0.859080  1.0  0.7162
  O  O57  1  0.671030  0.921670  0.328940  1.0  -0.6418
  O  O58  1  0.324150  0.580190  0.659300  1.0  -0.6476
  O  O59  1  0.170010  0.421370  0.829240  1.0  -0.6399
  O  O60  1  0.824780  0.080840  0.159440  1.0  -0.6485
  O  O61  1  0.322190  0.082210  0.331710  1.0  -0.6489
  O  O62  1  0.667860  0.423400  0.661930  1.0  -0.6424
  O  O63  1  0.822010  0.582510  0.831350  1.0  -0.6535
  O  O64  1  0.168140  0.923450  0.161850  1.0  -0.6461
  O  O65  1  0.667830  0.082200  0.331090  1.0  -0.6495
  O  O66  1  0.322800  0.424010  0.660230  1.0  -0.6407
  O  O67  1  0.168570  0.582920  0.829880  1.0  -0.6434
  O  O68  1  0.822100  0.923900  0.160630  1.0  -0.6403
  O  O69  1  0.325030  0.921790  0.329480  1.0  -0.6444
  O  O70  1  0.670360  0.580760  0.659370  1.0  -0.6414
  O  O71  1  0.824550  0.422360  0.829920  1.0  -0.6468
  O  O72  1  0.170420  0.080710  0.159750  1.0  -0.6283
  O  O73  1  0.994860  0.004670  0.299870  1.0  -1.0669
  O  O74  1  0.494040  0.503920  0.799710  1.0  -1.0837
  O  O75  1  0.495250  0.004790  0.193270  1.0  -1.0513
  O  O76  1  0.993930  0.503710  0.693050  1.0  -1.0542
