# generated using pymatgen
data_VC8O5
_symmetry_space_group_name_H-M   'P 1'
_cell_length_a   6.79900000
_cell_length_b   16.94600000
_cell_length_c   12.74900000
_cell_angle_alpha   90.00000000
_cell_angle_beta   90.00000000
_cell_angle_gamma   90.00000000
_symmetry_Int_Tables_number   1
_chemical_formula_structural   VC8O5
_chemical_formula_sum   'V4 C32 O20'
_cell_volume   1468.88692265
_cell_formula_units_Z   4
loop_
 _symmetry_equiv_pos_site_id
 _symmetry_equiv_pos_as_xyz
  1  'x, y, z'
loop_
 _atom_site_type_symbol
 _atom_site_label
 _atom_site_symmetry_multiplicity
 _atom_site_fract_x
 _atom_site_fract_y
 _atom_site_fract_z
 _atom_site_occupancy
 _atom_site_charge
  V  V1  1  0.250000  0.750000  0.250000  1.0  2.0936
  V  V2  1  0.750000  0.750000  0.250000  1.0  2.0936
  V  V3  1  0.750000  0.250000  0.750000  1.0  2.0936
  V  V4  1  0.250000  0.250000  0.750000  1.0  2.0936
  C  C5  1  0.804000  0.964000  0.026000  1.0  0.0292
  C  C6  1  0.304000  0.464000  0.526000  1.0  0.0292
  C  C7  1  0.196000  0.536000  0.026000  1.0  0.0306
  C  C8  1  0.696000  0.036000  0.526000  1.0  0.0306
  C  C9  1  0.196000  0.464000  0.974000  1.0  0.0313
  C  C10  1  0.696000  0.964000  0.474000  1.0  0.0313
  C  C11  1  0.804000  0.036000  0.974000  1.0  0.0297
  C  C12  1  0.304000  0.536000  0.474000  1.0  0.0297
  C  C13  1  0.196000  0.036000  0.974000  1.0  0.0302
  C  C14  1  0.696000  0.536000  0.474000  1.0  0.0302
  C  C15  1  0.804000  0.464000  0.974000  1.0  0.0295
  C  C16  1  0.304000  0.964000  0.474000  1.0  0.0295
  C  C17  1  0.804000  0.536000  0.026000  1.0  0.0298
  C  C18  1  0.304000  0.036000  0.526000  1.0  0.0298
  C  C19  1  0.196000  0.964000  0.026000  1.0  0.0313
  C  C20  1  0.696000  0.464000  0.526000  1.0  0.0313
  C  C21  1  0.000000  0.940000  0.043000  1.0  0.0279
  C  C22  1  0.000000  0.871000  0.117000  1.0  0.4491
  C  C23  1  0.500000  0.440000  0.543000  1.0  0.0279
  C  C24  1  0.500000  0.371000  0.617000  1.0  0.4491
  C  C25  1  0.000000  0.560000  0.043000  1.0  0.0277
  C  C26  1  0.000000  0.629000  0.117000  1.0  0.4489
  C  C27  1  0.500000  0.060000  0.543000  1.0  0.0277
  C  C28  1  0.500000  0.129000  0.617000  1.0  0.4489
  C  C29  1  0.000000  0.440000  0.957000  1.0  0.0274
  C  C30  1  0.000000  0.371000  0.883000  1.0  0.4494
  C  C31  1  0.500000  0.940000  0.457000  1.0  0.0274
  C  C32  1  0.500000  0.871000  0.383000  1.0  0.4494
  C  C33  1  0.000000  0.060000  0.957000  1.0  0.0277
  C  C34  1  0.000000  0.129000  0.883000  1.0  0.4488
  C  C35  1  0.500000  0.560000  0.457000  1.0  0.0277
  C  C36  1  0.500000  0.629000  0.383000  1.0  0.4488
  O  O37  1  0.156000  0.833000  0.158000  1.0  -0.6115
  O  O38  1  0.656000  0.333000  0.658000  1.0  -0.6115
  O  O39  1  0.844000  0.667000  0.158000  1.0  -0.6116
  O  O40  1  0.344000  0.167000  0.658000  1.0  -0.6116
  O  O41  1  0.844000  0.333000  0.842000  1.0  -0.6122
  O  O42  1  0.344000  0.833000  0.342000  1.0  -0.6122
  O  O43  1  0.156000  0.167000  0.842000  1.0  -0.6106
  O  O44  1  0.656000  0.667000  0.342000  1.0  -0.6106
  O  O45  1  0.844000  0.167000  0.842000  1.0  -0.6112
  O  O46  1  0.344000  0.667000  0.342000  1.0  -0.6112
  O  O47  1  0.156000  0.333000  0.842000  1.0  -0.6111
  O  O48  1  0.656000  0.833000  0.342000  1.0  -0.6111
  O  O49  1  0.156000  0.667000  0.158000  1.0  -0.6111
  O  O50  1  0.656000  0.167000  0.658000  1.0  -0.6111
  O  O51  1  0.844000  0.833000  0.158000  1.0  -0.6122
  O  O52  1  0.344000  0.333000  0.658000  1.0  -0.6122
  O  O53  1  0.000000  0.750000  0.307000  1.0  -0.7212
  O  O54  1  0.500000  0.250000  0.807000  1.0  -0.7212
  O  O55  1  0.000000  0.250000  0.693000  1.0  -0.723
  O  O56  1  0.500000  0.750000  0.193000  1.0  -0.723
