# generated using pymatgen
data_AlH5C8O5
_symmetry_space_group_name_H-M   'P 1'
_cell_length_a   6.67200000
_cell_length_b   16.93600000
_cell_length_c   12.80700000
_cell_angle_alpha   90.00000000
_cell_angle_beta   90.00000000
_cell_angle_gamma   90.00000000
_symmetry_Int_Tables_number   1
_chemical_formula_structural   AlH5C8O5
_chemical_formula_sum   'Al4 H20 C32 O20'
_cell_volume   1447.15247654
_cell_formula_units_Z   4
loop_
 _symmetry_equiv_pos_site_id
 _symmetry_equiv_pos_as_xyz
  1  'x, y, z'
loop_
 _atom_site_type_symbol
 _atom_site_label
 _atom_site_symmetry_multiplicity
 _atom_site_fract_x
 _atom_site_fract_y
 _atom_site_fract_z
 _atom_site_occupancy
 _atom_site_charge
  Al  Al1  1  0.253500  0.752320  0.250590  1.0  1.8452
  Al  Al2  1  0.753480  0.752330  0.250640  1.0  1.8451
  Al  Al3  1  0.753600  0.252330  0.750580  1.0  1.8453
  Al  Al4  1  0.253600  0.252330  0.750640  1.0  1.8451
  H  H5  1  0.680920  0.942140  0.053670  1.0  0.1159
  H  H6  1  0.180970  0.441860  0.553210  1.0  0.1143
  H  H7  1  0.325930  0.562410  0.053970  1.0  0.1126
  H  H8  1  0.825960  0.062270  0.554130  1.0  0.1131
  H  H9  1  0.325960  0.442030  0.947770  1.0  0.1174
  H  H10  1  0.825930  0.941890  0.447930  1.0  0.1102
  H  H11  1  0.680960  0.062510  0.947440  1.0  0.1107
  H  H12  1  0.180930  0.562260  0.447040  1.0  0.1121
  H  H13  1  0.326010  0.062380  0.947240  1.0  0.1136
  H  H14  1  0.825970  0.562370  0.447210  1.0  0.1124
  H  H15  1  0.680920  0.442010  0.947720  1.0  0.1111
  H  H16  1  0.180890  0.941880  0.448010  1.0  0.1155
  H  H17  1  0.680890  0.562390  0.053930  1.0  0.1124
  H  H18  1  0.180920  0.062260  0.554220  1.0  0.1125
  H  H19  1  0.325960  0.942010  0.053470  1.0  0.1161
  H  H20  1  0.826000  0.441980  0.553380  1.0  0.1116
  H  H21  1  0.503640  0.252530  0.874020  1.0  0.4703
  H  H22  1  0.003640  0.252430  0.627190  1.0  0.4766
  H  H23  1  0.003510  0.752390  0.374020  1.0  0.4758
  H  H24  1  0.503510  0.752490  0.127180  1.0  0.4702
  C  C25  1  0.823110  0.967430  0.030910  1.0  -0.0652
  C  C26  1  0.323140  0.467220  0.530560  1.0  -0.0637
  C  C27  1  0.183760  0.537110  0.031180  1.0  -0.0801
  C  C28  1  0.683780  0.036980  0.531370  1.0  -0.0852
  C  C29  1  0.183780  0.467350  0.970460  1.0  -0.0639
  C  C30  1  0.683760  0.967210  0.470650  1.0  -0.0829
  C  C31  1  0.823130  0.037190  0.970170  1.0  -0.0788
  C  C32  1  0.323110  0.536990  0.469850  1.0  -0.0775
  C  C33  1  0.183830  0.037120  0.970060  1.0  -0.0795
  C  C34  1  0.683810  0.537050  0.469940  1.0  -0.0806
  C  C35  1  0.823090  0.467340  0.970440  1.0  -0.0801
  C  C36  1  0.323070  0.967210  0.470700  1.0  -0.0801
  C  C37  1  0.823070  0.537100  0.031160  1.0  -0.0777
  C  C38  1  0.323090  0.036970  0.531420  1.0  -0.0803
  C  C39  1  0.183800  0.967360  0.030800  1.0  -0.066
  C  C40  1  0.683830  0.467280  0.530650  1.0  -0.0792
  C  C41  1  0.003450  0.930950  0.062460  1.0  -0.102
  C  C42  1  0.003440  0.858150  0.131810  1.0  0.7238
  C  C43  1  0.503490  0.430800  0.562210  1.0  -0.1036
  C  C44  1  0.503510  0.358040  0.631620  1.0  0.7252
  C  C45  1  0.003400  0.573610  0.062680  1.0  -0.1029
  C  C46  1  0.003390  0.646480  0.131860  1.0  0.7235
  C  C47  1  0.503450  0.073480  0.562880  1.0  -0.1018
  C  C48  1  0.503480  0.146390  0.631990  1.0  0.7237
  C  C49  1  0.003450  0.430900  0.938840  1.0  -0.1019
  C  C50  1  0.003480  0.358120  0.869480  1.0  0.7241
  C  C51  1  0.503400  0.930770  0.439050  1.0  -0.1019
  C  C52  1  0.503390  0.858030  0.369620  1.0  0.7242
  C  C53  1  0.003490  0.073640  0.938600  1.0  -0.1006
  C  C54  1  0.003510  0.146500  0.869380  1.0  0.7254
  C  C55  1  0.503450  0.573530  0.438420  1.0  -0.1014
  C  C56  1  0.503440  0.646430  0.369290  1.0  0.7243
  O  O57  1  0.174090  0.829090  0.161250  1.0  -0.6496
  O  O58  1  0.674170  0.329020  0.661130  1.0  -0.6421
  O  O59  1  0.832730  0.675550  0.161290  1.0  -0.6478
  O  O60  1  0.332840  0.175480  0.661400  1.0  -0.6404
  O  O61  1  0.832840  0.329090  0.839970  1.0  -0.6515
  O  O62  1  0.332750  0.829010  0.340080  1.0  -0.6502
  O  O63  1  0.174180  0.175560  0.839970  1.0  -0.6507
  O  O64  1  0.674100  0.675530  0.339930  1.0  -0.6478
  O  O65  1  0.832850  0.175560  0.839930  1.0  -0.6479
  O  O66  1  0.332780  0.675490  0.339850  1.0  -0.6516
  O  O67  1  0.174150  0.329090  0.840000  1.0  -0.6494
  O  O68  1  0.674050  0.829020  0.340090  1.0  -0.6511
  O  O69  1  0.174060  0.675540  0.161270  1.0  -0.6508
  O  O70  1  0.674160  0.175480  0.661360  1.0  -0.6454
  O  O71  1  0.832790  0.829130  0.161330  1.0  -0.6516
  O  O72  1  0.332860  0.329030  0.661160  1.0  -0.6438
  O  O73  1  0.003500  0.752360  0.306700  1.0  -1.117
  O  O74  1  0.503620  0.252420  0.806710  1.0  -1.1167
  O  O75  1  0.003620  0.252380  0.694500  1.0  -1.1183
  O  O76  1  0.503500  0.752400  0.194500  1.0  -1.1185
