# generated using pymatgen
data_SmSb2H24C20(NO4)4
_symmetry_space_group_name_H-M   'P 1'
_cell_length_a   7.20940000
_cell_length_b   22.65200000
_cell_length_c   10.65530000
_cell_angle_alpha   90.00000000
_cell_angle_beta   90.55400000
_cell_angle_gamma   90.00000000
_symmetry_Int_Tables_number   1
_chemical_formula_structural   SmSb2H24C20(NO4)4
_chemical_formula_sum   'Sm2 Sb4 H48 C40 N8 O32'
_cell_volume   1740.00723905
_cell_formula_units_Z   2
loop_
 _symmetry_equiv_pos_site_id
 _symmetry_equiv_pos_as_xyz
  1  'x, y, z'
loop_
 _atom_site_type_symbol
 _atom_site_label
 _atom_site_symmetry_multiplicity
 _atom_site_fract_x
 _atom_site_fract_y
 _atom_site_fract_z
 _atom_site_occupancy
 _atom_site_charge
  Sm  Sm1  1  0.261410  0.250760  0.852580  1.0  2.1105
  Sm  Sm2  1  0.761410  0.749240  0.352580  1.0  2.1102
  Sb  Sb3  1  0.459560  0.988230  0.123840  1.0  1.179
  Sb  Sb4  1  0.569000  0.483380  0.604130  1.0  1.1089
  Sb  Sb5  1  0.959560  0.011770  0.623840  1.0  1.179
  Sb  Sb6  1  0.069000  0.516620  0.104130  1.0  1.1087
  H  H7  1  0.289700  0.119500  0.219800  1.0  0.1074
  H  H8  1  0.084700  0.099200  0.256700  1.0  0.0951
  H  H9  1  0.151400  0.064600  0.934700  1.0  0.1102
  H  H10  1  0.104300  0.119500  0.023400  1.0  0.0879
  H  H11  1  0.004600  0.997500  0.029100  1.0  0.0947
  H  H12  1  0.923300  0.032100  0.147300  1.0  0.0811
  H  H13  1  0.063400  0.966300  0.283900  1.0  0.0862
  H  H14  1  0.939500  0.930300  0.184300  1.0  0.0698
  H  H15  1  0.254400  0.896100  0.336600  1.0  0.0957
  H  H16  1  0.181000  0.843800  0.247900  1.0  0.0999
  H  H17  1  0.263200  0.852200  0.034500  1.0  0.1145
  H  H18  1  0.059400  0.879600  0.023100  1.0  0.088
  H  H19  1  0.780900  0.390800  0.819100  1.0  0.0919
  H  H20  1  0.842200  0.338200  0.728300  1.0  0.0973
  H  H21  1  0.760300  0.347400  0.516100  1.0  0.1154
  H  H22  1  0.965200  0.374000  0.507200  1.0  0.0934
  H  H23  1  0.086200  0.423200  0.666500  1.0  0.074
  H  H24  1  0.967500  0.459600  0.766600  1.0  0.0818
  H  H25  1  0.107400  0.527400  0.629600  1.0  0.0861
  H  H26  1  0.023400  0.493600  0.509800  1.0  0.089
  H  H27  1  0.746700  0.615400  0.700100  1.0  0.1016
  H  H28  1  0.950300  0.593700  0.739900  1.0  0.0921
  H  H29  1  0.878100  0.559100  0.417900  1.0  0.1003
  H  H30  1  0.926100  0.614000  0.507000  1.0  0.0904
  H  H31  1  0.789700  0.880500  0.719800  1.0  0.1078
  H  H32  1  0.584700  0.900800  0.756700  1.0  0.0949
  H  H33  1  0.651400  0.935400  0.434700  1.0  0.1082
  H  H34  1  0.604300  0.880500  0.523400  1.0  0.0878
  H  H35  1  0.504600  0.002500  0.529100  1.0  0.0943
  H  H36  1  0.423300  0.967900  0.647300  1.0  0.0809
  H  H37  1  0.563400  0.033700  0.783900  1.0  0.0858
  H  H38  1  0.439500  0.069700  0.684300  1.0  0.0703
  H  H39  1  0.754400  0.103900  0.836600  1.0  0.0957
  H  H40  1  0.681000  0.156200  0.747900  1.0  0.0991
  H  H41  1  0.763200  0.147800  0.534500  1.0  0.1155
  H  H42  1  0.559400  0.120400  0.523100  1.0  0.0894
  H  H43  1  0.280900  0.609200  0.319100  1.0  0.0923
  H  H44  1  0.342200  0.661800  0.228300  1.0  0.0994
  H  H45  1  0.260300  0.652600  0.016100  1.0  0.1185
  H  H46  1  0.465200  0.626000  0.007200  1.0  0.0949
  H  H47  1  0.586200  0.576800  0.166500  1.0  0.0744
  H  H48  1  0.467500  0.540400  0.266600  1.0  0.0812
  H  H49  1  0.607400  0.472600  0.129600  1.0  0.0861
  H  H50  1  0.523400  0.506400  0.009800  1.0  0.089
  H  H51  1  0.246700  0.384600  0.200100  1.0  0.1019
  H  H52  1  0.450300  0.406300  0.239900  1.0  0.0916
  H  H53  1  0.378100  0.440900  0.917900  1.0  0.0994
  H  H54  1  0.426100  0.386000  0.007000  1.0  0.0907
  C  C55  1  0.210300  0.084700  0.236200  1.0  -0.2356
  C  C56  1  0.288500  0.051200  0.348000  1.0  0.6977
  C  C57  1  0.194300  0.087300  0.008800  1.0  -0.1348
  C  C58  1  0.381800  0.113600  0.982200  1.0  0.7294
  C  C59  1  0.030900  0.009200  0.117000  1.0  -0.0229
  C  C60  1  0.051200  0.955300  0.194300  1.0  -0.0226
  C  C61  1  0.268300  0.877500  0.253100  1.0  -0.2023
  C  C62  1  0.462900  0.855200  0.239800  1.0  0.7485
  C  C63  1  0.192400  0.889600  0.032300  1.0  -0.2128
  C  C64  1  0.251400  0.924800  0.918600  1.0  0.7045
  C  C65  1  0.759000  0.372700  0.735700  1.0  -0.1993
  C  C66  1  0.560500  0.352300  0.726400  1.0  0.7324
  C  C67  1  0.832500  0.384600  0.515000  1.0  -0.2191
  C  C68  1  0.774600  0.420200  0.401900  1.0  0.7356
  C  C69  1  0.976300  0.448900  0.676800  1.0  -0.0431
  C  C70  1  0.999100  0.504800  0.598000  1.0  -0.0309
  C  C71  1  0.823500  0.580100  0.718000  1.0  -0.2084
  C  C72  1  0.743400  0.547400  0.828300  1.0  0.6906
  C  C73  1  0.836000  0.581800  0.491700  1.0  -0.1139
  C  C74  1  0.647800  0.608000  0.463800  1.0  0.7339
  C  C75  1  0.710300  0.915300  0.736200  1.0  -0.2329
  C  C76  1  0.788500  0.948800  0.848000  1.0  0.6983
  C  C77  1  0.694300  0.912700  0.508800  1.0  -0.1336
  C  C78  1  0.881800  0.886400  0.482200  1.0  0.7292
  C  C79  1  0.530900  0.990800  0.617000  1.0  -0.023
  C  C80  1  0.551200  0.044700  0.694300  1.0  -0.0226
  C  C81  1  0.768300  0.122500  0.753100  1.0  -0.2042
  C  C82  1  0.962900  0.144800  0.739800  1.0  0.7464
  C  C83  1  0.692400  0.110400  0.532300  1.0  -0.2139
  C  C84  1  0.751400  0.075200  0.418600  1.0  0.7062
  C  C85  1  0.259000  0.627300  0.235700  1.0  -0.2013
  C  C86  1  0.060500  0.647700  0.226400  1.0  0.7352
  C  C87  1  0.332500  0.615400  0.015000  1.0  -0.2222
  C  C88  1  0.274600  0.579800  0.901900  1.0  0.7364
  C  C89  1  0.476300  0.551100  0.176800  1.0  -0.0436
  C  C90  1  0.499100  0.495200  0.098000  1.0  -0.0312
  C  C91  1  0.323500  0.419900  0.218000  1.0  -0.2066
  C  C92  1  0.243400  0.452600  0.328300  1.0  0.6909
  C  C93  1  0.336000  0.418200  0.991700  1.0  -0.1155
  C  C94  1  0.147800  0.392000  0.963800  1.0  0.7333
  N  N95  1  0.198900  0.047790  0.120100  1.0  -0.1607
  N  N96  1  0.221000  0.921100  0.154200  1.0  -0.1615
  N  N97  1  0.805200  0.416210  0.636900  1.0  -0.1611
  N  N98  1  0.831600  0.542470  0.602700  1.0  -0.1993
  N  N99  1  0.698900  0.952210  0.620100  1.0  -0.1602
  N  N100  1  0.721000  0.078900  0.654200  1.0  -0.1615
  N  N101  1  0.305200  0.583790  0.136900  1.0  -0.1618
  N  N102  1  0.331600  0.457530  0.102700  1.0  -0.1989
  O  O103  1  0.381600  0.003110  0.321100  1.0  -0.6175
  O  O104  1  0.264500  0.069370  0.453000  1.0  -0.5073
  O  O105  1  0.523300  0.085730  0.021700  1.0  -0.6379
  O  O106  1  0.388000  0.160090  0.920600  1.0  -0.7214
  O  O107  1  0.576500  0.887090  0.181800  1.0  -0.6326
  O  O108  1  0.503200  0.807590  0.294500  1.0  -0.7399
  O  O109  1  0.357100  0.970580  0.940600  1.0  -0.5873
  O  O110  1  0.204800  0.908400  0.813900  1.0  -0.5658
  O  O111  1  0.449700  0.382740  0.662600  1.0  -0.6277
  O  O112  1  0.519400  0.306620  0.787200  1.0  -0.7306
  O  O113  1  0.673400  0.465810  0.421300  1.0  -0.615
  O  O114  1  0.821800  0.404100  0.296400  1.0  -0.572
  O  O115  1  0.646900  0.500630  0.802400  1.0  -0.635
  O  O116  1  0.764200  0.567420  0.932400  1.0  -0.5139
  O  O117  1  0.507200  0.579260  0.502500  1.0  -0.6405
  O  O118  1  0.637700  0.654900  0.402400  1.0  -0.7385
  O  O119  1  0.881600  0.996890  0.821100  1.0  -0.618
  O  O120  1  0.764500  0.930630  0.953000  1.0  -0.5064
  O  O121  1  0.023300  0.914270  0.521700  1.0  -0.6388
  O  O122  1  0.888000  0.839910  0.420600  1.0  -0.7228
  O  O123  1  0.076500  0.112910  0.681800  1.0  -0.6318
  O  O124  1  0.003200  0.192410  0.794500  1.0  -0.7446
  O  O125  1  0.857100  0.029420  0.440600  1.0  -0.5879
  O  O126  1  0.704800  0.091600  0.313900  1.0  -0.5656
  O  O127  1  0.949700  0.617260  0.162600  1.0  -0.6282
  O  O128  1  0.019400  0.693380  0.287200  1.0  -0.7344
  O  O129  1  0.173400  0.534190  0.921300  1.0  -0.6155
  O  O130  1  0.321800  0.595900  0.796400  1.0  -0.5717
  O  O131  1  0.146900  0.499370  0.302400  1.0  -0.6357
  O  O132  1  0.264200  0.432580  0.432400  1.0  -0.5129
  O  O133  1  0.007200  0.420740  0.002500  1.0  -0.6401
  O  O134  1  0.137700  0.345100  0.902400  1.0  -0.7391
