# generated using pymatgen
data_CeB15H15(CO)6
_symmetry_space_group_name_H-M   'P 1'
_cell_length_a   13.15900000
_cell_length_b   14.04000000
_cell_length_c   16.00700000
_cell_angle_alpha   90.00000000
_cell_angle_beta   108.23400000
_cell_angle_gamma   90.00000000
_symmetry_Int_Tables_number   1
_chemical_formula_structural   CeB15H15(CO)6
_chemical_formula_sum   'Ce4 B60 H60 C24 O24'
_cell_volume   2808.83320628
_cell_formula_units_Z   4
loop_
 _symmetry_equiv_pos_site_id
 _symmetry_equiv_pos_as_xyz
  1  'x, y, z'
loop_
 _atom_site_type_symbol
 _atom_site_label
 _atom_site_symmetry_multiplicity
 _atom_site_fract_x
 _atom_site_fract_y
 _atom_site_fract_z
 _atom_site_occupancy
 _atom_site_charge
  Ce  Ce1  1  0.386260  0.021450  0.084470  1.0  2.2888
  Ce  Ce2  1  0.113740  0.521450  0.415530  1.0  2.2921
  Ce  Ce3  1  0.613740  0.978550  0.915530  1.0  2.2907
  Ce  Ce4  1  0.886260  0.478550  0.584470  1.0  2.2879
  B  B5  1  0.136300  0.880100  0.760900  1.0  0.029
  B  B6  1  0.226000  0.897700  0.706000  1.0  0.013
  B  B7  1  0.322900  0.812000  0.737800  1.0  0.0184
  B  B8  1  0.295000  0.736500  0.815500  1.0  0.029
  B  B9  1  0.177200  0.779400  0.829400  1.0  0.0255
  B  B10  1  0.075000  0.767000  0.730900  1.0  0.0329
  B  B11  1  0.107000  0.841400  0.652100  1.0  0.0227
  B  B12  1  0.223000  0.799600  0.638500  1.0  0.0342
  B  B13  1  0.263700  0.700300  0.706500  1.0  0.0122
  B  B14  1  0.178000  0.680200  0.763400  1.0  0.0124
  B  B15  1  0.377200  0.046500  0.447200  1.0  0.0335
  B  B16  1  0.395500  0.928800  0.473900  1.0  0.0067
  B  B17  1  0.524100  0.889900  0.470100  1.0  0.0246
  B  B18  1  0.587100  0.991800  0.441500  1.0  0.0267
  B  B19  1  0.497200  0.088000  0.428100  1.0  0.0244
  B  B20  1  0.363700  0.380100  0.739100  1.0  0.0289
  B  B21  1  0.274000  0.397700  0.794000  1.0  0.0125
  B  B22  1  0.177100  0.312000  0.762200  1.0  0.0186
  B  B23  1  0.205000  0.236500  0.684500  1.0  0.0294
  B  B24  1  0.322800  0.279400  0.670600  1.0  0.0241
  B  B25  1  0.425000  0.267000  0.769100  1.0  0.0335
  B  B26  1  0.393000  0.341400  0.847900  1.0  0.023
  B  B27  1  0.277000  0.299600  0.861500  1.0  0.0342
  B  B28  1  0.236300  0.200300  0.793500  1.0  0.0126
  B  B29  1  0.322000  0.180200  0.736600  1.0  0.0125
  B  B30  1  0.122800  0.546500  0.052800  1.0  0.033
  B  B31  1  0.104500  0.428800  0.026100  1.0  0.0071
  B  B32  1  0.975900  0.389900  0.029900  1.0  0.0248
  B  B33  1  0.912900  0.491800  0.058500  1.0  0.0261
  B  B34  1  0.002800  0.588000  0.071900  1.0  0.0239
  B  B35  1  0.863700  0.119900  0.239100  1.0  0.028
  B  B36  1  0.774000  0.102300  0.294000  1.0  0.0132
  B  B37  1  0.677100  0.188000  0.262200  1.0  0.0203
  B  B38  1  0.705000  0.263500  0.184500  1.0  0.0297
  B  B39  1  0.822800  0.220600  0.170600  1.0  0.0232
  B  B40  1  0.925000  0.233000  0.269100  1.0  0.032
  B  B41  1  0.893000  0.158600  0.347900  1.0  0.0227
  B  B42  1  0.777000  0.200400  0.361500  1.0  0.0349
  B  B43  1  0.736300  0.299700  0.293500  1.0  0.0124
  B  B44  1  0.822000  0.319800  0.236600  1.0  0.0127
  B  B45  1  0.622800  0.953500  0.552800  1.0  0.033
  B  B46  1  0.604500  0.071200  0.526100  1.0  0.0061
  B  B47  1  0.475900  0.110100  0.529900  1.0  0.0256
  B  B48  1  0.412900  0.008200  0.558500  1.0  0.0264
  B  B49  1  0.502800  0.912000  0.571900  1.0  0.0237
  B  B50  1  0.636300  0.619900  0.260900  1.0  0.0291
  B  B51  1  0.726000  0.602300  0.206000  1.0  0.0132
  B  B52  1  0.822900  0.688000  0.237800  1.0  0.0199
  B  B53  1  0.795000  0.763500  0.315500  1.0  0.0289
  B  B54  1  0.677200  0.720600  0.329400  1.0  0.0244
  B  B55  1  0.575000  0.733000  0.230900  1.0  0.0312
  B  B56  1  0.607000  0.658600  0.152100  1.0  0.0222
  B  B57  1  0.723000  0.700400  0.138500  1.0  0.0348
  B  B58  1  0.763700  0.799700  0.206500  1.0  0.0134
  B  B59  1  0.678000  0.819800  0.263400  1.0  0.013
  B  B60  1  0.877200  0.453500  0.947200  1.0  0.0335
  B  B61  1  0.895500  0.571200  0.973900  1.0  0.0055
  B  B62  1  0.024100  0.610100  0.970100  1.0  0.0253
  B  B63  1  0.087100  0.508200  0.941500  1.0  0.0272
  B  B64  1  0.997200  0.412000  0.928100  1.0  0.0233
  H  H65  1  0.093600  0.941900  0.779000  1.0  -0.032
  H  H66  1  0.244200  0.971500  0.688200  1.0  -0.018
  H  H67  1  0.407100  0.828900  0.740600  1.0  -0.0345
  H  H68  1  0.359200  0.702200  0.870400  1.0  -0.0307
  H  H69  1  0.160800  0.774100  0.893800  1.0  -0.0274
  H  H70  1  0.990900  0.750500  0.728700  1.0  -0.0097
  H  H71  1  0.044300  0.875400  0.596000  1.0  -0.0286
  H  H72  1  0.238400  0.804900  0.573800  1.0  -0.0314
  H  H73  1  0.306200  0.639600  0.686500  1.0  -0.0335
  H  H74  1  0.162700  0.605900  0.782300  1.0  -0.0112
  H  H75  1  0.296700  0.076800  0.411200  1.0  -0.0418
  H  H76  1  0.324000  0.880700  0.454800  1.0  -0.0385
  H  H77  1  0.538900  0.816400  0.449500  1.0  -0.032
  H  H78  1  0.643000  0.986800  0.401300  1.0  -0.035
  H  H79  1  0.494700  0.146600  0.380000  1.0  -0.0436
  H  H80  1  0.406400  0.441900  0.721000  1.0  -0.0324
  H  H81  1  0.255800  0.471500  0.811800  1.0  -0.0147
  H  H82  1  0.092900  0.328900  0.759400  1.0  -0.0344
  H  H83  1  0.140800  0.202200  0.629600  1.0  -0.0307
  H  H84  1  0.339200  0.274100  0.606200  1.0  -0.0273
  H  H85  1  0.509100  0.250500  0.771300  1.0  -0.0096
  H  H86  1  0.455700  0.375400  0.904000  1.0  -0.0302
  H  H87  1  0.261600  0.304900  0.926200  1.0  -0.0317
  H  H88  1  0.193800  0.139600  0.813500  1.0  -0.0311
  H  H89  1  0.337300  0.105900  0.717700  1.0  -0.0103
  H  H90  1  0.203300  0.576800  0.088800  1.0  -0.0414
  H  H91  1  0.176000  0.380700  0.045200  1.0  -0.0354
  H  H92  1  0.961100  0.316400  0.050500  1.0  -0.0326
  H  H93  1  0.857000  0.486800  0.098700  1.0  -0.0364
  H  H94  1  0.005300  0.646600  0.120000  1.0  -0.0434
  H  H95  1  0.906400  0.058100  0.221000  1.0  -0.0328
  H  H96  1  0.755800  0.028500  0.311800  1.0  -0.0144
  H  H97  1  0.592900  0.171100  0.259400  1.0  -0.0345
  H  H98  1  0.640800  0.297800  0.129600  1.0  -0.0301
  H  H99  1  0.839200  0.225900  0.106200  1.0  -0.0277
  H  H100  1  0.009100  0.249500  0.271300  1.0  -0.0101
  H  H101  1  0.955700  0.124600  0.404000  1.0  -0.03
  H  H102  1  0.761600  0.195100  0.426200  1.0  -0.0314
  H  H103  1  0.693800  0.360400  0.313500  1.0  -0.0314
  H  H104  1  0.837300  0.394100  0.217700  1.0  -0.0075
  H  H105  1  0.703300  0.923200  0.588800  1.0  -0.0419
  H  H106  1  0.676000  0.119300  0.545200  1.0  -0.0372
  H  H107  1  0.461100  0.183600  0.550500  1.0  -0.0332
  H  H108  1  0.357000  0.013200  0.598700  1.0  -0.0347
  H  H109  1  0.505300  0.853400  0.620000  1.0  -0.0428
  H  H110  1  0.593600  0.558100  0.279000  1.0  -0.0326
  H  H111  1  0.744200  0.528500  0.188200  1.0  -0.0174
  H  H112  1  0.907100  0.671100  0.240600  1.0  -0.0342
  H  H113  1  0.859200  0.797800  0.370400  1.0  -0.031
  H  H114  1  0.660800  0.725900  0.393800  1.0  -0.0274
  H  H115  1  0.490900  0.749500  0.228700  1.0  -0.0102
  H  H116  1  0.544300  0.624600  0.096000  1.0  -0.0293
  H  H117  1  0.738400  0.695100  0.073800  1.0  -0.031
  H  H118  1  0.806200  0.860400  0.186500  1.0  -0.0333
  H  H119  1  0.662700  0.894100  0.282300  1.0  -0.009
  H  H120  1  0.796700  0.423200  0.911200  1.0  -0.0429
  H  H121  1  0.824000  0.619300  0.954800  1.0  -0.0393
  H  H122  1  0.038900  0.683600  0.949500  1.0  -0.0317
  H  H123  1  0.143000  0.513200  0.901300  1.0  -0.0343
  H  H124  1  0.994700  0.353400  0.880000  1.0  -0.043
  C  C125  1  0.266000  0.853700  0.809800  1.0  -0.0945
  C  C126  1  0.132600  0.724600  0.659200  1.0  -0.1078
  C  C127  1  0.334200  0.918700  0.884500  1.0  0.8396
  C  C128  1  0.066300  0.657300  0.586200  1.0  0.8448
  C  C129  1  0.451300  0.974300  0.401400  1.0  -0.0809
  C  C130  1  0.403000  0.949100  0.303000  1.0  0.7687
  C  C131  1  0.234000  0.353700  0.690200  1.0  -0.0955
  C  C132  1  0.367400  0.224600  0.840800  1.0  -0.1064
  C  C133  1  0.165800  0.418700  0.615500  1.0  0.8361
  C  C134  1  0.433700  0.157300  0.913800  1.0  0.8422
  C  C135  1  0.048700  0.474300  0.098600  1.0  -0.0803
  C  C136  1  0.097000  0.449100  0.197000  1.0  0.7682
  C  C137  1  0.734000  0.146300  0.190200  1.0  -0.0965
  C  C138  1  0.867400  0.275400  0.340800  1.0  -0.1061
  C  C139  1  0.665800  0.081300  0.115500  1.0  0.8367
  C  C140  1  0.933700  0.342700  0.413800  1.0  0.8415
  C  C141  1  0.548700  0.025700  0.598600  1.0  -0.0801
  C  C142  1  0.597000  0.050900  0.697000  1.0  0.7679
  C  C143  1  0.766000  0.646300  0.309800  1.0  -0.0946
  C  C144  1  0.632600  0.775400  0.159200  1.0  -0.1072
  C  C145  1  0.834200  0.581300  0.384500  1.0  0.8398
  C  C146  1  0.566300  0.842700  0.086200  1.0  0.8441
  C  C147  1  0.951300  0.525700  0.901400  1.0  -0.0802
  C  C148  1  0.903000  0.550900  0.803000  1.0  0.7681
  O  O149  1  0.292000  0.943100  0.941400  1.0  -0.7062
  O  O150  1  0.425300  0.940500  0.882100  1.0  -0.7608
  O  O151  1  0.980700  0.628800  0.593100  1.0  -0.7002
  O  O152  1  0.107300  0.638200  0.527800  1.0  -0.7633
  O  O153  1  0.425600  0.001100  0.248300  1.0  -0.8221
  O  O154  1  0.346100  0.876300  0.287400  1.0  -0.5995
  O  O155  1  0.208000  0.443100  0.558600  1.0  -0.705
  O  O156  1  0.074700  0.440500  0.617900  1.0  -0.7639
  O  O157  1  0.519300  0.128800  0.906900  1.0  -0.6994
  O  O158  1  0.392700  0.138200  0.972200  1.0  -0.7655
  O  O159  1  0.074400  0.501100  0.251700  1.0  -0.8231
  O  O160  1  0.153900  0.376300  0.212600  1.0  -0.6103
  O  O161  1  0.708000  0.056900  0.058600  1.0  -0.7039
  O  O162  1  0.574700  0.059500  0.117900  1.0  -0.7633
  O  O163  1  0.019300  0.371200  0.406900  1.0  -0.6992
  O  O164  1  0.892700  0.361800  0.472200  1.0  -0.7657
  O  O165  1  0.574400  0.998900  0.751700  1.0  -0.8215
  O  O166  1  0.653900  0.123700  0.712600  1.0  -0.6088
  O  O167  1  0.792000  0.556900  0.441400  1.0  -0.7054
  O  O168  1  0.925300  0.559500  0.382100  1.0  -0.7604
  O  O169  1  0.480700  0.871200  0.093100  1.0  -0.6993
  O  O170  1  0.607300  0.861800  0.027800  1.0  -0.763
  O  O171  1  0.925600  0.498900  0.748300  1.0  -0.823
  O  O172  1  0.846100  0.623700  0.787400  1.0  -0.5968
