# generated using pymatgen
data_In3Ni2(C23O14)2
_symmetry_space_group_name_H-M   'P 1'
_cell_length_a   49.59000000
_cell_length_b   49.59000000
_cell_length_c   9.91680000
_cell_angle_alpha   90.00000000
_cell_angle_beta   90.00000000
_cell_angle_gamma   120.00000000
_symmetry_Int_Tables_number   1
_chemical_formula_structural   In3Ni2(C23O14)2
_chemical_formula_sum   'In18 Ni12 C276 O168'
_cell_volume   21119.82925747
_cell_formula_units_Z   6
loop_
 _symmetry_equiv_pos_site_id
 _symmetry_equiv_pos_as_xyz
  1  'x, y, z'
loop_
 _atom_site_type_symbol
 _atom_site_label
 _atom_site_symmetry_multiplicity
 _atom_site_fract_x
 _atom_site_fract_y
 _atom_site_fract_z
 _atom_site_occupancy
 _atom_site_charge
  In  In1  1  0.206660  0.793510  0.499760  1.0  1.4654
  In  In2  1  0.164990  0.582570  0.500600  1.0  1.2715
  In  In3  1  0.206490  0.413150  0.499760  1.0  1.467
  In  In4  1  0.417430  0.582420  0.500600  1.0  1.2734
  In  In5  1  0.586850  0.793340  0.499760  1.0  1.4652
  In  In6  1  0.417580  0.835010  0.500600  1.0  1.2716
  In  In7  1  0.999950  0.359120  0.499900  1.0  1.5205
  In  In8  1  0.640880  0.640830  0.499900  1.0  1.5214
  In  In9  1  0.359170  0.000050  0.499900  1.0  1.5198
  In  In10  1  0.000050  0.640880  0.500100  1.0  1.5213
  In  In11  1  0.359120  0.359170  0.500100  1.0  1.521
  In  In12  1  0.640830  0.999950  0.500100  1.0  1.5202
  In  In13  1  0.793340  0.206490  0.500240  1.0  1.467
  In  In14  1  0.835010  0.417430  0.499400  1.0  1.2716
  In  In15  1  0.793510  0.586850  0.500240  1.0  1.4678
  In  In16  1  0.582570  0.417580  0.499400  1.0  1.2721
  In  In17  1  0.413150  0.206660  0.500240  1.0  1.4654
  In  In18  1  0.582420  0.164990  0.499400  1.0  1.2726
  Ni  Ni19  1  0.065980  0.820590  0.177600  1.0  0.7044
  Ni  Ni20  1  0.065430  0.820720  0.822600  1.0  0.5933
  Ni  Ni21  1  0.179410  0.245390  0.177600  1.0  0.7058
  Ni  Ni22  1  0.179280  0.244710  0.822600  1.0  0.5986
  Ni  Ni23  1  0.754610  0.934020  0.177600  1.0  0.7089
  Ni  Ni24  1  0.755290  0.934570  0.822600  1.0  0.5925
  Ni  Ni25  1  0.934020  0.179410  0.822400  1.0  0.7087
  Ni  Ni26  1  0.934570  0.179280  0.177400  1.0  0.5941
  Ni  Ni27  1  0.820590  0.754610  0.822400  1.0  0.7049
  Ni  Ni28  1  0.820720  0.755290  0.177400  1.0  0.6016
  Ni  Ni29  1  0.245390  0.065980  0.822400  1.0  0.7034
  Ni  Ni30  1  0.244710  0.065430  0.177400  1.0  0.5929
  C  C31  1  0.188000  0.593000  0.720000  1.0  0.2073
  C  C32  1  0.135200  0.647600  0.501000  1.0  0.0181
  C  C33  1  0.341200  0.908300  0.496000  1.0  0.2945
  C  C34  1  0.144600  0.699800  0.499000  1.0  0.0274
  C  C35  1  0.197500  0.800400  0.255000  1.0  0.3633
  C  C36  1  0.196900  0.801800  0.742000  1.0  0.4852
  C  C37  1  0.300600  0.856300  0.499000  1.0  0.0155
  C  C38  1  0.090700  0.657100  0.501000  1.0  0.1089
  C  C39  1  0.359900  0.894400  0.504000  1.0  0.0783
  C  C40  1  0.354200  0.864500  0.502000  1.0  0.2151
  C  C41  1  0.102400  0.637800  0.499000  1.0  0.092
  C  C42  1  0.354100  0.945900  0.497600  1.0  0.5301
  C  C43  1  0.324100  0.844200  0.503500  1.0  0.0526
  C  C44  1  0.156100  0.678000  0.498200  1.0  -0.0227
  C  C45  1  0.127900  0.612600  0.495000  1.0  0.1392
  C  C46  1  0.169000  0.734500  0.499000  1.0  0.4872
  C  C47  1  0.386600  0.871300  0.498000  1.0  0.3005
  C  C48  1  0.264200  0.832100  0.497600  1.0  0.6261
  C  C49  1  0.313300  0.889700  0.494000  1.0  0.1277
  C  C50  1  0.111500  0.686100  0.502000  1.0  0.108
  C  C51  1  0.193900  0.806800  0.996000  1.0  0.0895
  C  C52  1  0.188500  0.816700  0.867000  1.0  0.1041
  C  C53  1  0.186700  0.814000  0.128000  1.0  0.1149
  C  C54  1  0.155000  0.807400  0.109000  1.0  0.205
  C  C55  1  0.190200  0.844600  0.114000  1.0  0.0676
  C  C56  1  0.157900  0.813800  0.873000  1.0  0.0914
  C  C57  1  0.190400  0.846800  0.878000  1.0  -0.0639
  C  C58  1  0.126400  0.833800  0.991000  1.0  0.4624
  C  C59  1  0.146200  0.820000  0.996000  1.0  0.1334
  C  C60  1  0.185000  0.859700  0.000000  1.0  0.0058
  C  C61  1  0.407000  0.595000  0.720000  1.0  0.2041
  C  C62  1  0.352400  0.487600  0.501000  1.0  0.0224
  C  C63  1  0.091700  0.432900  0.496000  1.0  0.2933
  C  C64  1  0.300200  0.444800  0.499000  1.0  0.0277
  C  C65  1  0.199600  0.397100  0.255000  1.0  0.3648
  C  C66  1  0.198200  0.395100  0.742000  1.0  0.4864
  C  C67  1  0.143700  0.444300  0.499000  1.0  0.016
  C  C68  1  0.342900  0.433600  0.501000  1.0  0.1079
  C  C69  1  0.105600  0.465500  0.504000  1.0  0.0784
  C  C70  1  0.135500  0.489700  0.502000  1.0  0.2159
  C  C71  1  0.362200  0.464600  0.499000  1.0  0.0903
  C  C72  1  0.054100  0.408200  0.497600  1.0  0.526
  C  C73  1  0.155800  0.479900  0.503500  1.0  0.0524
  C  C74  1  0.322000  0.478100  0.498200  1.0  -0.0213
  C  C75  1  0.387400  0.515300  0.495000  1.0  0.137
  C  C76  1  0.265500  0.434500  0.499000  1.0  0.4864
  C  C77  1  0.128700  0.515300  0.498000  1.0  0.3012
  C  C78  1  0.167900  0.432100  0.497600  1.0  0.6251
  C  C79  1  0.110300  0.423600  0.494000  1.0  0.1283
  C  C80  1  0.313900  0.425400  0.502000  1.0  0.1064
  C  C81  1  0.193200  0.387100  0.996000  1.0  0.0849
  C  C82  1  0.183300  0.371800  0.867000  1.0  0.1044
  C  C83  1  0.186000  0.372700  0.128000  1.0  0.1133
  C  C84  1  0.192600  0.347600  0.109000  1.0  0.2101
  C  C85  1  0.155400  0.345600  0.114000  1.0  0.0695
  C  C86  1  0.186200  0.344100  0.873000  1.0  0.0877
  C  C87  1  0.153200  0.343600  0.878000  1.0  -0.0594
  C  C88  1  0.166200  0.292600  0.991000  1.0  0.4628
  C  C89  1  0.180000  0.326200  0.996000  1.0  0.1333
  C  C90  1  0.140300  0.325300  0.000000  1.0  0.0032
  C  C91  1  0.405000  0.812000  0.720000  1.0  0.202
  C  C92  1  0.512400  0.864800  0.501000  1.0  0.0199
  C  C93  1  0.567100  0.658800  0.496000  1.0  0.2938
  C  C94  1  0.555200  0.855400  0.499000  1.0  0.028
  C  C95  1  0.602900  0.802500  0.255000  1.0  0.3649
  C  C96  1  0.604900  0.803100  0.742000  1.0  0.4876
  C  C97  1  0.555700  0.699400  0.499000  1.0  0.0151
  C  C98  1  0.566400  0.909300  0.501000  1.0  0.107
  C  C99  1  0.534500  0.640100  0.504000  1.0  0.0787
  C  C100  1  0.510300  0.645800  0.502000  1.0  0.2145
  C  C101  1  0.535400  0.897600  0.499000  1.0  0.0914
  C  C102  1  0.591800  0.645900  0.497600  1.0  0.5282
  C  C103  1  0.520100  0.675900  0.503500  1.0  0.0516
  C  C104  1  0.521900  0.843900  0.498200  1.0  -0.019
  C  C105  1  0.484700  0.872100  0.495000  1.0  0.1364
  C  C106  1  0.565500  0.831000  0.499000  1.0  0.4875
  C  C107  1  0.484700  0.613400  0.498000  1.0  0.3036
  C  C108  1  0.567900  0.735800  0.497600  1.0  0.6261
  C  C109  1  0.576400  0.686700  0.494000  1.0  0.1288
  C  C110  1  0.574600  0.888500  0.502000  1.0  0.1087
  C  C111  1  0.612900  0.806100  0.996000  1.0  0.0886
  C  C112  1  0.628200  0.811500  0.867000  1.0  0.1051
  C  C113  1  0.627300  0.813300  0.128000  1.0  0.115
  C  C114  1  0.652400  0.845000  0.109000  1.0  0.2008
  C  C115  1  0.654400  0.809800  0.114000  1.0  0.0741
  C  C116  1  0.655900  0.842100  0.873000  1.0  0.084
  C  C117  1  0.656400  0.809600  0.878000  1.0  -0.0645
  C  C118  1  0.707400  0.873600  0.991000  1.0  0.4623
  C  C119  1  0.673800  0.853800  0.996000  1.0  0.1337
  C  C120  1  0.674700  0.815000  0.000000  1.0  0.0063
  C  C121  1  0.999800  0.339800  0.745000  1.0  0.6446
  C  C122  1  0.947300  0.352600  0.502700  1.0  0.6137
  C  C123  1  0.998500  0.338800  0.259000  1.0  0.6571
  C  C124  1  0.999500  0.342400  0.000000  1.0  0.1628
  C  C125  1  0.023900  0.341400  0.903000  1.0  0.0752
  C  C126  1  0.994100  0.324000  0.891000  1.0  0.1523
  C  C127  1  0.016800  0.306100  0.863000  1.0  0.1065
  C  C128  1  0.986500  0.290700  0.878000  1.0  -0.0018
  C  C129  1  0.021600  0.343100  0.090000  1.0  0.1293
  C  C130  1  0.992800  0.325800  0.107000  1.0  0.1633
  C  C131  1  0.983900  0.291300  0.126000  1.0  -0.0209
  C  C132  1  0.018900  0.310200  0.124000  1.0  0.0624
  C  C133  1  0.038000  0.279800  0.002000  1.0  0.661
  C  C134  1  0.959900  0.237100  0.986000  1.0  0.44
  C  C135  1  0.030200  0.305400  0.998000  1.0  0.0008
  C  C136  1  0.966200  0.271800  0.004000  1.0  -0.0562
  C  C137  1  0.660200  0.660000  0.745000  1.0  0.6446
  C  C138  1  0.647400  0.594700  0.502700  1.0  0.612
  C  C139  1  0.661200  0.659700  0.259000  1.0  0.6624
  C  C140  1  0.657600  0.657100  0.000000  1.0  0.1603
  C  C141  1  0.658600  0.682500  0.903000  1.0  0.0862
  C  C142  1  0.676000  0.670100  0.891000  1.0  0.159
  C  C143  1  0.693900  0.710700  0.863000  1.0  0.1085
  C  C144  1  0.709300  0.695800  0.878000  1.0  -0.0032
  C  C145  1  0.656900  0.678500  0.090000  1.0  0.144
  C  C146  1  0.674200  0.667000  0.107000  1.0  0.1637
  C  C147  1  0.708700  0.692600  0.126000  1.0  -0.0145
  C  C148  1  0.689800  0.708700  0.124000  1.0  0.0627
  C  C149  1  0.720200  0.758200  0.002000  1.0  0.6606
  C  C150  1  0.762900  0.722800  0.986000  1.0  0.4409
  C  C151  1  0.694600  0.724800  0.998000  1.0  0.0019
  C  C152  1  0.728200  0.694400  0.004000  1.0  -0.0535
  C  C153  1  0.340000  0.000200  0.745000  1.0  0.6469
  C  C154  1  0.405300  0.052700  0.502700  1.0  0.6126
  C  C155  1  0.340300  0.001500  0.259000  1.0  0.6604
  C  C156  1  0.342900  0.000500  0.000000  1.0  0.168
  C  C157  1  0.317500  0.976100  0.903000  1.0  0.0809
  C  C158  1  0.329900  0.005900  0.891000  1.0  0.1515
  C  C159  1  0.289300  0.983200  0.863000  1.0  0.11
  C  C160  1  0.304200  0.013500  0.878000  1.0  -0.0013
  C  C161  1  0.321500  0.978400  0.090000  1.0  0.1411
  C  C162  1  0.333000  0.007200  0.107000  1.0  0.1596
  C  C163  1  0.307400  0.016100  0.126000  1.0  -0.017
  C  C164  1  0.291300  0.981100  0.124000  1.0  0.0609
  C  C165  1  0.241800  0.962000  0.002000  1.0  0.6606
  C  C166  1  0.277200  0.040100  0.986000  1.0  0.4389
  C  C167  1  0.275200  0.969800  0.998000  1.0  -0.002
  C  C168  1  0.305600  0.033800  0.004000  1.0  -0.056
  C  C169  1  0.000200  0.660200  0.255000  1.0  0.6498
  C  C170  1  0.052700  0.647400  0.497300  1.0  0.614
  C  C171  1  0.001500  0.661200  0.741000  1.0  0.6589
  C  C172  1  0.000500  0.657600  0.000000  1.0  0.1675
  C  C173  1  0.976100  0.658600  0.097000  1.0  0.0801
  C  C174  1  0.005900  0.676000  0.109000  1.0  0.148
  C  C175  1  0.983200  0.693900  0.137000  1.0  0.1042
  C  C176  1  0.013500  0.709300  0.122000  1.0  -0.0062
  C  C177  1  0.978400  0.656900  0.910000  1.0  0.1378
  C  C178  1  0.007200  0.674200  0.893000  1.0  0.1641
  C  C179  1  0.016100  0.708700  0.874000  1.0  -0.0186
  C  C180  1  0.981100  0.689800  0.876000  1.0  0.0672
  C  C181  1  0.962000  0.720200  0.998000  1.0  0.6641
  C  C182  1  0.040100  0.762900  0.014000  1.0  0.4396
  C  C183  1  0.969800  0.694600  0.002000  1.0  -0.0016
  C  C184  1  0.033800  0.728200  0.996000  1.0  -0.0554
  C  C185  1  0.339800  0.340000  0.255000  1.0  0.6494
  C  C186  1  0.352600  0.405300  0.497300  1.0  0.6123
  C  C187  1  0.338800  0.340300  0.741000  1.0  0.6595
  C  C188  1  0.342400  0.342900  0.000000  1.0  0.1623
  C  C189  1  0.341400  0.317500  0.097000  1.0  0.0809
  C  C190  1  0.324000  0.329900  0.109000  1.0  0.1546
  C  C191  1  0.306100  0.289300  0.137000  1.0  0.1031
  C  C192  1  0.290700  0.304200  0.122000  1.0  -0.0019
  C  C193  1  0.343100  0.321500  0.910000  1.0  0.1399
  C  C194  1  0.325800  0.333000  0.893000  1.0  0.1598
  C  C195  1  0.291300  0.307400  0.874000  1.0  -0.0156
  C  C196  1  0.310200  0.291300  0.876000  1.0  0.0645
  C  C197  1  0.279800  0.241800  0.998000  1.0  0.6594
  C  C198  1  0.237100  0.277200  0.014000  1.0  0.4382
  C  C199  1  0.305400  0.275200  0.002000  1.0  0.0036
  C  C200  1  0.271800  0.305600  0.996000  1.0  -0.0526
  C  C201  1  0.660000  0.999800  0.255000  1.0  0.6447
  C  C202  1  0.594700  0.947300  0.497300  1.0  0.6139
  C  C203  1  0.659700  0.998500  0.741000  1.0  0.6577
  C  C204  1  0.657100  0.999500  0.000000  1.0  0.1666
  C  C205  1  0.682500  0.023900  0.097000  1.0  0.0787
  C  C206  1  0.670100  0.994100  0.109000  1.0  0.1517
  C  C207  1  0.710700  0.016800  0.137000  1.0  0.1074
  C  C208  1  0.695800  0.986500  0.122000  1.0  -0.0033
  C  C209  1  0.678500  0.021600  0.910000  1.0  0.1388
  C  C210  1  0.667000  0.992800  0.893000  1.0  0.1652
  C  C211  1  0.692600  0.983900  0.874000  1.0  -0.0131
  C  C212  1  0.708700  0.018900  0.876000  1.0  0.0655
  C  C213  1  0.758200  0.038000  0.998000  1.0  0.6591
  C  C214  1  0.722800  0.959900  0.014000  1.0  0.4388
  C  C215  1  0.724800  0.030200  0.002000  1.0  -0.001
  C  C216  1  0.694400  0.966200  0.996000  1.0  -0.0545
  C  C217  1  0.812000  0.407000  0.280000  1.0  0.2018
  C  C218  1  0.864800  0.352400  0.499000  1.0  0.0229
  C  C219  1  0.658800  0.091700  0.504000  1.0  0.2954
  C  C220  1  0.855400  0.300200  0.501000  1.0  0.0277
  C  C221  1  0.802500  0.199600  0.745000  1.0  0.3644
  C  C222  1  0.803100  0.198200  0.258000  1.0  0.4878
  C  C223  1  0.699400  0.143700  0.501000  1.0  0.0151
  C  C224  1  0.909300  0.342900  0.499000  1.0  0.1065
  C  C225  1  0.640100  0.105600  0.496000  1.0  0.0761
  C  C226  1  0.645800  0.135500  0.498000  1.0  0.2147
  C  C227  1  0.897600  0.362200  0.501000  1.0  0.0908
  C  C228  1  0.645900  0.054100  0.502400  1.0  0.5269
  C  C229  1  0.675900  0.155800  0.496500  1.0  0.051
  C  C230  1  0.843900  0.322000  0.501800  1.0  -0.0203
  C  C231  1  0.872100  0.387400  0.505000  1.0  0.1384
  C  C232  1  0.831000  0.265500  0.501000  1.0  0.4859
  C  C233  1  0.613400  0.128700  0.502000  1.0  0.3018
  C  C234  1  0.735800  0.167900  0.502400  1.0  0.6237
  C  C235  1  0.686700  0.110300  0.506000  1.0  0.1348
  C  C236  1  0.888500  0.313900  0.498000  1.0  0.1087
  C  C237  1  0.806100  0.193200  0.004000  1.0  0.0879
  C  C238  1  0.811500  0.183300  0.133000  1.0  0.104
  C  C239  1  0.813300  0.186000  0.872000  1.0  0.1167
  C  C240  1  0.845000  0.192600  0.891000  1.0  0.2009
  C  C241  1  0.809800  0.155400  0.886000  1.0  0.0707
  C  C242  1  0.842100  0.186200  0.127000  1.0  0.0905
  C  C243  1  0.809600  0.153200  0.122000  1.0  -0.0557
  C  C244  1  0.873600  0.166200  0.009000  1.0  0.4646
  C  C245  1  0.853800  0.180000  0.004000  1.0  0.1315
  C  C246  1  0.815000  0.140300  0.000000  1.0  0.0101
  C  C247  1  0.593000  0.405000  0.280000  1.0  0.2082
  C  C248  1  0.647600  0.512400  0.499000  1.0  0.0223
  C  C249  1  0.908300  0.567100  0.504000  1.0  0.2949
  C  C250  1  0.699800  0.555200  0.501000  1.0  0.0293
  C  C251  1  0.800400  0.602900  0.745000  1.0  0.365
  C  C252  1  0.801800  0.604900  0.258000  1.0  0.4881
  C  C253  1  0.856300  0.555700  0.501000  1.0  0.0156
  C  C254  1  0.657100  0.566400  0.499000  1.0  0.1068
  C  C255  1  0.894400  0.534500  0.496000  1.0  0.0778
  C  C256  1  0.864500  0.510300  0.498000  1.0  0.2152
  C  C257  1  0.637800  0.535400  0.501000  1.0  0.0887
  C  C258  1  0.945900  0.591800  0.502400  1.0  0.5284
  C  C259  1  0.844200  0.520100  0.496500  1.0  0.0513
  C  C260  1  0.678000  0.521900  0.501800  1.0  -0.02
  C  C261  1  0.612600  0.484700  0.505000  1.0  0.1352
  C  C262  1  0.734500  0.565500  0.501000  1.0  0.4869
  C  C263  1  0.871300  0.484700  0.502000  1.0  0.2996
  C  C264  1  0.832100  0.567900  0.502400  1.0  0.627
  C  C265  1  0.889700  0.576400  0.506000  1.0  0.1254
  C  C266  1  0.686100  0.574600  0.498000  1.0  0.107
  C  C267  1  0.806800  0.612900  0.004000  1.0  0.0885
  C  C268  1  0.816700  0.628200  0.133000  1.0  0.1048
  C  C269  1  0.814000  0.627300  0.872000  1.0  0.1154
  C  C270  1  0.807400  0.652400  0.891000  1.0  0.2014
  C  C271  1  0.844600  0.654400  0.886000  1.0  0.0688
  C  C272  1  0.813800  0.655900  0.127000  1.0  0.0877
  C  C273  1  0.846800  0.656400  0.122000  1.0  -0.052
  C  C274  1  0.833800  0.707400  0.009000  1.0  0.4628
  C  C275  1  0.820000  0.673800  0.004000  1.0  0.1324
  C  C276  1  0.859700  0.674700  0.000000  1.0  0.0021
  C  C277  1  0.595000  0.188000  0.280000  1.0  0.206
  C  C278  1  0.487600  0.135200  0.499000  1.0  0.0185
  C  C279  1  0.432900  0.341200  0.504000  1.0  0.2957
  C  C280  1  0.444800  0.144600  0.501000  1.0  0.0272
  C  C281  1  0.397100  0.197500  0.745000  1.0  0.3645
  C  C282  1  0.395100  0.196900  0.258000  1.0  0.4853
  C  C283  1  0.444300  0.300600  0.501000  1.0  0.0163
  C  C284  1  0.433600  0.090700  0.499000  1.0  0.1065
  C  C285  1  0.465500  0.359900  0.496000  1.0  0.0793
  C  C286  1  0.489700  0.354200  0.498000  1.0  0.2157
  C  C287  1  0.464600  0.102400  0.501000  1.0  0.0921
  C  C288  1  0.408200  0.354100  0.502400  1.0  0.5273
  C  C289  1  0.479900  0.324100  0.496500  1.0  0.052
  C  C290  1  0.478100  0.156100  0.501800  1.0  -0.0245
  C  C291  1  0.515300  0.127900  0.505000  1.0  0.1375
  C  C292  1  0.434500  0.169000  0.501000  1.0  0.4865
  C  C293  1  0.515300  0.386600  0.502000  1.0  0.3016
  C  C294  1  0.432100  0.264200  0.502400  1.0  0.6253
  C  C295  1  0.423600  0.313300  0.506000  1.0  0.1275
  C  C296  1  0.425400  0.111500  0.498000  1.0  0.1104
  C  C297  1  0.387100  0.193900  0.004000  1.0  0.0873
  C  C298  1  0.371800  0.188500  0.133000  1.0  0.1047
  C  C299  1  0.372700  0.186700  0.872000  1.0  0.1164
  C  C300  1  0.347600  0.155000  0.891000  1.0  0.2085
  C  C301  1  0.345600  0.190200  0.886000  1.0  0.071
  C  C302  1  0.344100  0.157900  0.127000  1.0  0.0919
  C  C303  1  0.343600  0.190400  0.122000  1.0  -0.0423
  C  C304  1  0.292600  0.126400  0.009000  1.0  0.4594
  C  C305  1  0.326200  0.146200  0.004000  1.0  0.1353
  C  C306  1  0.325300  0.185000  0.000000  1.0  0.005
  O  O307  1  0.187200  0.815500  0.638900  1.0  -0.565
  O  O308  1  0.210900  0.790700  0.751600  1.0  -0.5096
  O  O309  1  0.209800  0.789900  0.254100  1.0  -0.563
  O  O310  1  0.155100  0.576200  0.725000  1.0  -0.5137
  O  O311  1  0.186100  0.814300  0.360800  1.0  -0.6815
  O  O312  1  0.122700  0.587600  0.498100  1.0  -0.5633
  O  O313  1  0.411700  0.877700  0.494500  1.0  -0.5959
  O  O314  1  0.197000  0.743900  0.496700  1.0  -0.4823
  O  O315  1  0.245500  0.844800  0.501000  1.0  -0.5052
  O  O316  1  0.155800  0.755300  0.497600  1.0  -0.6331
  O  O317  1  0.256900  0.805100  0.498600  1.0  -0.4742
  O  O318  1  0.377800  0.966300  0.495800  1.0  -0.4842
  O  O319  1  0.368300  0.832900  0.498300  1.0  -0.6525
  O  O320  1  0.332100  0.948800  0.507700  1.0  -0.5186
  O  O321  1  0.211600  0.604500  0.661000  1.0  -0.4326
  O  O322  1  0.059400  0.835600  0.011000  1.0  -0.6284
  O  O323  1  0.104900  0.824300  0.908000  1.0  -0.5789
  O  O324  1  0.105000  0.824500  0.087000  1.0  -0.6147
  O  O325  1  0.184500  0.371700  0.638900  1.0  -0.565
  O  O326  1  0.209300  0.420200  0.751600  1.0  -0.5088
  O  O327  1  0.210100  0.419900  0.254100  1.0  -0.5592
  O  O328  1  0.423800  0.578900  0.725000  1.0  -0.5147
  O  O329  1  0.185700  0.371800  0.360800  1.0  -0.6821
  O  O330  1  0.412400  0.535100  0.498100  1.0  -0.5648
  O  O331  1  0.122300  0.534000  0.494500  1.0  -0.5948
  O  O332  1  0.256100  0.453100  0.496700  1.0  -0.4785
  O  O333  1  0.155200  0.400700  0.501000  1.0  -0.5039
  O  O334  1  0.244700  0.400500  0.497600  1.0  -0.6358
  O  O335  1  0.194900  0.451800  0.498600  1.0  -0.472
  O  O336  1  0.033700  0.411500  0.495800  1.0  -0.487
  O  O337  1  0.167100  0.535400  0.498300  1.0  -0.6547
  O  O338  1  0.051200  0.383300  0.507700  1.0  -0.5185
  O  O339  1  0.395500  0.607100  0.661000  1.0  -0.4309
  O  O340  1  0.164400  0.223800  0.011000  1.0  -0.6264
  O  O341  1  0.175700  0.280600  0.908000  1.0  -0.5798
  O  O342  1  0.175500  0.280500  0.087000  1.0  -0.6132
  O  O343  1  0.628300  0.812800  0.638900  1.0  -0.5637
  O  O344  1  0.579800  0.789100  0.751600  1.0  -0.5132
  O  O345  1  0.580100  0.790200  0.254100  1.0  -0.5616
  O  O346  1  0.421100  0.844900  0.725000  1.0  -0.5151
  O  O347  1  0.628200  0.813900  0.360800  1.0  -0.681
  O  O348  1  0.464900  0.877300  0.498100  1.0  -0.5642
  O  O349  1  0.466000  0.588300  0.494500  1.0  -0.5929
  O  O350  1  0.546900  0.803000  0.496700  1.0  -0.484
  O  O351  1  0.599300  0.754500  0.501000  1.0  -0.5031
  O  O352  1  0.599500  0.844200  0.497600  1.0  -0.6343
  O  O353  1  0.548200  0.743100  0.498600  1.0  -0.4783
  O  O354  1  0.588500  0.622200  0.495800  1.0  -0.4855
  O  O355  1  0.464600  0.631700  0.498300  1.0  -0.6547
  O  O356  1  0.616700  0.667900  0.507700  1.0  -0.5185
  O  O357  1  0.392900  0.788400  0.661000  1.0  -0.4305
  O  O358  1  0.776200  0.940600  0.011000  1.0  -0.6273
  O  O359  1  0.719400  0.895100  0.908000  1.0  -0.5782
  O  O360  1  0.719500  0.895000  0.087000  1.0  -0.6121
  O  O361  1  0.000700  0.366300  0.737200  1.0  -0.5098
  O  O362  1  0.999900  0.324400  0.645600  1.0  -0.5175
  O  O363  1  0.000400  0.365000  0.260600  1.0  -0.5244
  O  O364  1  0.966200  0.379200  0.502300  1.0  -0.4361
  O  O365  1  0.948000  0.329600  0.502000  1.0  -0.4996
  O  O366  1  0.999100  0.323000  0.355500  1.0  -0.5134
  O  O367  1  0.962400  0.227200  0.901000  1.0  -0.5943
  O  O368  1  0.962800  0.228300  0.097000  1.0  -0.5425
  O  O369  1  0.036200  0.264100  0.097000  1.0  -0.3295
  O  O370  1  0.036800  0.263900  0.904000  1.0  -0.3859
  O  O371  1  0.633700  0.634400  0.737200  1.0  -0.5052
  O  O372  1  0.675600  0.675500  0.645600  1.0  -0.5145
  O  O373  1  0.635000  0.635400  0.260600  1.0  -0.5246
  O  O374  1  0.620800  0.587000  0.502300  1.0  -0.4372
  O  O375  1  0.670400  0.618400  0.502000  1.0  -0.5023
  O  O376  1  0.677000  0.676100  0.355500  1.0  -0.5134
  O  O377  1  0.772800  0.735200  0.901000  1.0  -0.5948
  O  O378  1  0.771700  0.734500  0.097000  1.0  -0.5452
  O  O379  1  0.735900  0.772100  0.097000  1.0  -0.3224
  O  O380  1  0.736100  0.772900  0.904000  1.0  -0.383
  O  O381  1  0.365600  0.999300  0.737200  1.0  -0.5073
  O  O382  1  0.324500  0.000100  0.645600  1.0  -0.5146
  O  O383  1  0.364600  0.999600  0.260600  1.0  -0.5229
  O  O384  1  0.413000  0.033800  0.502300  1.0  -0.4371
  O  O385  1  0.381600  0.052000  0.502000  1.0  -0.5031
  O  O386  1  0.323900  0.000900  0.355500  1.0  -0.5132
  O  O387  1  0.264800  0.037600  0.901000  1.0  -0.5962
  O  O388  1  0.265500  0.037200  0.097000  1.0  -0.5427
  O  O389  1  0.227900  0.963800  0.097000  1.0  -0.3261
  O  O390  1  0.227100  0.963200  0.904000  1.0  -0.386
  O  O391  1  0.999300  0.633700  0.262800  1.0  -0.5087
  O  O392  1  0.000100  0.675600  0.354400  1.0  -0.5148
  O  O393  1  0.999600  0.635000  0.739400  1.0  -0.5228
  O  O394  1  0.033800  0.620800  0.497700  1.0  -0.4366
  O  O395  1  0.052000  0.670400  0.498000  1.0  -0.4978
  O  O396  1  0.000900  0.677000  0.644500  1.0  -0.5125
  O  O397  1  0.037600  0.772800  0.099000  1.0  -0.591
  O  O398  1  0.037200  0.771700  0.903000  1.0  -0.5469
  O  O399  1  0.963800  0.735900  0.903000  1.0  -0.3265
  O  O400  1  0.963200  0.736100  0.096000  1.0  -0.3879
  O  O401  1  0.366300  0.365600  0.262800  1.0  -0.5065
  O  O402  1  0.324400  0.324500  0.354400  1.0  -0.515
  O  O403  1  0.365000  0.364600  0.739400  1.0  -0.5243
  O  O404  1  0.379200  0.413000  0.497700  1.0  -0.4413
  O  O405  1  0.329600  0.381600  0.498000  1.0  -0.5032
  O  O406  1  0.323000  0.323900  0.644500  1.0  -0.5107
  O  O407  1  0.227200  0.264800  0.099000  1.0  -0.5906
  O  O408  1  0.228300  0.265500  0.903000  1.0  -0.5439
  O  O409  1  0.264100  0.227900  0.903000  1.0  -0.3243
  O  O410  1  0.263900  0.227100  0.096000  1.0  -0.3873
  O  O411  1  0.634400  0.000700  0.262800  1.0  -0.5075
  O  O412  1  0.675500  0.999900  0.354400  1.0  -0.5163
  O  O413  1  0.635400  0.000400  0.739400  1.0  -0.5231
  O  O414  1  0.587000  0.966200  0.497700  1.0  -0.4373
  O  O415  1  0.618400  0.948000  0.498000  1.0  -0.5004
  O  O416  1  0.676100  0.999100  0.644500  1.0  -0.514
  O  O417  1  0.735200  0.962400  0.099000  1.0  -0.5887
  O  O418  1  0.734500  0.962800  0.903000  1.0  -0.5434
  O  O419  1  0.772100  0.036200  0.903000  1.0  -0.3265
  O  O420  1  0.772900  0.036800  0.096000  1.0  -0.3865
  O  O421  1  0.812800  0.184500  0.361100  1.0  -0.5644
  O  O422  1  0.789100  0.209300  0.248400  1.0  -0.5118
  O  O423  1  0.790200  0.210100  0.745900  1.0  -0.5616
  O  O424  1  0.844900  0.423800  0.275000  1.0  -0.5169
  O  O425  1  0.813900  0.185700  0.639200  1.0  -0.6802
  O  O426  1  0.877300  0.412400  0.501900  1.0  -0.562
  O  O427  1  0.588300  0.122300  0.505500  1.0  -0.5961
  O  O428  1  0.803000  0.256100  0.503300  1.0  -0.4844
  O  O429  1  0.754500  0.155200  0.499000  1.0  -0.5048
  O  O430  1  0.844200  0.244700  0.502400  1.0  -0.635
  O  O431  1  0.743100  0.194900  0.501400  1.0  -0.4779
  O  O432  1  0.622200  0.033700  0.504200  1.0  -0.4862
  O  O433  1  0.631700  0.167100  0.501700  1.0  -0.6539
  O  O434  1  0.667900  0.051200  0.492300  1.0  -0.5175
  O  O435  1  0.788400  0.395500  0.339000  1.0  -0.433
  O  O436  1  0.940600  0.164400  0.989000  1.0  -0.6301
  O  O437  1  0.895100  0.175700  0.092000  1.0  -0.5769
  O  O438  1  0.895000  0.175500  0.913000  1.0  -0.6156
  O  O439  1  0.815500  0.628300  0.361100  1.0  -0.5627
  O  O440  1  0.790700  0.579800  0.248400  1.0  -0.5067
  O  O441  1  0.789900  0.580100  0.745900  1.0  -0.5597
  O  O442  1  0.576200  0.421100  0.275000  1.0  -0.5147
  O  O443  1  0.814300  0.628200  0.639200  1.0  -0.6823
  O  O444  1  0.587600  0.464900  0.501900  1.0  -0.5643
  O  O445  1  0.877700  0.466000  0.505500  1.0  -0.5941
  O  O446  1  0.743900  0.546900  0.503300  1.0  -0.4777
  O  O447  1  0.844800  0.599300  0.499000  1.0  -0.5056
  O  O448  1  0.755300  0.599500  0.502400  1.0  -0.6365
  O  O449  1  0.805100  0.548200  0.501400  1.0  -0.4688
  O  O450  1  0.966300  0.588500  0.504200  1.0  -0.4857
  O  O451  1  0.832900  0.464600  0.501700  1.0  -0.6567
  O  O452  1  0.948800  0.616700  0.492300  1.0  -0.521
  O  O453  1  0.604500  0.392900  0.339000  1.0  -0.4347
  O  O454  1  0.835600  0.776200  0.989000  1.0  -0.6284
  O  O455  1  0.824300  0.719400  0.092000  1.0  -0.5761
  O  O456  1  0.824500  0.719500  0.913000  1.0  -0.6162
  O  O457  1  0.371700  0.187200  0.361100  1.0  -0.5653
  O  O458  1  0.420200  0.210900  0.248400  1.0  -0.5075
  O  O459  1  0.419900  0.209800  0.745900  1.0  -0.5636
  O  O460  1  0.578900  0.155100  0.275000  1.0  -0.5174
  O  O461  1  0.371800  0.186100  0.639200  1.0  -0.682
  O  O462  1  0.535100  0.122700  0.501900  1.0  -0.5651
  O  O463  1  0.534000  0.411700  0.505500  1.0  -0.5933
  O  O464  1  0.453100  0.197000  0.503300  1.0  -0.4842
  O  O465  1  0.400700  0.245500  0.499000  1.0  -0.505
  O  O466  1  0.400500  0.155800  0.502400  1.0  -0.6345
  O  O467  1  0.451800  0.256900  0.501400  1.0  -0.4737
  O  O468  1  0.411500  0.377800  0.504200  1.0  -0.4836
  O  O469  1  0.535400  0.368300  0.501700  1.0  -0.6562
  O  O470  1  0.383300  0.332100  0.492300  1.0  -0.5162
  O  O471  1  0.607100  0.211600  0.339000  1.0  -0.4306
  O  O472  1  0.223800  0.059400  0.989000  1.0  -0.6245
  O  O473  1  0.280600  0.104900  0.092000  1.0  -0.5767
  O  O474  1  0.280500  0.105000  0.913000  1.0  -0.6161
