# generated using pymatgen
data_Cd3H20C30N5ClO13
_symmetry_space_group_name_H-M   'P 1'
_cell_length_a   19.04120000
_cell_length_b   21.56810000
_cell_length_c   23.65400000
_cell_angle_alpha   90.00000000
_cell_angle_beta   90.00000000
_cell_angle_gamma   95.44000000
_symmetry_Int_Tables_number   1
_chemical_formula_structural   Cd3H20C30N5ClO13
_chemical_formula_sum   'Cd24 H160 C240 N40 Cl8 O104'
_cell_volume   9670.53106891
_cell_formula_units_Z   8
loop_
 _symmetry_equiv_pos_site_id
 _symmetry_equiv_pos_as_xyz
  1  'x, y, z'
loop_
 _atom_site_type_symbol
 _atom_site_label
 _atom_site_symmetry_multiplicity
 _atom_site_fract_x
 _atom_site_fract_y
 _atom_site_fract_z
 _atom_site_occupancy
 _atom_site_charge
  Cd  Cd1  1  0.732070  0.831500  0.878810  1.0  1.0194
  Cd  Cd2  1  0.792760  0.753250  0.007260  1.0  1.0325
  Cd  Cd3  1  0.836280  0.656970  0.880510  1.0  1.0742
  Cd  Cd4  1  0.336430  0.658830  0.881930  1.0  1.0549
  Cd  Cd5  1  0.291500  0.741280  0.747820  1.0  1.0433
  Cd  Cd6  1  0.232260  0.833120  0.867130  1.0  1.06
  Cd  Cd7  1  0.767930  0.668500  0.378810  1.0  1.0195
  Cd  Cd8  1  0.707240  0.746750  0.507260  1.0  1.0327
  Cd  Cd9  1  0.663720  0.843030  0.380510  1.0  1.0744
  Cd  Cd10  1  0.163570  0.841170  0.381930  1.0  1.0552
  Cd  Cd11  1  0.208500  0.758720  0.247820  1.0  1.0431
  Cd  Cd12  1  0.267740  0.666880  0.367130  1.0  1.0592
  Cd  Cd13  1  0.267930  0.168500  0.121190  1.0  1.0195
  Cd  Cd14  1  0.207240  0.246750  0.992740  1.0  1.0334
  Cd  Cd15  1  0.163720  0.343030  0.119490  1.0  1.0745
  Cd  Cd16  1  0.663570  0.341170  0.118070  1.0  1.0552
  Cd  Cd17  1  0.708500  0.258720  0.252180  1.0  1.0422
  Cd  Cd18  1  0.767740  0.166880  0.132870  1.0  1.0593
  Cd  Cd19  1  0.232070  0.331500  0.621190  1.0  1.0199
  Cd  Cd20  1  0.292760  0.253250  0.492740  1.0  1.0334
  Cd  Cd21  1  0.336280  0.156970  0.619490  1.0  1.0743
  Cd  Cd22  1  0.836430  0.158830  0.618070  1.0  1.0549
  Cd  Cd23  1  0.791500  0.241280  0.752180  1.0  1.0422
  Cd  Cd24  1  0.732260  0.333120  0.632870  1.0  1.06
  H  H25  1  0.683600  0.087500  0.034200  1.0  0.0991
  H  H26  1  0.681400  0.994600  0.982600  1.0  0.1215
  H  H27  1  0.833000  0.939500  0.085900  1.0  0.1345
  H  H28  1  0.828200  0.031300  0.136400  1.0  0.0867
  H  H29  1  0.772000  0.391700  0.019000  1.0  0.1028
  H  H30  1  0.826500  0.483700  0.981500  1.0  0.1214
  H  H31  1  0.686500  0.578500  0.067100  1.0  0.1348
  H  H32  1  0.636600  0.485000  0.103000  1.0  0.1006
  H  H33  1  0.803300  0.670800  0.598100  1.0  0.0794
  H  H34  1  0.824400  0.665400  0.694200  1.0  0.1261
  H  H35  1  0.725600  0.820700  0.714400  1.0  0.1199
  H  H36  1  0.709600  0.824500  0.615600  1.0  0.117
  H  H37  1  0.112300  0.781100  0.955200  1.0  0.1111
  H  H38  1  0.992400  0.763100  0.965400  1.0  0.1152
  H  H39  1  0.967300  0.869700  0.827400  1.0  0.1399
  H  H40  1  0.088900  0.877300  0.815400  1.0  0.0921
  H  H41  1  0.479500  0.605200  0.837400  1.0  0.093
  H  H42  1  0.601500  0.618900  0.846900  1.0  0.123
  H  H43  1  0.577400  0.732300  0.978400  1.0  0.1233
  H  H44  1  0.455100  0.712400  0.970000  1.0  0.1137
  H  H45  1  0.609300  0.773600  0.795800  1.0  0.1071
  H  H46  1  0.488700  0.755300  0.787800  1.0  0.1307
  H  H47  1  0.469100  0.878100  0.914900  1.0  0.1371
  H  H48  1  0.591700  0.886400  0.925000  1.0  0.0954
  H  H49  1  0.834000  0.893700  0.778300  1.0  0.0854
  H  H50  1  0.861500  0.983400  0.727100  1.0  0.1334
  H  H51  1  0.703000  0.058200  0.808200  1.0  0.1306
  H  H52  1  0.678600  0.964400  0.855400  1.0  0.095
  H  H53  1  0.731600  0.586200  0.788000  1.0  0.1125
  H  H54  1  0.707600  0.490300  0.742600  1.0  0.1204
  H  H55  1  0.862000  0.422700  0.834600  1.0  0.1376
  H  H56  1  0.882900  0.519100  0.876900  1.0  0.09
  H  H57  1  0.217100  0.841800  0.140800  1.0  0.0981
  H  H58  1  0.228200  0.837400  0.042800  1.0  0.1252
  H  H59  1  0.328100  0.682900  0.062400  1.0  0.1101
  H  H60  1  0.309000  0.687800  0.157800  1.0  0.0925
  H  H61  1  0.952300  0.702500  0.788600  1.0  0.1096
  H  H62  1  0.073500  0.719600  0.775000  1.0  0.1304
  H  H63  1  0.102200  0.623400  0.919700  1.0  0.1378
  H  H64  1  0.979300  0.608800  0.928300  1.0  0.0948
  H  H65  1  0.816400  0.412500  0.534200  1.0  0.0993
  H  H66  1  0.818600  0.505400  0.482600  1.0  0.1216
  H  H67  1  0.667000  0.560500  0.585900  1.0  0.134
  H  H68  1  0.671800  0.468700  0.636400  1.0  0.0856
  H  H69  1  0.728000  0.108300  0.519000  1.0  0.102
  H  H70  1  0.673500  0.016300  0.481500  1.0  0.1212
  H  H71  1  0.813500  0.921500  0.567100  1.0  0.1346
  H  H72  1  0.863400  0.015000  0.603000  1.0  0.1006
  H  H73  1  0.696700  0.829200  0.098100  1.0  0.0798
  H  H74  1  0.675600  0.834600  0.194200  1.0  0.1267
  H  H75  1  0.774400  0.679300  0.214400  1.0  0.1204
  H  H76  1  0.790400  0.675500  0.115600  1.0  0.1173
  H  H77  1  0.387700  0.718900  0.455200  1.0  0.1106
  H  H78  1  0.507600  0.736900  0.465400  1.0  0.1154
  H  H79  1  0.532700  0.630300  0.327400  1.0  0.1398
  H  H80  1  0.411100  0.622700  0.315400  1.0  0.0924
  H  H81  1  0.020500  0.894800  0.337400  1.0  0.093
  H  H82  1  0.898500  0.881100  0.346900  1.0  0.1231
  H  H83  1  0.922600  0.767700  0.478400  1.0  0.1229
  H  H84  1  0.044900  0.787600  0.470000  1.0  0.1137
  H  H85  1  0.890700  0.726400  0.295800  1.0  0.1068
  H  H86  1  0.011300  0.744700  0.287800  1.0  0.1311
  H  H87  1  0.030900  0.621900  0.414900  1.0  0.1366
  H  H88  1  0.908300  0.613600  0.425000  1.0  0.0947
  H  H89  1  0.666000  0.606300  0.278300  1.0  0.0852
  H  H90  1  0.638500  0.516600  0.227100  1.0  0.1334
  H  H91  1  0.797000  0.441800  0.308200  1.0  0.1307
  H  H92  1  0.821400  0.535600  0.355400  1.0  0.0949
  H  H93  1  0.768400  0.913800  0.288000  1.0  0.1133
  H  H94  1  0.792400  0.009700  0.242600  1.0  0.1203
  H  H95  1  0.638000  0.077300  0.334600  1.0  0.1376
  H  H96  1  0.617100  0.980900  0.376900  1.0  0.0894
  H  H97  1  0.282900  0.658200  0.640800  1.0  0.0988
  H  H98  1  0.271800  0.662600  0.542800  1.0  0.1249
  H  H99  1  0.171900  0.817100  0.562400  1.0  0.1103
  H  H100  1  0.191000  0.812200  0.657800  1.0  0.0932
  H  H101  1  0.547700  0.797500  0.288600  1.0  0.1098
  H  H102  1  0.426500  0.780400  0.275000  1.0  0.13
  H  H103  1  0.397800  0.876600  0.419700  1.0  0.1374
  H  H104  1  0.520700  0.891200  0.428300  1.0  0.0948
  H  H105  1  0.316400  0.912500  0.965800  1.0  0.0992
  H  H106  1  0.318600  0.005400  0.017400  1.0  0.1214
  H  H107  1  0.167000  0.060500  0.914100  1.0  0.1344
  H  H108  1  0.171800  0.968700  0.863600  1.0  0.087
  H  H109  1  0.228000  0.608300  0.981000  1.0  0.1021
  H  H110  1  0.173500  0.516300  0.018500  1.0  0.1211
  H  H111  1  0.313500  0.421500  0.932900  1.0  0.1348
  H  H112  1  0.363400  0.515000  0.897000  1.0  0.1018
  H  H113  1  0.196700  0.329200  0.401900  1.0  0.0796
  H  H114  1  0.175600  0.334600  0.305800  1.0  0.1269
  H  H115  1  0.274400  0.179300  0.285600  1.0  0.1203
  H  H116  1  0.290400  0.175500  0.384400  1.0  0.117
  H  H117  1  0.887700  0.218900  0.044800  1.0  0.1117
  H  H118  1  0.007600  0.236900  0.034600  1.0  0.1153
  H  H119  1  0.032700  0.130300  0.172600  1.0  0.1401
  H  H120  1  0.911100  0.122700  0.184600  1.0  0.0927
  H  H121  1  0.520500  0.394800  0.162600  1.0  0.0931
  H  H122  1  0.398500  0.381100  0.153100  1.0  0.1227
  H  H123  1  0.422600  0.267700  0.021600  1.0  0.1232
  H  H124  1  0.544900  0.287600  0.030000  1.0  0.1143
  H  H125  1  0.390700  0.226400  0.204200  1.0  0.1062
  H  H126  1  0.511300  0.244700  0.212200  1.0  0.1307
  H  H127  1  0.530900  0.121900  0.085100  1.0  0.1366
  H  H128  1  0.408300  0.113600  0.075000  1.0  0.0945
  H  H129  1  0.166000  0.106300  0.221700  1.0  0.085
  H  H130  1  0.138500  0.016600  0.272900  1.0  0.1335
  H  H131  1  0.297000  0.941800  0.191800  1.0  0.1305
  H  H132  1  0.321400  0.035600  0.144600  1.0  0.0946
  H  H133  1  0.268400  0.413800  0.212000  1.0  0.1136
  H  H134  1  0.292400  0.509700  0.257400  1.0  0.1205
  H  H135  1  0.138000  0.577300  0.165400  1.0  0.1382
  H  H136  1  0.117100  0.480900  0.123100  1.0  0.0897
  H  H137  1  0.782900  0.158200  0.859200  1.0  0.099
  H  H138  1  0.771800  0.162600  0.957200  1.0  0.1246
  H  H139  1  0.671900  0.317100  0.937600  1.0  0.1097
  H  H140  1  0.691000  0.312200  0.842200  1.0  0.0938
  H  H141  1  0.047700  0.297500  0.211400  1.0  0.1104
  H  H142  1  0.926500  0.280400  0.225000  1.0  0.1296
  H  H143  1  0.897800  0.376600  0.080300  1.0  0.1369
  H  H144  1  0.020700  0.391200  0.071700  1.0  0.0947
  H  H145  1  0.183600  0.587500  0.465800  1.0  0.0991
  H  H146  1  0.181400  0.494600  0.517400  1.0  0.1215
  H  H147  1  0.333000  0.439500  0.414100  1.0  0.1346
  H  H148  1  0.328200  0.531300  0.363600  1.0  0.0857
  H  H149  1  0.272000  0.891700  0.481000  1.0  0.1028
  H  H150  1  0.326500  0.983700  0.518500  1.0  0.1214
  H  H151  1  0.186500  0.078500  0.432900  1.0  0.1351
  H  H152  1  0.136600  0.985000  0.397000  1.0  0.1016
  H  H153  1  0.303300  0.170800  0.901900  1.0  0.0791
  H  H154  1  0.324400  0.165400  0.805800  1.0  0.1266
  H  H155  1  0.225600  0.320700  0.785600  1.0  0.1199
  H  H156  1  0.209600  0.324500  0.884400  1.0  0.117
  H  H157  1  0.612300  0.281100  0.544800  1.0  0.1116
  H  H158  1  0.492400  0.263100  0.534600  1.0  0.1147
  H  H159  1  0.467300  0.369700  0.672600  1.0  0.1397
  H  H160  1  0.588900  0.377300  0.684600  1.0  0.092
  H  H161  1  0.979500  0.105200  0.662600  1.0  0.0936
  H  H162  1  0.101500  0.118900  0.653100  1.0  0.1226
  H  H163  1  0.077400  0.232300  0.521600  1.0  0.1235
  H  H164  1  0.955100  0.212400  0.530000  1.0  0.1148
  H  H165  1  0.109300  0.273600  0.704200  1.0  0.1067
  H  H166  1  0.988700  0.255300  0.712200  1.0  0.1307
  H  H167  1  0.969100  0.378100  0.585100  1.0  0.1371
  H  H168  1  0.091700  0.386400  0.575000  1.0  0.0947
  H  H169  1  0.334000  0.393700  0.721700  1.0  0.0854
  H  H170  1  0.361500  0.483400  0.772900  1.0  0.1336
  H  H171  1  0.203000  0.558200  0.691800  1.0  0.1306
  H  H172  1  0.178600  0.464400  0.644600  1.0  0.0947
  H  H173  1  0.231600  0.086200  0.712000  1.0  0.1127
  H  H174  1  0.207600  0.990300  0.757400  1.0  0.1206
  H  H175  1  0.362000  0.922700  0.665400  1.0  0.1382
  H  H176  1  0.382900  0.019100  0.623100  1.0  0.0904
  H  H177  1  0.717100  0.341800  0.359200  1.0  0.0983
  H  H178  1  0.728200  0.337400  0.457200  1.0  0.1247
  H  H179  1  0.828100  0.182900  0.437600  1.0  0.1094
  H  H180  1  0.809000  0.187800  0.342200  1.0  0.0931
  H  H181  1  0.452300  0.202500  0.711400  1.0  0.1099
  H  H182  1  0.573500  0.219600  0.725000  1.0  0.1298
  H  H183  1  0.602200  0.123400  0.580300  1.0  0.1369
  H  H184  1  0.479300  0.108800  0.571700  1.0  0.0948
  C  C185  1  0.714300  0.057300  0.044700  1.0  0.18
  C  C186  1  0.712700  0.001800  0.013700  1.0  -0.0746
  C  C187  1  0.757500  0.957500  0.029100  1.0  -0.1233
  C  C188  1  0.801600  0.968900  0.074700  1.0  -0.1458
  C  C189  1  0.799200  0.024300  0.103900  1.0  0.1839
  C  C190  1  0.757700  0.897400  0.995200  1.0  0.7415
  C  C191  1  0.755400  0.430300  0.029300  1.0  0.1597
  C  C192  1  0.787600  0.484900  0.006400  1.0  -0.0743
  C  C193  1  0.762800  0.541000  0.020000  1.0  -0.0741
  C  C194  1  0.705100  0.540700  0.057000  1.0  -0.1081
  C  C195  1  0.676000  0.484900  0.078400  1.0  0.1522
  C  C196  1  0.796300  0.602800  0.997400  1.0  0.7308
  C  C197  1  0.787600  0.702200  0.621800  1.0  0.1756
  C  C198  1  0.799300  0.697900  0.679400  1.0  -0.1229
  C  C199  1  0.774400  0.740500  0.714500  1.0  -0.0494
  C  C200  1  0.741700  0.789200  0.690900  1.0  -0.0686
  C  C201  1  0.732600  0.791500  0.631800  1.0  0.172
  C  C202  1  0.780900  0.737500  0.777100  1.0  0.7064
  C  C203  1  0.082500  0.797600  0.928000  1.0  0.1679
  C  C204  1  0.011300  0.787800  0.934700  1.0  -0.1025
  C  C205  1  0.966400  0.813200  0.897600  1.0  -0.067
  C  C206  1  0.996100  0.849400  0.852900  1.0  -0.1577
  C  C207  1  0.068800  0.854900  0.847000  1.0  0.1676
  C  C208  1  0.888800  0.802500  0.902700  1.0  0.7066
  C  C209  1  0.499400  0.631100  0.866900  1.0  0.1765
  C  C210  1  0.572500  0.639700  0.871900  1.0  -0.1363
  C  C211  1  0.602100  0.678300  0.913200  1.0  -0.082
  C  C212  1  0.558100  0.705500  0.949300  1.0  -0.1017
  C  C213  1  0.484900  0.694200  0.943700  1.0  0.1492
  C  C214  1  0.680400  0.692500  0.916400  1.0  0.6975
  C  C215  1  0.580100  0.793300  0.821400  1.0  0.1743
  C  C216  1  0.508800  0.783100  0.815900  1.0  -0.1251
  C  C217  1  0.466100  0.813400  0.851700  1.0  -0.0932
  C  C218  1  0.497100  0.854500  0.891500  1.0  -0.1376
  C  C219  1  0.570200  0.860300  0.896300  1.0  0.1602
  C  C220  1  0.387000  0.802300  0.847800  1.0  0.7224
  C  C221  1  0.806400  0.927600  0.784100  1.0  0.1822
  C  C222  1  0.824200  0.981200  0.753800  1.0  -0.1576
  C  C223  1  0.786700  0.031400  0.763300  1.0  -0.0747
  C  C224  1  0.730800  0.024600  0.801400  1.0  -0.1268
  C  C225  1  0.716400  0.968600  0.829100  1.0  0.17
  C  C226  1  0.803500  0.093400  0.733400  1.0  0.7274
  C  C227  1  0.758500  0.552700  0.797100  1.0  0.1637
  C  C228  1  0.744100  0.495700  0.770000  1.0  -0.0536
  C  C229  1  0.783100  0.447200  0.783100  1.0  -0.0982
  C  C230  1  0.835200  0.455800  0.824100  1.0  -0.1437
  C  C231  1  0.846900  0.513100  0.849100  1.0  0.1771
  C  C232  1  0.769900  0.385900  0.752500  1.0  0.7148
  C  C233  1  0.238100  0.807900  0.124300  1.0  0.1717
  C  C234  1  0.245400  0.806100  0.065800  1.0  -0.1362
  C  C235  1  0.278300  0.757600  0.041300  1.0  -0.0647
  C  C236  1  0.303000  0.715300  0.077200  1.0  -0.1126
  C  C237  1  0.292300  0.718800  0.134200  1.0  0.1691
  C  C238  1  0.282900  0.752700  0.978000  1.0  0.7215
  C  C239  1  0.983200  0.687000  0.815600  1.0  0.1575
  C  C240  1  0.055500  0.697500  0.807500  1.0  -0.1124
  C  C241  1  0.101400  0.675900  0.846300  1.0  -0.0535
  C  C242  1  0.072700  0.640700  0.892700  1.0  -0.1398
  C  C243  1  0.999200  0.632400  0.897400  1.0  0.1701
  C  C244  1  0.180200  0.689700  0.842200  1.0  0.6856
  C  C245  1  0.785700  0.442700  0.544700  1.0  0.1801
  C  C246  1  0.787300  0.498200  0.513700  1.0  -0.0744
  C  C247  1  0.742500  0.542500  0.529100  1.0  -0.1231
  C  C248  1  0.698400  0.531100  0.574700  1.0  -0.1475
  C  C249  1  0.700800  0.475700  0.603900  1.0  0.1828
  C  C250  1  0.742300  0.602600  0.495200  1.0  0.7409
  C  C251  1  0.744600  0.069700  0.529300  1.0  0.1588
  C  C252  1  0.712400  0.015100  0.506400  1.0  -0.0745
  C  C253  1  0.737200  0.959000  0.520000  1.0  -0.0762
  C  C254  1  0.794900  0.959300  0.557000  1.0  -0.1074
  C  C255  1  0.824000  0.015100  0.578400  1.0  0.153
  C  C256  1  0.703700  0.897200  0.497400  1.0  0.7313
  C  C257  1  0.712400  0.797800  0.121800  1.0  0.1755
  C  C258  1  0.700700  0.802100  0.179400  1.0  -0.1232
  C  C259  1  0.725600  0.759500  0.214500  1.0  -0.0487
  C  C260  1  0.758300  0.710800  0.190900  1.0  -0.0671
  C  C261  1  0.767400  0.708500  0.131800  1.0  0.17
  C  C262  1  0.719100  0.762500  0.277100  1.0  0.7059
  C  C263  1  0.417500  0.702400  0.428000  1.0  0.1664
  C  C264  1  0.488700  0.712200  0.434700  1.0  -0.1007
  C  C265  1  0.533600  0.686800  0.397600  1.0  -0.0687
  C  C266  1  0.503900  0.650600  0.352900  1.0  -0.1578
  C  C267  1  0.431200  0.645100  0.347000  1.0  0.166
  C  C268  1  0.611200  0.697500  0.402700  1.0  0.707
  C  C269  1  0.000600  0.868900  0.366900  1.0  0.1788
  C  C270  1  0.927500  0.860300  0.371900  1.0  -0.1359
  C  C271  1  0.897900  0.821700  0.413200  1.0  -0.0825
  C  C272  1  0.941900  0.794500  0.449300  1.0  -0.1029
  C  C273  1  0.015100  0.805800  0.443700  1.0  0.1498
  C  C274  1  0.819600  0.807500  0.416400  1.0  0.6976
  C  C275  1  0.919900  0.706700  0.321400  1.0  0.174
  C  C276  1  0.991200  0.716900  0.315900  1.0  -0.1244
  C  C277  1  0.033900  0.686600  0.351700  1.0  -0.0923
  C  C278  1  0.002900  0.645500  0.391500  1.0  -0.1386
  C  C279  1  0.929800  0.639700  0.396300  1.0  0.16
  C  C280  1  0.113000  0.697700  0.347800  1.0  0.7223
  C  C281  1  0.693600  0.572400  0.284100  1.0  0.1823
  C  C282  1  0.675800  0.518800  0.253800  1.0  -0.1578
  C  C283  1  0.713300  0.468600  0.263300  1.0  -0.0757
  C  C284  1  0.769200  0.475400  0.301400  1.0  -0.1259
  C  C285  1  0.783600  0.531400  0.329100  1.0  0.1712
  C  C286  1  0.696500  0.406600  0.233400  1.0  0.7273
  C  C287  1  0.741500  0.947300  0.297100  1.0  0.164
  C  C288  1  0.755900  0.004300  0.270000  1.0  -0.0528
  C  C289  1  0.716900  0.052800  0.283100  1.0  -0.0979
  C  C290  1  0.664800  0.044200  0.324100  1.0  -0.1432
  C  C291  1  0.653100  0.986900  0.349100  1.0  0.1772
  C  C292  1  0.730100  0.114100  0.252500  1.0  0.7153
  C  C293  1  0.261900  0.692100  0.624300  1.0  0.1731
  C  C294  1  0.254600  0.693900  0.565800  1.0  -0.1356
  C  C295  1  0.221700  0.742400  0.541300  1.0  -0.0639
  C  C296  1  0.197000  0.784700  0.577200  1.0  -0.1137
  C  C297  1  0.207700  0.781200  0.634200  1.0  0.1691
  C  C298  1  0.217100  0.747300  0.478000  1.0  0.7213
  C  C299  1  0.516800  0.813000  0.315600  1.0  0.158
  C  C300  1  0.444500  0.802500  0.307500  1.0  -0.1119
  C  C301  1  0.398600  0.824100  0.346300  1.0  -0.0544
  C  C302  1  0.427300  0.859300  0.392700  1.0  -0.1382
  C  C303  1  0.500800  0.867600  0.397400  1.0  0.1689
  C  C304  1  0.319800  0.810300  0.342200  1.0  0.6862
  C  C305  1  0.285700  0.942700  0.955300  1.0  0.1798
  C  C306  1  0.287300  0.998200  0.986300  1.0  -0.0742
  C  C307  1  0.242500  0.042500  0.970900  1.0  -0.1242
  C  C308  1  0.198400  0.031100  0.925300  1.0  -0.147
  C  C309  1  0.200800  0.975700  0.896100  1.0  0.1829
  C  C310  1  0.242300  0.102600  0.004800  1.0  0.7419
  C  C311  1  0.244600  0.569700  0.970700  1.0  0.1588
  C  C312  1  0.212400  0.515100  0.993600  1.0  -0.0746
  C  C313  1  0.237200  0.459000  0.980000  1.0  -0.0761
  C  C314  1  0.294900  0.459300  0.943000  1.0  -0.1075
  C  C315  1  0.324000  0.515100  0.921600  1.0  0.153
  C  C316  1  0.203700  0.397200  0.002600  1.0  0.732
  C  C317  1  0.212400  0.297800  0.378200  1.0  0.1756
  C  C318  1  0.200700  0.302100  0.320600  1.0  -0.123
  C  C319  1  0.225600  0.259500  0.285500  1.0  -0.05
  C  C320  1  0.258300  0.210800  0.309100  1.0  -0.0675
  C  C321  1  0.267400  0.208500  0.368200  1.0  0.1712
  C  C322  1  0.219100  0.262500  0.222900  1.0  0.7085
  C  C323  1  0.917500  0.202400  0.072000  1.0  0.1666
  C  C324  1  0.988700  0.212200  0.065300  1.0  -0.0999
  C  C325  1  0.033600  0.186800  0.102400  1.0  -0.0682
  C  C326  1  0.003900  0.150600  0.147100  1.0  -0.1567
  C  C327  1  0.931200  0.145100  0.153000  1.0  0.1664
  C  C328  1  0.111200  0.197500  0.097300  1.0  0.7063
  C  C329  1  0.500600  0.368900  0.133100  1.0  0.1789
  C  C330  1  0.427500  0.360300  0.128100  1.0  -0.1358
  C  C331  1  0.397900  0.321700  0.086800  1.0  -0.0828
  C  C332  1  0.441900  0.294500  0.050700  1.0  -0.1039
  C  C333  1  0.515100  0.305800  0.056300  1.0  0.1502
  C  C334  1  0.319600  0.307500  0.083600  1.0  0.6978
  C  C335  1  0.419900  0.206700  0.178600  1.0  0.1728
  C  C336  1  0.491200  0.216900  0.184100  1.0  -0.1257
  C  C337  1  0.533900  0.186600  0.148300  1.0  -0.0929
  C  C338  1  0.502900  0.145500  0.108500  1.0  -0.1382
  C  C339  1  0.429800  0.139700  0.103700  1.0  0.1597
  C  C340  1  0.613000  0.197700  0.152200  1.0  0.7225
  C  C341  1  0.193600  0.072400  0.215900  1.0  0.1823
  C  C342  1  0.175800  0.018800  0.246200  1.0  -0.1578
  C  C343  1  0.213300  0.968600  0.236700  1.0  -0.0758
  C  C344  1  0.269200  0.975400  0.198600  1.0  -0.1258
  C  C345  1  0.283600  0.031400  0.170900  1.0  0.1703
  C  C346  1  0.196500  0.906600  0.266600  1.0  0.7283
  C  C347  1  0.241500  0.447300  0.202900  1.0  0.1638
  C  C348  1  0.255900  0.504300  0.230000  1.0  -0.0531
  C  C349  1  0.216900  0.552800  0.216900  1.0  -0.098
  C  C350  1  0.164800  0.544200  0.175900  1.0  -0.1434
  C  C351  1  0.153100  0.486900  0.150900  1.0  0.1761
  C  C352  1  0.230100  0.614100  0.247500  1.0  0.7151
  C  C353  1  0.761900  0.192100  0.875700  1.0  0.1725
  C  C354  1  0.754600  0.193900  0.934200  1.0  -0.1348
  C  C355  1  0.721700  0.242400  0.958700  1.0  -0.0647
  C  C356  1  0.697000  0.284700  0.922800  1.0  -0.1142
  C  C357  1  0.707700  0.281200  0.865800  1.0  0.1691
  C  C358  1  0.717100  0.247300  0.022000  1.0  0.7207
  C  C359  1  0.016800  0.313000  0.184400  1.0  0.1565
  C  C360  1  0.944500  0.302500  0.192500  1.0  -0.1112
  C  C361  1  0.898600  0.324100  0.153700  1.0  -0.0534
  C  C362  1  0.927300  0.359300  0.107300  1.0  -0.1379
  C  C363  1  0.000800  0.367600  0.102600  1.0  0.1704
  C  C364  1  0.819800  0.310300  0.157800  1.0  0.6852
  C  C365  1  0.214300  0.557300  0.455300  1.0  0.1801
  C  C366  1  0.212700  0.501800  0.486300  1.0  -0.0749
  C  C367  1  0.257500  0.457500  0.470900  1.0  -0.1235
  C  C368  1  0.301600  0.468900  0.425300  1.0  -0.1455
  C  C369  1  0.299200  0.524300  0.396100  1.0  0.1842
  C  C370  1  0.257700  0.397400  0.504800  1.0  0.7426
  C  C371  1  0.255400  0.930300  0.470700  1.0  0.1599
  C  C372  1  0.287600  0.984900  0.493600  1.0  -0.0743
  C  C373  1  0.262800  0.041000  0.480000  1.0  -0.0737
  C  C374  1  0.205100  0.040700  0.443000  1.0  -0.1082
  C  C375  1  0.176000  0.984900  0.421600  1.0  0.1521
  C  C376  1  0.296300  0.102800  0.502600  1.0  0.7319
  C  C377  1  0.287600  0.202200  0.878200  1.0  0.1757
  C  C378  1  0.299300  0.197900  0.820600  1.0  -0.1233
  C  C379  1  0.274400  0.240500  0.785500  1.0  -0.0505
  C  C380  1  0.241700  0.289200  0.809100  1.0  -0.0685
  C  C381  1  0.232600  0.291500  0.868200  1.0  0.1723
  C  C382  1  0.280900  0.237500  0.722900  1.0  0.7088
  C  C383  1  0.582500  0.297600  0.572000  1.0  0.168
  C  C384  1  0.511300  0.287800  0.565300  1.0  -0.1014
  C  C385  1  0.466400  0.313200  0.602400  1.0  -0.0672
  C  C386  1  0.496100  0.349400  0.647100  1.0  -0.1572
  C  C387  1  0.568800  0.354900  0.653000  1.0  0.1674
  C  C388  1  0.388800  0.302500  0.597300  1.0  0.7062
  C  C389  1  0.999400  0.131100  0.633100  1.0  0.177
  C  C390  1  0.072500  0.139700  0.628100  1.0  -0.1352
  C  C391  1  0.102100  0.178300  0.586800  1.0  -0.082
  C  C392  1  0.058100  0.205500  0.550700  1.0  -0.1031
  C  C393  1  0.984900  0.194200  0.556300  1.0  0.1513
  C  C394  1  0.180400  0.192500  0.583600  1.0  0.6976
  C  C395  1  0.080100  0.293300  0.678600  1.0  0.1735
  C  C396  1  0.008800  0.283100  0.684100  1.0  -0.1273
  C  C397  1  0.966100  0.313400  0.648300  1.0  -0.0924
  C  C398  1  0.997100  0.354500  0.608500  1.0  -0.1369
  C  C399  1  0.070200  0.360300  0.603700  1.0  0.1613
  C  C400  1  0.887000  0.302300  0.652200  1.0  0.7225
  C  C401  1  0.306400  0.427600  0.715900  1.0  0.1821
  C  C402  1  0.324200  0.481200  0.746200  1.0  -0.1578
  C  C403  1  0.286700  0.531400  0.736700  1.0  -0.075
  C  C404  1  0.230800  0.524600  0.698600  1.0  -0.1264
  C  C405  1  0.216400  0.468600  0.670900  1.0  0.1692
  C  C406  1  0.303500  0.593400  0.766600  1.0  0.7282
  C  C407  1  0.258500  0.052700  0.702900  1.0  0.1635
  C  C408  1  0.244100  0.995700  0.730000  1.0  -0.0539
  C  C409  1  0.283100  0.947200  0.716900  1.0  -0.0986
  C  C410  1  0.335200  0.955800  0.675900  1.0  -0.1441
  C  C411  1  0.346900  0.013100  0.650900  1.0  0.1759
  C  C412  1  0.269900  0.885900  0.747500  1.0  0.7147
  C  C413  1  0.738100  0.307900  0.375700  1.0  0.1717
  C  C414  1  0.745400  0.306100  0.434200  1.0  -0.1362
  C  C415  1  0.778300  0.257600  0.458700  1.0  -0.0659
  C  C416  1  0.803000  0.215300  0.422800  1.0  -0.1128
  C  C417  1  0.792300  0.218800  0.365800  1.0  0.1684
  C  C418  1  0.782900  0.252700  0.522000  1.0  0.7217
  C  C419  1  0.483200  0.187000  0.684400  1.0  0.1555
  C  C420  1  0.555500  0.197500  0.692500  1.0  -0.1103
  C  C421  1  0.601400  0.175900  0.653700  1.0  -0.053
  C  C422  1  0.572700  0.140700  0.607300  1.0  -0.1404
  C  C423  1  0.499200  0.132400  0.602600  1.0  0.1698
  C  C424  1  0.680200  0.189700  0.657800  1.0  0.685
  N  N425  1  0.758000  0.068800  0.088700  1.0  -0.3411
  N  N426  1  0.700700  0.430500  0.066100  1.0  -0.3138
  N  N427  1  0.755800  0.747600  0.597700  1.0  -0.3375
  N  N428  1  0.112300  0.830300  0.883400  1.0  -0.3376
  N  N429  1  0.455700  0.658100  0.901800  1.0  -0.3247
  N  N430  1  0.610900  0.831000  0.862300  1.0  -0.3309
  N  N431  1  0.753900  0.919800  0.820400  1.0  -0.3193
  N  N432  1  0.810200  0.561200  0.836200  1.0  -0.3154
  N  N433  1  0.259300  0.764200  0.158000  1.0  -0.3376
  N  N434  1  0.955800  0.655600  0.860700  1.0  -0.3203
  N  N435  1  0.742000  0.431200  0.588700  1.0  -0.3399
  N  N436  1  0.799300  0.069500  0.566100  1.0  -0.3133
  N  N437  1  0.744200  0.752400  0.097700  1.0  -0.3381
  N  N438  1  0.387700  0.669700  0.383400  1.0  -0.3366
  N  N439  1  0.044300  0.841900  0.401800  1.0  -0.323
  N  N440  1  0.889100  0.669000  0.362300  1.0  -0.3262
  N  N441  1  0.746100  0.580200  0.320400  1.0  -0.3222
  N  N442  1  0.689800  0.938800  0.336200  1.0  -0.3164
  N  N443  1  0.240700  0.735800  0.658000  1.0  -0.3376
  N  N444  1  0.544200  0.844400  0.360700  1.0  -0.3211
  N  N445  1  0.242000  0.931200  0.911300  1.0  -0.3401
  N  N446  1  0.299300  0.569500  0.933900  1.0  -0.3125
  N  N447  1  0.244200  0.252400  0.402300  1.0  -0.3363
  N  N448  1  0.887700  0.169700  0.116600  1.0  -0.3371
  N  N449  1  0.544300  0.341900  0.098200  1.0  -0.3235
  N  N450  1  0.389100  0.169000  0.137700  1.0  -0.3254
  N  N451  1  0.246100  0.080200  0.179600  1.0  -0.3208
  N  N452  1  0.189800  0.438800  0.163800  1.0  -0.3157
  N  N453  1  0.740700  0.235800  0.842000  1.0  -0.3378
  N  N454  1  0.044200  0.344400  0.139300  1.0  -0.321
  N  N455  1  0.258000  0.568800  0.411300  1.0  -0.3412
  N  N456  1  0.200700  0.930500  0.433900  1.0  -0.3131
  N  N457  1  0.255800  0.247600  0.902300  1.0  -0.3357
  N  N458  1  0.612300  0.330300  0.616600  1.0  -0.3379
  N  N459  1  0.955700  0.158100  0.598200  1.0  -0.3249
  N  N460  1  0.110900  0.331000  0.637700  1.0  -0.3305
  N  N461  1  0.253900  0.419800  0.679600  1.0  -0.3189
  N  N462  1  0.310200  0.061200  0.663800  1.0  -0.3146
  N  N463  1  0.759300  0.264200  0.342000  1.0  -0.3384
  N  N464  1  0.455800  0.155600  0.639300  1.0  -0.3196
  Cl  Cl465  1  0.548400  0.524000  0.726800  1.0  0.8425
  Cl  Cl466  1  0.433400  0.834100  0.562600  1.0  -0.501
  Cl  Cl467  1  0.951600  0.976000  0.226800  1.0  0.8422
  Cl  Cl468  1  0.066600  0.665900  0.062600  1.0  -0.5014
  Cl  Cl469  1  0.451600  0.476000  0.273200  1.0  0.8427
  Cl  Cl470  1  0.566600  0.165900  0.437400  1.0  -0.5015
  Cl  Cl471  1  0.048400  0.024000  0.773200  1.0  0.8429
  Cl  Cl472  1  0.933400  0.334100  0.937400  1.0  -0.5014
  O  O473  1  0.718600  0.893300  0.952900  1.0  -0.5847
  O  O474  1  0.796400  0.857800  0.013700  1.0  -0.6558
  O  O475  1  0.773100  0.650500  0.016900  1.0  -0.622
  O  O476  1  0.843500  0.600700  0.961100  1.0  -0.5692
  O  O477  1  0.737800  0.766000  0.805500  1.0  -0.6464
  O  O478  1  0.827600  0.705700  0.796600  1.0  -0.6149
  O  O479  1  0.852100  0.841100  0.882400  1.0  -0.5825
  O  O480  1  0.864800  0.753000  0.929000  1.0  -0.6727
  O  O481  1  0.702400  0.743900  0.941300  1.0  -0.684
  O  O482  1  0.717300  0.655000  0.895800  1.0  -0.6198
  O  O483  1  0.362100  0.750100  0.827500  1.0  -0.6682
  O  O484  1  0.351500  0.844400  0.864900  1.0  -0.5735
  O  O485  1  0.845600  0.094500  0.692900  1.0  -0.5839
  O  O486  1  0.774000  0.137900  0.753900  1.0  -0.6307
  O  O487  1  0.808100  0.343700  0.766000  1.0  -0.6209
  O  O488  1  0.721200  0.381500  0.716300  1.0  -0.5984
  O  O489  1  0.242600  0.782800  0.950000  1.0  -0.6211
  O  O490  1  0.327700  0.719100  0.959900  1.0  -0.6256
  O  O491  1  0.217900  0.655800  0.867000  1.0  -0.6136
  O  O492  1  0.200700  0.738700  0.812900  1.0  -0.6675
  O  O493  1  0.399900  0.737000  0.699000  1.0  -0.3039
  O  O494  1  0.900400  0.755900  0.056100  1.0  -0.2739
  O  O495  1  0.781400  0.606700  0.452900  1.0  -0.5852
  O  O496  1  0.703600  0.642200  0.513700  1.0  -0.6564
  O  O497  1  0.726900  0.849500  0.516900  1.0  -0.6219
  O  O498  1  0.656500  0.899300  0.461100  1.0  -0.5693
  O  O499  1  0.762200  0.734000  0.305500  1.0  -0.6462
  O  O500  1  0.672400  0.794300  0.296600  1.0  -0.6146
  O  O501  1  0.647900  0.658900  0.382400  1.0  -0.5841
  O  O502  1  0.635200  0.747000  0.429000  1.0  -0.6724
  O  O503  1  0.797600  0.756100  0.441300  1.0  -0.6846
  O  O504  1  0.782700  0.845000  0.395800  1.0  -0.62
  O  O505  1  0.137900  0.749900  0.327500  1.0  -0.6663
  O  O506  1  0.148500  0.655600  0.364900  1.0  -0.5737
  O  O507  1  0.654400  0.405500  0.192900  1.0  -0.5846
  O  O508  1  0.726000  0.362100  0.253900  1.0  -0.6302
  O  O509  1  0.691900  0.156300  0.266000  1.0  -0.6206
  O  O510  1  0.778800  0.118500  0.216300  1.0  -0.598
  O  O511  1  0.257400  0.717200  0.450000  1.0  -0.6211
  O  O512  1  0.172300  0.780900  0.459900  1.0  -0.6252
  O  O513  1  0.282100  0.844200  0.367000  1.0  -0.6133
  O  O514  1  0.299300  0.761300  0.312900  1.0  -0.6691
  O  O515  1  0.100100  0.763000  0.199000  1.0  -0.307
  O  O516  1  0.599600  0.744100  0.556100  1.0  -0.2773
  O  O517  1  0.281400  0.106700  0.047100  1.0  -0.585
  O  O518  1  0.203600  0.142200  0.986300  1.0  -0.6561
  O  O519  1  0.226900  0.349500  0.983100  1.0  -0.6217
  O  O520  1  0.156500  0.399300  0.038900  1.0  -0.5693
  O  O521  1  0.262200  0.234000  0.194500  1.0  -0.6468
  O  O522  1  0.172400  0.294300  0.203400  1.0  -0.6144
  O  O523  1  0.147900  0.158900  0.117600  1.0  -0.5844
  O  O524  1  0.135200  0.247000  0.071000  1.0  -0.6726
  O  O525  1  0.297600  0.256100  0.058700  1.0  -0.685
  O  O526  1  0.282700  0.345000  0.104200  1.0  -0.6195
  O  O527  1  0.637900  0.249900  0.172500  1.0  -0.6675
  O  O528  1  0.648500  0.155600  0.135100  1.0  -0.5732
  O  O529  1  0.154400  0.905500  0.307100  1.0  -0.5851
  O  O530  1  0.226000  0.862100  0.246100  1.0  -0.6298
  O  O531  1  0.191900  0.656300  0.234000  1.0  -0.6207
  O  O532  1  0.278800  0.618500  0.283700  1.0  -0.5976
  O  O533  1  0.757400  0.217200  0.050000  1.0  -0.6203
  O  O534  1  0.672300  0.280900  0.040100  1.0  -0.6246
  O  O535  1  0.782100  0.344200  0.133000  1.0  -0.6133
  O  O536  1  0.799300  0.261300  0.187100  1.0  -0.6681
  O  O537  1  0.600100  0.263000  0.301000  1.0  -0.3092
  O  O538  1  0.099600  0.244100  0.943900  1.0  -0.2759
  O  O539  1  0.218600  0.393300  0.547100  1.0  -0.5845
  O  O540  1  0.296400  0.357800  0.486300  1.0  -0.6554
  O  O541  1  0.273100  0.150500  0.483100  1.0  -0.6229
  O  O542  1  0.343500  0.100700  0.538900  1.0  -0.569
  O  O543  1  0.237800  0.266000  0.694500  1.0  -0.6469
  O  O544  1  0.327600  0.205700  0.703400  1.0  -0.615
  O  O545  1  0.352100  0.341100  0.617600  1.0  -0.5827
  O  O546  1  0.364800  0.253000  0.571000  1.0  -0.6739
  O  O547  1  0.202400  0.243900  0.558700  1.0  -0.6837
  O  O548  1  0.217300  0.155000  0.604200  1.0  -0.6194
  O  O549  1  0.862100  0.250100  0.672500  1.0  -0.6688
  O  O550  1  0.851500  0.344400  0.635100  1.0  -0.573
  O  O551  1  0.345600  0.594500  0.807100  1.0  -0.584
  O  O552  1  0.274000  0.637900  0.746100  1.0  -0.6311
  O  O553  1  0.308100  0.843700  0.734000  1.0  -0.6205
  O  O554  1  0.221200  0.881500  0.783700  1.0  -0.5977
  O  O555  1  0.742600  0.282800  0.550000  1.0  -0.6205
  O  O556  1  0.827700  0.219100  0.540100  1.0  -0.6251
  O  O557  1  0.717900  0.155800  0.633000  1.0  -0.6138
  O  O558  1  0.700700  0.238700  0.687100  1.0  -0.6682
  O  O559  1  0.899900  0.237000  0.801000  1.0  -0.3067
  O  O560  1  0.400400  0.255900  0.443900  1.0  -0.2736
  O  O561  1  0.487800  0.564500  0.737700  1.0  -0.5358
  O  O562  1  0.538000  0.488000  0.669000  1.0  -0.5419
  O  O563  1  0.620500  0.566000  0.724000  1.0  -0.6034
  O  O564  1  0.553000  0.475000  0.775000  1.0  -0.5801
  O  O565  1  0.012200  0.935500  0.237700  1.0  -0.5353
  O  O566  1  0.962000  0.012000  0.169000  1.0  -0.5404
  O  O567  1  0.879500  0.934000  0.224000  1.0  -0.6039
  O  O568  1  0.947000  0.025000  0.275000  1.0  -0.5793
  O  O569  1  0.512200  0.435500  0.262300  1.0  -0.5352
  O  O570  1  0.462000  0.512000  0.331000  1.0  -0.54
  O  O571  1  0.379500  0.434000  0.276000  1.0  -0.6024
  O  O572  1  0.447000  0.525000  0.225000  1.0  -0.5805
  O  O573  1  0.987800  0.064500  0.762300  1.0  -0.536
  O  O574  1  0.038000  0.988000  0.831000  1.0  -0.5428
  O  O575  1  0.120500  0.066000  0.776000  1.0  -0.6024
  O  O576  1  0.053000  0.975000  0.725000  1.0  -0.5803
