# generated using pymatgen
data_Cd3H20C30(NO2)5
_symmetry_space_group_name_H-M   'P 1'
_cell_length_a   12.04950000
_cell_length_b   12.27730000
_cell_length_c   19.10280000
_cell_angle_alpha   91.66900000
_cell_angle_beta   96.85000000
_cell_angle_gamma   117.94500000
_symmetry_Int_Tables_number   1
_chemical_formula_structural   Cd3H20C30(NO2)5
_chemical_formula_sum   'Cd6 H40 C60 N10 O20'
_cell_volume   2466.97152268
_cell_formula_units_Z   2
loop_
 _symmetry_equiv_pos_site_id
 _symmetry_equiv_pos_as_xyz
  1  'x, y, z'
loop_
 _atom_site_type_symbol
 _atom_site_label
 _atom_site_symmetry_multiplicity
 _atom_site_fract_x
 _atom_site_fract_y
 _atom_site_fract_z
 _atom_site_occupancy
 _atom_site_charge
  Cd  Cd1  1  0.769110  0.502330  0.778540  1.0  1.0182
  Cd  Cd2  1  0.588590  0.669690  0.698120  1.0  1.0299
  Cd  Cd3  1  0.426550  0.321770  0.801990  1.0  1.0511
  Cd  Cd4  1  0.230890  0.497670  0.221460  1.0  1.0183
  Cd  Cd5  1  0.411410  0.330310  0.301880  1.0  1.0302
  Cd  Cd6  1  0.573450  0.678230  0.198010  1.0  1.0491
  H  H7  1  0.713100  0.542800  0.973200  1.0  0.1229
  H  H8  1  0.701800  0.575400  0.095000  1.0  0.0911
  H  H9  1  0.085300  0.330500  0.777400  1.0  0.1099
  H  H10  1  0.213900  0.647300  0.683200  1.0  0.1044
  H  H11  1  0.722100  0.144400  0.688600  1.0  0.1054
  H  H12  1  0.457400  0.981500  0.814400  1.0  0.0972
  H  H13  1  0.453700  0.793700  0.786200  1.0  0.0865
  H  H14  1  0.714600  0.959300  0.660300  1.0  0.0905
  H  H15  1  0.895700  0.334700  0.780500  1.0  0.0798
  H  H16  1  0.028100  0.651700  0.692200  1.0  0.0825
  H  H17  1  0.966800  0.004400  0.670700  1.0  0.1209
  H  H18  1  0.097900  0.858900  0.827500  1.0  0.1181
  H  H19  1  0.156600  0.182500  0.695000  1.0  0.0679
  H  H20  1  0.282000  0.048200  0.850200  1.0  0.0825
  H  H21  1  0.304900  0.242300  0.559000  1.0  0.1153
  H  H22  1  0.682200  0.474500  0.557600  1.0  0.1353
  H  H23  1  0.636000  0.442800  0.433400  1.0  0.076
  H  H24  1  0.271600  0.228700  0.437200  1.0  0.092
  H  H25  1  0.545000  0.755100  0.927700  1.0  0.1105
  H  H26  1  0.532100  0.778400  0.047200  1.0  0.0821
  H  H27  1  0.286900  0.457200  0.026800  1.0  0.122
  H  H28  1  0.298200  0.424600  0.905000  1.0  0.0909
  H  H29  1  0.914700  0.669500  0.222600  1.0  0.11
  H  H30  1  0.786100  0.352700  0.316800  1.0  0.1051
  H  H31  1  0.277900  0.855600  0.311400  1.0  0.1046
  H  H32  1  0.542600  0.018500  0.185600  1.0  0.096
  H  H33  1  0.546300  0.206300  0.213800  1.0  0.086
  H  H34  1  0.285400  0.040700  0.339700  1.0  0.091
  H  H35  1  0.104300  0.665300  0.219500  1.0  0.0792
  H  H36  1  0.971900  0.348300  0.307800  1.0  0.0829
  H  H37  1  0.033200  0.995600  0.329300  1.0  0.1216
  H  H38  1  0.902100  0.141100  0.172500  1.0  0.1167
  H  H39  1  0.843400  0.817500  0.305000  1.0  0.0683
  H  H40  1  0.718000  0.951800  0.149800  1.0  0.0817
  H  H41  1  0.695100  0.757700  0.441000  1.0  0.1158
  H  H42  1  0.317800  0.525500  0.442400  1.0  0.1353
  H  H43  1  0.364000  0.557200  0.566600  1.0  0.076
  H  H44  1  0.728400  0.771300  0.562800  1.0  0.0932
  H  H45  1  0.455000  0.244900  0.072300  1.0  0.1102
  H  H46  1  0.467900  0.221600  0.952800  1.0  0.0827
  C  C47  1  0.177000  0.494400  0.734400  1.0  -0.082
  C  C48  1  0.301000  0.495400  0.737500  1.0  0.6784
  C  C49  1  0.673000  0.588700  0.987500  1.0  -0.1352
  C  C50  1  0.617900  0.638200  0.937000  1.0  -0.0618
  C  C51  1  0.618400  0.608500  0.860200  1.0  0.6828
  C  C52  1  0.882200  0.790200  0.735300  1.0  0.6863
  C  C53  1  0.516800  0.388800  0.653300  1.0  0.6846
  C  C54  1  0.666800  0.609400  0.060500  1.0  0.1506
  C  C55  1  0.076000  0.398200  0.760400  1.0  -0.174
  C  C56  1  0.007800  0.910700  0.747900  1.0  -0.0552
  C  C57  1  0.595300  0.203100  0.775500  1.0  0.68
  C  C58  1  0.151500  0.584400  0.705900  1.0  -0.0823
  C  C59  1  0.591600  0.083900  0.757400  1.0  -0.0913
  C  C60  1  0.666800  0.073200  0.709400  1.0  -0.1333
  C  C61  1  0.512300  0.978800  0.783300  1.0  -0.1047
  C  C62  1  0.508700  0.865100  0.765500  1.0  0.1278
  C  C63  1  0.661300  0.962400  0.692300  1.0  0.1299
  C  C64  1  0.961700  0.400900  0.761700  1.0  0.1458
  C  C65  1  0.039100  0.585100  0.709600  1.0  0.1314
  C  C66  1  0.029800  0.010100  0.707900  1.0  -0.1616
  C  C67  1  0.106700  0.925500  0.800500  1.0  -0.1295
  C  C68  1  0.143900  0.116200  0.723100  1.0  0.1633
  C  C69  1  0.217500  0.037900  0.812800  1.0  0.145
  C  C70  1  0.496600  0.365500  0.573100  1.0  -0.068
  C  C71  1  0.374400  0.287200  0.534400  1.0  -0.1115
  C  C72  1  0.597700  0.423300  0.534500  1.0  -0.1622
  C  C73  1  0.568800  0.402200  0.460200  1.0  0.1621
  C  C74  1  0.355500  0.275500  0.462000  1.0  0.1378
  C  C75  1  0.573100  0.713200  0.960400  1.0  -0.1341
  C  C76  1  0.568100  0.728900  0.032500  1.0  0.1416
  C  C77  1  0.823000  0.505600  0.265600  1.0  -0.0809
  C  C78  1  0.699000  0.504600  0.262500  1.0  0.6784
  C  C79  1  0.327000  0.411300  0.012500  1.0  -0.1388
  C  C80  1  0.382100  0.361800  0.063000  1.0  -0.0649
  C  C81  1  0.381600  0.391500  0.139800  1.0  0.6817
  C  C82  1  0.117800  0.209800  0.264700  1.0  0.6871
  C  C83  1  0.483200  0.611200  0.346700  1.0  0.6837
  C  C84  1  0.333200  0.390600  0.939500  1.0  0.1475
  C  C85  1  0.924000  0.601800  0.239600  1.0  -0.1742
  C  C86  1  0.992200  0.089300  0.252100  1.0  -0.0535
  C  C87  1  0.404700  0.796900  0.224500  1.0  0.6797
  C  C88  1  0.848500  0.415600  0.294100  1.0  -0.0844
  C  C89  1  0.408400  0.916100  0.242600  1.0  -0.0899
  C  C90  1  0.333200  0.926800  0.290600  1.0  -0.1374
  C  C91  1  0.487700  0.021200  0.216700  1.0  -0.099
  C  C92  1  0.491300  0.134900  0.234500  1.0  0.1279
  C  C93  1  0.338700  0.037600  0.307700  1.0  0.128
  C  C94  1  0.038300  0.599100  0.238300  1.0  0.1448
  C  C95  1  0.960900  0.414900  0.290400  1.0  0.1333
  C  C96  1  0.970200  0.989900  0.292100  1.0  -0.1615
  C  C97  1  0.893300  0.074500  0.199500  1.0  -0.1295
  C  C98  1  0.856100  0.883800  0.276900  1.0  0.1635
  C  C99  1  0.782500  0.962100  0.187200  1.0  0.1444
  C  C100  1  0.503400  0.634500  0.426900  1.0  -0.0611
  C  C101  1  0.625600  0.712800  0.465600  1.0  -0.1226
  C  C102  1  0.402300  0.576700  0.465500  1.0  -0.1645
  C  C103  1  0.431200  0.597800  0.539800  1.0  0.1618
  C  C104  1  0.644500  0.724500  0.538000  1.0  0.1391
  C  C105  1  0.426900  0.286800  0.039600  1.0  -0.1368
  C  C106  1  0.431900  0.271100  0.967500  1.0  0.1417
  N  N107  1  0.582300  0.854100  0.719100  1.0  -0.346
  N  N108  1  0.940400  0.491400  0.737900  1.0  -0.391
  N  N109  1  0.237400  0.134500  0.773100  1.0  -0.351
  N  N110  1  0.453000  0.328900  0.425200  1.0  -0.3584
  N  N111  1  0.611600  0.677600  0.081600  1.0  -0.3625
  N  N112  1  0.417700  0.145900  0.280900  1.0  -0.3464
  N  N113  1  0.059600  0.508600  0.262100  1.0  -0.3931
  N  N114  1  0.762600  0.865500  0.226900  1.0  -0.3494
  N  N115  1  0.547000  0.671100  0.574800  1.0  -0.3589
  N  N116  1  0.388400  0.322400  0.918400  1.0  -0.3616
  O  O117  1  0.617000  0.686400  0.820000  1.0  -0.5845
  O  O118  1  0.613300  0.489100  0.680300  1.0  -0.7223
  O  O119  1  0.374300  0.563100  0.693800  1.0  -0.6603
  O  O120  1  0.618600  0.508300  0.842200  1.0  -0.7019
  O  O121  1  0.525500  0.205300  0.818100  1.0  -0.607
  O  O122  1  0.324300  0.435900  0.781100  1.0  -0.6503
  O  O123  1  0.797300  0.787900  0.693400  1.0  -0.5729
  O  O124  1  0.439900  0.313900  0.684100  1.0  -0.5735
  O  O125  1  0.878100  0.706700  0.773900  1.0  -0.6855
  O  O126  1  0.673500  0.294500  0.747500  1.0  -0.654
  O  O127  1  0.383000  0.313600  0.180000  1.0  -0.5847
  O  O128  1  0.386700  0.510900  0.319700  1.0  -0.7226
  O  O129  1  0.625700  0.436900  0.306200  1.0  -0.6582
  O  O130  1  0.381400  0.491700  0.157800  1.0  -0.7031
  O  O131  1  0.474500  0.794700  0.181900  1.0  -0.6065
  O  O132  1  0.675700  0.564100  0.218900  1.0  -0.6493
  O  O133  1  0.202700  0.212100  0.306600  1.0  -0.5726
  O  O134  1  0.560100  0.686100  0.315900  1.0  -0.5745
  O  O135  1  0.121900  0.293300  0.226100  1.0  -0.6851
  O  O136  1  0.326500  0.705500  0.252500  1.0  -0.6535
