# generated using pymatgen
data_Cd6H44C66N11ClO26
_symmetry_space_group_name_H-M   'P 1'
_cell_length_a   19.03820000
_cell_length_b   21.75560000
_cell_length_c   23.83410000
_cell_angle_alpha   90.00000000
_cell_angle_beta   90.00000000
_cell_angle_gamma   97.58000000
_symmetry_Int_Tables_number   1
_chemical_formula_structural   Cd6H44C66N11ClO26
_chemical_formula_sum   'Cd24 H176 C264 N44 Cl4 O104'
_cell_volume   9785.52227859
_cell_formula_units_Z   4
loop_
 _symmetry_equiv_pos_site_id
 _symmetry_equiv_pos_as_xyz
  1  'x, y, z'
loop_
 _atom_site_type_symbol
 _atom_site_label
 _atom_site_symmetry_multiplicity
 _atom_site_fract_x
 _atom_site_fract_y
 _atom_site_fract_z
 _atom_site_occupancy
 _atom_site_charge
  Cd  Cd1  1  0.787300  0.244250  0.757230  1.0  1.0106
  Cd  Cd2  1  0.230420  0.334110  0.616910  1.0  1.0065
  Cd  Cd3  1  0.329210  0.159930  0.617600  1.0  1.0485
  Cd  Cd4  1  0.730280  0.334400  0.636220  1.0  1.0274
  Cd  Cd5  1  0.287620  0.253370  0.489960  1.0  1.0058
  Cd  Cd6  1  0.829120  0.160720  0.623510  1.0  1.0386
  Cd  Cd7  1  0.712700  0.255750  0.257230  1.0  1.0109
  Cd  Cd8  1  0.269580  0.165890  0.116910  1.0  1.0067
  Cd  Cd9  1  0.170790  0.340070  0.117600  1.0  1.0489
  Cd  Cd10  1  0.769720  0.165600  0.136220  1.0  1.0283
  Cd  Cd11  1  0.212380  0.246630  0.989960  1.0  1.0054
  Cd  Cd12  1  0.670880  0.339280  0.123510  1.0  1.0373
  Cd  Cd13  1  0.212700  0.755750  0.242770  1.0  1.0103
  Cd  Cd14  1  0.769580  0.665890  0.383090  1.0  1.0068
  Cd  Cd15  1  0.670790  0.840070  0.382400  1.0  1.0489
  Cd  Cd16  1  0.269720  0.665600  0.363780  1.0  1.0285
  Cd  Cd17  1  0.712380  0.746630  0.510040  1.0  1.0056
  Cd  Cd18  1  0.170880  0.839280  0.376490  1.0  1.037
  Cd  Cd19  1  0.287300  0.744250  0.742770  1.0  1.0104
  Cd  Cd20  1  0.730420  0.834110  0.883090  1.0  1.0061
  Cd  Cd21  1  0.829210  0.659930  0.882400  1.0  1.0485
  Cd  Cd22  1  0.230280  0.834400  0.863780  1.0  1.0276
  Cd  Cd23  1  0.787620  0.753370  0.010040  1.0  1.0061
  Cd  Cd24  1  0.329120  0.660720  0.876490  1.0  1.0385
  H  H25  1  0.092200  0.120600  0.652200  1.0  0.1319
  H  H26  1  0.948400  0.213800  0.535900  1.0  0.0863
  H  H27  1  0.988300  0.260100  0.713300  1.0  0.1221
  H  H28  1  0.467000  0.371700  0.668700  1.0  0.1231
  H  H29  1  0.973900  0.107500  0.663200  1.0  0.0766
  H  H30  1  0.968100  0.377000  0.584400  1.0  0.1361
  H  H31  1  0.088200  0.385300  0.572800  1.0  0.0823
  H  H32  1  0.489200  0.265700  0.533700  1.0  0.1321
  H  H33  1  0.586600  0.377800  0.683200  1.0  0.0769
  H  H34  1  0.608700  0.281200  0.549100  1.0  0.0771
  H  H35  1  0.320100  0.172500  0.800700  1.0  0.1167
  H  H36  1  0.107600  0.276900  0.700400  1.0  0.0807
  H  H37  1  0.069900  0.234600  0.522900  1.0  0.1319
  H  H38  1  0.854800  0.990800  0.732700  1.0  0.1187
  H  H39  1  0.727600  0.335400  0.460700  1.0  0.1216
  H  H40  1  0.210300  0.323300  0.879700  1.0  0.0803
  H  H41  1  0.701200  0.058700  0.818600  1.0  0.12
  H  H42  1  0.305700  0.176500  0.895500  1.0  0.0849
  H  H43  1  0.219100  0.319800  0.785100  1.0  0.1228
  H  H44  1  0.182100  0.492800  0.512100  1.0  0.1033
  H  H45  1  0.184500  0.073600  0.427100  1.0  0.1205
  H  H46  1  0.327400  0.991600  0.513600  1.0  0.121
  H  H47  1  0.184700  0.583900  0.462600  1.0  0.0903
  H  H48  1  0.324500  0.439500  0.406200  1.0  0.1156
  H  H49  1  0.323500  0.530600  0.358400  1.0  0.0763
  H  H50  1  0.143000  0.980400  0.388800  1.0  0.0814
  H  H51  1  0.279500  0.898100  0.471200  1.0  0.0746
  H  H52  1  0.830600  0.901500  0.783800  1.0  0.0757
  H  H53  1  0.678800  0.966400  0.863600  1.0  0.0791
  H  H54  1  0.822100  0.183800  0.445000  1.0  0.1105
  H  H55  1  0.719400  0.337600  0.364800  1.0  0.0744
  H  H56  1  0.808700  0.188900  0.351000  1.0  0.0823
  H  H57  1  0.853700  0.428400  0.839100  1.0  0.1163
  H  H58  1  0.872300  0.524300  0.881800  1.0  0.0761
  H  H59  1  0.724700  0.583000  0.790600  1.0  0.0823
  H  H60  1  0.704100  0.490200  0.744300  1.0  0.1114
  H  H61  1  0.593000  0.122800  0.587900  1.0  0.1127
  H  H62  1  0.447700  0.209400  0.709000  1.0  0.0869
  H  H63  1  0.474400  0.113200  0.573400  1.0  0.0966
  H  H64  1  0.566700  0.227500  0.723400  1.0  0.1285
  H  H65  1  0.487200  0.355200  0.327100  1.0  0.086
  H  H66  1  0.582600  0.335800  0.268900  1.0  0.0889
  H  H67  1  0.603500  0.189200  0.354700  1.0  0.0695
  H  H68  1  0.500000  0.202300  0.410300  1.0  0.1175
  H  H69  1  0.407800  0.379400  0.152200  1.0  0.1316
  H  H70  1  0.551600  0.286200  0.035900  1.0  0.0847
  H  H71  1  0.511700  0.239900  0.213300  1.0  0.1222
  H  H72  1  0.033000  0.128300  0.168700  1.0  0.1234
  H  H73  1  0.526100  0.392500  0.163200  1.0  0.0754
  H  H74  1  0.531900  0.123000  0.084400  1.0  0.1362
  H  H75  1  0.411800  0.114700  0.072800  1.0  0.0833
  H  H76  1  0.010800  0.234300  0.033700  1.0  0.1321
  H  H77  1  0.913400  0.122200  0.183200  1.0  0.077
  H  H78  1  0.891300  0.218800  0.049100  1.0  0.0773
  H  H79  1  0.179900  0.327500  0.300700  1.0  0.1165
  H  H80  1  0.392400  0.223100  0.200400  1.0  0.0803
  H  H81  1  0.430100  0.265400  0.022900  1.0  0.1319
  H  H82  1  0.645200  0.509200  0.232700  1.0  0.1177
  H  H83  1  0.772400  0.164600  0.960700  1.0  0.1212
  H  H84  1  0.289700  0.176700  0.379700  1.0  0.08
  H  H85  1  0.798800  0.441300  0.318600  1.0  0.12
  H  H86  1  0.194300  0.323500  0.395500  1.0  0.085
  H  H87  1  0.280900  0.180200  0.285100  1.0  0.1213
  H  H88  1  0.317900  0.007200  0.012100  1.0  0.1036
  H  H89  1  0.315500  0.426400  0.927100  1.0  0.1201
  H  H90  1  0.172600  0.508400  0.013600  1.0  0.1204
  H  H91  1  0.315300  0.916100  0.962600  1.0  0.0908
  H  H92  1  0.175500  0.060500  0.906200  1.0  0.1159
  H  H93  1  0.176500  0.969400  0.858400  1.0  0.0759
  H  H94  1  0.357000  0.519600  0.888800  1.0  0.0809
  H  H95  1  0.220500  0.601900  0.971200  1.0  0.0753
  H  H96  1  0.669400  0.598500  0.283800  1.0  0.0759
  H  H97  1  0.821200  0.533600  0.363600  1.0  0.0796
  H  H98  1  0.677900  0.316200  0.945000  1.0  0.1111
  H  H99  1  0.780600  0.162400  0.864800  1.0  0.0737
  H  H100  1  0.691300  0.311100  0.851000  1.0  0.0837
  H  H101  1  0.646300  0.071600  0.339100  1.0  0.116
  H  H102  1  0.627700  0.975700  0.381800  1.0  0.0761
  H  H103  1  0.775300  0.917000  0.290600  1.0  0.0825
  H  H104  1  0.795900  0.009800  0.244300  1.0  0.1116
  H  H105  1  0.907000  0.377200  0.087900  1.0  0.1128
  H  H106  1  0.052300  0.290600  0.209000  1.0  0.0873
  H  H107  1  0.025600  0.386800  0.073400  1.0  0.0949
  H  H108  1  0.933300  0.272500  0.223400  1.0  0.1282
  H  H109  1  0.012800  0.144800  0.827100  1.0  0.0858
  H  H110  1  0.917400  0.164200  0.768900  1.0  0.0886
  H  H111  1  0.896500  0.310800  0.854700  1.0  0.0706
  H  H112  1  0.000000  0.297700  0.910300  1.0  0.118
  H  H113  1  0.907800  0.879400  0.347800  1.0  0.1321
  H  H114  1  0.051600  0.786200  0.464100  1.0  0.0842
  H  H115  1  0.011700  0.739900  0.286700  1.0  0.1218
  H  H116  1  0.533000  0.628300  0.331300  1.0  0.123
  H  H117  1  0.026100  0.892500  0.336800  1.0  0.0749
  H  H118  1  0.031900  0.623000  0.415600  1.0  0.1362
  H  H119  1  0.911800  0.614700  0.427200  1.0  0.0831
  H  H120  1  0.510800  0.734300  0.466300  1.0  0.1323
  H  H121  1  0.413400  0.622200  0.316800  1.0  0.0771
  H  H122  1  0.391300  0.718800  0.450900  1.0  0.0769
  H  H123  1  0.679900  0.827500  0.199300  1.0  0.1167
  H  H124  1  0.892400  0.723100  0.299600  1.0  0.0807
  H  H125  1  0.930100  0.765400  0.477100  1.0  0.1317
  H  H126  1  0.145200  0.009200  0.267300  1.0  0.1179
  H  H127  1  0.272400  0.664600  0.539300  1.0  0.1211
  H  H128  1  0.789700  0.676700  0.120300  1.0  0.0797
  H  H129  1  0.298800  0.941300  0.181400  1.0  0.12
  H  H130  1  0.694300  0.823500  0.104500  1.0  0.0862
  H  H131  1  0.780900  0.680200  0.214900  1.0  0.1226
  H  H132  1  0.817900  0.507200  0.487900  1.0  0.1039
  H  H133  1  0.815500  0.926400  0.572900  1.0  0.12
  H  H134  1  0.672600  0.008400  0.486400  1.0  0.1212
  H  H135  1  0.815300  0.416100  0.537400  1.0  0.0906
  H  H136  1  0.675500  0.560500  0.593800  1.0  0.1159
  H  H137  1  0.676500  0.469400  0.641600  1.0  0.0761
  H  H138  1  0.857000  0.019600  0.611200  1.0  0.0808
  H  H139  1  0.720500  0.101900  0.528800  1.0  0.0762
  H  H140  1  0.169400  0.098500  0.216200  1.0  0.076
  H  H141  1  0.321200  0.033600  0.136400  1.0  0.0798
  H  H142  1  0.177900  0.816200  0.555000  1.0  0.1113
  H  H143  1  0.280600  0.662400  0.635200  1.0  0.0733
  H  H144  1  0.191300  0.811100  0.649000  1.0  0.0828
  H  H145  1  0.146300  0.571600  0.160900  1.0  0.1164
  H  H146  1  0.127700  0.475700  0.118200  1.0  0.0767
  H  H147  1  0.275300  0.417000  0.209400  1.0  0.0824
  H  H148  1  0.295900  0.509800  0.255700  1.0  0.1117
  H  H149  1  0.407000  0.877200  0.412100  1.0  0.1128
  H  H150  1  0.552300  0.790600  0.291000  1.0  0.087
  H  H151  1  0.525600  0.886800  0.426600  1.0  0.0955
  H  H152  1  0.433300  0.772500  0.276600  1.0  0.1287
  H  H153  1  0.512800  0.644800  0.672900  1.0  0.0853
  H  H154  1  0.417400  0.664200  0.731100  1.0  0.0884
  H  H155  1  0.396500  0.810800  0.645300  1.0  0.0706
  H  H156  1  0.500000  0.797700  0.589700  1.0  0.1187
  H  H157  1  0.592200  0.620600  0.847800  1.0  0.132
  H  H158  1  0.448400  0.713800  0.964100  1.0  0.0848
  H  H159  1  0.488300  0.760100  0.786700  1.0  0.1218
  H  H160  1  0.967000  0.871700  0.831300  1.0  0.1231
  H  H161  1  0.473900  0.607500  0.836800  1.0  0.0761
  H  H162  1  0.468100  0.877000  0.915600  1.0  0.1363
  H  H163  1  0.588200  0.885300  0.927200  1.0  0.0822
  H  H164  1  0.989200  0.765700  0.966300  1.0  0.1324
  H  H165  1  0.086600  0.877800  0.816800  1.0  0.0775
  H  H166  1  0.108700  0.781200  0.950900  1.0  0.0769
  H  H167  1  0.820100  0.672500  0.699300  1.0  0.1166
  H  H168  1  0.607600  0.776900  0.799600  1.0  0.0807
  H  H169  1  0.569900  0.734600  0.977100  1.0  0.132
  H  H170  1  0.354800  0.490800  0.767300  1.0  0.1191
  H  H171  1  0.227600  0.835400  0.039300  1.0  0.1217
  H  H172  1  0.710300  0.823300  0.620300  1.0  0.0802
  H  H173  1  0.201200  0.558700  0.681400  1.0  0.12
  H  H174  1  0.805700  0.676500  0.604500  1.0  0.0856
  H  H175  1  0.719100  0.819800  0.714900  1.0  0.1223
  H  H176  1  0.682100  0.992800  0.987900  1.0  0.1038
  H  H177  1  0.684500  0.573600  0.072900  1.0  0.1202
  H  H178  1  0.827400  0.491600  0.986400  1.0  0.1209
  H  H179  1  0.684700  0.083900  0.037400  1.0  0.0902
  H  H180  1  0.824500  0.939500  0.093800  1.0  0.116
  H  H181  1  0.823500  0.030600  0.141600  1.0  0.0769
  H  H182  1  0.643000  0.480400  0.111200  1.0  0.081
  H  H183  1  0.779500  0.398100  0.028800  1.0  0.0748
  H  H184  1  0.330600  0.401500  0.716200  1.0  0.0751
  H  H185  1  0.178800  0.466400  0.636400  1.0  0.0792
  H  H186  1  0.322100  0.683800  0.055000  1.0  0.1109
  H  H187  1  0.219400  0.837600  0.135200  1.0  0.0741
  H  H188  1  0.308700  0.688900  0.149000  1.0  0.0816
  H  H189  1  0.353700  0.928400  0.660900  1.0  0.117
  H  H190  1  0.372300  0.024300  0.618200  1.0  0.0764
  H  H191  1  0.224700  0.083000  0.709400  1.0  0.0821
  H  H192  1  0.204100  0.990200  0.755700  1.0  0.1113
  H  H193  1  0.093000  0.622800  0.912100  1.0  0.1132
  H  H194  1  0.947700  0.709400  0.791000  1.0  0.0868
  H  H195  1  0.974400  0.613200  0.926600  1.0  0.097
  H  H196  1  0.066700  0.727500  0.776600  1.0  0.1291
  H  H197  1  0.987200  0.855200  0.172900  1.0  0.0859
  H  H198  1  0.082600  0.835800  0.231100  1.0  0.0885
  H  H199  1  0.103500  0.689200  0.145300  1.0  0.0691
  H  H200  1  0.000000  0.702300  0.089700  1.0  0.118
  C  C201  1  0.963800  0.315400  0.650000  1.0  -0.0786
  C  C202  1  0.463400  0.315100  0.601400  1.0  -0.0632
  C  C203  1  0.064000  0.141400  0.628800  1.0  -0.1481
  C  C204  1  0.798500  0.096600  0.739900  1.0  0.6634
  C  C205  1  0.978100  0.196200  0.560500  1.0  0.1902
  C  C206  1  0.007400  0.286100  0.684600  1.0  -0.1385
  C  C207  1  0.494600  0.350900  0.644800  1.0  -0.1683
  C  C208  1  0.094800  0.181100  0.587000  1.0  -0.0739
  C  C209  1  0.993300  0.133500  0.634600  1.0  0.1828
  C  C210  1  0.995400  0.355200  0.607500  1.0  -0.1274
  C  C211  1  0.386000  0.304000  0.593500  1.0  0.7141
  C  C212  1  0.067200  0.360500  0.601600  1.0  0.1685
  C  C213  1  0.884300  0.303900  0.656600  1.0  0.6982
  C  C214  1  0.275700  0.241500  0.718500  1.0  0.6803
  C  C215  1  0.507700  0.288900  0.564300  1.0  -0.1529
  C  C216  1  0.173600  0.194700  0.581700  1.0  0.7034
  C  C217  1  0.774500  0.257700  0.464300  1.0  -0.0505
  C  C218  1  0.253600  0.397000  0.498800  1.0  0.7048
  C  C219  1  0.782000  0.036500  0.770300  1.0  -0.0955
  C  C220  1  0.779000  0.253900  0.526900  1.0  0.7149
  C  C221  1  0.290200  0.104600  0.500100  1.0  0.7066
  C  C222  1  0.673900  0.192100  0.663400  1.0  0.7178
  C  C223  1  0.566900  0.355600  0.652400  1.0  0.1684
  C  C224  1  0.579500  0.298200  0.574400  1.0  0.1817
  C  C225  1  0.296600  0.203200  0.816300  1.0  -0.1173
  C  C226  1  0.078700  0.296000  0.676300  1.0  0.1838
  C  C227  1  0.051400  0.208500  0.551800  1.0  -0.1611
  C  C228  1  0.260500  0.042900  0.475400  1.0  -0.0945
  C  C229  1  0.270600  0.245600  0.782300  1.0  -0.1151
  C  C230  1  0.819500  0.987500  0.759900  1.0  -0.1416
  C  C231  1  0.253300  0.456000  0.465200  1.0  -0.0683
  C  C232  1  0.777200  0.448600  0.785700  1.0  -0.0553
  C  C233  1  0.744300  0.304700  0.439200  1.0  -0.1737
  C  C234  1  0.231600  0.291500  0.863500  1.0  0.1675
  C  C235  1  0.728200  0.027200  0.810400  1.0  -0.1176
  C  C236  1  0.763800  0.387300  0.756300  1.0  0.7151
  C  C237  1  0.287900  0.205900  0.873100  1.0  0.168
  C  C238  1  0.237500  0.290300  0.806900  1.0  -0.1627
  C  C239  1  0.211700  0.499900  0.481100  1.0  -0.0706
  C  C240  1  0.204800  0.038500  0.437000  1.0  -0.1183
  C  C241  1  0.289800  0.990400  0.488500  1.0  -0.0894
  C  C242  1  0.213500  0.554900  0.451300  1.0  0.1685
  C  C243  1  0.295800  0.468300  0.418400  1.0  -0.1159
  C  C244  1  0.295300  0.523300  0.390200  1.0  0.1865
  C  C245  1  0.180400  0.982600  0.414000  1.0  0.1745
  C  C246  1  0.260600  0.934200  0.462300  1.0  0.1636
  C  C247  1  0.804000  0.933700  0.790400  1.0  0.1645
  C  C248  1  0.715500  0.971800  0.837600  1.0  0.1832
  C  C249  1  0.799600  0.215200  0.429700  1.0  -0.1229
  C  C250  1  0.739300  0.305300  0.381400  1.0  0.1785
  C  C251  1  0.791700  0.218800  0.373300  1.0  0.1767
  C  C252  1  0.827700  0.459500  0.828000  1.0  -0.1099
  C  C253  1  0.838700  0.517500  0.853400  1.0  0.1726
  C  C254  1  0.752100  0.551900  0.799500  1.0  0.1705
  C  C255  1  0.738800  0.496000  0.772000  1.0  -0.1207
  C  C256  1  0.564600  0.142100  0.612200  1.0  -0.1422
  C  C257  1  0.477700  0.193200  0.683700  1.0  0.1694
  C  C258  1  0.493500  0.135700  0.604300  1.0  0.1616
  C  C259  1  0.595300  0.177600  0.656800  1.0  -0.072
  C  C260  1  0.548900  0.203400  0.693100  1.0  -0.1321
  C  C261  1  0.426900  0.296200  0.410100  1.0  0.6783
  C  C262  1  0.487100  0.281800  0.373100  1.0  0.0371
  C  C263  1  0.509300  0.320100  0.333200  1.0  -0.0864
  C  C264  1  0.568300  0.308600  0.298000  1.0  0.0976
  C  C265  1  0.579900  0.223000  0.346900  1.0  0.1494
  C  C266  1  0.516900  0.231000  0.383000  1.0  -0.0997
  C  C267  1  0.536200  0.184600  0.150000  1.0  -0.0785
  C  C268  1  0.036600  0.184900  0.101400  1.0  -0.0639
  C  C269  1  0.436000  0.358600  0.128800  1.0  -0.1506
  C  C270  1  0.701500  0.403400  0.239900  1.0  0.6548
  C  C271  1  0.521900  0.303800  0.060500  1.0  0.1911
  C  C272  1  0.492600  0.213900  0.184600  1.0  -0.1351
  C  C273  1  0.005400  0.149100  0.144800  1.0  -0.1681
  C  C274  1  0.405200  0.318900  0.087000  1.0  -0.0734
  C  C275  1  0.506700  0.366500  0.134600  1.0  0.1834
  C  C276  1  0.504600  0.144800  0.107500  1.0  -0.1295
  C  C277  1  0.114000  0.196000  0.093500  1.0  0.7154
  C  C278  1  0.432800  0.139500  0.101600  1.0  0.1678
  C  C279  1  0.615700  0.196100  0.156600  1.0  0.6978
  C  C280  1  0.224300  0.258500  0.218500  1.0  0.6795
  C  C281  1  0.992300  0.211100  0.064300  1.0  -0.1522
  C  C282  1  0.326400  0.305300  0.081700  1.0  0.7039
  C  C283  1  0.725500  0.242300  0.964300  1.0  -0.0502
  C  C284  1  0.246400  0.103000  0.998800  1.0  0.7047
  C  C285  1  0.718000  0.463500  0.270300  1.0  -0.0935
  C  C286  1  0.721000  0.246100  0.026900  1.0  0.7136
  C  C287  1  0.209800  0.395400  0.000100  1.0  0.7068
  C  C288  1  0.826100  0.307900  0.163400  1.0  0.7179
  C  C289  1  0.933100  0.144400  0.152400  1.0  0.1679
  C  C290  1  0.920500  0.201800  0.074400  1.0  0.1813
  C  C291  1  0.203400  0.296800  0.316300  1.0  -0.1193
  C  C292  1  0.421300  0.204000  0.176300  1.0  0.1817
  C  C293  1  0.448600  0.291500  0.051800  1.0  -0.1614
  C  C294  1  0.239500  0.457100  0.975400  1.0  -0.0957
  C  C295  1  0.229400  0.254400  0.282300  1.0  -0.1146
  C  C296  1  0.680500  0.512500  0.259900  1.0  -0.1445
  C  C297  1  0.246700  0.044000  0.965200  1.0  -0.069
  C  C298  1  0.722800  0.051400  0.285700  1.0  -0.055
  C  C299  1  0.755700  0.195300  0.939200  1.0  -0.1737
  C  C300  1  0.268400  0.208500  0.363500  1.0  0.1676
  C  C301  1  0.771800  0.472800  0.310400  1.0  -0.1181
  C  C302  1  0.736200  0.112700  0.256300  1.0  0.7042
  C  C303  1  0.212100  0.294100  0.373100  1.0  0.1676
  C  C304  1  0.262500  0.209700  0.306900  1.0  -0.1609
  C  C305  1  0.288300  0.000100  0.981100  1.0  -0.0676
  C  C306  1  0.295200  0.461500  0.937000  1.0  -0.1194
  C  C307  1  0.210200  0.509600  0.988500  1.0  -0.0898
  C  C308  1  0.286500  0.945100  0.951300  1.0  0.1689
  C  C309  1  0.204200  0.031700  0.918400  1.0  -0.1147
  C  C310  1  0.204700  0.976700  0.890200  1.0  0.1867
  C  C311  1  0.319600  0.517400  0.914000  1.0  0.1753
  C  C312  1  0.239400  0.565800  0.962300  1.0  0.1616
  C  C313  1  0.696000  0.566300  0.290400  1.0  0.1648
  C  C314  1  0.784500  0.528200  0.337600  1.0  0.1839
  C  C315  1  0.700400  0.284800  0.929700  1.0  -0.1235
  C  C316  1  0.760700  0.194700  0.881400  1.0  0.1786
  C  C317  1  0.708300  0.281200  0.873300  1.0  0.1759
  C  C318  1  0.672300  0.040500  0.328000  1.0  -0.1112
  C  C319  1  0.661300  0.982500  0.353400  1.0  0.173
  C  C320  1  0.747900  0.948100  0.299500  1.0  0.1703
  C  C321  1  0.761200  0.004000  0.272000  1.0  -0.1157
  C  C322  1  0.935400  0.357900  0.112200  1.0  -0.1401
  C  C323  1  0.022300  0.306800  0.183700  1.0  0.1711
  C  C324  1  0.006500  0.364300  0.104300  1.0  0.1627
  C  C325  1  0.904700  0.322400  0.156800  1.0  -0.071
  C  C326  1  0.951100  0.296600  0.193100  1.0  -0.1354
  C  C327  1  0.073100  0.203800  0.910100  1.0  0.6783
  C  C328  1  0.012900  0.218200  0.873100  1.0  0.0378
  C  C329  1  0.990700  0.179900  0.833200  1.0  -0.0871
  C  C330  1  0.931700  0.191400  0.798000  1.0  0.0969
  C  C331  1  0.920100  0.277000  0.846900  1.0  0.1498
  C  C332  1  0.983100  0.269000  0.883000  1.0  -0.0996
  C  C333  1  0.036200  0.684600  0.350000  1.0  -0.0785
  C  C334  1  0.536600  0.684900  0.398600  1.0  -0.0652
  C  C335  1  0.936000  0.858600  0.371200  1.0  -0.1498
  C  C336  1  0.201500  0.903400  0.260100  1.0  0.654
  C  C337  1  0.021900  0.803800  0.439500  1.0  0.192
  C  C338  1  0.992600  0.713900  0.315400  1.0  -0.1352
  C  C339  1  0.505400  0.649100  0.355200  1.0  -0.1688
  C  C340  1  0.905200  0.818900  0.413000  1.0  -0.073
  C  C341  1  0.006700  0.866500  0.365400  1.0  0.1839
  C  C342  1  0.004600  0.644800  0.392500  1.0  -0.129
  C  C343  1  0.614000  0.696000  0.406500  1.0  0.7158
  C  C344  1  0.932800  0.639500  0.398400  1.0  0.168
  C  C345  1  0.115700  0.696100  0.343400  1.0  0.6972
  C  C346  1  0.724300  0.758500  0.281500  1.0  0.6786
  C  C347  1  0.492300  0.711100  0.435700  1.0  -0.1511
  C  C348  1  0.826400  0.805300  0.418300  1.0  0.704
  C  C349  1  0.225500  0.742300  0.535700  1.0  -0.0508
  C  C350  1  0.746400  0.603000  0.501200  1.0  0.7024
  C  C351  1  0.218000  0.963500  0.229700  1.0  -0.0938
  C  C352  1  0.221000  0.746100  0.473100  1.0  0.7151
  C  C353  1  0.709800  0.895400  0.499900  1.0  0.7066
  C  C354  1  0.326100  0.807900  0.336600  1.0  0.718
  C  C355  1  0.433100  0.644400  0.347600  1.0  0.1669
  C  C356  1  0.420500  0.701800  0.425600  1.0  0.1797
  C  C357  1  0.703400  0.796800  0.183700  1.0  -0.1135
  C  C358  1  0.921300  0.704000  0.323700  1.0  0.1821
  C  C359  1  0.948600  0.791500  0.448200  1.0  -0.159
  C  C360  1  0.739500  0.957100  0.524600  1.0  -0.0959
  C  C361  1  0.729400  0.754400  0.217700  1.0  -0.1137
  C  C362  1  0.180500  0.012500  0.240100  1.0  -0.1436
  C  C363  1  0.746700  0.544000  0.534800  1.0  -0.0693
  C  C364  1  0.222800  0.551400  0.214300  1.0  -0.0553
  C  C365  1  0.255700  0.695300  0.560800  1.0  -0.1759
  C  C366  1  0.768400  0.708500  0.136500  1.0  0.1681
  C  C367  1  0.271800  0.972800  0.189600  1.0  -0.1206
  C  C368  1  0.236200  0.612700  0.243700  1.0  0.7042
  C  C369  1  0.712100  0.794100  0.126900  1.0  0.1678
  C  C370  1  0.762500  0.709700  0.193100  1.0  -0.1549
  C  C371  1  0.788300  0.500100  0.518900  1.0  -0.0678
  C  C372  1  0.795200  0.961500  0.563000  1.0  -0.1192
  C  C373  1  0.710200  0.009600  0.511500  1.0  -0.0896
  C  C374  1  0.786500  0.445100  0.548700  1.0  0.169
  C  C375  1  0.704200  0.531700  0.581600  1.0  -0.1149
  C  C376  1  0.704700  0.476700  0.609800  1.0  0.1869
  C  C377  1  0.819600  0.017400  0.586000  1.0  0.1756
  C  C378  1  0.739400  0.065800  0.537700  1.0  0.1625
  C  C379  1  0.196000  0.066300  0.209600  1.0  0.1632
  C  C380  1  0.284500  0.028200  0.162400  1.0  0.1837
  C  C381  1  0.200400  0.784800  0.570300  1.0  -0.1319
  C  C382  1  0.260700  0.694700  0.618600  1.0  0.1787
  C  C383  1  0.208300  0.781200  0.626700  1.0  0.1757
  C  C384  1  0.172300  0.540500  0.172000  1.0  -0.11
  C  C385  1  0.161300  0.482500  0.146600  1.0  0.1727
  C  C386  1  0.247900  0.448100  0.200500  1.0  0.1701
  C  C387  1  0.261200  0.504000  0.228000  1.0  -0.1155
  C  C388  1  0.435400  0.857900  0.387800  1.0  -0.1414
  C  C389  1  0.522300  0.806800  0.316300  1.0  0.1722
  C  C390  1  0.506500  0.864300  0.395700  1.0  0.1623
  C  C391  1  0.404700  0.822400  0.343200  1.0  -0.0712
  C  C392  1  0.451100  0.796600  0.306900  1.0  -0.1355
  C  C393  1  0.573100  0.703800  0.589900  1.0  0.6781
  C  C394  1  0.512900  0.718200  0.626900  1.0  0.0381
  C  C395  1  0.490700  0.679900  0.666800  1.0  -0.0844
  C  C396  1  0.431700  0.691400  0.702000  1.0  0.0974
  C  C397  1  0.420100  0.777000  0.653100  1.0  0.1495
  C  C398  1  0.483100  0.769000  0.617000  1.0  -0.1007
  C  C399  1  0.463800  0.815400  0.850000  1.0  -0.0789
  C  C400  1  0.963400  0.815100  0.898600  1.0  -0.0644
  C  C401  1  0.564000  0.641400  0.871200  1.0  -0.1476
  C  C402  1  0.298500  0.596600  0.760100  1.0  0.6626
  C  C403  1  0.478100  0.696200  0.939500  1.0  0.1908
  C  C404  1  0.507400  0.786100  0.815400  1.0  -0.1381
  C  C405  1  0.994600  0.850900  0.855200  1.0  -0.1682
  C  C406  1  0.594800  0.681100  0.913000  1.0  -0.0743
  C  C407  1  0.493300  0.633500  0.865400  1.0  0.1825
  C  C408  1  0.495400  0.855200  0.892500  1.0  -0.1266
  C  C409  1  0.886000  0.804000  0.906500  1.0  0.7143
  C  C410  1  0.567200  0.860500  0.898400  1.0  0.1672
  C  C411  1  0.384300  0.803900  0.843400  1.0  0.698
  C  C412  1  0.775700  0.741500  0.781500  1.0  0.6799
  C  C413  1  0.007700  0.788900  0.935700  1.0  -0.1523
  C  C414  1  0.673600  0.694700  0.918300  1.0  0.7043
  C  C415  1  0.274500  0.757700  0.035700  1.0  -0.0497
  C  C416  1  0.753600  0.897000  0.001200  1.0  0.7049
  C  C417  1  0.282000  0.536500  0.729700  1.0  -0.0956
  C  C418  1  0.279000  0.753900  0.973100  1.0  0.7154
  C  C419  1  0.790200  0.604600  0.999900  1.0  0.7063
  C  C420  1  0.173900  0.692100  0.836600  1.0  0.7171
  C  C421  1  0.066900  0.855600  0.847600  1.0  0.1688
  C  C422  1  0.079500  0.798200  0.925600  1.0  0.181
  C  C423  1  0.796600  0.703200  0.683700  1.0  -0.1151
  C  C424  1  0.578700  0.796000  0.823700  1.0  0.1836
  C  C425  1  0.551400  0.708500  0.948200  1.0  -0.1573
  C  C426  1  0.760500  0.542900  0.024600  1.0  -0.0947
  C  C427  1  0.770600  0.745600  0.717700  1.0  -0.1155
  C  C428  1  0.319500  0.487500  0.740100  1.0  -0.141
  C  C429  1  0.753300  0.956000  0.034800  1.0  -0.0694
  C  C430  1  0.277200  0.948600  0.714300  1.0  -0.0555
  C  C431  1  0.244300  0.804700  0.060800  1.0  -0.1794
  C  C432  1  0.731600  0.791500  0.636500  1.0  0.1657
  C  C433  1  0.228200  0.527200  0.689600  1.0  -0.1175
  C  C434  1  0.263800  0.887300  0.743700  1.0  0.7155
  C  C435  1  0.787900  0.705900  0.626900  1.0  0.1676
  C  C436  1  0.737500  0.790300  0.693100  1.0  -0.1557
  C  C437  1  0.711700  0.999900  0.018900  1.0  -0.0711
  C  C438  1  0.704800  0.538500  0.063000  1.0  -0.1177
  C  C439  1  0.789800  0.490400  0.011500  1.0  -0.0892
  C  C440  1  0.713500  0.054900  0.048700  1.0  0.1679
  C  C441  1  0.795800  0.968300  0.081600  1.0  -0.1159
  C  C442  1  0.795300  0.023300  0.109800  1.0  0.1864
  C  C443  1  0.680400  0.482600  0.086000  1.0  0.175
  C  C444  1  0.760600  0.434200  0.037700  1.0  0.1632
  C  C445  1  0.304000  0.433700  0.709600  1.0  0.1644
  C  C446  1  0.215500  0.471800  0.662400  1.0  0.1828
  C  C447  1  0.299600  0.715200  0.070300  1.0  -0.1267
  C  C448  1  0.239300  0.805300  0.118600  1.0  0.1783
  C  C449  1  0.291700  0.718800  0.126700  1.0  0.1772
  C  C450  1  0.327700  0.959500  0.672000  1.0  -0.1107
  C  C451  1  0.338700  0.017500  0.646600  1.0  0.1725
  C  C452  1  0.252100  0.051900  0.700500  1.0  0.1704
  C  C453  1  0.238800  0.996000  0.728000  1.0  -0.1191
  C  C454  1  0.064600  0.642100  0.887800  1.0  -0.1424
  C  C455  1  0.977700  0.693200  0.816300  1.0  0.1732
  C  C456  1  0.993500  0.635700  0.895700  1.0  0.1631
  C  C457  1  0.095300  0.677600  0.843200  1.0  -0.0716
  C  C458  1  0.048900  0.703400  0.806900  1.0  -0.1343
  C  C459  1  0.926900  0.796200  0.089900  1.0  0.6789
  C  C460  1  0.987100  0.781800  0.126900  1.0  0.0374
  C  C461  1  0.009300  0.820100  0.166800  1.0  -0.0834
  C  C462  1  0.068300  0.808600  0.202000  1.0  0.098
  C  C463  1  0.079900  0.723000  0.153100  1.0  0.1489
  C  C464  1  0.016900  0.731000  0.117000  1.0  -0.1003
  N  N465  1  0.948300  0.160800  0.601700  1.0  -0.3418
  N  N466  1  0.109000  0.331700  0.635000  1.0  -0.3477
  N  N467  1  0.245200  0.250700  0.397800  1.0  -0.349
  N  N468  1  0.744200  0.432900  0.593600  1.0  -0.3513
  N  N469  1  0.792000  0.069500  0.573800  1.0  -0.3294
  N  N470  1  0.610200  0.330000  0.617700  1.0  -0.3441
  N  N471  1  0.752600  0.925200  0.828900  1.0  -0.345
  N  N472  1  0.739200  0.236900  0.848400  1.0  -0.3596
  N  N473  1  0.803100  0.563700  0.838800  1.0  -0.3364
  N  N474  1  0.449000  0.160800  0.639500  1.0  -0.3384
  N  N475  1  0.896300  0.241900  0.806800  1.0  -0.3526
  N  N476  1  0.551700  0.339200  0.101700  1.0  -0.3426
  N  N477  1  0.391000  0.168300  0.135000  1.0  -0.3454
  N  N478  1  0.254800  0.249300  0.897800  1.0  -0.3484
  N  N479  1  0.755800  0.067100  0.093600  1.0  -0.352
  N  N480  1  0.708000  0.430500  0.073800  1.0  -0.3285
  N  N481  1  0.889800  0.170000  0.117700  1.0  -0.3447
  N  N482  1  0.747400  0.574800  0.328900  1.0  -0.3471
  N  N483  1  0.760800  0.263100  0.348400  1.0  -0.3613
  N  N484  1  0.696900  0.936300  0.338800  1.0  -0.3367
  N  N485  1  0.051000  0.339200  0.139500  1.0  -0.3425
  N  N486  1  0.603700  0.258100  0.306800  1.0  -0.3527
  N  N487  1  0.051700  0.839200  0.398300  1.0  -0.3431
  N  N488  1  0.891000  0.668300  0.365000  1.0  -0.3457
  N  N489  1  0.754800  0.749300  0.602200  1.0  -0.3479
  N  N490  1  0.255800  0.567100  0.406400  1.0  -0.3516
  N  N491  1  0.208000  0.930500  0.426200  1.0  -0.3285
  N  N492  1  0.389800  0.670000  0.382300  1.0  -0.3446
  N  N493  1  0.247400  0.074800  0.171100  1.0  -0.3458
  N  N494  1  0.260800  0.763100  0.151600  1.0  -0.3623
  N  N495  1  0.196900  0.436300  0.161200  1.0  -0.3361
  N  N496  1  0.551000  0.839200  0.360500  1.0  -0.3425
  N  N497  1  0.103700  0.758100  0.193200  1.0  -0.3516
  N  N498  1  0.448300  0.660800  0.898300  1.0  -0.3416
  N  N499  1  0.609000  0.831700  0.865000  1.0  -0.3475
  N  N500  1  0.745200  0.750700  0.102200  1.0  -0.3482
  N  N501  1  0.244200  0.932900  0.906400  1.0  -0.3517
  N  N502  1  0.292000  0.569500  0.926200  1.0  -0.3297
  N  N503  1  0.110200  0.830000  0.882300  1.0  -0.3443
  N  N504  1  0.252600  0.425200  0.671100  1.0  -0.3445
  N  N505  1  0.239200  0.736900  0.651600  1.0  -0.3609
  N  N506  1  0.303100  0.063700  0.661200  1.0  -0.3358
  N  N507  1  0.949000  0.660800  0.860500  1.0  -0.3391
  N  N508  1  0.396300  0.741900  0.693200  1.0  -0.3523
  Cl  Cl509  1  0.047100  0.030700  0.776500  1.0  1.5565
  Cl  Cl510  1  0.452900  0.469300  0.276500  1.0  1.5563
  Cl  Cl511  1  0.952900  0.969300  0.223500  1.0  1.5568
  Cl  Cl512  1  0.547100  0.530700  0.723500  1.0  1.5571
  O  O513  1  0.360100  0.255500  0.568300  1.0  -0.6638
  O  O514  1  0.697100  0.239800  0.691400  1.0  -0.6472
  O  O515  1  0.821100  0.219400  0.546200  1.0  -0.6475
  O  O516  1  0.839100  0.099500  0.699500  1.0  -0.5742
  O  O517  1  0.197500  0.244500  0.556200  1.0  -0.6699
  O  O518  1  0.859700  0.252400  0.677900  1.0  -0.6679
  O  O519  1  0.710900  0.157400  0.639000  1.0  -0.6347
  O  O520  1  0.235600  0.272400  0.691400  1.0  -0.6482
  O  O521  1  0.739600  0.284600  0.554400  1.0  -0.6472
  O  O522  1  0.335800  0.105000  0.538000  1.0  -0.6143
  O  O523  1  0.718200  0.382000  0.718600  1.0  -0.6003
  O  O524  1  0.768400  0.140400  0.759000  1.0  -0.6801
  O  O525  1  0.350400  0.344800  0.611500  1.0  -0.5945
  O  O526  1  0.216100  0.391800  0.541600  1.0  -0.6053
  O  O527  1  0.849800  0.344700  0.640700  1.0  -0.5679
  O  O528  1  0.209900  0.156800  0.601800  1.0  -0.6694
  O  O529  1  0.320100  0.209600  0.699600  1.0  -0.6383
  O  O530  1  0.291500  0.357800  0.480600  1.0  -0.6703
  O  O531  1  0.801700  0.346600  0.771400  1.0  -0.6209
  O  O532  1  0.265400  0.151100  0.480400  1.0  -0.6496
  O  O533  1  0.399300  0.256000  0.442700  1.0  -0.6644
  O  O534  1  0.412300  0.352800  0.414200  1.0  -0.5029
  O  O535  1  0.139900  0.244500  0.068300  1.0  -0.6624
  O  O536  1  0.802900  0.260200  0.191400  1.0  -0.6471
  O  O537  1  0.678900  0.280600  0.046200  1.0  -0.6474
  O  O538  1  0.660900  0.400500  0.199500  1.0  -0.5736
  O  O539  1  0.302500  0.255500  0.056200  1.0  -0.671
  O  O540  1  0.640300  0.247600  0.177900  1.0  -0.6669
  O  O541  1  0.789100  0.342600  0.139000  1.0  -0.6337
  O  O542  1  0.264400  0.227600  0.191400  1.0  -0.6483
  O  O543  1  0.760400  0.215400  0.054400  1.0  -0.6464
  O  O544  1  0.164200  0.395000  0.038000  1.0  -0.6151
  O  O545  1  0.781800  0.118000  0.218600  1.0  -0.5997
  O  O546  1  0.731600  0.359600  0.259000  1.0  -0.6808
  O  O547  1  0.149600  0.155200  0.111500  1.0  -0.595
  O  O548  1  0.283900  0.108200  0.041600  1.0  -0.6046
  O  O549  1  0.650200  0.155300  0.140700  1.0  -0.5678
  O  O550  1  0.290100  0.343200  0.101800  1.0  -0.6692
  O  O551  1  0.179900  0.290400  0.199600  1.0  -0.6376
  O  O552  1  0.208500  0.142200  0.980600  1.0  -0.6702
  O  O553  1  0.698300  0.153400  0.271400  1.0  -0.6207
  O  O554  1  0.234600  0.348900  0.980400  1.0  -0.6466
  O  O555  1  0.100700  0.244000  0.942700  1.0  -0.6628
  O  O556  1  0.087700  0.147200  0.914200  1.0  -0.5037
  O  O557  1  0.639900  0.744500  0.431700  1.0  -0.6629
  O  O558  1  0.302900  0.760200  0.308600  1.0  -0.6472
  O  O559  1  0.178900  0.780600  0.453800  1.0  -0.6479
  O  O560  1  0.160900  0.900500  0.300500  1.0  -0.5738
  O  O561  1  0.802500  0.755500  0.443800  1.0  -0.6698
  O  O562  1  0.140300  0.747600  0.322100  1.0  -0.6691
  O  O563  1  0.289100  0.842600  0.361000  1.0  -0.6338
  O  O564  1  0.764400  0.727600  0.308600  1.0  -0.6481
  O  O565  1  0.260400  0.715400  0.445600  1.0  -0.6467
  O  O566  1  0.664200  0.895000  0.462000  1.0  -0.6147
  O  O567  1  0.281800  0.618000  0.281400  1.0  -0.6002
  O  O568  1  0.231600  0.859600  0.241000  1.0  -0.6805
  O  O569  1  0.649600  0.655200  0.388500  1.0  -0.5949
  O  O570  1  0.783900  0.608200  0.458400  1.0  -0.6051
  O  O571  1  0.150200  0.655300  0.359300  1.0  -0.5685
  O  O572  1  0.790100  0.843200  0.398200  1.0  -0.6693
  O  O573  1  0.679900  0.790400  0.300400  1.0  -0.638
  O  O574  1  0.708500  0.642200  0.519400  1.0  -0.6695
  O  O575  1  0.198300  0.653400  0.228600  1.0  -0.6206
  O  O576  1  0.734600  0.848900  0.519600  1.0  -0.6477
  O  O577  1  0.600700  0.744000  0.557300  1.0  -0.6638
  O  O578  1  0.587700  0.647200  0.585800  1.0  -0.5052
  O  O579  1  0.860100  0.755500  0.931700  1.0  -0.6632
  O  O580  1  0.197100  0.739800  0.808600  1.0  -0.6469
  O  O581  1  0.321100  0.719400  0.953800  1.0  -0.648
  O  O582  1  0.339100  0.599500  0.800500  1.0  -0.574
  O  O583  1  0.697500  0.744500  0.943800  1.0  -0.6701
  O  O584  1  0.359700  0.752400  0.822100  1.0  -0.67
  O  O585  1  0.210900  0.657400  0.861000  1.0  -0.6348
  O  O586  1  0.735600  0.772400  0.808600  1.0  -0.6481
  O  O587  1  0.239600  0.784600  0.945600  1.0  -0.6471
  O  O588  1  0.835800  0.605000  0.962000  1.0  -0.613
  O  O589  1  0.218200  0.882000  0.781400  1.0  -0.6007
  O  O590  1  0.268400  0.640400  0.741000  1.0  -0.6818
  O  O591  1  0.850400  0.844800  0.888500  1.0  -0.5944
  O  O592  1  0.716100  0.891800  0.958400  1.0  -0.6051
  O  O593  1  0.349800  0.844700  0.859300  1.0  -0.5688
  O  O594  1  0.709900  0.656800  0.898200  1.0  -0.6694
  O  O595  1  0.820100  0.709600  0.800400  1.0  -0.6389
  O  O596  1  0.791500  0.857800  0.019400  1.0  -0.6702
  O  O597  1  0.301700  0.846600  0.728600  1.0  -0.6207
  O  O598  1  0.765400  0.651100  0.019600  1.0  -0.6497
  O  O599  1  0.899300  0.756000  0.057300  1.0  -0.6647
  O  O600  1  0.912300  0.852800  0.085800  1.0  -0.504
  O  O601  1  0.999500  0.053000  0.760400  1.0  -0.6024
  O  O602  1  0.096700  0.069200  0.767900  1.0  -0.6159
  O  O603  1  0.046400  0.024300  0.824000  1.0  -0.5599
  O  O604  1  0.055100  0.987600  0.753800  1.0  -0.5094
  O  O605  1  0.500500  0.447000  0.260400  1.0  -0.6023
  O  O606  1  0.403300  0.430800  0.267900  1.0  -0.6197
  O  O607  1  0.453600  0.475700  0.324000  1.0  -0.5587
  O  O608  1  0.444900  0.512400  0.253800  1.0  -0.5075
  O  O609  1  0.000500  0.947000  0.239600  1.0  -0.5998
  O  O610  1  0.903300  0.930800  0.232100  1.0  -0.62
  O  O611  1  0.953600  0.975700  0.176000  1.0  -0.5617
  O  O612  1  0.944900  0.012400  0.246200  1.0  -0.5062
  O  O613  1  0.499500  0.553000  0.739600  1.0  -0.601
  O  O614  1  0.596700  0.569200  0.732100  1.0  -0.6162
  O  O615  1  0.546400  0.524300  0.676000  1.0  -0.5626
  O  O616  1  0.555100  0.487600  0.746200  1.0  -0.5096
