# generated using pymatgen
data_CoPO4
_symmetry_space_group_name_H-M   'P 1'
_cell_length_a   9.88000000
_cell_length_b   9.88000000
_cell_length_c   13.33300000
_cell_angle_alpha   90.00000000
_cell_angle_beta   90.00000000
_cell_angle_gamma   90.00000000
_symmetry_Int_Tables_number   1
_chemical_formula_structural   CoPO4
_chemical_formula_sum   'Co10 P10 O40'
_cell_volume   1301.49279520
_cell_formula_units_Z   10
loop_
 _symmetry_equiv_pos_site_id
 _symmetry_equiv_pos_as_xyz
  1  'x, y, z'
loop_
 _atom_site_type_symbol
 _atom_site_label
 _atom_site_symmetry_multiplicity
 _atom_site_fract_x
 _atom_site_fract_y
 _atom_site_fract_z
 _atom_site_occupancy
 _atom_site_charge
  Co  Co1  1  0.896040  0.140640  0.698230  1.0  1.1061
  Co  Co2  1  0.103960  0.859360  0.698230  1.0  1.105
  Co  Co3  1  0.140640  0.103960  0.301770  1.0  1.1045
  Co  Co4  1  0.859360  0.896040  0.301770  1.0  1.1062
  Co  Co5  1  0.603960  0.640640  0.801770  1.0  1.1049
  Co  Co6  1  0.396040  0.359360  0.801770  1.0  1.1054
  Co  Co7  1  0.359360  0.603960  0.198230  1.0  1.1068
  Co  Co8  1  0.640640  0.396040  0.198230  1.0  1.1049
  Co  Co9  1  0.500000  0.500000  0.500000  1.0  0.982
  Co  Co10  1  0.000000  0.000000  0.000000  1.0  0.982
  P  P11  1  0.672840  0.384610  0.679120  1.0  1.7392
  P  P12  1  0.327160  0.615390  0.679120  1.0  1.7389
  P  P13  1  0.384610  0.327160  0.320880  1.0  1.7399
  P  P14  1  0.615390  0.672840  0.320880  1.0  1.7397
  P  P15  1  0.827160  0.884610  0.820880  1.0  1.7393
  P  P16  1  0.172840  0.115390  0.820880  1.0  1.74
  P  P17  1  0.115390  0.827160  0.179120  1.0  1.7416
  P  P18  1  0.884610  0.172840  0.179120  1.0  1.7393
  P  P19  1  0.000000  0.000000  0.500000  1.0  1.7311
  P  P20  1  0.500000  0.500000  0.000000  1.0  1.7311
  O  O21  1  0.885800  0.058800  0.564800  1.0  -0.6998
  O  O22  1  0.810100  0.316500  0.678800  1.0  -0.7065
  O  O23  1  0.583000  0.323500  0.762000  1.0  -0.7101
  O  O24  1  0.695000  0.536600  0.698800  1.0  -0.7127
  O  O25  1  0.606900  0.366800  0.575300  1.0  -0.6941
  O  O26  1  0.114200  0.941200  0.564800  1.0  -0.7017
  O  O27  1  0.189900  0.683500  0.678800  1.0  -0.7068
  O  O28  1  0.417000  0.676500  0.762000  1.0  -0.7092
  O  O29  1  0.305000  0.463400  0.698800  1.0  -0.7142
  O  O30  1  0.393100  0.633200  0.575300  1.0  -0.6932
  O  O31  1  0.058800  0.114200  0.435200  1.0  -0.7016
  O  O32  1  0.316500  0.189900  0.321200  1.0  -0.7073
  O  O33  1  0.323500  0.417000  0.238000  1.0  -0.7071
  O  O34  1  0.536600  0.305000  0.301200  1.0  -0.7141
  O  O35  1  0.366800  0.393100  0.424700  1.0  -0.6931
  O  O36  1  0.941200  0.885800  0.435200  1.0  -0.7025
  O  O37  1  0.683500  0.810100  0.321200  1.0  -0.7079
  O  O38  1  0.676500  0.583000  0.238000  1.0  -0.7074
  O  O39  1  0.463400  0.695000  0.301200  1.0  -0.7135
  O  O40  1  0.633200  0.606900  0.424700  1.0  -0.6924
  O  O41  1  0.614200  0.558800  0.935200  1.0  -0.7017
  O  O42  1  0.689900  0.816500  0.821200  1.0  -0.7063
  O  O43  1  0.917000  0.823500  0.738000  1.0  -0.7107
  O  O44  1  0.805000  0.036600  0.801200  1.0  -0.7129
  O  O45  1  0.893100  0.866800  0.924700  1.0  -0.6947
  O  O46  1  0.385800  0.441200  0.935200  1.0  -0.6991
  O  O47  1  0.310100  0.183500  0.821200  1.0  -0.7069
  O  O48  1  0.083000  0.176500  0.738000  1.0  -0.7087
  O  O49  1  0.195000  0.963400  0.801200  1.0  -0.7131
  O  O50  1  0.106900  0.133200  0.924700  1.0  -0.6941
  O  O51  1  0.441200  0.614200  0.064800  1.0  -0.7027
  O  O52  1  0.183500  0.689900  0.178800  1.0  -0.7067
  O  O53  1  0.176500  0.917000  0.262000  1.0  -0.7071
  O  O54  1  0.963400  0.805000  0.198800  1.0  -0.7148
  O  O55  1  0.133200  0.893100  0.075300  1.0  -0.6914
  O  O56  1  0.558800  0.385800  0.064800  1.0  -0.7023
  O  O57  1  0.816500  0.310100  0.178800  1.0  -0.7077
  O  O58  1  0.823500  0.083000  0.262000  1.0  -0.7071
  O  O59  1  0.036600  0.195000  0.198800  1.0  -0.7131
  O  O60  1  0.866800  0.106900  0.075300  1.0  -0.6918
