# generated using pymatgen
data_CoPO4
_symmetry_space_group_name_H-M   'P 1'
_cell_length_a   13.36100000
_cell_length_b   13.78900000
_cell_length_c   14.01700000
_cell_angle_alpha   90.00000000
_cell_angle_beta   90.00000000
_cell_angle_gamma   90.00000000
_symmetry_Int_Tables_number   1
_chemical_formula_structural   CoPO4
_chemical_formula_sum   'Co20 P20 O80'
_cell_volume   2582.41959809
_cell_formula_units_Z   20
loop_
 _symmetry_equiv_pos_site_id
 _symmetry_equiv_pos_as_xyz
  1  'x, y, z'
loop_
 _atom_site_type_symbol
 _atom_site_label
 _atom_site_symmetry_multiplicity
 _atom_site_fract_x
 _atom_site_fract_y
 _atom_site_fract_z
 _atom_site_occupancy
 _atom_site_charge
  Co  Co1  1  0.373140  0.240590  0.984910  1.0  1.0812
  Co  Co2  1  0.372040  0.275070  0.737570  1.0  1.1135
  Co  Co3  1  0.564810  0.259310  0.358270  1.0  1.0726
  Co  Co4  1  0.258060  0.373720  0.342760  1.0  1.0962
  Co  Co5  1  0.276410  0.132220  0.378070  1.0  1.1107
  Co  Co6  1  0.626860  0.759410  0.984910  1.0  1.0813
  Co  Co7  1  0.627960  0.724930  0.737570  1.0  1.1162
  Co  Co8  1  0.435190  0.740690  0.358270  1.0  1.0725
  Co  Co9  1  0.741940  0.626280  0.342760  1.0  1.093
  Co  Co10  1  0.723590  0.867780  0.378070  1.0  1.1065
  Co  Co11  1  0.873140  0.259410  0.484910  1.0  1.0809
  Co  Co12  1  0.872040  0.224930  0.237570  1.0  1.1131
  Co  Co13  1  0.064810  0.240690  0.858270  1.0  1.0726
  Co  Co14  1  0.758060  0.126280  0.842760  1.0  1.0965
  Co  Co15  1  0.776410  0.367780  0.878070  1.0  1.1105
  Co  Co16  1  0.126860  0.740590  0.484910  1.0  1.0816
  Co  Co17  1  0.127960  0.775070  0.237570  1.0  1.1165
  Co  Co18  1  0.935190  0.759310  0.858270  1.0  1.0725
  Co  Co19  1  0.241940  0.873720  0.842760  1.0  1.0926
  Co  Co20  1  0.223590  0.632220  0.878070  1.0  1.1067
  P  P21  1  0.392800  0.239000  0.216300  1.0  1.7293
  P  P22  1  0.387300  0.282100  0.506500  1.0  1.7566
  P  P23  1  0.256630  0.111200  0.832500  1.0  1.8529
  P  P24  1  0.240110  0.392230  0.884200  1.0  1.7906
  P  P25  1  0.569510  0.258400  0.862000  1.0  1.792
  P  P26  1  0.607200  0.761000  0.216300  1.0  1.7298
  P  P27  1  0.612700  0.717900  0.506500  1.0  1.7569
  P  P28  1  0.743370  0.888800  0.832500  1.0  1.8529
  P  P29  1  0.759890  0.607770  0.884200  1.0  1.7894
  P  P30  1  0.430490  0.741600  0.862000  1.0  1.792
  P  P31  1  0.892800  0.261000  0.716300  1.0  1.7291
  P  P32  1  0.887300  0.217900  0.006500  1.0  1.7566
  P  P33  1  0.756630  0.388800  0.332500  1.0  1.8536
  P  P34  1  0.740110  0.107770  0.384200  1.0  1.79
  P  P35  1  0.069510  0.241600  0.362000  1.0  1.7919
  P  P36  1  0.107200  0.739000  0.716300  1.0  1.7299
  P  P37  1  0.112700  0.782100  0.006500  1.0  1.7568
  P  P38  1  0.243370  0.611200  0.332500  1.0  1.8533
  P  P39  1  0.259890  0.892230  0.384200  1.0  1.7894
  P  P40  1  0.930490  0.758400  0.362000  1.0  1.7928
  O  O41  1  0.398000  0.201400  0.113300  1.0  -0.7383
  O  O42  1  0.380800  0.152700  0.285200  1.0  -0.7132
  O  O43  1  0.490400  0.292500  0.241100  1.0  -0.6987
  O  O44  1  0.303300  0.308100  0.226000  1.0  -0.713
  O  O45  1  0.387400  0.319400  0.607800  1.0  -0.7393
  O  O46  1  0.309000  0.200800  0.497300  1.0  -0.7134
  O  O47  1  0.493000  0.246400  0.479800  1.0  -0.6953
  O  O48  1  0.359300  0.367400  0.441800  1.0  -0.7232
  O  O49  1  0.341600  0.129400  0.902400  1.0  -0.7118
  O  O50  1  0.269300  0.174300  0.743500  1.0  -0.7248
  O  O51  1  0.155500  0.131000  0.878200  1.0  -0.7032
  O  O52  1  0.261900  0.006000  0.798100  1.0  -0.7553
  O  O53  1  0.261500  0.332100  0.974900  1.0  -0.7181
  O  O54  1  0.327300  0.385800  0.814100  1.0  -0.7229
  O  O55  1  0.142900  0.357100  0.835900  1.0  -0.7048
  O  O56  1  0.225800  0.497300  0.916500  1.0  -0.7798
  O  O57  1  0.504900  0.291500  0.944300  1.0  -0.7139
  O  O58  1  0.506800  0.236400  0.773400  1.0  -0.6992
  O  O59  1  0.627600  0.166600  0.890600  1.0  -0.7147
  O  O60  1  0.641000  0.341700  0.836700  1.0  -0.708
  O  O61  1  0.602000  0.798600  0.113300  1.0  -0.7386
  O  O62  1  0.619200  0.847300  0.285200  1.0  -0.7108
  O  O63  1  0.509600  0.707500  0.241100  1.0  -0.698
  O  O64  1  0.696700  0.691900  0.226000  1.0  -0.7144
  O  O65  1  0.612600  0.680600  0.607800  1.0  -0.7387
  O  O66  1  0.691000  0.799200  0.497300  1.0  -0.7129
  O  O67  1  0.507000  0.753600  0.479800  1.0  -0.6949
  O  O68  1  0.640700  0.632600  0.441800  1.0  -0.725
  O  O69  1  0.658400  0.870600  0.902400  1.0  -0.7119
  O  O70  1  0.730700  0.825700  0.743500  1.0  -0.7256
  O  O71  1  0.844500  0.869000  0.878200  1.0  -0.7029
  O  O72  1  0.738100  0.994000  0.798100  1.0  -0.7564
  O  O73  1  0.738500  0.667900  0.974900  1.0  -0.7178
  O  O74  1  0.672700  0.614200  0.814100  1.0  -0.7243
  O  O75  1  0.857100  0.642900  0.835900  1.0  -0.705
  O  O76  1  0.774200  0.502700  0.916500  1.0  -0.7803
  O  O77  1  0.495100  0.708500  0.944300  1.0  -0.7158
  O  O78  1  0.493200  0.763600  0.773400  1.0  -0.6995
  O  O79  1  0.372400  0.833400  0.890600  1.0  -0.7135
  O  O80  1  0.359000  0.658300  0.836700  1.0  -0.7084
  O  O81  1  0.898000  0.298600  0.613300  1.0  -0.7386
  O  O82  1  0.880800  0.347300  0.785200  1.0  -0.7104
  O  O83  1  0.990400  0.207500  0.741100  1.0  -0.6976
  O  O84  1  0.803300  0.191900  0.726000  1.0  -0.7141
  O  O85  1  0.887400  0.180600  0.107800  1.0  -0.7388
  O  O86  1  0.809000  0.299200  0.997300  1.0  -0.7133
  O  O87  1  0.993000  0.253600  0.979800  1.0  -0.6942
  O  O88  1  0.859300  0.132600  0.941800  1.0  -0.725
  O  O89  1  0.841600  0.370600  0.402400  1.0  -0.7119
  O  O90  1  0.769300  0.325700  0.243500  1.0  -0.7252
  O  O91  1  0.655500  0.369000  0.378200  1.0  -0.703
  O  O92  1  0.761900  0.494000  0.298100  1.0  -0.7546
  O  O93  1  0.761500  0.167900  0.474900  1.0  -0.718
  O  O94  1  0.827300  0.114200  0.314100  1.0  -0.7239
  O  O95  1  0.642900  0.142900  0.335900  1.0  -0.705
  O  O96  1  0.725800  0.002700  0.416500  1.0  -0.7805
  O  O97  1  0.004900  0.208500  0.444300  1.0  -0.7147
  O  O98  1  0.006800  0.263600  0.273400  1.0  -0.6992
  O  O99  1  0.127600  0.333400  0.390600  1.0  -0.714
  O  O100  1  0.141000  0.158300  0.336700  1.0  -0.7085
  O  O101  1  0.102000  0.701400  0.613300  1.0  -0.7381
  O  O102  1  0.119200  0.652700  0.785200  1.0  -0.7132
  O  O103  1  0.009600  0.792500  0.741100  1.0  -0.6995
  O  O104  1  0.196700  0.808100  0.726000  1.0  -0.7132
  O  O105  1  0.112600  0.819400  0.107800  1.0  -0.7394
  O  O106  1  0.191000  0.700800  0.997300  1.0  -0.7133
  O  O107  1  0.007000  0.746400  0.979800  1.0  -0.6957
  O  O108  1  0.140700  0.867400  0.941800  1.0  -0.7234
  O  O109  1  0.158400  0.629400  0.402400  1.0  -0.7122
  O  O110  1  0.230700  0.674300  0.243500  1.0  -0.7251
  O  O111  1  0.344500  0.631000  0.378200  1.0  -0.7032
  O  O112  1  0.238100  0.506000  0.298100  1.0  -0.756
  O  O113  1  0.238500  0.832100  0.474900  1.0  -0.7181
  O  O114  1  0.172700  0.885800  0.314100  1.0  -0.724
  O  O115  1  0.357100  0.857100  0.335900  1.0  -0.7049
  O  O116  1  0.274200  0.997300  0.416500  1.0  -0.7798
  O  O117  1  0.995100  0.791500  0.444300  1.0  -0.7155
  O  O118  1  0.993200  0.736400  0.273400  1.0  -0.6996
  O  O119  1  0.872400  0.666667  0.390600  1.0  -0.715
  O  O120  1  0.859000  0.841700  0.336700  1.0  -0.7079
