# generated using pymatgen
data_InP2(HO4)2
_symmetry_space_group_name_H-M   'P 1'
_cell_length_a   9.45370000
_cell_length_b   9.16550000
_cell_length_c   9.75700000
_cell_angle_alpha   90.00000000
_cell_angle_beta   117.44800000
_cell_angle_gamma   90.00000000
_symmetry_Int_Tables_number   1
_chemical_formula_structural   InP2(HO4)2
_chemical_formula_sum   'In4 P8 H8 O32'
_cell_volume   750.25372963
_cell_formula_units_Z   4
loop_
 _symmetry_equiv_pos_site_id
 _symmetry_equiv_pos_as_xyz
  1  'x, y, z'
loop_
 _atom_site_type_symbol
 _atom_site_label
 _atom_site_symmetry_multiplicity
 _atom_site_fract_x
 _atom_site_fract_y
 _atom_site_fract_z
 _atom_site_occupancy
 _atom_site_charge
  In  In1  1  0.250000  0.883120  0.250000  1.0  1.5894
  In  In2  1  0.750000  0.116880  0.750000  1.0  1.5901
  In  In3  1  0.250000  0.390820  0.750000  1.0  1.6262
  In  In4  1  0.750000  0.609180  0.250000  1.0  1.6262
  P  P5  1  0.829370  0.898180  0.062190  1.0  1.7679
  P  P6  1  0.146030  0.655340  0.471960  1.0  1.7254
  P  P7  1  0.670630  0.898180  0.437810  1.0  1.7696
  P  P8  1  0.353970  0.655340  0.028040  1.0  1.7258
  P  P9  1  0.170630  0.101820  0.937810  1.0  1.7708
  P  P10  1  0.853970  0.344660  0.528040  1.0  1.727
  P  P11  1  0.329370  0.101820  0.562190  1.0  1.77
  P  P12  1  0.646030  0.344660  0.971960  1.0  1.7273
  H  H13  1  0.891500  0.099500  0.148600  1.0  0.4429
  H  H14  1  0.166100  0.816000  0.620900  1.0  0.4502
  H  H15  1  0.608500  0.099500  0.351400  1.0  0.4436
  H  H16  1  0.333900  0.816000  0.879100  1.0  0.4505
  H  H17  1  0.108500  0.900500  0.851400  1.0  0.4422
  H  H18  1  0.833900  0.184000  0.379100  1.0  0.4503
  H  H19  1  0.391500  0.900500  0.648600  1.0  0.4424
  H  H20  1  0.666100  0.184000  0.120900  1.0  0.4499
  O  O21  1  0.998600  0.850200  0.113500  1.0  -0.8262
  O  O22  1  0.248900  0.730100  0.410900  1.0  -0.8001
  O  O23  1  0.743500  0.939400  0.891000  1.0  -0.7912
  O  O24  1  0.254200  0.550100  0.595800  1.0  -0.7813
  O  O25  1  0.998700  0.583600  0.346900  1.0  -0.7738
  O  O26  1  0.727400  0.780500  0.087200  1.0  -0.7971
  O  O27  1  0.839700  0.035300  0.163300  1.0  -0.5651
  O  O28  1  0.088300  0.775500  0.552400  1.0  -0.6601
  O  O29  1  0.501400  0.850200  0.386500  1.0  -0.8264
  O  O30  1  0.251100  0.730100  0.089100  1.0  -0.8011
  O  O31  1  0.756500  0.939400  0.609000  1.0  -0.7923
  O  O32  1  0.245800  0.550100  0.904200  1.0  -0.782
  O  O33  1  0.501300  0.583600  0.153100  1.0  -0.775
  O  O34  1  0.772600  0.780500  0.412800  1.0  -0.7978
  O  O35  1  0.660300  0.035300  0.336700  1.0  -0.5632
  O  O36  1  0.411700  0.775500  0.947600  1.0  -0.6567
  O  O37  1  0.001400  0.149800  0.886500  1.0  -0.8285
  O  O38  1  0.751100  0.269900  0.589100  1.0  -0.8015
  O  O39  1  0.256500  0.060600  0.109000  1.0  -0.7939
  O  O40  1  0.745800  0.449900  0.404200  1.0  -0.7834
  O  O41  1  0.001300  0.416400  0.653100  1.0  -0.7753
  O  O42  1  0.272600  0.219500  0.912800  1.0  -0.797
  O  O43  1  0.160300  0.964700  0.836700  1.0  -0.5638
  O  O44  1  0.911700  0.224500  0.447600  1.0  -0.6568
  O  O45  1  0.498600  0.149800  0.613500  1.0  -0.8259
  O  O46  1  0.748900  0.269900  0.910900  1.0  -0.8013
  O  O47  1  0.243500  0.060600  0.391000  1.0  -0.793
  O  O48  1  0.754200  0.449900  0.095800  1.0  -0.7821
  O  O49  1  0.498700  0.416400  0.846900  1.0  -0.7746
  O  O50  1  0.227400  0.219500  0.587200  1.0  -0.7967
  O  O51  1  0.339700  0.964700  0.663300  1.0  -0.5656
  O  O52  1  0.588300  0.224500  0.052400  1.0  -0.6593
