# generated using pymatgen
data_InP2(HO4)2
_symmetry_space_group_name_H-M   'P 1'
_cell_length_a   9.44400000
_cell_length_b   9.15600000
_cell_length_c   9.75600000
_cell_angle_alpha   90.00000000
_cell_angle_beta   117.45900000
_cell_angle_gamma   90.00000000
_symmetry_Int_Tables_number   1
_chemical_formula_structural   InP2(HO4)2
_chemical_formula_sum   'In4 P8 H8 O32'
_cell_volume   748.55568971
_cell_formula_units_Z   4
loop_
 _symmetry_equiv_pos_site_id
 _symmetry_equiv_pos_as_xyz
  1  'x, y, z'
loop_
 _atom_site_type_symbol
 _atom_site_label
 _atom_site_symmetry_multiplicity
 _atom_site_fract_x
 _atom_site_fract_y
 _atom_site_fract_z
 _atom_site_occupancy
 _atom_site_charge
  In  In1  1  0.250000  0.390600  0.250000  1.0  1.6431
  In  In2  1  0.750000  0.609400  0.750000  1.0  1.6435
  In  In3  1  0.750000  0.117200  0.250000  1.0  1.6998
  In  In4  1  0.250000  0.882800  0.750000  1.0  1.7003
  P  P5  1  0.853500  0.344700  0.027300  1.0  1.7511
  P  P6  1  0.329600  0.101300  0.062400  1.0  1.7852
  P  P7  1  0.646500  0.344700  0.472700  1.0  1.7505
  P  P8  1  0.170400  0.101300  0.437600  1.0  1.7849
  P  P9  1  0.146500  0.655300  0.972700  1.0  1.7543
  P  P10  1  0.670400  0.898700  0.937600  1.0  1.7846
  P  P11  1  0.353500  0.655300  0.527300  1.0  1.7541
  P  P12  1  0.829600  0.898700  0.562400  1.0  1.7841
  H  H13  1  0.937800  0.165100  0.004500  1.0  0.2839
  H  H14  1  0.266700  0.882000  0.095100  1.0  0.2902
  H  H15  1  0.562200  0.165100  0.495500  1.0  0.2817
  H  H16  1  0.233300  0.882000  0.404900  1.0  0.2914
  H  H17  1  0.062200  0.834900  0.995500  1.0  0.282
  H  H18  1  0.733300  0.118000  0.904900  1.0  0.2912
  H  H19  1  0.437800  0.834900  0.504500  1.0  0.2825
  H  H20  1  0.766700  0.118000  0.595100  1.0  0.2908
  O  O21  1  0.000800  0.416100  0.152000  1.0  -0.7584
  O  O22  1  0.747200  0.449300  0.904300  1.0  -0.7625
  O  O23  1  0.750700  0.268700  0.088700  1.0  -0.7281
  O  O24  1  0.240700  0.060400  0.889800  1.0  -0.7523
  O  O25  1  0.342400  0.964000  0.164900  1.0  -0.4765
  O  O26  1  0.227900  0.220100  0.087100  1.0  -0.7759
  O  O27  1  0.497200  0.150000  0.112700  1.0  -0.7811
  O  O28  1  0.911000  0.224100  0.946200  1.0  -0.7473
  O  O29  1  0.499200  0.416100  0.348000  1.0  -0.7592
  O  O30  1  0.752800  0.449300  0.595700  1.0  -0.763
  O  O31  1  0.749300  0.268700  0.411300  1.0  -0.7299
  O  O32  1  0.259300  0.060400  0.610200  1.0  -0.7524
  O  O33  1  0.157600  0.964000  0.335100  1.0  -0.4765
  O  O34  1  0.272100  0.220100  0.412900  1.0  -0.7772
  O  O35  1  0.002800  0.150000  0.387300  1.0  -0.782
  O  O36  1  0.589000  0.224100  0.553800  1.0  -0.7456
  O  O37  1  0.999200  0.583900  0.848000  1.0  -0.759
  O  O38  1  0.252800  0.550700  0.095700  1.0  -0.7634
  O  O39  1  0.249300  0.731300  0.911300  1.0  -0.7306
  O  O40  1  0.759300  0.939600  0.110200  1.0  -0.7512
  O  O41  1  0.657600  0.036000  0.835100  1.0  -0.4759
  O  O42  1  0.772100  0.779900  0.912900  1.0  -0.7756
  O  O43  1  0.502800  0.850000  0.887300  1.0  -0.7795
  O  O44  1  0.089000  0.775900  0.053800  1.0  -0.745
  O  O45  1  0.500800  0.583900  0.652000  1.0  -0.7585
  O  O46  1  0.247200  0.550700  0.404300  1.0  -0.7627
  O  O47  1  0.250700  0.731300  0.588700  1.0  -0.7291
  O  O48  1  0.740700  0.939600  0.389800  1.0  -0.7514
  O  O49  1  0.842400  0.036000  0.664900  1.0  -0.4766
  O  O50  1  0.727900  0.779900  0.587100  1.0  -0.7751
  O  O51  1  0.997200  0.850000  0.612700  1.0  -0.7794
  O  O52  1  0.411000  0.775900  0.446200  1.0  -0.7486
