# generated using pymatgen
data_ZnH16C25NO6
_symmetry_space_group_name_H-M   'P 1'
_cell_length_a   13.28900000
_cell_length_b   13.71100000
_cell_length_c   16.46700000
_cell_angle_alpha   90.00000000
_cell_angle_beta   90.00000000
_cell_angle_gamma   117.02000000
_symmetry_Int_Tables_number   1
_chemical_formula_structural   ZnH16C25NO6
_chemical_formula_sum   'Zn4 H64 C100 N4 O24'
_cell_volume   2672.88039641
_cell_formula_units_Z   4
loop_
 _symmetry_equiv_pos_site_id
 _symmetry_equiv_pos_as_xyz
  1  'x, y, z'
loop_
 _atom_site_type_symbol
 _atom_site_label
 _atom_site_symmetry_multiplicity
 _atom_site_fract_x
 _atom_site_fract_y
 _atom_site_fract_z
 _atom_site_occupancy
 _atom_site_charge
  Zn  Zn1  1  0.092520  0.114220  0.502960  1.0  0.923
  Zn  Zn2  1  0.907480  0.385780  0.002960  1.0  0.9234
  Zn  Zn3  1  0.907480  0.885780  0.497040  1.0  0.9234
  Zn  Zn4  1  0.092520  0.614220  0.997040  1.0  0.9231
  H  H5  1  0.335500  0.185900  0.520300  1.0  0.0929
  H  H6  1  0.506700  0.340200  0.519300  1.0  0.1213
  H  H7  1  0.341800  0.518900  0.478800  1.0  0.1269
  H  H8  1  0.175400  0.359000  0.479100  1.0  0.094
  H  H9  1  0.925000  0.265500  0.346900  1.0  0.1119
  H  H10  1  0.837500  0.307400  0.239400  1.0  0.1049
  H  H11  1  0.705700  0.169100  0.159900  1.0  0.1067
  H  H12  1  0.745300  0.944500  0.295600  1.0  0.1123
  H  H13  1  0.509400  0.880000  0.290300  1.0  0.1238
  H  H14  1  0.424900  0.697700  0.331900  1.0  0.1304
  H  H15  1  0.566300  0.621100  0.142300  1.0  0.1324
  H  H16  1  0.651500  0.803500  0.100900  1.0  0.1324
  H  H17  1  0.333200  0.346100  0.321100  1.0  0.1159
  H  H18  1  0.148500  0.220200  0.292900  1.0  0.1016
  H  H19  1  0.041800  0.263800  0.201700  1.0  0.0996
  H  H20  1  0.302300  0.564800  0.172000  1.0  0.115
  H  H21  1  0.664500  0.314100  0.020300  1.0  0.0927
  H  H22  1  0.493300  0.159800  0.019300  1.0  0.1215
  H  H23  1  0.658200  0.981100  0.978800  1.0  0.1268
  H  H24  1  0.824600  0.141000  0.979100  1.0  0.0931
  H  H25  1  0.075000  0.234500  0.846900  1.0  0.1121
  H  H26  1  0.162500  0.192600  0.739400  1.0  0.1053
  H  H27  1  0.294300  0.330900  0.659900  1.0  0.1058
  H  H28  1  0.254700  0.555500  0.795600  1.0  0.1121
  H  H29  1  0.490600  0.620000  0.790300  1.0  0.124
  H  H30  1  0.575100  0.802300  0.831900  1.0  0.1303
  H  H31  1  0.433700  0.878900  0.642300  1.0  0.1324
  H  H32  1  0.348500  0.696500  0.600900  1.0  0.1316
  H  H33  1  0.666800  0.153900  0.821100  1.0  0.1155
  H  H34  1  0.851500  0.279800  0.792900  1.0  0.1022
  H  H35  1  0.958200  0.236200  0.701700  1.0  0.0992
  H  H36  1  0.697700  0.935200  0.672000  1.0  0.1151
  H  H37  1  0.664500  0.814100  0.479700  1.0  0.0926
  H  H38  1  0.493300  0.659800  0.480700  1.0  0.1222
  H  H39  1  0.658200  0.481100  0.521200  1.0  0.1269
  H  H40  1  0.824600  0.641000  0.520900  1.0  0.0928
  H  H41  1  0.075000  0.734500  0.653100  1.0  0.112
  H  H42  1  0.162500  0.692600  0.760600  1.0  0.1035
  H  H43  1  0.294300  0.830900  0.840100  1.0  0.1064
  H  H44  1  0.254700  0.055500  0.704400  1.0  0.1121
  H  H45  1  0.490600  0.120000  0.709700  1.0  0.124
  H  H46  1  0.575100  0.302300  0.668100  1.0  0.1308
  H  H47  1  0.433700  0.378900  0.857700  1.0  0.1326
  H  H48  1  0.348500  0.196500  0.899100  1.0  0.1323
  H  H49  1  0.666800  0.653900  0.678900  1.0  0.1154
  H  H50  1  0.851500  0.779800  0.707100  1.0  0.1021
  H  H51  1  0.958200  0.736200  0.798300  1.0  0.0992
  H  H52  1  0.697700  0.435200  0.828000  1.0  0.1153
  H  H53  1  0.335500  0.685900  0.979700  1.0  0.093
  H  H54  1  0.506700  0.840200  0.980700  1.0  0.1219
  H  H55  1  0.341800  0.018900  0.021200  1.0  0.1266
  H  H56  1  0.175400  0.859000  0.020900  1.0  0.0937
  H  H57  1  0.925000  0.765500  0.153100  1.0  0.1122
  H  H58  1  0.837500  0.807400  0.260600  1.0  0.1036
  H  H59  1  0.705700  0.669100  0.340100  1.0  0.1062
  H  H60  1  0.745300  0.444500  0.204400  1.0  0.1121
  H  H61  1  0.509400  0.380000  0.209700  1.0  0.1234
  H  H62  1  0.424900  0.197700  0.168100  1.0  0.13
  H  H63  1  0.566300  0.121100  0.357700  1.0  0.1326
  H  H64  1  0.651500  0.303500  0.399100  1.0  0.1314
  H  H65  1  0.333200  0.846100  0.178900  1.0  0.1155
  H  H66  1  0.148500  0.720200  0.207100  1.0  0.1015
  H  H67  1  0.041800  0.763800  0.298300  1.0  0.0995
  H  H68  1  0.302300  0.064800  0.328000  1.0  0.115
  C  C69  1  0.337110  0.253680  0.511840  1.0  0.1683
  C  C70  1  0.440610  0.346520  0.511530  1.0  -0.1813
  C  C71  1  0.445640  0.449120  0.499610  1.0  0.0943
  C  C72  1  0.342930  0.452340  0.487280  1.0  -0.1783
  C  C73  1  0.242830  0.355460  0.487890  1.0  0.1769
  C  C74  1  0.902740  0.071150  0.397740  1.0  0.6813
  C  C75  1  0.844120  0.100930  0.331530  1.0  -0.081
  C  C76  1  0.871950  0.209850  0.315120  1.0  -0.1005
  C  C77  1  0.819420  0.234750  0.250480  1.0  -0.0625
  C  C78  1  0.740620  0.152140  0.202700  1.0  -0.2018
  C  C79  1  0.714200  0.043500  0.219360  1.0  0.2525
  C  C80  1  0.764520  0.017210  0.284060  1.0  -0.204
  C  C81  1  0.589270  0.858220  0.192750  1.0  0.2493
  C  C82  1  0.521170  0.827990  0.261200  1.0  -0.1649
  C  C83  1  0.470700  0.719380  0.285980  1.0  -0.1837
  C  C84  1  0.489810  0.643750  0.241050  1.0  0.2348
  C  C85  1  0.555870  0.673480  0.172000  1.0  -0.177
  C  C86  1  0.606610  0.782170  0.147230  1.0  -0.1713
  C  C87  1  0.335190  0.467370  0.249230  1.0  0.2549
  C  C88  1  0.289780  0.364070  0.285550  1.0  -0.2361
  C  C89  1  0.179660  0.288640  0.268170  1.0  -0.0548
  C  C90  1  0.115380  0.315020  0.213710  1.0  -0.0747
  C  C91  1  0.161280  0.418140  0.177270  1.0  -0.0772
  C  C92  1  0.271700  0.495580  0.195420  1.0  -0.1954
  C  C93  1  0.094000  0.445910  0.116650  1.0  0.6768
  C  C94  1  0.662890  0.246320  0.011840  1.0  0.1691
  C  C95  1  0.559390  0.153480  0.011530  1.0  -0.1799
  C  C96  1  0.554360  0.050880  0.999610  1.0  0.0943
  C  C97  1  0.657070  0.047660  0.987280  1.0  -0.1789
  C  C98  1  0.757170  0.144540  0.987890  1.0  0.1796
  C  C99  1  0.097260  0.428850  0.897740  1.0  0.6822
  C  C100  1  0.155880  0.399070  0.831530  1.0  -0.0807
  C  C101  1  0.128050  0.290150  0.815120  1.0  -0.0999
  C  C102  1  0.180580  0.265250  0.750480  1.0  -0.0586
  C  C103  1  0.259380  0.347860  0.702700  1.0  -0.2015
  C  C104  1  0.285800  0.456500  0.719360  1.0  0.2523
  C  C105  1  0.235480  0.482790  0.784060  1.0  -0.2024
  C  C106  1  0.410730  0.641780  0.692750  1.0  0.2481
  C  C107  1  0.478830  0.672010  0.761200  1.0  -0.1647
  C  C108  1  0.529300  0.780620  0.785980  1.0  -0.1848
  C  C109  1  0.510190  0.856250  0.741050  1.0  0.2354
  C  C110  1  0.444130  0.826520  0.672000  1.0  -0.1738
  C  C111  1  0.393390  0.717830  0.647230  1.0  -0.17
  C  C112  1  0.664810  0.032630  0.749230  1.0  0.2551
  C  C113  1  0.710220  0.135930  0.785550  1.0  -0.2352
  C  C114  1  0.820340  0.211360  0.768170  1.0  -0.055
  C  C115  1  0.884620  0.184980  0.713710  1.0  -0.0733
  C  C116  1  0.838720  0.081860  0.677270  1.0  -0.0775
  C  C117  1  0.728300  0.004420  0.695420  1.0  -0.193
  C  C118  1  0.906000  0.054090  0.616650  1.0  0.6758
  C  C119  1  0.662890  0.746320  0.488160  1.0  0.1695
  C  C120  1  0.559390  0.653480  0.488470  1.0  -0.1797
  C  C121  1  0.554360  0.550880  0.500390  1.0  0.0942
  C  C122  1  0.657070  0.547660  0.512720  1.0  -0.1739
  C  C123  1  0.757170  0.644540  0.512110  1.0  0.1795
  C  C124  1  0.097260  0.928850  0.602260  1.0  0.6822
  C  C125  1  0.155880  0.899070  0.668470  1.0  -0.0806
  C  C126  1  0.128050  0.790150  0.684880  1.0  -0.1002
  C  C127  1  0.180580  0.765250  0.749520  1.0  -0.0565
  C  C128  1  0.259380  0.847860  0.797300  1.0  -0.2015
  C  C129  1  0.285800  0.956500  0.780640  1.0  0.2523
  C  C130  1  0.235480  0.982790  0.715940  1.0  -0.2037
  C  C131  1  0.410730  0.141780  0.807250  1.0  0.2474
  C  C132  1  0.478830  0.172010  0.738800  1.0  -0.1661
  C  C133  1  0.529300  0.280620  0.714020  1.0  -0.1849
  C  C134  1  0.510190  0.356250  0.758950  1.0  0.2354
  C  C135  1  0.444130  0.326520  0.828000  1.0  -0.1744
  C  C136  1  0.393390  0.217830  0.852770  1.0  -0.1708
  C  C137  1  0.664810  0.532630  0.750770  1.0  0.2552
  C  C138  1  0.710220  0.635930  0.714450  1.0  -0.2349
  C  C139  1  0.820340  0.711360  0.731830  1.0  -0.0559
  C  C140  1  0.884620  0.684980  0.786290  1.0  -0.0737
  C  C141  1  0.838720  0.581860  0.822730  1.0  -0.0779
  C  C142  1  0.728300  0.504420  0.804580  1.0  -0.1931
  C  C143  1  0.906000  0.554090  0.883350  1.0  0.6756
  C  C144  1  0.337110  0.753680  0.988160  1.0  0.1683
  C  C145  1  0.440610  0.846520  0.988470  1.0  -0.1812
  C  C146  1  0.445640  0.949120  0.000390  1.0  0.0942
  C  C147  1  0.342930  0.952340  0.012720  1.0  -0.1731
  C  C148  1  0.242830  0.855460  0.012110  1.0  0.1767
  C  C149  1  0.902740  0.571150  0.102260  1.0  0.6815
  C  C150  1  0.844120  0.600930  0.168470  1.0  -0.0808
  C  C151  1  0.871950  0.709850  0.184880  1.0  -0.1012
  C  C152  1  0.819420  0.734750  0.249520  1.0  -0.0605
  C  C153  1  0.740620  0.652140  0.297300  1.0  -0.2013
  C  C154  1  0.714200  0.543500  0.280640  1.0  0.2523
  C  C155  1  0.764520  0.517210  0.215940  1.0  -0.2042
  C  C156  1  0.589270  0.358220  0.307250  1.0  0.2482
  C  C157  1  0.521170  0.327990  0.238800  1.0  -0.1656
  C  C158  1  0.470700  0.219380  0.214020  1.0  -0.1831
  C  C159  1  0.489810  0.143750  0.258950  1.0  0.2351
  C  C160  1  0.555870  0.173480  0.328000  1.0  -0.1734
  C  C161  1  0.606610  0.282170  0.352770  1.0  -0.1711
  C  C162  1  0.335190  0.967370  0.250770  1.0  0.2551
  C  C163  1  0.289780  0.864070  0.214450  1.0  -0.236
  C  C164  1  0.179660  0.788640  0.231830  1.0  -0.0557
  C  C165  1  0.115380  0.815020  0.286290  1.0  -0.0748
  C  C166  1  0.161280  0.918140  0.322730  1.0  -0.0781
  C  C167  1  0.271700  0.995580  0.304580  1.0  -0.1963
  C  C168  1  0.094000  0.945910  0.383350  1.0  0.6767
  N  N169  1  0.238790  0.257810  0.500430  1.0  -0.3067
  N  N170  1  0.761210  0.242190  0.000430  1.0  -0.3051
  N  N171  1  0.761210  0.742190  0.499570  1.0  -0.3051
  N  N172  1  0.238790  0.757810  0.999570  1.0  -0.3068
  O  O173  1  0.992170  0.146790  0.426110  1.0  -0.5899
  O  O174  1  0.859170  0.972300  0.418820  1.0  -0.6036
  O  O175  1  0.639240  0.966130  0.166760  1.0  -0.2587
  O  O176  1  0.445540  0.535760  0.268470  1.0  -0.2526
  O  O177  1  0.135860  0.542990  0.091290  1.0  -0.6095
  O  O178  1  0.000720  0.369270  0.094900  1.0  -0.5786
  O  O179  1  0.007830  0.353210  0.926110  1.0  -0.5893
  O  O180  1  0.140830  0.527700  0.918820  1.0  -0.6033
  O  O181  1  0.360760  0.533870  0.666760  1.0  -0.2602
  O  O182  1  0.554460  0.964240  0.768470  1.0  -0.251
  O  O183  1  0.864140  0.957010  0.591290  1.0  -0.6098
  O  O184  1  0.999280  0.130730  0.594900  1.0  -0.5786
  O  O185  1  0.007830  0.853210  0.573890  1.0  -0.5898
  O  O186  1  0.140830  0.027700  0.581180  1.0  -0.6032
  O  O187  1  0.360760  0.033870  0.833240  1.0  -0.2594
  O  O188  1  0.554460  0.464240  0.731530  1.0  -0.2516
  O  O189  1  0.864140  0.457010  0.908710  1.0  -0.6094
  O  O190  1  0.999280  0.630730  0.905100  1.0  -0.5787
  O  O191  1  0.992170  0.646790  0.073890  1.0  -0.5897
  O  O192  1  0.859170  0.472300  0.081180  1.0  -0.6037
  O  O193  1  0.639240  0.466130  0.333240  1.0  -0.2584
  O  O194  1  0.445540  0.035760  0.231530  1.0  -0.254
  O  O195  1  0.135860  0.042990  0.408710  1.0  -0.6094
  O  O196  1  0.000720  0.869270  0.405100  1.0  -0.5787
