# generated using pymatgen
data_Zn(CO2)3
_symmetry_space_group_name_H-M   'P 1'
_cell_length_a   9.41780000
_cell_length_b   15.45720000
_cell_length_c   18.24510000
_cell_angle_alpha   95.39900000
_cell_angle_beta   91.35200000
_cell_angle_gamma   90.31200000
_symmetry_Int_Tables_number   1
_chemical_formula_structural   Zn(CO2)3
_chemical_formula_sum   'Zn8 C24 O48'
_cell_volume   2643.39307552
_cell_formula_units_Z   8
loop_
 _symmetry_equiv_pos_site_id
 _symmetry_equiv_pos_as_xyz
  1  'x, y, z'
loop_
 _atom_site_type_symbol
 _atom_site_label
 _atom_site_symmetry_multiplicity
 _atom_site_fract_x
 _atom_site_fract_y
 _atom_site_fract_z
 _atom_site_occupancy
 _atom_site_charge
  Zn  Zn1  1  0.253410  0.088700  0.029750  1.0  1.0379
  Zn  Zn2  1  0.121120  0.417880  0.112140  1.0  1.0476
  Zn  Zn3  1  0.110700  0.583180  0.387370  1.0  1.0461
  Zn  Zn4  1  0.250040  0.914450  0.469210  1.0  1.0397
  Zn  Zn5  1  0.746590  0.911300  0.970250  1.0  1.0384
  Zn  Zn6  1  0.878880  0.582120  0.887860  1.0  1.0484
  Zn  Zn7  1  0.889300  0.416820  0.612630  1.0  1.0452
  Zn  Zn8  1  0.749960  0.085550  0.530790  1.0  1.0391
  C  C9  1  0.255800  0.269400  0.048100  1.0  0.589
  C  C10  1  0.165000  0.239000  0.110700  1.0  0.6085
  C  C11  1  0.033900  0.501200  0.247700  1.0  0.6254
  C  C12  1  0.199000  0.502700  0.252200  1.0  0.6115
  C  C13  1  0.156500  0.763400  0.390500  1.0  0.5767
  C  C14  1  0.245100  0.733000  0.455000  1.0  0.6182
  C  C15  1  0.477400  0.991200  0.959600  1.0  0.5877
  C  C16  1  0.971900  0.035000  0.976200  1.0  0.5937
  C  C17  1  0.948500  0.461300  0.990700  1.0  0.6129
  C  C18  1  0.947200  0.537100  0.507600  1.0  0.5901
  C  C19  1  0.027200  0.036300  0.477900  1.0  0.5908
  C  C20  1  0.517400  0.992500  0.459300  1.0  0.6049
  C  C21  1  0.744200  0.730600  0.951900  1.0  0.5877
  C  C22  1  0.835000  0.761000  0.889300  1.0  0.608
  C  C23  1  0.966100  0.498800  0.752300  1.0  0.6245
  C  C24  1  0.801000  0.497300  0.747800  1.0  0.6115
  C  C25  1  0.843500  0.236600  0.609500  1.0  0.5775
  C  C26  1  0.754900  0.267000  0.545000  1.0  0.6178
  C  C27  1  0.522600  0.008800  0.040400  1.0  0.5881
  C  C28  1  0.028100  0.965000  0.023800  1.0  0.5939
  C  C29  1  0.051500  0.538700  0.009300  1.0  0.6121
  C  C30  1  0.052800  0.462900  0.492400  1.0  0.5916
  C  C31  1  0.972800  0.963700  0.522100  1.0  0.5908
  C  C32  1  0.482600  0.007500  0.540700  1.0  0.6038
  O  O33  1  0.312400  0.211700  0.005900  1.0  -0.4856
  O  O34  1  0.166600  0.160400  0.119200  1.0  -0.4661
  O  O35  1  0.266900  0.349700  0.044900  1.0  -0.4731
  O  O36  1  0.097300  0.296000  0.148000  1.0  -0.4782
  O  O37  1  0.978200  0.470900  0.189500  1.0  -0.445
  O  O38  1  0.261000  0.469600  0.196500  1.0  -0.4808
  O  O39  1  0.972200  0.530600  0.304600  1.0  -0.4811
  O  O40  1  0.256700  0.536800  0.309000  1.0  -0.4521
  O  O41  1  0.086900  0.704700  0.351900  1.0  -0.4986
  O  O42  1  0.253200  0.654300  0.460600  1.0  -0.4468
  O  O43  1  0.158800  0.841300  0.380400  1.0  -0.4611
  O  O44  1  0.303800  0.791000  0.496900  1.0  -0.4767
  O  O45  1  0.362200  0.023800  0.940180  1.0  -0.4626
  O  O46  1  0.054200  0.097500  0.968100  1.0  -0.473
  O  O47  1  0.556100  0.945800  0.917860  1.0  -0.4585
  O  O48  1  0.850000  0.026100  0.949200  1.0  -0.4888
  O  O49  1  0.960200  0.398400  0.028300  1.0  -0.4674
  O  O50  1  0.861500  0.467700  0.939100  1.0  -0.4997
  O  O51  1  0.953300  0.598900  0.468400  1.0  -0.485
  O  O52  1  0.865100  0.531500  0.559800  1.0  -0.4895
  O  O53  1  0.434000  0.948500  0.417500  1.0  -0.4698
  O  O54  1  0.146900  0.028600  0.451200  1.0  -0.4835
  O  O55  1  0.945200  0.099400  0.471900  1.0  -0.4865
  O  O56  1  0.631200  0.026600  0.440160  1.0  -0.472
  O  O57  1  0.687600  0.788300  0.994100  1.0  -0.4844
  O  O58  1  0.833400  0.839600  0.880800  1.0  -0.4652
  O  O59  1  0.733100  0.650300  0.955100  1.0  -0.4733
  O  O60  1  0.902700  0.704000  0.852000  1.0  -0.4816
  O  O61  1  0.021800  0.529100  0.810500  1.0  -0.4408
  O  O62  1  0.739000  0.530400  0.803500  1.0  -0.4785
  O  O63  1  0.027800  0.469400  0.695400  1.0  -0.4839
  O  O64  1  0.743300  0.463200  0.691000  1.0  -0.4552
  O  O65  1  0.913100  0.295300  0.648100  1.0  -0.4979
  O  O66  1  0.746800  0.345700  0.539400  1.0  -0.4479
  O  O67  1  0.841200  0.158700  0.619600  1.0  -0.4627
  O  O68  1  0.696200  0.209000  0.503100  1.0  -0.4772
  O  O69  1  0.637800  0.976200  0.059820  1.0  -0.4638
  O  O70  1  0.945800  0.902500  0.031900  1.0  -0.4722
  O  O71  1  0.443900  0.054200  0.082140  1.0  -0.4588
  O  O72  1  0.150000  0.973900  0.050800  1.0  -0.4861
  O  O73  1  0.039800  0.601600  0.971700  1.0  -0.4647
  O  O74  1  0.138500  0.532300  0.060900  1.0  -0.4977
  O  O75  1  0.046700  0.401100  0.531600  1.0  -0.4831
  O  O76  1  0.134900  0.468500  0.440200  1.0  -0.4887
  O  O77  1  0.566000  0.051500  0.582500  1.0  -0.4706
  O  O78  1  0.853100  0.971400  0.548800  1.0  -0.4845
  O  O79  1  0.054800  0.900600  0.528100  1.0  -0.4868
  O  O80  1  0.368800  0.973400  0.559840  1.0  -0.4719
