# generated using pymatgen
data_MnPH2(CO4)2
_symmetry_space_group_name_H-M   'P 1'
_cell_length_a   9.69000000
_cell_length_b   14.43310000
_cell_length_c   29.84420000
_cell_angle_alpha   90.00000000
_cell_angle_beta   90.00000000
_cell_angle_gamma   90.00000000
_symmetry_Int_Tables_number   1
_chemical_formula_structural   MnPH2(CO4)2
_chemical_formula_sum   'Mn16 P16 H32 C32 O128'
_cell_volume   4173.91249006
_cell_formula_units_Z   16
loop_
 _symmetry_equiv_pos_site_id
 _symmetry_equiv_pos_as_xyz
  1  'x, y, z'
loop_
 _atom_site_type_symbol
 _atom_site_label
 _atom_site_symmetry_multiplicity
 _atom_site_fract_x
 _atom_site_fract_y
 _atom_site_fract_z
 _atom_site_occupancy
 _atom_site_charge
  Mn  Mn1  1  0.130530  0.235510  0.700510  1.0  1.1166
  Mn  Mn2  1  0.249750  0.457280  0.546060  1.0  1.1502
  Mn  Mn3  1  0.369470  0.764490  0.200510  1.0  1.1165
  Mn  Mn4  1  0.250250  0.542720  0.046060  1.0  1.1513
  Mn  Mn5  1  0.869470  0.735510  0.799490  1.0  1.1166
  Mn  Mn6  1  0.750250  0.957280  0.953940  1.0  1.1511
  Mn  Mn7  1  0.630530  0.264490  0.299490  1.0  1.1168
  Mn  Mn8  1  0.749750  0.042720  0.453940  1.0  1.1501
  Mn  Mn9  1  0.869470  0.764490  0.299490  1.0  1.1167
  Mn  Mn10  1  0.750250  0.542720  0.453940  1.0  1.1512
  Mn  Mn11  1  0.630530  0.235510  0.799490  1.0  1.1167
  Mn  Mn12  1  0.749750  0.457280  0.953940  1.0  1.1501
  Mn  Mn13  1  0.130530  0.264490  0.200510  1.0  1.1166
  Mn  Mn14  1  0.249750  0.042720  0.046060  1.0  1.1503
  Mn  Mn15  1  0.369470  0.735510  0.700510  1.0  1.1165
  Mn  Mn16  1  0.250250  0.957280  0.546060  1.0  1.151
  P  P17  1  0.063140  0.296120  0.595800  1.0  1.7371
  P  P18  1  0.286380  0.530500  0.652780  1.0  1.79
  P  P19  1  0.436860  0.703880  0.095800  1.0  1.736
  P  P20  1  0.213620  0.469500  0.152780  1.0  1.7903
  P  P21  1  0.936860  0.796120  0.904200  1.0  1.7367
  P  P22  1  0.713620  0.030500  0.847220  1.0  1.7899
  P  P23  1  0.563140  0.203880  0.404200  1.0  1.7372
  P  P24  1  0.786380  0.969500  0.347220  1.0  1.7904
  P  P25  1  0.936860  0.703880  0.404200  1.0  1.7364
  P  P26  1  0.713620  0.469500  0.347220  1.0  1.7902
  P  P27  1  0.563140  0.296120  0.904200  1.0  1.7375
  P  P28  1  0.786380  0.530500  0.847220  1.0  1.79
  P  P29  1  0.063140  0.203880  0.095800  1.0  1.7368
  P  P30  1  0.286380  0.969500  0.152780  1.0  1.7905
  P  P31  1  0.436860  0.796120  0.595800  1.0  1.7363
  P  P32  1  0.213620  0.030500  0.652780  1.0  1.7899
  H  H33  1  0.371300  0.437500  0.693200  1.0  0.4056
  H  H34  1  0.136300  0.437900  0.657000  1.0  0.4329
  H  H35  1  0.950400  0.396800  0.569100  1.0  0.4275
  H  H36  1  0.074100  0.159700  0.606800  1.0  0.4196
  H  H37  1  0.128700  0.562500  0.193200  1.0  0.4041
  H  H38  1  0.363700  0.562100  0.157000  1.0  0.4331
  H  H39  1  0.549600  0.603200  0.069100  1.0  0.4281
  H  H40  1  0.425900  0.840300  0.106800  1.0  0.4198
  H  H41  1  0.628700  0.937500  0.806800  1.0  0.4074
  H  H42  1  0.863700  0.937900  0.843000  1.0  0.4343
  H  H43  1  0.049600  0.896800  0.930900  1.0  0.429
  H  H44  1  0.925900  0.659700  0.893200  1.0  0.4192
  H  H45  1  0.871300  0.062500  0.306800  1.0  0.4064
  H  H46  1  0.636300  0.062100  0.343000  1.0  0.4328
  H  H47  1  0.450400  0.103200  0.430900  1.0  0.4271
  H  H48  1  0.574100  0.340300  0.393200  1.0  0.4192
  H  H49  1  0.628700  0.562500  0.306800  1.0  0.4052
  H  H50  1  0.863700  0.562100  0.343000  1.0  0.4332
  H  H51  1  0.049600  0.603200  0.430900  1.0  0.4278
  H  H52  1  0.925900  0.840300  0.393200  1.0  0.4194
  H  H53  1  0.871300  0.437500  0.806800  1.0  0.4067
  H  H54  1  0.636300  0.437900  0.843000  1.0  0.4337
  H  H55  1  0.450400  0.396800  0.930900  1.0  0.4269
  H  H56  1  0.574100  0.159700  0.893200  1.0  0.4192
  H  H57  1  0.371300  0.062500  0.193200  1.0  0.405
  H  H58  1  0.136300  0.062100  0.157000  1.0  0.433
  H  H59  1  0.950400  0.103200  0.069100  1.0  0.4272
  H  H60  1  0.074100  0.340300  0.106800  1.0  0.4195
  H  H61  1  0.128700  0.937500  0.693200  1.0  0.4059
  H  H62  1  0.363700  0.937900  0.657000  1.0  0.4336
  H  H63  1  0.549600  0.896800  0.569100  1.0  0.4298
  H  H64  1  0.425900  0.659700  0.606800  1.0  0.4195
  C  C65  1  0.526000  0.450200  0.504650  1.0  0.571
  C  C66  1  0.018700  0.464200  0.481630  1.0  0.6419
  C  C67  1  0.848900  0.202000  0.733370  1.0  0.6214
  C  C68  1  0.901400  0.286500  0.760060  1.0  0.6655
  C  C69  1  0.974000  0.549800  0.004650  1.0  0.5693
  C  C70  1  0.481300  0.535800  0.981630  1.0  0.6455
  C  C71  1  0.651100  0.798000  0.233370  1.0  0.6219
  C  C72  1  0.598600  0.713500  0.260060  1.0  0.6656
  C  C73  1  0.474000  0.950200  0.995350  1.0  0.5706
  C  C74  1  0.981300  0.964200  0.018370  1.0  0.6433
  C  C75  1  0.151100  0.702000  0.766630  1.0  0.6163
  C  C76  1  0.098600  0.786500  0.739940  1.0  0.6655
  C  C77  1  0.026000  0.049800  0.495350  1.0  0.5695
  C  C78  1  0.518700  0.035800  0.518370  1.0  0.6422
  C  C79  1  0.348900  0.298000  0.266630  1.0  0.6135
  C  C80  1  0.401400  0.213500  0.239940  1.0  0.6652
  C  C81  1  0.474000  0.549800  0.495350  1.0  0.5692
  C  C82  1  0.981300  0.535800  0.518370  1.0  0.6428
  C  C83  1  0.151100  0.798000  0.266630  1.0  0.6207
  C  C84  1  0.098600  0.713500  0.239940  1.0  0.6654
  C  C85  1  0.026000  0.450200  0.995350  1.0  0.5705
  C  C86  1  0.518700  0.464200  0.018370  1.0  0.6432
  C  C87  1  0.348900  0.202000  0.766630  1.0  0.6214
  C  C88  1  0.401400  0.286500  0.739940  1.0  0.6654
  C  C89  1  0.526000  0.049800  0.004650  1.0  0.5689
  C  C90  1  0.018700  0.035800  0.981630  1.0  0.6439
  C  C91  1  0.848900  0.298000  0.233370  1.0  0.6158
  C  C92  1  0.901400  0.213500  0.260060  1.0  0.6655
  C  C93  1  0.974000  0.950200  0.504650  1.0  0.5707
  C  C94  1  0.481300  0.964200  0.481630  1.0  0.6426
  C  C95  1  0.651100  0.702000  0.733370  1.0  0.6158
  C  C96  1  0.598600  0.786500  0.760060  1.0  0.6655
  O  O97  1  0.325400  0.502900  0.606900  1.0  -0.7857
  O  O98  1  0.393900  0.490250  0.686100  1.0  -0.6473
  O  O99  1  0.142700  0.491690  0.665640  1.0  -0.6548
  O  O100  1  0.281700  0.632600  0.658790  1.0  -0.7127
  O  O101  1  0.188100  0.321700  0.569320  1.0  -0.7661
  O  O102  1  0.075900  0.320260  0.644420  1.0  -0.7743
  O  O103  1  0.931100  0.344340  0.577590  1.0  -0.6139
  O  O104  1  0.028400  0.190720  0.589220  1.0  -0.6838
  O  O105  1  0.446100  0.396240  0.524730  1.0  -0.5421
  O  O106  1  0.644900  0.431800  0.491990  1.0  -0.5319
  O  O107  1  0.130500  0.423050  0.484930  1.0  -0.5392
  O  O108  1  0.932000  0.453520  0.450810  1.0  -0.5644
  O  O109  1  0.927100  0.170630  0.703490  1.0  -0.5304
  O  O110  1  0.015700  0.318100  0.750270  1.0  -0.5157
  O  O111  1  0.731600  0.172200  0.741660  1.0  -0.5457
  O  O112  1  0.822000  0.317530  0.789650  1.0  -0.5708
  O  O113  1  0.174600  0.497100  0.106900  1.0  -0.7852
  O  O114  1  0.106100  0.509750  0.186100  1.0  -0.6496
  O  O115  1  0.357300  0.508310  0.165640  1.0  -0.6552
  O  O116  1  0.218300  0.367400  0.158790  1.0  -0.712
  O  O117  1  0.311900  0.678300  0.069320  1.0  -0.7654
  O  O118  1  0.424100  0.679740  0.144420  1.0  -0.774
  O  O119  1  0.568900  0.655660  0.077590  1.0  -0.6131
  O  O120  1  0.471600  0.809280  0.089220  1.0  -0.6853
  O  O121  1  0.053900  0.603760  0.024730  1.0  -0.5403
  O  O122  1  0.855100  0.568200  0.991990  1.0  -0.5315
  O  O123  1  0.369500  0.576950  0.984930  1.0  -0.5367
  O  O124  1  0.568000  0.546480  0.950810  1.0  -0.5633
  O  O125  1  0.572900  0.829370  0.203490  1.0  -0.5308
  O  O126  1  0.484300  0.681900  0.250270  1.0  -0.5138
  O  O127  1  0.768400  0.827800  0.241660  1.0  -0.5465
  O  O128  1  0.678000  0.682470  0.289650  1.0  -0.5708
  O  O129  1  0.674600  0.002900  0.893100  1.0  -0.7862
  O  O130  1  0.606100  0.990250  0.813900  1.0  -0.6489
  O  O131  1  0.857300  0.991690  0.834360  1.0  -0.6534
  O  O132  1  0.718300  0.132600  0.841210  1.0  -0.7117
  O  O133  1  0.811900  0.821700  0.930680  1.0  -0.7638
  O  O134  1  0.924100  0.820260  0.855580  1.0  -0.7727
  O  O135  1  0.068900  0.844340  0.922410  1.0  -0.6139
  O  O136  1  0.971600  0.690720  0.910780  1.0  -0.6829
  O  O137  1  0.553900  0.896240  0.975270  1.0  -0.5432
  O  O138  1  0.355100  0.931800  0.008010  1.0  -0.5324
  O  O139  1  0.869500  0.923050  0.015070  1.0  -0.5406
  O  O140  1  0.068000  0.953520  0.049190  1.0  -0.5638
  O  O141  1  0.072900  0.670630  0.796510  1.0  -0.5291
  O  O142  1  0.984300  0.818100  0.749730  1.0  -0.5137
  O  O143  1  0.268400  0.672200  0.758340  1.0  -0.5467
  O  O144  1  0.178000  0.817530  0.710350  1.0  -0.5708
  O  O145  1  0.825400  0.997100  0.393100  1.0  -0.7856
  O  O146  1  0.893900  0.009750  0.313900  1.0  -0.6499
  O  O147  1  0.642700  0.008310  0.334360  1.0  -0.654
  O  O148  1  0.781700  0.867400  0.341210  1.0  -0.7127
  O  O149  1  0.688100  0.178300  0.430680  1.0  -0.7655
  O  O150  1  0.575900  0.179740  0.355580  1.0  -0.7733
  O  O151  1  0.431100  0.155660  0.422410  1.0  -0.6148
  O  O152  1  0.528400  0.309280  0.410780  1.0  -0.6843
  O  O153  1  0.946100  0.103760  0.475270  1.0  -0.5402
  O  O154  1  0.144900  0.068200  0.508010  1.0  -0.5342
  O  O155  1  0.630500  0.076950  0.515070  1.0  -0.5382
  O  O156  1  0.432000  0.046480  0.549190  1.0  -0.5639
  O  O157  1  0.427100  0.329370  0.296510  1.0  -0.5316
  O  O158  1  0.515700  0.181900  0.249730  1.0  -0.5158
  O  O159  1  0.231600  0.327800  0.258340  1.0  -0.5467
  O  O160  1  0.322000  0.182470  0.210350  1.0  -0.5704
  O  O161  1  0.674600  0.497100  0.393100  1.0  -0.7858
  O  O162  1  0.606100  0.509750  0.313900  1.0  -0.6498
  O  O163  1  0.857300  0.508310  0.334360  1.0  -0.6544
  O  O164  1  0.718300  0.367400  0.341210  1.0  -0.7119
  O  O165  1  0.811900  0.678300  0.430680  1.0  -0.7649
  O  O166  1  0.924100  0.679740  0.355580  1.0  -0.7728
  O  O167  1  0.068900  0.655660  0.422410  1.0  -0.6126
  O  O168  1  0.971600  0.809280  0.410780  1.0  -0.6847
  O  O169  1  0.553900  0.603760  0.475270  1.0  -0.5415
  O  O170  1  0.355100  0.568200  0.508010  1.0  -0.5325
  O  O171  1  0.869500  0.576950  0.515070  1.0  -0.5383
  O  O172  1  0.068000  0.546480  0.549190  1.0  -0.564
  O  O173  1  0.072900  0.829370  0.296510  1.0  -0.5312
  O  O174  1  0.984300  0.681900  0.249730  1.0  -0.5138
  O  O175  1  0.268400  0.827800  0.258340  1.0  -0.5471
  O  O176  1  0.178000  0.682470  0.210350  1.0  -0.5722
  O  O177  1  0.825400  0.502900  0.893100  1.0  -0.786
  O  O178  1  0.893900  0.490250  0.813900  1.0  -0.6472
  O  O179  1  0.642700  0.491690  0.834360  1.0  -0.6535
  O  O180  1  0.781700  0.632600  0.841210  1.0  -0.7126
  O  O181  1  0.688100  0.321700  0.930680  1.0  -0.7653
  O  O182  1  0.575900  0.320260  0.855580  1.0  -0.7731
  O  O183  1  0.431100  0.344340  0.922410  1.0  -0.613
  O  O184  1  0.528400  0.190720  0.910780  1.0  -0.6834
  O  O185  1  0.946100  0.396240  0.975270  1.0  -0.5426
  O  O186  1  0.144900  0.431800  0.008010  1.0  -0.5332
  O  O187  1  0.630500  0.423050  0.015070  1.0  -0.5403
  O  O188  1  0.432000  0.453520  0.049190  1.0  -0.5643
  O  O189  1  0.427100  0.170630  0.796510  1.0  -0.5293
  O  O190  1  0.515700  0.318100  0.749730  1.0  -0.5157
  O  O191  1  0.231600  0.172200  0.758340  1.0  -0.5459
  O  O192  1  0.322000  0.317530  0.710350  1.0  -0.5715
  O  O193  1  0.325400  0.997100  0.106900  1.0  -0.785
  O  O194  1  0.393900  0.009750  0.186100  1.0  -0.6499
  O  O195  1  0.142700  0.008310  0.165640  1.0  -0.6547
  O  O196  1  0.281700  0.867400  0.158790  1.0  -0.7128
  O  O197  1  0.188100  0.178300  0.069320  1.0  -0.7659
  O  O198  1  0.075900  0.179740  0.144420  1.0  -0.7746
  O  O199  1  0.931100  0.155660  0.077590  1.0  -0.6156
  O  O200  1  0.028400  0.309280  0.089220  1.0  -0.6853
  O  O201  1  0.446100  0.103760  0.024730  1.0  -0.5394
  O  O202  1  0.644900  0.068200  0.991990  1.0  -0.533
  O  O203  1  0.130500  0.076950  0.984930  1.0  -0.5369
  O  O204  1  0.932000  0.046480  0.950810  1.0  -0.563
  O  O205  1  0.927100  0.329370  0.203490  1.0  -0.5316
  O  O206  1  0.015700  0.181900  0.250270  1.0  -0.5162
  O  O207  1  0.731600  0.327800  0.241660  1.0  -0.5456
  O  O208  1  0.822000  0.182470  0.289650  1.0  -0.572
  O  O209  1  0.174600  0.002900  0.606900  1.0  -0.7858
  O  O210  1  0.106100  0.990250  0.686100  1.0  -0.649
  O  O211  1  0.357300  0.991690  0.665640  1.0  -0.655
  O  O212  1  0.218300  0.132600  0.658790  1.0  -0.7118
  O  O213  1  0.311900  0.821700  0.569320  1.0  -0.7648
  O  O214  1  0.424100  0.820260  0.644420  1.0  -0.7738
  O  O215  1  0.568900  0.844340  0.577590  1.0  -0.6141
  O  O216  1  0.471600  0.690720  0.589220  1.0  -0.6847
  O  O217  1  0.053900  0.896240  0.524730  1.0  -0.5423
  O  O218  1  0.855100  0.931800  0.491990  1.0  -0.5308
  O  O219  1  0.369500  0.923050  0.484930  1.0  -0.5396
  O  O220  1  0.568000  0.953520  0.450810  1.0  -0.564
  O  O221  1  0.572900  0.670630  0.703490  1.0  -0.5299
  O  O222  1  0.484300  0.818100  0.750270  1.0  -0.5135
  O  O223  1  0.768400  0.672200  0.741660  1.0  -0.5463
  O  O224  1  0.678000  0.817530  0.789650  1.0  -0.5721
