# generated using pymatgen
data_Zn5P5H30C30(N3O10)2
_symmetry_space_group_name_H-M   'P 1'
_cell_length_a   10.02390000
_cell_length_b   10.07970000
_cell_length_c   23.57260000
_cell_angle_alpha   77.71300000
_cell_angle_beta   79.76600000
_cell_angle_gamma   88.76800000
_symmetry_Int_Tables_number   1
_chemical_formula_structural   Zn5P5H30C30(N3O10)2
_chemical_formula_sum   'Zn10 P10 H60 C60 N12 O40'
_cell_volume   2289.81613603
_cell_formula_units_Z   2
loop_
 _symmetry_equiv_pos_site_id
 _symmetry_equiv_pos_as_xyz
  1  'x, y, z'
loop_
 _atom_site_type_symbol
 _atom_site_label
 _atom_site_symmetry_multiplicity
 _atom_site_fract_x
 _atom_site_fract_y
 _atom_site_fract_z
 _atom_site_occupancy
 _atom_site_charge
  Zn  Zn1  1  0.603300  0.248900  0.206200  1.0  1.017
  Zn  Zn2  1  0.262100  0.929000  0.291400  1.0  1.0302
  Zn  Zn3  1  0.578200  0.613300  0.251100  1.0  0.9071
  Zn  Zn4  1  0.894900  0.944900  0.246300  1.0  0.9846
  Zn  Zn5  1  0.081500  0.436600  0.246900  1.0  1.123
  Zn  Zn6  1  0.396700  0.751100  0.793800  1.0  1.0181
  Zn  Zn7  1  0.737900  0.071000  0.708600  1.0  1.0293
  Zn  Zn8  1  0.421800  0.386700  0.748900  1.0  0.9068
  Zn  Zn9  1  0.105100  0.055100  0.753700  1.0  0.9844
  Zn  Zn10  1  0.918500  0.563400  0.753100  1.0  1.1181
  P  P11  1  0.825000  0.467000  0.185100  1.0  1.7535
  P  P12  1  0.053000  0.687000  0.315600  1.0  1.6881
  P  P13  1  0.026000  0.130000  0.313800  1.0  1.7891
  P  P14  1  0.580000  0.934000  0.251300  1.0  1.7434
  P  P15  1  0.389000  0.469000  0.177200  1.0  1.8037
  P  P16  1  0.175000  0.533000  0.814900  1.0  1.754
  P  P17  1  0.947000  0.313000  0.684400  1.0  1.689
  P  P18  1  0.974000  0.870000  0.686200  1.0  1.7891
  P  P19  1  0.420000  0.066000  0.748700  1.0  1.7429
  P  P20  1  0.611000  0.531000  0.822800  1.0  1.8048
  H  H21  1  0.733400  0.534200  0.348500  1.0  0.0677
  H  H22  1  0.710400  0.484100  0.449200  1.0  0.1056
  H  H23  1  0.345400  0.599900  0.357900  1.0  0.0798
  H  H24  1  0.351000  0.275700  0.294100  1.0  0.0772
  H  H25  1  0.283700  0.251100  0.393400  1.0  0.1194
  H  H26  1  0.931600  0.769700  0.155700  1.0  0.0685
  H  H27  1  0.976100  0.786900  0.056200  1.0  0.1185
  H  H28  1  0.266100  0.164000  0.192400  1.0  0.0674
  H  H29  1  0.263900  0.776000  0.195600  1.0  0.0713
  H  H30  1  0.611200  0.138900  0.501600  1.0  0.1337
  H  H31  1  0.230500  0.240300  0.482900  1.0  0.14
  H  H32  1  0.945800  0.164400  0.135800  1.0  0.0934
  H  H33  1  0.991800  0.190000  0.035400  1.0  0.1186
  H  H34  1  0.313900  0.556700  0.459000  1.0  0.1121
  H  H35  1  0.671900  0.189000  0.412000  1.0  0.1249
  H  H36  1  0.726700  0.216900  0.312100  1.0  0.0699
  H  H37  1  0.298200  0.214100  0.091900  1.0  0.1185
  H  H38  1  0.541500  0.095600  0.602400  1.0  0.102
  H  H39  1  0.169700  0.195400  0.583800  1.0  0.1015
  H  H40  1  0.398700  0.295200  0.901000  1.0  0.1077
  H  H41  1  0.357000  0.253100  0.002100  1.0  0.1424
  H  H42  1  0.356600  0.909700  0.902700  1.0  0.1036
  H  H43  1  0.315300  0.858600  0.004900  1.0  0.143
  H  H44  1  0.312000  0.816600  0.093500  1.0  0.1097
  H  H45  1  0.393100  0.134800  0.854200  1.0  0.3026
  H  H46  1  0.331000  0.121500  0.638900  1.0  0.2957
  H  H47  1  0.952800  0.031100  0.400800  1.0  0.2743
  H  H48  1  0.016700  0.623200  0.403300  1.0  0.399
  H  H49  1  0.846000  0.547700  0.099900  1.0  0.3384
  H  H50  1  0.288700  0.534000  0.100200  1.0  0.1419
  H  H51  1  0.266600  0.465800  0.651500  1.0  0.0677
  H  H52  1  0.289600  0.515900  0.550800  1.0  0.1058
  H  H53  1  0.654600  0.400100  0.642100  1.0  0.0791
  H  H54  1  0.649000  0.724300  0.705900  1.0  0.0769
  H  H55  1  0.716300  0.748900  0.606600  1.0  0.1194
  H  H56  1  0.068400  0.230300  0.844300  1.0  0.0682
  H  H57  1  0.023900  0.213100  0.943800  1.0  0.1194
  H  H58  1  0.733900  0.836000  0.807600  1.0  0.0675
  H  H59  1  0.736100  0.224000  0.804400  1.0  0.0715
  H  H60  1  0.388800  0.861100  0.498400  1.0  0.135
  H  H61  1  0.769500  0.759700  0.517100  1.0  0.1402
  H  H62  1  0.054200  0.835600  0.864200  1.0  0.0944
  H  H63  1  0.008200  0.810000  0.964600  1.0  0.1172
  H  H64  1  0.686100  0.443300  0.541000  1.0  0.1141
  H  H65  1  0.328100  0.811000  0.588000  1.0  0.1246
  H  H66  1  0.273300  0.783100  0.687900  1.0  0.0705
  H  H67  1  0.701800  0.785900  0.908100  1.0  0.1192
  H  H68  1  0.458500  0.904400  0.397600  1.0  0.1011
  H  H69  1  0.830300  0.804600  0.416200  1.0  0.1005
  H  H70  1  0.601300  0.704800  0.099000  1.0  0.1097
  H  H71  1  0.643000  0.746900  0.997900  1.0  0.1419
  H  H72  1  0.643400  0.090300  0.097300  1.0  0.1036
  H  H73  1  0.684700  0.141400  0.995100  1.0  0.1426
  H  H74  1  0.688000  0.183400  0.906500  1.0  0.1105
  H  H75  1  0.606900  0.865200  0.145800  1.0  0.3054
  H  H76  1  0.669000  0.878500  0.361100  1.0  0.2939
  H  H77  1  0.047200  0.968900  0.599200  1.0  0.2764
  H  H78  1  0.983300  0.376800  0.596700  1.0  0.4038
  H  H79  1  0.154000  0.452300  0.900100  1.0  0.3376
  H  H80  1  0.711300  0.466000  0.899800  1.0  0.1402
  C  C81  1  0.648000  0.538000  0.371000  1.0  0.1793
  C  C82  1  0.635000  0.509000  0.432000  1.0  -0.1616
  C  C83  1  0.420000  0.577000  0.376000  1.0  0.1768
  C  C84  1  0.416000  0.258000  0.318000  1.0  0.1798
  C  C85  1  0.375000  0.243000  0.378000  1.0  -0.1726
  C  C86  1  0.470000  0.216000  0.415000  1.0  0.0518
  C  C87  1  0.427000  0.193000  0.480000  1.0  0.0475
  C  C88  1  0.943000  0.856000  0.131000  1.0  0.1541
  C  C89  1  0.970000  0.865000  0.071000  1.0  -0.1753
  C  C90  1  0.987000  0.992000  0.033000  1.0  0.0502
  C  C91  1  0.274000  0.093000  0.172000  1.0  0.1737
  C  C92  1  0.275000  0.865000  0.174000  1.0  0.1475
  C  C93  1  0.521000  0.150000  0.517000  1.0  -0.1172
  C  C94  1  0.295000  0.210000  0.506000  1.0  -0.1414
  C  C95  1  0.952000  0.087000  0.120000  1.0  0.1508
  C  C96  1  0.979000  0.103000  0.059000  1.0  -0.1724
  C  C97  1  0.304000  0.020000  0.081000  1.0  0.0491
  C  C98  1  0.400000  0.551000  0.438000  1.0  -0.1483
  C  C99  1  0.605000  0.207000  0.389000  1.0  -0.1883
  C  C100  1  0.329000  0.051000  0.016000  1.0  0.0369
  C  C101  1  0.636000  0.224000  0.329000  1.0  0.1673
  C  C102  1  0.293000  0.124000  0.112000  1.0  -0.1973
  C  C103  1  0.480000  0.124000  0.577000  1.0  0.055
  C  C104  1  0.259000  0.184000  0.567000  1.0  0.0508
  C  C105  1  0.380000  0.207000  0.922000  1.0  0.0674
  C  C106  1  0.356000  0.182000  0.983000  1.0  -0.1697
  C  C107  1  0.356000  0.979000  0.923000  1.0  0.0265
  C  C108  1  0.331000  0.948000  0.985000  1.0  -0.1514
  C  C109  1  0.509000  0.516000  0.467000  1.0  0.0621
  C  C110  1  0.299000  0.889000  0.113000  1.0  -0.1646
  C  C111  1  0.352000  0.462000  0.629000  1.0  0.1796
  C  C112  1  0.365000  0.491000  0.568000  1.0  -0.1606
  C  C113  1  0.580000  0.423000  0.624000  1.0  0.1768
  C  C114  1  0.584000  0.742000  0.682000  1.0  0.1803
  C  C115  1  0.625000  0.757000  0.622000  1.0  -0.1743
  C  C116  1  0.530000  0.784000  0.585000  1.0  0.0534
  C  C117  1  0.573000  0.807000  0.520000  1.0  0.0477
  C  C118  1  0.057000  0.144000  0.869000  1.0  0.1535
  C  C119  1  0.030000  0.135000  0.929000  1.0  -0.1788
  C  C120  1  0.013000  0.008000  0.967000  1.0  0.05
  C  C121  1  0.726000  0.907000  0.828000  1.0  0.1743
  C  C122  1  0.725000  0.135000  0.826000  1.0  0.148
  C  C123  1  0.479000  0.850000  0.483000  1.0  -0.1152
  C  C124  1  0.705000  0.790000  0.494000  1.0  -0.1412
  C  C125  1  0.048000  0.913000  0.880000  1.0  0.1506
  C  C126  1  0.021000  0.897000  0.941000  1.0  -0.1709
  C  C127  1  0.696000  0.980000  0.919000  1.0  0.0495
  C  C128  1  0.600000  0.449000  0.562000  1.0  -0.1484
  C  C129  1  0.395000  0.793000  0.611000  1.0  -0.1867
  C  C130  1  0.671000  0.949000  0.984000  1.0  0.0372
  C  C131  1  0.364000  0.776000  0.671000  1.0  0.1676
  C  C132  1  0.707000  0.876000  0.888000  1.0  -0.1981
  C  C133  1  0.520000  0.876000  0.423000  1.0  0.0544
  C  C134  1  0.741000  0.816000  0.433000  1.0  0.0541
  C  C135  1  0.620000  0.793000  0.078000  1.0  0.0661
  C  C136  1  0.644000  0.818000  0.017000  1.0  -0.1683
  C  C137  1  0.644000  0.021000  0.077000  1.0  0.0287
  C  C138  1  0.669000  0.052000  0.015000  1.0  -0.1544
  C  C139  1  0.491000  0.484000  0.533000  1.0  0.0615
  C  C140  1  0.701000  0.111000  0.887000  1.0  -0.1653
  N  N141  1  0.378000  0.106000  0.894000  1.0  -0.2397
  N  N142  1  0.933000  0.964000  0.157000  1.0  -0.3754
  N  N143  1  0.543000  0.572000  0.343000  1.0  -0.3707
  N  N144  1  0.547000  0.249000  0.293000  1.0  -0.3509
  N  N145  1  0.266000  0.965000  0.204000  1.0  -0.3614
  N  N146  1  0.350000  0.141000  0.600000  1.0  -0.2776
  N  N147  1  0.622000  0.894000  0.106000  1.0  -0.2393
  N  N148  1  0.067000  0.036000  0.843000  1.0  -0.3773
  N  N149  1  0.457000  0.428000  0.657000  1.0  -0.3702
  N  N150  1  0.453000  0.751000  0.707000  1.0  -0.3494
  N  N151  1  0.734000  0.035000  0.796000  1.0  -0.3609
  N  N152  1  0.650000  0.859000  0.400000  1.0  -0.2755
  O  O153  1  0.784000  0.324000  0.183000  1.0  -0.8179
  O  O154  1  0.977000  0.475000  0.184000  1.0  -0.828
  O  O155  1  0.794000  0.570000  0.129000  1.0  -0.6491
  O  O156  1  0.744000  0.518000  0.237000  1.0  -0.8366
  O  O157  1  0.492000  0.366000  0.158000  1.0  -0.8256
  O  O158  1  0.443000  0.559000  0.212000  1.0  -0.8744
  O  O159  1  0.359000  0.567000  0.120000  1.0  -0.5437
  O  O160  1  0.260000  0.394000  0.209000  1.0  -0.8423
  O  O161  1  0.703000  0.933000  0.283000  1.0  -0.8555
  O  O162  1  0.586000  0.811000  0.221000  1.0  -0.865
  O  O163  1  0.587000  0.061000  0.202000  1.0  -0.8459
  O  O164  1  0.453000  0.926000  0.298000  1.0  -0.8583
  O  O165  1  0.167000  0.763000  0.330000  1.0  -0.8367
  O  O166  1  0.111000  0.581000  0.284000  1.0  -0.8794
  O  O167  1  0.961000  0.779000  0.284000  1.0  -0.9182
  O  O168  1  0.968000  0.614000  0.377000  1.0  -0.6401
  O  O169  1  0.164000  0.071000  0.325000  1.0  -0.8322
  O  O170  1  0.988000  0.098000  0.259000  1.0  -0.8241
  O  O171  1  0.025000  0.282000  0.312000  1.0  -0.8281
  O  O172  1  0.916000  0.062000  0.368000  1.0  -0.5862
  O  O173  1  0.216000  0.676000  0.817000  1.0  -0.8175
  O  O174  1  0.023000  0.525000  0.816000  1.0  -0.8279
  O  O175  1  0.206000  0.430000  0.871000  1.0  -0.6503
  O  O176  1  0.256000  0.482000  0.763000  1.0  -0.8385
  O  O177  1  0.508000  0.634000  0.842000  1.0  -0.8251
  O  O178  1  0.557000  0.441000  0.788000  1.0  -0.876
  O  O179  1  0.641000  0.433000  0.880000  1.0  -0.5435
  O  O180  1  0.740000  0.606000  0.791000  1.0  -0.8423
  O  O181  1  0.297000  0.067000  0.717000  1.0  -0.8552
  O  O182  1  0.414000  0.189000  0.779000  1.0  -0.8649
  O  O183  1  0.413000  0.939000  0.798000  1.0  -0.8452
  O  O184  1  0.547000  0.074000  0.702000  1.0  -0.8582
  O  O185  1  0.833000  0.237000  0.670000  1.0  -0.8358
  O  O186  1  0.889000  0.419000  0.716000  1.0  -0.8801
  O  O187  1  0.039000  0.221000  0.716000  1.0  -0.9177
  O  O188  1  0.032000  0.386000  0.623000  1.0  -0.6382
  O  O189  1  0.836000  0.929000  0.675000  1.0  -0.8305
  O  O190  1  0.012000  0.902000  0.741000  1.0  -0.8243
  O  O191  1  0.975000  0.718000  0.688000  1.0  -0.8279
  O  O192  1  0.084000  0.938000  0.632000  1.0  -0.585
