# generated using pymatgen
data_CoH13C15(NO2)2
_symmetry_space_group_name_H-M   'P 1'
_cell_length_a   8.38520000
_cell_length_b   14.71100000
_cell_length_c   15.77100000
_cell_angle_alpha   90.00000000
_cell_angle_beta   102.48500000
_cell_angle_gamma   90.00000000
_symmetry_Int_Tables_number   1
_chemical_formula_structural   CoH13C15(NO2)2
_chemical_formula_sum   'Co4 H52 C60 N8 O16'
_cell_volume   1899.42240561
_cell_formula_units_Z   4
loop_
 _symmetry_equiv_pos_site_id
 _symmetry_equiv_pos_as_xyz
  1  'x, y, z'
loop_
 _atom_site_type_symbol
 _atom_site_label
 _atom_site_symmetry_multiplicity
 _atom_site_fract_x
 _atom_site_fract_y
 _atom_site_fract_z
 _atom_site_occupancy
 _atom_site_charge
  Co  Co1  1  0.168330  0.917240  0.610300  1.0  0.9456
  Co  Co2  1  0.331670  0.417240  0.389700  1.0  0.9456
  Co  Co3  1  0.831670  0.082760  0.389700  1.0  0.9455
  Co  Co4  1  0.668330  0.582760  0.610300  1.0  0.9457
  H  H5  1  0.398300  0.698800  0.356300  1.0  0.0964
  H  H6  1  0.283900  0.944200  0.431200  1.0  0.0952
  H  H7  1  0.347200  0.932200  0.293700  1.0  0.0846
  H  H8  1  0.517500  0.884700  0.320000  1.0  0.0862
  H  H9  1  0.433700  0.769300  0.227900  1.0  0.0936
  H  H10  1  0.389800  0.860300  0.176400  1.0  0.0977
  H  H11  1  0.253500  0.805300  0.208200  1.0  0.0924
  H  H12  1  0.892000  0.898100  0.704800  1.0  0.0767
  H  H13  1  0.816100  0.934700  0.831100  1.0  0.1275
  H  H14  1  0.211500  0.089300  0.894200  1.0  0.1242
  H  H15  1  0.280800  0.046400  0.767600  1.0  0.0733
  H  H16  1  0.847000  0.035400  0.958100  1.0  0.0861
  H  H17  1  0.005900  0.094300  0.985000  1.0  0.0978
  H  H18  1  0.101700  0.198800  0.643700  1.0  0.0964
  H  H19  1  0.216100  0.444200  0.568800  1.0  0.0952
  H  H20  1  0.152800  0.432200  0.706300  1.0  0.0853
  H  H21  1  0.982500  0.384700  0.680000  1.0  0.0878
  H  H22  1  0.066300  0.269300  0.772100  1.0  0.0963
  H  H23  1  0.110200  0.360300  0.823600  1.0  0.0982
  H  H24  1  0.246500  0.305300  0.791800  1.0  0.096
  H  H25  1  0.608000  0.398100  0.295200  1.0  0.0769
  H  H26  1  0.683900  0.434700  0.168900  1.0  0.1253
  H  H27  1  0.288500  0.589300  0.105800  1.0  0.1245
  H  H28  1  0.219200  0.546400  0.232400  1.0  0.073
  H  H29  1  0.653000  0.535400  0.041900  1.0  0.0856
  H  H30  1  0.494100  0.594300  0.015000  1.0  0.0981
  H  H31  1  0.601700  0.301200  0.643700  1.0  0.0965
  H  H32  1  0.716100  0.055800  0.568800  1.0  0.095
  H  H33  1  0.652800  0.067800  0.706300  1.0  0.0829
  H  H34  1  0.482500  0.115300  0.680000  1.0  0.0861
  H  H35  1  0.566300  0.230700  0.772100  1.0  0.0938
  H  H36  1  0.610200  0.139700  0.823600  1.0  0.0982
  H  H37  1  0.746500  0.194700  0.791800  1.0  0.0968
  H  H38  1  0.108000  0.101900  0.295200  1.0  0.0765
  H  H39  1  0.183900  0.065300  0.168900  1.0  0.1255
  H  H40  1  0.788500  0.910700  0.105800  1.0  0.124
  H  H41  1  0.719200  0.953600  0.232400  1.0  0.0729
  H  H42  1  0.153000  0.964600  0.041900  1.0  0.0853
  H  H43  1  0.994100  0.905700  0.015000  1.0  0.0967
  H  H44  1  0.898300  0.801200  0.356300  1.0  0.0967
  H  H45  1  0.783900  0.555800  0.431200  1.0  0.0952
  H  H46  1  0.847200  0.567800  0.293700  1.0  0.083
  H  H47  1  0.017500  0.615300  0.320000  1.0  0.0854
  H  H48  1  0.933700  0.730700  0.227900  1.0  0.0926
  H  H49  1  0.889800  0.639700  0.176400  1.0  0.0977
  H  H50  1  0.753500  0.694700  0.208200  1.0  0.0926
  H  H51  1  0.392000  0.601900  0.704800  1.0  0.0766
  H  H52  1  0.316100  0.565300  0.831100  1.0  0.1271
  H  H53  1  0.711500  0.410700  0.894200  1.0  0.1242
  H  H54  1  0.780800  0.453600  0.767600  1.0  0.0736
  H  H55  1  0.347000  0.464600  0.958100  1.0  0.0865
  H  H56  1  0.505900  0.405700  0.985000  1.0  0.0966
  C  C57  1  0.245800  0.755240  0.519010  1.0  0.1084
  C  C58  1  0.310000  0.697790  0.464830  1.0  -0.1289
  C  C59  1  0.358400  0.736120  0.394540  1.0  -0.0635
  C  C60  1  0.348700  0.828890  0.379580  1.0  0.0215
  C  C61  1  0.289200  0.881470  0.438910  1.0  0.1263
  C  C62  1  0.168800  0.722030  0.591660  1.0  0.6113
  C  C63  1  0.336200  0.596810  0.479530  1.0  0.7118
  C  C64  1  0.400900  0.873500  0.303830  1.0  -0.0983
  C  C65  1  0.366500  0.822700  0.222100  1.0  -0.2978
  C  C66  1  0.959500  0.936000  0.744200  1.0  0.1988
  C  C67  1  0.913000  0.958000  0.820200  1.0  -0.2281
  C  C68  1  0.008000  0.013700  0.879940  1.0  0.1514
  C  C69  1  0.145500  0.048400  0.857400  1.0  -0.2483
  C  C70  1  0.186000  0.022800  0.780600  1.0  0.1797
  C  C71  1  0.964900  0.034400  0.965700  1.0  -0.1738
  C  C72  1  0.254200  0.255240  0.480990  1.0  0.108
  C  C73  1  0.190000  0.197790  0.535170  1.0  -0.1303
  C  C74  1  0.141600  0.236120  0.605460  1.0  -0.0637
  C  C75  1  0.151300  0.328890  0.620420  1.0  0.0225
  C  C76  1  0.210800  0.381470  0.561090  1.0  0.1254
  C  C77  1  0.331200  0.222030  0.408340  1.0  0.6131
  C  C78  1  0.163800  0.096810  0.520470  1.0  0.7128
  C  C79  1  0.099100  0.373500  0.696170  1.0  -0.096
  C  C80  1  0.133500  0.322700  0.777900  1.0  -0.2958
  C  C81  1  0.540500  0.436000  0.255800  1.0  0.1976
  C  C82  1  0.587000  0.458000  0.179800  1.0  -0.2274
  C  C83  1  0.492000  0.513700  0.120060  1.0  0.152
  C  C84  1  0.354500  0.548400  0.142600  1.0  -0.247
  C  C85  1  0.314000  0.522800  0.219400  1.0  0.1806
  C  C86  1  0.535100  0.534400  0.034300  1.0  -0.1742
  C  C87  1  0.754200  0.244760  0.480990  1.0  0.1079
  C  C88  1  0.690000  0.302210  0.535170  1.0  -0.1302
  C  C89  1  0.641600  0.263880  0.605460  1.0  -0.0634
  C  C90  1  0.651300  0.171110  0.620420  1.0  0.0224
  C  C91  1  0.710800  0.118530  0.561090  1.0  0.127
  C  C92  1  0.831200  0.277970  0.408340  1.0  0.6131
  C  C93  1  0.663800  0.403190  0.520470  1.0  0.7122
  C  C94  1  0.599100  0.126500  0.696170  1.0  -0.0958
  C  C95  1  0.633500  0.177300  0.777900  1.0  -0.2954
  C  C96  1  0.040500  0.064000  0.255800  1.0  0.1985
  C  C97  1  0.087000  0.042000  0.179800  1.0  -0.2283
  C  C98  1  0.992000  0.986300  0.120060  1.0  0.1521
  C  C99  1  0.854500  0.951600  0.142600  1.0  -0.2468
  C  C100  1  0.814000  0.977200  0.219400  1.0  0.1802
  C  C101  1  0.035100  0.965600  0.034300  1.0  -0.1758
  C  C102  1  0.745800  0.744760  0.519010  1.0  0.1076
  C  C103  1  0.810000  0.802210  0.464830  1.0  -0.1291
  C  C104  1  0.858400  0.763880  0.394540  1.0  -0.063
  C  C105  1  0.848700  0.671110  0.379580  1.0  0.0216
  C  C106  1  0.789200  0.618530  0.438910  1.0  0.128
  C  C107  1  0.668800  0.777970  0.591660  1.0  0.6116
  C  C108  1  0.836200  0.903190  0.479530  1.0  0.7113
  C  C109  1  0.900900  0.626500  0.303830  1.0  -0.0988
  C  C110  1  0.866500  0.677300  0.222100  1.0  -0.2975
  C  C111  1  0.459500  0.564000  0.744200  1.0  0.2001
  C  C112  1  0.413000  0.542000  0.820200  1.0  -0.2295
  C  C113  1  0.508000  0.486300  0.879940  1.0  0.1518
  C  C114  1  0.645500  0.451600  0.857400  1.0  -0.2483
  C  C115  1  0.686000  0.477200  0.780600  1.0  0.1798
  C  C116  1  0.464900  0.465600  0.965700  1.0  -0.1748
  N  N117  1  0.239000  0.845780  0.506800  1.0  -0.3548
  N  N118  1  0.096700  0.966380  0.724590  1.0  -0.3491
  N  N119  1  0.261000  0.345780  0.493200  1.0  -0.3546
  N  N120  1  0.403300  0.466380  0.275410  1.0  -0.3482
  N  N121  1  0.761000  0.154220  0.493200  1.0  -0.3539
  N  N122  1  0.903300  0.033620  0.275410  1.0  -0.3481
  N  N123  1  0.739000  0.654220  0.506800  1.0  -0.3539
  N  N124  1  0.596700  0.533620  0.724590  1.0  -0.3481
  O  O125  1  0.142600  0.782170  0.645240  1.0  -0.615
  O  O126  1  0.134300  0.640560  0.593930  1.0  -0.5559
  O  O127  1  0.427400  0.569840  0.548110  1.0  -0.588
  O  O128  1  0.268000  0.546970  0.417390  1.0  -0.5898
  O  O129  1  0.357400  0.282170  0.354760  1.0  -0.6145
  O  O130  1  0.365700  0.140560  0.406070  1.0  -0.5567
  O  O131  1  0.072600  0.069840  0.451890  1.0  -0.5888
  O  O132  1  0.232000  0.046970  0.582610  1.0  -0.5903
  O  O133  1  0.857400  0.217830  0.354760  1.0  -0.6151
  O  O134  1  0.865700  0.359440  0.406070  1.0  -0.5564
  O  O135  1  0.572600  0.430160  0.451890  1.0  -0.5883
  O  O136  1  0.732000  0.453030  0.582610  1.0  -0.5902
  O  O137  1  0.642600  0.717830  0.645240  1.0  -0.6148
  O  O138  1  0.634300  0.859440  0.593930  1.0  -0.556
  O  O139  1  0.927400  0.930160  0.548110  1.0  -0.5879
  O  O140  1  0.768000  0.953030  0.417390  1.0  -0.5893
