# generated using pymatgen
data_CoH13C15(NO2)2
_symmetry_space_group_name_H-M   'P 1'
_cell_length_a   8.27600000
_cell_length_b   14.36000000
_cell_length_c   14.75000000
_cell_angle_alpha   90.00000000
_cell_angle_beta   90.00000000
_cell_angle_gamma   99.74600000
_symmetry_Int_Tables_number   1
_chemical_formula_structural   CoH13C15(NO2)2
_chemical_formula_sum   'Co4 H52 C60 N8 O16'
_cell_volume   1727.64092501
_cell_formula_units_Z   4
loop_
 _symmetry_equiv_pos_site_id
 _symmetry_equiv_pos_as_xyz
  1  'x, y, z'
loop_
 _atom_site_type_symbol
 _atom_site_label
 _atom_site_symmetry_multiplicity
 _atom_site_fract_x
 _atom_site_fract_y
 _atom_site_fract_z
 _atom_site_occupancy
 _atom_site_charge
  Co  Co1  1  0.907250  0.120090  0.082390  1.0  0.9575
  Co  Co2  1  0.592750  0.879910  0.582390  1.0  0.9555
  Co  Co3  1  0.092750  0.879910  0.917610  1.0  0.955
  Co  Co4  1  0.407250  0.120090  0.417610  1.0  0.9568
  H  H5  1  0.493400  0.839500  0.301800  1.0  0.097
  H  H6  1  0.652500  0.924900  0.056500  1.0  0.0996
  H  H7  1  0.503900  0.764900  0.075700  1.0  0.0699
  H  H8  1  0.348900  0.801800  0.112100  1.0  0.0852
  H  H9  1  0.352200  0.714300  0.238100  1.0  0.0884
  H  H10  1  0.344900  0.650500  0.151400  1.0  0.0917
  H  H11  1  0.510600  0.678900  0.203900  1.0  0.0858
  H  H12  1  0.252300  0.210100  0.106300  1.0  0.0775
  H  H13  1  0.440500  0.340900  0.076700  1.0  0.1182
  H  H14  1  0.109800  0.437600  0.926100  1.0  0.1184
  H  H15  1  0.926100  0.306800  0.961900  1.0  0.0736
  H  H16  1  0.369000  0.551500  0.999600  1.0  0.098
  H  H17  1  0.429100  0.503500  0.913300  1.0  0.0995
  H  H18  1  0.006600  0.160500  0.801800  1.0  0.0966
  H  H19  1  0.847500  0.075100  0.556500  1.0  0.0995
  H  H20  1  0.996100  0.235100  0.575700  1.0  0.0699
  H  H21  1  0.151100  0.198200  0.612100  1.0  0.086
  H  H22  1  0.147800  0.285700  0.738100  1.0  0.0884
  H  H23  1  0.155100  0.349500  0.651400  1.0  0.0939
  H  H24  1  0.989400  0.321100  0.703900  1.0  0.0856
  H  H25  1  0.247700  0.789900  0.606300  1.0  0.0778
  H  H26  1  0.059500  0.659100  0.576700  1.0  0.1182
  H  H27  1  0.390200  0.562400  0.426100  1.0  0.1181
  H  H28  1  0.573900  0.693200  0.461900  1.0  0.0738
  H  H29  1  0.131000  0.448500  0.499600  1.0  0.098
  H  H30  1  0.070900  0.496500  0.413300  1.0  0.0989
  H  H31  1  0.506600  0.160500  0.698200  1.0  0.0971
  H  H32  1  0.347500  0.075100  0.943500  1.0  0.0991
  H  H33  1  0.496100  0.235100  0.924300  1.0  0.0696
  H  H34  1  0.651100  0.198200  0.887900  1.0  0.0864
  H  H35  1  0.647800  0.285700  0.761900  1.0  0.0879
  H  H36  1  0.655100  0.349500  0.848600  1.0  0.0934
  H  H37  1  0.489400  0.321100  0.796100  1.0  0.0856
  H  H38  1  0.747700  0.789900  0.893700  1.0  0.0767
  H  H39  1  0.559500  0.659100  0.923300  1.0  0.1168
  H  H40  1  0.890200  0.562400  0.073900  1.0  0.118
  H  H41  1  0.073900  0.693200  0.038100  1.0  0.074
  H  H42  1  0.631000  0.448500  0.000400  1.0  0.0978
  H  H43  1  0.570900  0.496500  0.086700  1.0  0.0989
  H  H44  1  0.993400  0.839500  0.198200  1.0  0.0968
  H  H45  1  0.152500  0.924900  0.443500  1.0  0.0986
  H  H46  1  0.003900  0.764900  0.424300  1.0  0.0703
  H  H47  1  0.848900  0.801800  0.387900  1.0  0.0857
  H  H48  1  0.852200  0.714300  0.261900  1.0  0.0871
  H  H49  1  0.844900  0.650500  0.348600  1.0  0.0919
  H  H50  1  0.010600  0.678900  0.296100  1.0  0.0854
  H  H51  1  0.752300  0.210100  0.393700  1.0  0.0767
  H  H52  1  0.940500  0.340900  0.423300  1.0  0.1168
  H  H53  1  0.609800  0.437600  0.573900  1.0  0.1182
  H  H54  1  0.426100  0.306800  0.538100  1.0  0.0736
  H  H55  1  0.869000  0.551500  0.500400  1.0  0.0981
  H  H56  1  0.929100  0.503500  0.586700  1.0  0.0985
  C  C57  1  0.764400  0.019200  0.244900  1.0  0.0978
  C  C58  1  0.663400  0.959500  0.302600  1.0  -0.1311
  C  C59  1  0.561100  0.881400  0.264400  1.0  -0.0641
  C  C60  1  0.559900  0.866100  0.173100  1.0  0.0148
  C  C61  1  0.658500  0.932200  0.119100  1.0  0.1375
  C  C62  1  0.897200  0.098500  0.277200  1.0  0.6122
  C  C63  1  0.648400  0.975900  0.404200  1.0  0.7203
  C  C64  1  0.450600  0.782100  0.130300  1.0  -0.0922
  C  C65  1  0.411400  0.699700  0.185400  1.0  -0.2927
  C  C66  1  0.221800  0.257000  0.069700  1.0  0.2126
  C  C67  1  0.335800  0.336100  0.052300  1.0  -0.233
  C  C68  1  0.299600  0.406600  0.001000  1.0  0.1468
  C  C69  1  0.140900  0.392400  0.964600  1.0  -0.2349
  C  C70  1  0.031900  0.313000  0.985200  1.0  0.1815
  C  C71  1  0.416500  0.498100  0.978600  1.0  -0.1819
  C  C72  1  0.735600  0.980800  0.744900  1.0  0.0973
  C  C73  1  0.836600  0.040500  0.802600  1.0  -0.1313
  C  C74  1  0.938900  0.118600  0.764400  1.0  -0.0631
  C  C75  1  0.940100  0.133900  0.673100  1.0  0.0152
  C  C76  1  0.841500  0.067800  0.619100  1.0  0.1384
  C  C77  1  0.602800  0.901500  0.777200  1.0  0.6123
  C  C78  1  0.851600  0.024100  0.904200  1.0  0.7207
  C  C79  1  0.049400  0.217900  0.630300  1.0  -0.0932
  C  C80  1  0.088600  0.300300  0.685400  1.0  -0.2924
  C  C81  1  0.278200  0.743000  0.569700  1.0  0.2118
  C  C82  1  0.164200  0.663900  0.552300  1.0  -0.2327
  C  C83  1  0.200400  0.593400  0.501000  1.0  0.1477
  C  C84  1  0.359100  0.607600  0.464600  1.0  -0.2329
  C  C85  1  0.468100  0.687000  0.485200  1.0  0.1823
  C  C86  1  0.083500  0.501900  0.478600  1.0  -0.1809
  C  C87  1  0.235600  0.980800  0.755100  1.0  0.0973
  C  C88  1  0.336600  0.040500  0.697400  1.0  -0.1327
  C  C89  1  0.438900  0.118600  0.735600  1.0  -0.0631
  C  C90  1  0.440100  0.133900  0.826900  1.0  0.0151
  C  C91  1  0.341500  0.067800  0.880900  1.0  0.1373
  C  C92  1  0.102800  0.901500  0.722800  1.0  0.6119
  C  C93  1  0.351600  0.024100  0.595800  1.0  0.7201
  C  C94  1  0.549400  0.217900  0.869700  1.0  -0.0905
  C  C95  1  0.588600  0.300300  0.814600  1.0  -0.2923
  C  C96  1  0.778200  0.743000  0.930300  1.0  0.2112
  C  C97  1  0.664200  0.663900  0.947700  1.0  -0.2327
  C  C98  1  0.700400  0.593400  0.999000  1.0  0.1472
  C  C99  1  0.859100  0.607600  0.035400  1.0  -0.2328
  C  C100  1  0.968100  0.687000  0.014800  1.0  0.1828
  C  C101  1  0.583500  0.501900  0.021400  1.0  -0.1824
  C  C102  1  0.264400  0.019200  0.255100  1.0  0.0976
  C  C103  1  0.163400  0.959500  0.197400  1.0  -0.1321
  C  C104  1  0.061100  0.881400  0.235600  1.0  -0.0639
  C  C105  1  0.059900  0.866100  0.326900  1.0  0.0144
  C  C106  1  0.158500  0.932200  0.380900  1.0  0.1373
  C  C107  1  0.397200  0.098500  0.222800  1.0  0.6117
  C  C108  1  0.148400  0.975900  0.095800  1.0  0.7198
  C  C109  1  0.950600  0.782100  0.369700  1.0  -0.0916
  C  C110  1  0.911400  0.699700  0.314600  1.0  -0.2918
  C  C111  1  0.721800  0.257000  0.430300  1.0  0.2114
  C  C112  1  0.835800  0.336100  0.447700  1.0  -0.2338
  C  C113  1  0.799600  0.406600  0.499000  1.0  0.1463
  C  C114  1  0.640900  0.392400  0.535400  1.0  -0.2348
  C  C115  1  0.531900  0.313000  0.514800  1.0  0.1821
  C  C116  1  0.916500  0.498100  0.521400  1.0  -0.1829
  N  N117  1  0.762300  0.006400  0.153200  1.0  -0.3602
  N  N118  1  0.069800  0.244000  0.036900  1.0  -0.355
  N  N119  1  0.737700  0.993600  0.653200  1.0  -0.3591
  N  N120  1  0.430200  0.756000  0.536900  1.0  -0.3563
  N  N121  1  0.237700  0.993600  0.846800  1.0  -0.3587
  N  N122  1  0.930200  0.756000  0.963100  1.0  -0.3558
  N  N123  1  0.262300  0.006400  0.346800  1.0  -0.3605
  N  N124  1  0.569800  0.244000  0.463100  1.0  -0.3558
  O  O125  1  0.959000  0.157600  0.217100  1.0  -0.6088
  O  O126  1  0.934900  0.099800  0.357800  1.0  -0.5541
  O  O127  1  0.606600  0.050100  0.429400  1.0  -0.5852
  O  O128  1  0.673500  0.909000  0.452400  1.0  -0.5873
  O  O129  1  0.541000  0.842400  0.717100  1.0  -0.6123
  O  O130  1  0.565100  0.900200  0.857800  1.0  -0.5528
  O  O131  1  0.893400  0.949900  0.929400  1.0  -0.5851
  O  O132  1  0.826500  0.091000  0.952400  1.0  -0.5879
  O  O133  1  0.041000  0.842400  0.782900  1.0  -0.6125
  O  O134  1  0.065100  0.900200  0.642200  1.0  -0.5543
  O  O135  1  0.393400  0.949900  0.570600  1.0  -0.585
  O  O136  1  0.326500  0.091000  0.547600  1.0  -0.5875
  O  O137  1  0.459000  0.157600  0.282900  1.0  -0.6097
  O  O138  1  0.434900  0.099800  0.142200  1.0  -0.5542
  O  O139  1  0.106600  0.050100  0.070600  1.0  -0.5849
  O  O140  1  0.173500  0.909000  0.047600  1.0  -0.5874
