# generated using pymatgen
data_EuH6(C2O)6
_symmetry_space_group_name_H-M   'P 1'
_cell_length_a   8.61300000
_cell_length_b   10.12200000
_cell_length_c   11.09500000
_cell_angle_alpha   65.20500000
_cell_angle_beta   71.60900000
_cell_angle_gamma   78.61700000
_symmetry_Int_Tables_number   1
_chemical_formula_structural   EuH6(C2O)6
_chemical_formula_sum   'Eu2 H12 C24 O12'
_cell_volume   830.87414607
_cell_formula_units_Z   2
loop_
 _symmetry_equiv_pos_site_id
 _symmetry_equiv_pos_as_xyz
  1  'x, y, z'
loop_
 _atom_site_type_symbol
 _atom_site_label
 _atom_site_symmetry_multiplicity
 _atom_site_fract_x
 _atom_site_fract_y
 _atom_site_fract_z
 _atom_site_occupancy
 _atom_site_charge
  Eu  Eu1  1  0.367820  0.060610  0.346740  1.0  2.0731
  Eu  Eu2  1  0.632180  0.939390  0.653260  1.0  2.073
  H  H3  1  0.575900  0.716900  0.317600  1.0  0.1132
  H  H4  1  0.491500  0.473200  0.717000  1.0  0.0969
  H  H5  1  0.957700  0.148400  0.120400  1.0  0.0848
  H  H6  1  0.784700  0.879400  0.020000  1.0  0.1017
  H  H7  1  0.270500  0.434500  0.915700  1.0  0.108
  H  H8  1  0.866300  0.385900  0.229000  1.0  0.1026
  H  H9  1  0.424100  0.283100  0.682400  1.0  0.1129
  H  H10  1  0.508500  0.526800  0.283000  1.0  0.0969
  H  H11  1  0.042300  0.851600  0.879600  1.0  0.0848
  H  H12  1  0.215300  0.120600  0.980000  1.0  0.1014
  H  H13  1  0.729500  0.565500  0.084300  1.0  0.1085
  H  H14  1  0.133700  0.614100  0.771000  1.0  0.1019
  C  C15  1  0.571400  0.735300  0.549600  1.0  0.6932
  C  C16  1  0.531100  0.613500  0.524000  1.0  -0.0839
  C  C17  1  0.543600  0.630500  0.391500  1.0  -0.1125
  C  C18  1  0.493100  0.485000  0.628800  1.0  -0.0541
  C  C19  1  0.679000  0.041100  0.167900  1.0  0.6865
  C  C20  1  0.845400  0.017800  0.082000  1.0  -0.131
  C  C21  1  0.974900  0.089100  0.071400  1.0  -0.0462
  C  C22  1  0.870700  0.928200  0.011800  1.0  -0.0308
  C  C23  1  0.174200  0.266400  0.182600  1.0  0.6769
  C  C24  1  0.082000  0.388400  0.087800  1.0  -0.1096
  C  C25  1  0.160800  0.460800  0.949400  1.0  -0.0293
  C  C26  1  0.920000  0.431300  0.136600  1.0  -0.0633
  C  C27  1  0.428600  0.264700  0.450400  1.0  0.6942
  C  C28  1  0.468900  0.386500  0.476000  1.0  -0.0836
  C  C29  1  0.456400  0.369500  0.608500  1.0  -0.1136
  C  C30  1  0.506900  0.515000  0.371200  1.0  -0.0557
  C  C31  1  0.321000  0.958900  0.832100  1.0  0.6872
  C  C32  1  0.154600  0.982200  0.918000  1.0  -0.1305
  C  C33  1  0.025100  0.910900  0.928600  1.0  -0.0465
  C  C34  1  0.129300  0.071800  0.988200  1.0  -0.0314
  C  C35  1  0.825800  0.733600  0.817400  1.0  0.6755
  C  C36  1  0.918000  0.611600  0.912200  1.0  -0.1111
  C  C37  1  0.839200  0.539200  0.050600  1.0  -0.0301
  C  C38  1  0.080000  0.568700  0.863400  1.0  -0.0625
  O  O39  1  0.536800  0.868200  0.478000  1.0  -0.837
  O  O40  1  0.633800  0.703600  0.646400  1.0  -0.6151
  O  O41  1  0.655700  0.120600  0.234700  1.0  -0.6793
  O  O42  1  0.563200  0.975200  0.176200  1.0  -0.6688
  O  O43  1  0.101200  0.201200  0.304100  1.0  -0.6446
  O  O44  1  0.322000  0.235400  0.130900  1.0  -0.6332
  O  O45  1  0.463200  0.131800  0.522000  1.0  -0.8361
  O  O46  1  0.366200  0.296400  0.353600  1.0  -0.617
  O  O47  1  0.344300  0.879400  0.765300  1.0  -0.677
  O  O48  1  0.436800  0.024800  0.823800  1.0  -0.6673
  O  O49  1  0.898800  0.798800  0.695900  1.0  -0.6407
  O  O50  1  0.678000  0.764600  0.869100  1.0  -0.6312
