# generated using pymatgen
data_EuH6(C2O)6
_symmetry_space_group_name_H-M   'P 1'
_cell_length_a   8.62000000
_cell_length_b   10.23800000
_cell_length_c   11.07500000
_cell_angle_alpha   64.03000000
_cell_angle_beta   71.59000000
_cell_angle_gamma   80.34000000
_symmetry_Int_Tables_number   1
_chemical_formula_structural   EuH6(C2O)6
_chemical_formula_sum   'Eu2 H12 C24 O12'
_cell_volume   833.22333786
_cell_formula_units_Z   2
loop_
 _symmetry_equiv_pos_site_id
 _symmetry_equiv_pos_as_xyz
  1  'x, y, z'
loop_
 _atom_site_type_symbol
 _atom_site_label
 _atom_site_symmetry_multiplicity
 _atom_site_fract_x
 _atom_site_fract_y
 _atom_site_fract_z
 _atom_site_occupancy
 _atom_site_charge
  Eu  Eu1  1  0.868840  0.562600  0.844950  1.0  2.1008
  Eu  Eu2  1  0.131160  0.437400  0.155050  1.0  2.1003
  H  H3  1  0.947900  0.768000  0.182600  1.0  0.1037
  H  H4  1  0.000500  0.039400  0.775200  1.0  0.0995
  H  H5  1  0.460500  0.653300  0.614000  1.0  0.0805
  H  H6  1  0.278000  0.381900  0.516500  1.0  0.0942
  H  H7  1  0.774200  0.945400  0.412500  1.0  0.0977
  H  H8  1  0.366500  0.872100  0.736800  1.0  0.1056
  H  H9  1  0.052100  0.232000  0.817400  1.0  0.1047
  H  H10  1  0.999500  0.960600  0.224800  1.0  0.1028
  H  H11  1  0.539500  0.346700  0.386000  1.0  0.0814
  H  H12  1  0.722000  0.618100  0.483500  1.0  0.0942
  H  H13  1  0.225800  0.054600  0.587500  1.0  0.0977
  H  H14  1  0.633500  0.127900  0.263200  1.0  0.1059
  C  C15  1  0.970000  0.886700  0.975000  1.0  -0.0993
  C  C16  1  0.969000  0.861900  0.108600  1.0  -0.0603
  C  C17  1  0.000400  0.023600  0.866400  1.0  -0.0495
  C  C18  1  0.936500  0.765200  0.945800  1.0  0.7115
  C  C19  1  0.343800  0.520200  0.579200  1.0  -0.1213
  C  C20  1  0.477000  0.590800  0.567700  1.0  -0.0542
  C  C21  1  0.367800  0.429500  0.510100  1.0  -0.0564
  C  C22  1  0.178200  0.544200  0.662500  1.0  0.6538
  C  C23  1  0.584100  0.890100  0.587200  1.0  -0.1199
  C  C24  1  0.662100  0.967200  0.448200  1.0  -0.0498
  C  C25  1  0.420800  0.923300  0.640900  1.0  -0.0743
  C  C26  1  0.676700  0.770000  0.679400  1.0  0.6656
  C  C27  1  0.030000  0.113300  0.025000  1.0  -0.099
  C  C28  1  0.031000  0.138100  0.891400  1.0  -0.0578
  C  C29  1  0.999600  0.976400  0.133600  1.0  -0.0492
  C  C30  1  0.063500  0.234800  0.054200  1.0  0.7108
  C  C31  1  0.656200  0.479800  0.420800  1.0  -0.1215
  C  C32  1  0.523000  0.409200  0.432300  1.0  -0.054
  C  C33  1  0.632200  0.570500  0.489900  1.0  -0.0568
  C  C34  1  0.821800  0.455800  0.337500  1.0  0.6552
  C  C35  1  0.415900  0.109900  0.412800  1.0  -0.1186
  C  C36  1  0.337900  0.032800  0.551800  1.0  -0.0506
  C  C37  1  0.579200  0.076700  0.359100  1.0  -0.076
  C  C38  1  0.323300  0.230000  0.320600  1.0  0.6653
  O  O39  1  0.969300  0.633500  0.017800  1.0  -0.8365
  O  O40  1  0.876600  0.798400  0.845800  1.0  -0.6306
  O  O41  1  0.158800  0.624200  0.728700  1.0  -0.604
  O  O42  1  0.056900  0.484000  0.669000  1.0  -0.661
  O  O43  1  0.821600  0.741500  0.625700  1.0  -0.6563
  O  O44  1  0.606200  0.697900  0.806100  1.0  -0.6453
  O  O45  1  0.030700  0.366500  0.982200  1.0  -0.8388
  O  O46  1  0.123400  0.201600  0.154200  1.0  -0.6315
  O  O47  1  0.841200  0.375800  0.271300  1.0  -0.6025
  O  O48  1  0.943100  0.516000  0.331000  1.0  -0.6609
  O  O49  1  0.178400  0.258500  0.374300  1.0  -0.655
  O  O50  1  0.393800  0.302100  0.193900  1.0  -0.6403
