# generated using pymatgen
data_Co2H18C22N2O7
_symmetry_space_group_name_H-M   'P 1'
_cell_length_a   13.71710000
_cell_length_b   13.71710000
_cell_length_c   14.81300000
_cell_angle_alpha   89.75860000
_cell_angle_beta   89.75860000
_cell_angle_gamma   82.05030000
_symmetry_Int_Tables_number   1
_chemical_formula_structural   Co2H18C22N2O7
_chemical_formula_sum   'Co8 H72 C88 N8 O28'
_cell_volume   2760.36840617
_cell_formula_units_Z   4
loop_
 _symmetry_equiv_pos_site_id
 _symmetry_equiv_pos_as_xyz
  1  'x, y, z'
loop_
 _atom_site_type_symbol
 _atom_site_label
 _atom_site_symmetry_multiplicity
 _atom_site_fract_x
 _atom_site_fract_y
 _atom_site_fract_z
 _atom_site_occupancy
 _atom_site_charge
  Co  Co1  1  0.447930  0.293910  0.038920  1.0  0.9791
  Co  Co2  1  0.457860  0.475840  0.909610  1.0  1.1022
  Co  Co3  1  0.706090  0.552070  0.461080  1.0  0.9877
  Co  Co4  1  0.524160  0.542140  0.590390  1.0  1.099
  Co  Co5  1  0.552070  0.706090  0.961080  1.0  0.9888
  Co  Co6  1  0.542140  0.524160  0.090390  1.0  1.0977
  Co  Co7  1  0.293910  0.447930  0.538920  1.0  0.9783
  Co  Co8  1  0.475840  0.457860  0.409610  1.0  1.099
  H  H9  1  0.586500  0.363500  0.989000  1.0  0.4495
  H  H10  1  0.076700  0.451300  0.311100  1.0  0.0833
  H  H11  1  0.987500  0.454500  0.179800  1.0  0.1189
  H  H12  1  0.067600  0.452600  0.041400  1.0  0.1019
  H  H13  1  0.537300  0.084300  0.992500  1.0  0.0726
  H  H14  1  0.654500  0.960300  0.036900  1.0  0.1176
  H  H15  1  0.744700  0.143500  0.216300  1.0  0.1086
  H  H16  1  0.629200  0.267600  0.161100  1.0  0.0859
  H  H17  1  0.744900  0.898500  0.192600  1.0  0.0989
  H  H18  1  0.820200  0.915800  0.116500  1.0  0.0955
  H  H19  1  0.818500  0.992300  0.290200  1.0  0.0736
  H  H20  1  0.889300  0.020300  0.213800  1.0  0.0659
  H  H21  1  0.979600  0.900600  0.295400  1.0  0.0944
  H  H22  1  0.956500  0.850900  0.204500  1.0  0.0936
  H  H23  1  0.916700  0.690300  0.222700  1.0  0.1269
  H  H24  1  0.844200  0.573400  0.303000  1.0  0.0779
  H  H25  1  0.771400  0.759000  0.496400  1.0  0.0785
  H  H26  1  0.838100  0.881300  0.418300  1.0  0.1236
  H  H27  1  0.636500  0.413500  0.511000  1.0  0.4517
  H  H28  1  0.548700  0.923300  0.188900  1.0  0.0835
  H  H29  1  0.545500  0.012500  0.320200  1.0  0.1168
  H  H30  1  0.547400  0.932400  0.458600  1.0  0.1016
  H  H31  1  0.915700  0.462700  0.507500  1.0  0.073
  H  H32  1  0.039700  0.345500  0.463100  1.0  0.1171
  H  H33  1  0.856500  0.255300  0.283700  1.0  0.1098
  H  H34  1  0.732400  0.370800  0.338900  1.0  0.0863
  H  H35  1  0.101500  0.255100  0.307400  1.0  0.0993
  H  H36  1  0.084200  0.179800  0.383500  1.0  0.0984
  H  H37  1  0.007700  0.181500  0.209800  1.0  0.0757
  H  H38  1  0.979700  0.110700  0.286200  1.0  0.0651
  H  H39  1  0.099400  0.020400  0.204600  1.0  0.0958
  H  H40  1  0.149100  0.043500  0.295500  1.0  0.0931
  H  H41  1  0.309700  0.083300  0.277300  1.0  0.1267
  H  H42  1  0.426600  0.155800  0.197000  1.0  0.0782
  H  H43  1  0.241000  0.228600  0.003600  1.0  0.0806
  H  H44  1  0.118700  0.161900  0.081700  1.0  0.1249
  H  H45  1  0.413500  0.636500  0.011000  1.0  0.45
  H  H46  1  0.923300  0.548700  0.688900  1.0  0.083
  H  H47  1  0.012500  0.545500  0.820200  1.0  0.1189
  H  H48  1  0.932400  0.547400  0.958600  1.0  0.1018
  H  H49  1  0.462700  0.915700  0.007500  1.0  0.0699
  H  H50  1  0.345500  0.039700  0.963100  1.0  0.1177
  H  H51  1  0.255300  0.856500  0.783700  1.0  0.1086
  H  H52  1  0.370800  0.732400  0.838900  1.0  0.0858
  H  H53  1  0.255100  0.101500  0.807400  1.0  0.0982
  H  H54  1  0.179800  0.084200  0.883500  1.0  0.098
  H  H55  1  0.181500  0.007700  0.709800  1.0  0.0739
  H  H56  1  0.110700  0.979700  0.786200  1.0  0.065
  H  H57  1  0.020400  0.099400  0.704600  1.0  0.0943
  H  H58  1  0.043500  0.149100  0.795500  1.0  0.0948
  H  H59  1  0.083300  0.309700  0.777300  1.0  0.1264
  H  H60  1  0.155800  0.426600  0.697000  1.0  0.0774
  H  H61  1  0.228600  0.241000  0.503600  1.0  0.0799
  H  H62  1  0.161900  0.118700  0.581700  1.0  0.1237
  H  H63  1  0.363500  0.586500  0.489000  1.0  0.4505
  H  H64  1  0.451300  0.076700  0.811100  1.0  0.0837
  H  H65  1  0.454500  0.987500  0.679800  1.0  0.1176
  H  H66  1  0.452600  0.067600  0.541400  1.0  0.1016
  H  H67  1  0.084300  0.537300  0.492500  1.0  0.0702
  H  H68  1  0.960300  0.654500  0.536900  1.0  0.1173
  H  H69  1  0.143500  0.744700  0.716300  1.0  0.1094
  H  H70  1  0.267600  0.629200  0.661100  1.0  0.0862
  H  H71  1  0.898500  0.744900  0.692600  1.0  0.1
  H  H72  1  0.915800  0.820200  0.616500  1.0  0.0965
  H  H73  1  0.992300  0.818500  0.790200  1.0  0.074
  H  H74  1  0.020300  0.889300  0.713800  1.0  0.0653
  H  H75  1  0.900600  0.979600  0.795400  1.0  0.0957
  H  H76  1  0.850900  0.956500  0.704500  1.0  0.0926
  H  H77  1  0.690300  0.916700  0.722700  1.0  0.127
  H  H78  1  0.573400  0.844200  0.803000  1.0  0.0783
  H  H79  1  0.759000  0.771400  0.996400  1.0  0.0801
  H  H80  1  0.881300  0.838100  0.918300  1.0  0.1256
  C  C81  1  0.206000  0.445800  0.090100  1.0  -0.1558
  C  C82  1  0.260300  0.442100  0.170400  1.0  0.0058
  C  C83  1  0.211500  0.444500  0.253300  1.0  -0.1498
  C  C84  1  0.109100  0.449500  0.255700  1.0  -0.0401
  C  C85  1  0.055600  0.452000  0.177500  1.0  -0.1439
  C  C86  1  0.103900  0.450500  0.094500  1.0  -0.041
  C  C87  1  0.252600  0.451400  0.999000  1.0  0.7072
  C  C88  1  0.371900  0.439100  0.163100  1.0  0.6642
  C  C89  1  0.267500  0.446700  0.339400  1.0  0.6792
  C  C90  1  0.580000  0.096600  0.038500  1.0  0.1771
  C  C91  1  0.649700  0.021300  0.065000  1.0  -0.2199
  C  C92  1  0.712400  0.036200  0.133100  1.0  0.1445
  C  C93  1  0.703200  0.130200  0.169900  1.0  -0.2219
  C  C94  1  0.632300  0.204500  0.137700  1.0  0.1791
  C  C95  1  0.783700  0.946300  0.167700  1.0  -0.1863
  C  C96  1  0.854000  0.968400  0.236100  1.0  -0.0865
  C  C97  1  0.927300  0.879300  0.259800  1.0  -0.1845
  C  C98  1  0.883700  0.799500  0.312300  1.0  0.1537
  C  C99  1  0.886400  0.706600  0.278000  1.0  -0.2217
  C  C100  1  0.843000  0.636000  0.327300  1.0  0.187
  C  C101  1  0.799900  0.744500  0.440100  1.0  0.17
  C  C102  1  0.840800  0.819000  0.393200  1.0  -0.2285
  C  C103  1  0.554200  0.794000  0.409900  1.0  -0.1573
  C  C104  1  0.557900  0.739700  0.329600  1.0  0.005
  C  C105  1  0.555500  0.788500  0.246700  1.0  -0.1504
  C  C106  1  0.550500  0.890900  0.244300  1.0  -0.0392
  C  C107  1  0.548000  0.944400  0.322500  1.0  -0.1393
  C  C108  1  0.549500  0.896100  0.405500  1.0  -0.0412
  C  C109  1  0.548600  0.747400  0.501000  1.0  0.7067
  C  C110  1  0.560900  0.628100  0.336900  1.0  0.6662
  C  C111  1  0.553300  0.732500  0.160600  1.0  0.6811
  C  C112  1  0.903400  0.420000  0.461500  1.0  0.1769
  C  C113  1  0.978700  0.350300  0.435000  1.0  -0.2203
  C  C114  1  0.963800  0.287600  0.366900  1.0  0.1438
  C  C115  1  0.869800  0.296800  0.330100  1.0  -0.2207
  C  C116  1  0.795500  0.367700  0.362300  1.0  0.1802
  C  C117  1  0.053700  0.216300  0.332300  1.0  -0.187
  C  C118  1  0.031600  0.146000  0.263900  1.0  -0.0832
  C  C119  1  0.120700  0.072700  0.240200  1.0  -0.1869
  C  C120  1  0.200500  0.116300  0.187700  1.0  0.1516
  C  C121  1  0.293400  0.113600  0.222000  1.0  -0.2195
  C  C122  1  0.364000  0.157000  0.172700  1.0  0.1826
  C  C123  1  0.255500  0.200100  0.059900  1.0  0.17
  C  C124  1  0.181000  0.159200  0.106800  1.0  -0.231
  C  C125  1  0.794000  0.554200  0.909900  1.0  -0.1571
  C  C126  1  0.739700  0.557900  0.829600  1.0  0.0059
  C  C127  1  0.788500  0.555500  0.746700  1.0  -0.1505
  C  C128  1  0.890900  0.550500  0.744300  1.0  -0.0424
  C  C129  1  0.944400  0.548000  0.822500  1.0  -0.1433
  C  C130  1  0.896100  0.549500  0.905500  1.0  -0.0416
  C  C131  1  0.747400  0.548600  0.001000  1.0  0.7049
  C  C132  1  0.628100  0.560900  0.836900  1.0  0.6635
  C  C133  1  0.732500  0.553300  0.660600  1.0  0.6798
  C  C134  1  0.420000  0.903400  0.961500  1.0  0.177
  C  C135  1  0.350300  0.978700  0.935000  1.0  -0.2201
  C  C136  1  0.287600  0.963800  0.866900  1.0  0.1433
  C  C137  1  0.296800  0.869800  0.830100  1.0  -0.2218
  C  C138  1  0.367700  0.795500  0.862300  1.0  0.1784
  C  C139  1  0.216300  0.053700  0.832300  1.0  -0.1865
  C  C140  1  0.146000  0.031600  0.763900  1.0  -0.0872
  C  C141  1  0.072700  0.120700  0.740200  1.0  -0.1854
  C  C142  1  0.116300  0.200500  0.687700  1.0  0.152
  C  C143  1  0.113600  0.293400  0.722000  1.0  -0.2197
  C  C144  1  0.157000  0.364000  0.672700  1.0  0.1852
  C  C145  1  0.200100  0.255500  0.559900  1.0  0.1694
  C  C146  1  0.159200  0.181000  0.606800  1.0  -0.2313
  C  C147  1  0.445800  0.206000  0.590100  1.0  -0.1551
  C  C148  1  0.442100  0.260300  0.670400  1.0  0.0066
  C  C149  1  0.444500  0.211500  0.753300  1.0  -0.1494
  C  C150  1  0.449500  0.109100  0.755700  1.0  -0.0382
  C  C151  1  0.452000  0.055600  0.677500  1.0  -0.1383
  C  C152  1  0.450500  0.103900  0.594500  1.0  -0.0416
  C  C153  1  0.451400  0.252600  0.499000  1.0  0.7086
  C  C154  1  0.439100  0.371900  0.663100  1.0  0.6658
  C  C155  1  0.446700  0.267500  0.839400  1.0  0.6812
  C  C156  1  0.096600  0.580000  0.538500  1.0  0.1773
  C  C157  1  0.021300  0.649700  0.565000  1.0  -0.2206
  C  C158  1  0.036200  0.712400  0.633100  1.0  0.1458
  C  C159  1  0.130200  0.703200  0.669900  1.0  -0.2211
  C  C160  1  0.204500  0.632300  0.637700  1.0  0.1788
  C  C161  1  0.946300  0.783700  0.667700  1.0  -0.1899
  C  C162  1  0.968400  0.854000  0.736100  1.0  -0.0828
  C  C163  1  0.879300  0.927300  0.759800  1.0  -0.1887
  C  C164  1  0.799500  0.883700  0.812300  1.0  0.1506
  C  C165  1  0.706600  0.886400  0.778000  1.0  -0.2195
  C  C166  1  0.636000  0.843000  0.827300  1.0  0.1847
  C  C167  1  0.744500  0.799900  0.940100  1.0  0.1704
  C  C168  1  0.819000  0.840800  0.893200  1.0  -0.2321
  N  N169  1  0.568900  0.187300  0.074400  1.0  -0.3682
  N  N170  1  0.800300  0.654900  0.407100  1.0  -0.3578
  N  N171  1  0.812700  0.431100  0.425600  1.0  -0.3662
  N  N172  1  0.345100  0.199700  0.092900  1.0  -0.358
  N  N173  1  0.431100  0.812700  0.925600  1.0  -0.3667
  N  N174  1  0.199700  0.345100  0.592900  1.0  -0.3574
  N  N175  1  0.187300  0.568900  0.574400  1.0  -0.3666
  N  N176  1  0.654900  0.800300  0.907100  1.0  -0.3583
  O  O177  1  0.538250  0.399310  0.013000  1.0  -0.9822
  O  O178  1  0.342970  0.416170  0.990500  1.0  -0.6883
  O  O179  1  0.201800  0.491200  0.936400  1.0  -0.5953
  O  O180  1  0.424520  0.355340  0.168300  1.0  -0.6247
  O  O181  1  0.402880  0.518680  0.148800  1.0  -0.5601
  O  O182  1  0.355600  0.460000  0.330500  1.0  -0.5701
  O  O183  1  0.224780  0.438180  0.414600  1.0  -0.5943
  O  O184  1  0.600690  0.461750  0.487000  1.0  -0.9832
  O  O185  1  0.583830  0.657030  0.509500  1.0  -0.6877
  O  O186  1  0.508800  0.798200  0.563600  1.0  -0.5981
  O  O187  1  0.644660  0.575480  0.331700  1.0  -0.6278
  O  O188  1  0.481320  0.597120  0.351200  1.0  -0.5561
  O  O189  1  0.540000  0.644400  0.169500  1.0  -0.5701
  O  O190  1  0.561820  0.775220  0.085400  1.0  -0.5924
  O  O191  1  0.461750  0.600690  0.987000  1.0  -0.9829
  O  O192  1  0.657030  0.583830  0.009500  1.0  -0.6869
  O  O193  1  0.798200  0.508800  0.063600  1.0  -0.595
  O  O194  1  0.575480  0.644660  0.831700  1.0  -0.6281
  O  O195  1  0.597120  0.481320  0.851200  1.0  -0.557
  O  O196  1  0.644400  0.540000  0.669500  1.0  -0.5709
  O  O197  1  0.775220  0.561820  0.585400  1.0  -0.5925
  O  O198  1  0.399310  0.538250  0.513000  1.0  -0.9832
  O  O199  1  0.416170  0.342970  0.490500  1.0  -0.6871
  O  O200  1  0.491200  0.201800  0.436400  1.0  -0.5957
  O  O201  1  0.355340  0.424520  0.668300  1.0  -0.6263
  O  O202  1  0.518680  0.402880  0.648800  1.0  -0.5571
  O  O203  1  0.460000  0.355600  0.830500  1.0  -0.5697
  O  O204  1  0.438180  0.224780  0.914600  1.0  -0.5942
