# generated using pymatgen
data_SmCu3H12C18Br3(NO2)3
_symmetry_space_group_name_H-M   'P 1'
_cell_length_a   9.85100000
_cell_length_b   14.82200000
_cell_length_c   20.23300000
_cell_angle_alpha   73.44800000
_cell_angle_beta   82.98700000
_cell_angle_gamma   77.72100000
_symmetry_Int_Tables_number   1
_chemical_formula_structural   SmCu3H12C18Br3(NO2)3
_chemical_formula_sum   'Sm4 Cu12 H48 C72 Br12 N12 O24'
_cell_volume   2761.07677278
_cell_formula_units_Z   4
loop_
 _symmetry_equiv_pos_site_id
 _symmetry_equiv_pos_as_xyz
  1  'x, y, z'
loop_
 _atom_site_type_symbol
 _atom_site_label
 _atom_site_symmetry_multiplicity
 _atom_site_fract_x
 _atom_site_fract_y
 _atom_site_fract_z
 _atom_site_occupancy
 _atom_site_charge
  Sm  Sm1  1  0.336270  0.047010  0.811610  1.0  2.3095
  Sm  Sm2  1  0.870430  0.052200  0.796660  1.0  2.3504
  Sm  Sm3  1  0.663730  0.952990  0.188390  1.0  2.3091
  Sm  Sm4  1  0.129570  0.947800  0.203340  1.0  2.3504
  Cu  Cu5  1  0.671790  0.496980  0.885380  1.0  0.2348
  Cu  Cu6  1  0.406380  0.512790  0.947020  1.0  0.1964
  Cu  Cu7  1  0.258930  0.560950  0.658590  1.0  0.1754
  Cu  Cu8  1  0.901640  0.400140  0.446650  1.0  0.1953
  Cu  Cu9  1  0.226120  0.743450  0.571540  1.0  0.2015
  Cu  Cu10  1  0.014600  0.668650  0.672920  1.0  0.1854
  Cu  Cu11  1  0.328210  0.503020  0.114620  1.0  0.2342
  Cu  Cu12  1  0.593620  0.487210  0.052980  1.0  0.1966
  Cu  Cu13  1  0.741070  0.439050  0.341410  1.0  0.1776
  Cu  Cu14  1  0.098360  0.599860  0.553350  1.0  0.1955
  Cu  Cu15  1  0.773880  0.256550  0.428460  1.0  0.2045
  Cu  Cu16  1  0.985400  0.331350  0.327080  1.0  0.1851
  H  H17  1  0.960000  0.544000  0.855500  1.0  0.0743
  H  H18  1  0.183100  0.466600  0.846700  1.0  0.1148
  H  H19  1  0.229300  0.302800  0.853600  1.0  0.1102
  H  H20  1  0.818800  0.313400  0.864200  1.0  0.0823
  H  H21  1  0.104300  0.537200  0.973300  1.0  0.0592
  H  H22  1  0.908800  0.650100  0.963400  1.0  0.1171
  H  H23  1  0.925900  0.811400  0.920000  1.0  0.1146
  H  H24  1  0.339000  0.727100  0.910700  1.0  0.0738
  H  H25  1  0.353200  0.353900  0.721900  1.0  0.0692
  H  H26  1  0.768100  0.300900  0.720000  1.0  0.1153
  H  H27  1  0.764700  0.457300  0.654300  1.0  0.1115
  H  H28  1  0.558100  0.556000  0.623600  1.0  0.0801
  H  H29  1  0.930500  0.281400  0.587300  1.0  0.0724
  H  H30  1  0.319600  0.248800  0.641400  1.0  0.1072
  H  H31  1  0.357700  0.368500  0.540600  1.0  0.1186
  H  H32  1  0.187100  0.432600  0.466000  1.0  0.0727
  H  H33  1  0.504700  0.789300  0.504600  1.0  0.0676
  H  H34  1  0.668700  0.872700  0.515700  1.0  0.1258
  H  H35  1  0.624900  0.958200  0.597800  1.0  0.1034
  H  H36  1  0.256300  0.878300  0.645800  1.0  0.0785
  H  H37  1  0.882100  0.801200  0.755200  1.0  0.0706
  H  H38  1  0.477200  0.788000  0.796600  1.0  0.1149
  H  H39  1  0.517500  0.660700  0.746200  1.0  0.1114
  H  H40  1  0.736000  0.605800  0.705800  1.0  0.07
  H  H41  1  0.040000  0.456000  0.144500  1.0  0.0743
  H  H42  1  0.816900  0.533400  0.153300  1.0  0.115
  H  H43  1  0.770700  0.697200  0.146400  1.0  0.1104
  H  H44  1  0.181200  0.686600  0.135800  1.0  0.0827
  H  H45  1  0.895700  0.462800  0.026700  1.0  0.06
  H  H46  1  0.091200  0.349900  0.036600  1.0  0.1189
  H  H47  1  0.074100  0.188600  0.080000  1.0  0.1146
  H  H48  1  0.661000  0.272900  0.089300  1.0  0.0734
  H  H49  1  0.646800  0.646100  0.278100  1.0  0.0691
  H  H50  1  0.231900  0.699100  0.280000  1.0  0.115
  H  H51  1  0.235300  0.542700  0.345700  1.0  0.1107
  H  H52  1  0.441900  0.444000  0.376400  1.0  0.0811
  H  H53  1  0.069500  0.718600  0.412700  1.0  0.0714
  H  H54  1  0.680400  0.751200  0.358600  1.0  0.1066
  H  H55  1  0.642300  0.631500  0.459400  1.0  0.1193
  H  H56  1  0.812900  0.567400  0.534000  1.0  0.0724
  H  H57  1  0.495300  0.210700  0.495400  1.0  0.0675
  H  H58  1  0.331300  0.127300  0.484300  1.0  0.1259
  H  H59  1  0.375100  0.041800  0.402200  1.0  0.1036
  H  H60  1  0.743700  0.121700  0.354200  1.0  0.079
  H  H61  1  0.117900  0.198800  0.244800  1.0  0.0712
  H  H62  1  0.522800  0.212000  0.203400  1.0  0.1154
  H  H63  1  0.482500  0.339300  0.253800  1.0  0.1117
  H  H64  1  0.264000  0.394200  0.294200  1.0  0.0698
  C  C65  1  0.976500  0.479600  0.856200  1.0  0.1603
  C  C66  1  0.110400  0.433500  0.851700  1.0  -0.1724
  C  C67  1  0.138200  0.336400  0.854800  1.0  0.0385
  C  C68  1  0.026700  0.291500  0.859600  1.0  -0.236
  C  C69  1  0.893200  0.343800  0.862100  1.0  0.1871
  C  C70  1  0.046100  0.187000  0.861000  1.0  0.7733
  C  C71  1  0.113800  0.601000  0.957300  1.0  0.1619
  C  C72  1  0.995300  0.668100  0.951100  1.0  -0.1759
  C  C73  1  0.005000  0.763600  0.926300  1.0  0.0334
  C  C74  1  0.135900  0.785200  0.911200  1.0  -0.2167
  C  C75  1  0.251000  0.711200  0.920400  1.0  0.1898
  C  C76  1  0.158200  0.886700  0.884800  1.0  0.7646
  C  C77  1  0.437400  0.374900  0.708700  1.0  0.1907
  C  C78  1  0.559100  0.310200  0.728000  1.0  -0.2237
  C  C79  1  0.684100  0.341800  0.707600  1.0  0.0472
  C  C80  1  0.681800  0.434800  0.668600  1.0  -0.1586
  C  C81  1  0.557500  0.494000  0.651100  1.0  0.159
  C  C82  1  0.552300  0.210300  0.771700  1.0  0.8101
  C  C83  1  0.018100  0.298000  0.577800  1.0  0.1927
  C  C84  1  0.117400  0.253700  0.625900  1.0  -0.2484
  C  C85  1  0.249200  0.278400  0.611300  1.0  0.0391
  C  C86  1  0.272500  0.348500  0.550700  1.0  -0.1815
  C  C87  1  0.169300  0.387000  0.506700  1.0  0.1688
  C  C88  1  0.082300  0.183900  0.690500  1.0  0.7761
  C  C89  1  0.485900  0.825100  0.536800  1.0  0.162
  C  C90  1  0.586000  0.874200  0.543300  1.0  -0.1455
  C  C91  1  0.559100  0.925100  0.591900  1.0  0.0341
  C  C92  1  0.436400  0.927700  0.631700  1.0  -0.1375
  C  C93  1  0.341000  0.876600  0.619800  1.0  0.1881
  C  C94  1  0.401800  0.977400  0.687400  1.0  0.6989
  C  C95  1  0.807400  0.772500  0.754000  1.0  0.1994
  C  C96  1  0.679700  0.807600  0.782200  1.0  -0.2492
  C  C97  1  0.565800  0.765600  0.779200  1.0  0.0288
  C  C98  1  0.590400  0.689900  0.749200  1.0  -0.1698
  C  C99  1  0.721500  0.658200  0.724200  1.0  0.1638
  C  C100  1  0.664000  0.890000  0.813000  1.0  0.8368
  C  C101  1  0.023500  0.520400  0.143800  1.0  0.1615
  C  C102  1  0.889600  0.566500  0.148300  1.0  -0.1734
  C  C103  1  0.861800  0.663600  0.145200  1.0  0.0387
  C  C104  1  0.973300  0.708500  0.140400  1.0  -0.2365
  C  C105  1  0.106800  0.656200  0.137900  1.0  0.1865
  C  C106  1  0.953900  0.813000  0.139000  1.0  0.7921
  C  C107  1  0.886200  0.399000  0.042700  1.0  0.1614
  C  C108  1  0.004700  0.331900  0.048900  1.0  -0.1732
  C  C109  1  0.995000  0.236400  0.073700  1.0  0.037
  C  C110  1  0.864100  0.214800  0.088800  1.0  -0.2173
  C  C111  1  0.749000  0.288800  0.079600  1.0  0.1892
  C  C112  1  0.841800  0.113300  0.115200  1.0  0.7543
  C  C113  1  0.562600  0.625100  0.291300  1.0  0.1896
  C  C114  1  0.440900  0.689800  0.272000  1.0  -0.2195
  C  C115  1  0.315900  0.658200  0.292400  1.0  0.0482
  C  C116  1  0.318200  0.565200  0.331400  1.0  -0.1582
  C  C117  1  0.442500  0.506000  0.348900  1.0  0.1593
  C  C118  1  0.447700  0.789700  0.228300  1.0  0.8157
  C  C119  1  0.981900  0.702000  0.422200  1.0  0.1932
  C  C120  1  0.882600  0.746300  0.374100  1.0  -0.2483
  C  C121  1  0.750800  0.721600  0.388700  1.0  0.0397
  C  C122  1  0.727500  0.651500  0.449300  1.0  -0.1821
  C  C123  1  0.830700  0.613000  0.493300  1.0  0.169
  C  C124  1  0.917700  0.816100  0.309500  1.0  0.7769
  C  C125  1  0.514100  0.174900  0.463200  1.0  0.1615
  C  C126  1  0.414000  0.125800  0.456700  1.0  -0.1404
  C  C127  1  0.440900  0.074900  0.408100  1.0  0.0341
  C  C128  1  0.563600  0.072300  0.368300  1.0  -0.1457
  C  C129  1  0.659000  0.123400  0.380200  1.0  0.1889
  C  C130  1  0.598200  0.022600  0.312600  1.0  0.6983
  C  C131  1  0.192600  0.227500  0.246000  1.0  0.2005
  C  C132  1  0.320300  0.192400  0.217800  1.0  -0.25
  C  C133  1  0.434200  0.234400  0.220800  1.0  0.0283
  C  C134  1  0.409600  0.310100  0.250800  1.0  -0.1694
  C  C135  1  0.278500  0.341800  0.275800  1.0  0.1642
  C  C136  1  0.336000  0.110000  0.187000  1.0  0.8345
  Br  Br137  1  0.497680  0.423100  0.864210  1.0  -0.3772
  Br  Br138  1  0.624270  0.616910  0.945080  1.0  -0.3494
  Br  Br139  1  0.037410  0.497130  0.662140  1.0  -0.304
  Br  Br140  1  0.216260  0.675640  0.727960  1.0  -0.3291
  Br  Br141  1  0.672710  0.373250  0.491800  1.0  -0.3419
  Br  Br142  1  0.982710  0.815190  0.563450  1.0  -0.4151
  Br  Br143  1  0.502320  0.576900  0.135790  1.0  -0.3758
  Br  Br144  1  0.375730  0.383090  0.054920  1.0  -0.3466
  Br  Br145  1  0.962590  0.502870  0.337860  1.0  -0.3028
  Br  Br146  1  0.783740  0.324360  0.272040  1.0  -0.3308
  Br  Br147  1  0.327290  0.626750  0.508200  1.0  -0.3419
  Br  Br148  1  0.017290  0.184810  0.436550  1.0  -0.4136
  N  N149  1  0.865800  0.437100  0.861500  1.0  -0.305
  N  N150  1  0.242600  0.618700  0.942400  1.0  -0.2784
  N  N151  1  0.434300  0.466300  0.672000  1.0  -0.2721
  N  N152  1  0.041500  0.362900  0.518800  1.0  -0.2743
  N  N153  1  0.365400  0.825800  0.573400  1.0  -0.2759
  N  N154  1  0.830500  0.699100  0.724900  1.0  -0.2587
  N  N155  1  0.134200  0.562900  0.138500  1.0  -0.3086
  N  N156  1  0.757400  0.381300  0.057600  1.0  -0.2833
  N  N157  1  0.565700  0.533700  0.328000  1.0  -0.2728
  N  N158  1  0.958500  0.637100  0.481200  1.0  -0.2731
  N  N159  1  0.634600  0.174200  0.426600  1.0  -0.2773
  N  N160  1  0.169500  0.300900  0.275100  1.0  -0.2599
  O  O161  1  0.944300  0.159200  0.848700  1.0  -0.7303
  O  O162  1  0.166100  0.137200  0.873800  1.0  -0.7539
  O  O163  1  0.274700  0.904000  0.892000  1.0  -0.6803
  O  O164  1  0.063700  0.950700  0.855400  1.0  -0.8498
  O  O165  1  0.660700  0.161000  0.798700  1.0  -0.7947
  O  O166  1  0.437500  0.183700  0.778100  1.0  -0.7527
  O  O167  1  0.959100  0.167100  0.701500  1.0  -0.7601
  O  O168  1  0.175200  0.143800  0.732800  1.0  -0.77
  O  O169  1  0.467200  0.038800  0.691600  1.0  -0.6486
  O  O170  1  0.305200  0.952100  0.733300  1.0  -0.6968
  O  O171  1  0.771700  0.914300  0.821900  1.0  -0.8115
  O  O172  1  0.543700  0.930900  0.826800  1.0  -0.7556
  O  O173  1  0.055700  0.840800  0.151300  1.0  -0.7315
  O  O174  1  0.833900  0.862800  0.126200  1.0  -0.7532
  O  O175  1  0.725300  0.096000  0.108000  1.0  -0.6783
  O  O176  1  0.936300  0.049300  0.144600  1.0  -0.8494
  O  O177  1  0.339300  0.839000  0.201300  1.0  -0.7947
  O  O178  1  0.562500  0.816300  0.221900  1.0  -0.7536
  O  O179  1  0.040900  0.832900  0.298500  1.0  -0.761
  O  O180  1  0.824800  0.856200  0.267200  1.0  -0.7694
  O  O181  1  0.532800  0.961200  0.308400  1.0  -0.647
  O  O182  1  0.694800  0.047900  0.266700  1.0  -0.6987
  O  O183  1  0.228300  0.085700  0.178100  1.0  -0.809
  O  O184  1  0.456300  0.069100  0.173200  1.0  -0.7564
