# generated using pymatgen
data_EuCu3H12C18Br3(NO2)3
_symmetry_space_group_name_H-M   'P 1'
_cell_length_a   9.82570000
_cell_length_b   14.79000000
_cell_length_c   20.18200000
_cell_angle_alpha   73.38600000
_cell_angle_beta   82.82500000
_cell_angle_gamma   77.75000000
_symmetry_Int_Tables_number   1
_chemical_formula_structural   EuCu3H12C18Br3(NO2)3
_chemical_formula_sum   'Eu4 Cu12 H48 C72 Br12 N12 O24'
_cell_volume   2739.99079334
_cell_formula_units_Z   4
loop_
 _symmetry_equiv_pos_site_id
 _symmetry_equiv_pos_as_xyz
  1  'x, y, z'
loop_
 _atom_site_type_symbol
 _atom_site_label
 _atom_site_symmetry_multiplicity
 _atom_site_fract_x
 _atom_site_fract_y
 _atom_site_fract_z
 _atom_site_occupancy
 _atom_site_charge
  Eu  Eu1  1  0.164240  0.453240  0.189140  1.0  2.1691
  Eu  Eu2  1  0.630910  0.448120  0.203490  1.0  2.1882
  Eu  Eu3  1  0.835760  0.546760  0.810860  1.0  2.1691
  Eu  Eu4  1  0.369090  0.551880  0.796510  1.0  2.1873
  Cu  Cu5  1  0.597900  0.100160  0.553460  1.0  0.2203
  Cu  Cu6  1  0.725720  0.242700  0.572430  1.0  0.1993
  Cu  Cu7  1  0.758680  0.060150  0.658610  1.0  0.1842
  Cu  Cu8  1  0.514570  0.166890  0.674120  1.0  0.1775
  Cu  Cu9  1  0.091410  0.986430  0.053450  1.0  0.2095
  Cu  Cu10  1  0.827110  0.003810  0.114840  1.0  0.2355
  Cu  Cu11  1  0.402100  0.899840  0.446540  1.0  0.2192
  Cu  Cu12  1  0.274280  0.757300  0.427570  1.0  0.2023
  Cu  Cu13  1  0.241320  0.939850  0.341390  1.0  0.186
  Cu  Cu14  1  0.485430  0.833110  0.325880  1.0  0.1779
  Cu  Cu15  1  0.908590  0.013570  0.946550  1.0  0.209
  Cu  Cu16  1  0.172890  0.996190  0.885160  1.0  0.2355
  H  H17  1  0.183100  0.250500  0.357700  1.0  0.1105
  H  H18  1  0.140800  0.133200  0.458800  1.0  0.1266
  H  H19  1  0.311400  0.066600  0.533100  1.0  0.0767
  H  H20  1  0.570000  0.220300  0.410700  1.0  0.0843
  H  H21  1  0.754500  0.377800  0.646700  1.0  0.083
  H  H22  1  0.999000  0.292400  0.502600  1.0  0.0793
  H  H23  1  0.168400  0.371100  0.517200  1.0  0.1218
  H  H24  1  0.124000  0.459600  0.596400  1.0  0.118
  H  H25  1  0.268900  0.799700  0.718800  1.0  0.1273
  H  H26  1  0.263800  0.955400  0.655500  1.0  0.1033
  H  H27  1  0.057900  0.053700  0.622100  1.0  0.0786
  H  H28  1  0.853200  0.852000  0.722500  1.0  0.0766
  H  H29  1  0.384100  0.299100  0.757000  1.0  0.083
  H  H30  1  0.235300  0.105700  0.705000  1.0  0.0812
  H  H31  1  0.016400  0.159700  0.748800  1.0  0.108
  H  H32  1  0.977400  0.288600  0.795800  1.0  0.1115
  H  H33  1  0.575400  0.689300  0.080200  1.0  0.1167
  H  H34  1  0.593500  0.851300  0.038400  1.0  0.1269
  H  H35  1  0.394000  0.965500  0.025600  1.0  0.0688
  H  H36  1  0.161600  0.771900  0.092000  1.0  0.0857
  H  H37  1  0.683000  0.186800  0.134800  1.0  0.0915
  H  H38  1  0.537600  0.958700  0.143500  1.0  0.0624
  H  H39  1  0.316400  0.035400  0.152200  1.0  0.1246
  H  H40  1  0.271500  0.198700  0.146100  1.0  0.115
  H  H41  1  0.816900  0.749500  0.642300  1.0  0.1111
  H  H42  1  0.859200  0.866800  0.541200  1.0  0.1261
  H  H43  1  0.688600  0.933400  0.466900  1.0  0.0769
  H  H44  1  0.430000  0.779700  0.589300  1.0  0.0853
  H  H45  1  0.245500  0.622200  0.353300  1.0  0.0831
  H  H46  1  0.001000  0.707600  0.497400  1.0  0.0794
  H  H47  1  0.831600  0.628900  0.482800  1.0  0.122
  H  H48  1  0.876000  0.540400  0.403600  1.0  0.1179
  H  H49  1  0.731100  0.200300  0.281200  1.0  0.1271
  H  H50  1  0.736200  0.044600  0.344500  1.0  0.103
  H  H51  1  0.942100  0.946300  0.377900  1.0  0.0798
  H  H52  1  0.146800  0.148000  0.277500  1.0  0.0765
  H  H53  1  0.615900  0.700900  0.243000  1.0  0.0836
  H  H54  1  0.764700  0.894300  0.295000  1.0  0.0817
  H  H55  1  0.983600  0.840300  0.251200  1.0  0.1085
  H  H56  1  0.022600  0.711400  0.204200  1.0  0.112
  H  H57  1  0.424600  0.310700  0.919800  1.0  0.1172
  H  H58  1  0.406500  0.148700  0.961600  1.0  0.129
  H  H59  1  0.606000  0.034500  0.974400  1.0  0.0682
  H  H60  1  0.838400  0.228100  0.908000  1.0  0.0868
  H  H61  1  0.317000  0.813200  0.865200  1.0  0.0913
  H  H62  1  0.462400  0.041300  0.856500  1.0  0.063
  H  H63  1  0.683600  0.964600  0.847800  1.0  0.1237
  H  H64  1  0.728500  0.801300  0.853900  1.0  0.1148
  C  C65  1  0.416600  0.318300  0.308600  1.0  0.7297
  C  C66  1  0.383600  0.245800  0.374300  1.0  -0.176
  C  C67  1  0.252700  0.221100  0.388400  1.0  0.0433
  C  C68  1  0.227100  0.152100  0.448700  1.0  -0.1877
  C  C69  1  0.329600  0.112800  0.492500  1.0  0.1743
  C  C70  1  0.482400  0.203200  0.420700  1.0  0.1547
  C  C71  1  0.901600  0.477300  0.687500  1.0  0.7023
  C  C72  1  0.936200  0.426800  0.631700  1.0  -0.1524
  C  C73  1  0.839400  0.376100  0.620400  1.0  0.1882
  C  C74  1  0.982300  0.326100  0.536200  1.0  0.1631
  C  C75  1  0.084300  0.374200  0.544100  1.0  -0.1507
  C  C76  1  0.058500  0.425400  0.591300  1.0  -0.0007
  C  C77  1  0.051900  0.709900  0.771100  1.0  0.764
  C  C78  1  0.058300  0.809400  0.727800  1.0  -0.2004
  C  C79  1  0.184500  0.840700  0.707000  1.0  -0.0527
  C  C80  1  0.180900  0.932400  0.669200  1.0  -0.1139
  C  C81  1  0.056500  0.992200  0.650700  1.0  0.1514
  C  C82  1  0.937500  0.873400  0.709000  1.0  0.1866
  C  C83  1  0.162800  0.390200  0.811900  1.0  0.7689
  C  C84  1  0.178300  0.308500  0.781900  1.0  -0.1983
  C  C85  1  0.308500  0.271600  0.755000  1.0  0.1932
  C  C86  1  0.221300  0.157200  0.724400  1.0  0.1678
  C  C87  1  0.089800  0.189600  0.750400  1.0  -0.1181
  C  C88  1  0.066600  0.265700  0.778800  1.0  -0.0103
  C  C89  1  0.345500  0.613000  0.115900  1.0  0.7197
  C  C90  1  0.363600  0.715500  0.089700  1.0  -0.1604
  C  C91  1  0.496200  0.737400  0.074200  1.0  0.0258
  C  C92  1  0.506700  0.833200  0.049700  1.0  -0.1803
  C  C93  1  0.385600  0.901300  0.042500  1.0  0.1767
  C  C94  1  0.249600  0.788100  0.081100  1.0  0.19
  C  C95  1  0.454500  0.314700  0.138800  1.0  0.7584
  C  C96  1  0.473000  0.210000  0.140100  1.0  -0.135
  C  C97  1  0.607700  0.156800  0.137400  1.0  0.1731
  C  C98  1  0.521700  0.023100  0.143100  1.0  0.1804
  C  C99  1  0.389500  0.068300  0.147400  1.0  -0.1757
  C  C100  1  0.362700  0.165000  0.144800  1.0  0.0338
  C  C101  1  0.583400  0.681700  0.691400  1.0  0.7298
  C  C102  1  0.616400  0.754200  0.625700  1.0  -0.1745
  C  C103  1  0.747300  0.778900  0.611600  1.0  0.0422
  C  C104  1  0.772900  0.847900  0.551300  1.0  -0.1873
  C  C105  1  0.670400  0.887200  0.507500  1.0  0.1733
  C  C106  1  0.517600  0.796800  0.579300  1.0  0.1527
  C  C107  1  0.098400  0.522700  0.312500  1.0  0.7008
  C  C108  1  0.063800  0.573200  0.368300  1.0  -0.1542
  C  C109  1  0.160600  0.623900  0.379600  1.0  0.1888
  C  C110  1  0.017700  0.673900  0.463800  1.0  0.1619
  C  C111  1  0.915700  0.625800  0.455900  1.0  -0.1498
  C  C112  1  0.941500  0.574600  0.408700  1.0  -0.0017
  C  C113  1  0.948100  0.290100  0.228900  1.0  0.768
  C  C114  1  0.941700  0.190600  0.272200  1.0  -0.1993
  C  C115  1  0.815500  0.159300  0.293000  1.0  -0.0524
  C  C116  1  0.819100  0.067600  0.330800  1.0  -0.1154
  C  C117  1  0.943500  0.007800  0.349300  1.0  0.1516
  C  C118  1  0.062500  0.126600  0.291000  1.0  0.1868
  C  C119  1  0.837200  0.609800  0.188100  1.0  0.766
  C  C120  1  0.821700  0.691500  0.218100  1.0  -0.2013
  C  C121  1  0.691500  0.728400  0.245000  1.0  0.1937
  C  C122  1  0.778700  0.842800  0.275600  1.0  0.1687
  C  C123  1  0.910200  0.810400  0.249600  1.0  -0.1151
  C  C124  1  0.933400  0.734300  0.221200  1.0  -0.0119
  C  C125  1  0.654500  0.387000  0.884100  1.0  0.7201
  C  C126  1  0.636400  0.284500  0.910300  1.0  -0.1615
  C  C127  1  0.503800  0.262600  0.925800  1.0  0.0239
  C  C128  1  0.493300  0.166800  0.950300  1.0  -0.1811
  C  C129  1  0.614400  0.098700  0.957500  1.0  0.1764
  C  C130  1  0.750400  0.211900  0.918900  1.0  0.191
  C  C131  1  0.545500  0.685300  0.861200  1.0  0.754
  C  C132  1  0.527000  0.790000  0.859900  1.0  -0.1362
  C  C133  1  0.392300  0.843200  0.862600  1.0  0.1739
  C  C134  1  0.478300  0.976900  0.856900  1.0  0.1803
  C  C135  1  0.610500  0.931700  0.852600  1.0  -0.1741
  C  C136  1  0.637300  0.835000  0.855200  1.0  0.0342
  Br  Br137  1  0.827740  0.126620  0.508280  1.0  -0.3406
  Br  Br138  1  0.481420  0.314710  0.564070  1.0  -0.412
  Br  Br139  1  0.717160  0.174480  0.728020  1.0  -0.3312
  Br  Br140  1  0.536920  0.996350  0.662310  1.0  -0.328
  Br  Br141  1  0.001880  0.078180  0.135890  1.0  -0.3837
  Br  Br142  1  0.124180  0.116610  0.944680  1.0  -0.3669
  Br  Br143  1  0.172260  0.873380  0.491720  1.0  -0.3391
  Br  Br144  1  0.518580  0.685290  0.435930  1.0  -0.4111
  Br  Br145  1  0.282840  0.825520  0.271980  1.0  -0.3337
  Br  Br146  1  0.463080  0.003650  0.337690  1.0  -0.3268
  Br  Br147  1  0.998120  0.921820  0.864110  1.0  -0.3849
  Br  Br148  1  0.875820  0.883390  0.055320  1.0  -0.3665
  N  N149  1  0.458900  0.137200  0.480700  1.0  -0.2973
  N  N150  1  0.864200  0.326200  0.574200  1.0  -0.2899
  N  N151  1  0.933800  0.965200  0.672200  1.0  -0.2991
  N  N152  1  0.330100  0.198000  0.726200  1.0  -0.2784
  N  N153  1  0.257600  0.881500  0.058000  1.0  -0.2838
  N  N154  1  0.632600  0.063800  0.138300  1.0  -0.294
  N  N155  1  0.541100  0.862800  0.519300  1.0  -0.2983
  N  N156  1  0.135800  0.673800  0.425800  1.0  -0.2907
  N  N157  1  0.066200  0.034800  0.327800  1.0  -0.2991
  N  N158  1  0.669900  0.802000  0.273800  1.0  -0.2783
  N  N159  1  0.742400  0.118500  0.942000  1.0  -0.2835
  N  N160  1  0.367400  0.936200  0.861700  1.0  -0.2938
  O  O161  1  0.325200  0.357700  0.267500  1.0  -0.7181
  O  O162  1  0.540200  0.333600  0.298700  1.0  -0.7059
  O  O163  1  0.968600  0.538200  0.691000  1.0  -0.6455
  O  O164  1  0.802700  0.452300  0.733600  1.0  -0.6555
  O  O165  1  0.160400  0.660000  0.798300  1.0  -0.7522
  O  O166  1  0.938700  0.682200  0.777600  1.0  -0.7608
  O  O167  1  0.269100  0.415100  0.821200  1.0  -0.7548
  O  O168  1  0.042200  0.431600  0.826700  1.0  -0.7437
  O  O169  1  0.441300  0.549200  0.145900  1.0  -0.8026
  O  O170  1  0.228700  0.594500  0.109800  1.0  -0.6728
  O  O171  1  0.556800  0.341200  0.153000  1.0  -0.7349
  O  O172  1  0.335900  0.365000  0.126000  1.0  -0.7214
  O  O173  1  0.674800  0.642300  0.732500  1.0  -0.718
  O  O174  1  0.459800  0.666400  0.701300  1.0  -0.7061
  O  O175  1  0.031400  0.461800  0.309000  1.0  -0.6447
  O  O176  1  0.197300  0.547700  0.266400  1.0  -0.6578
  O  O177  1  0.839600  0.340000  0.201700  1.0  -0.7519
  O  O178  1  0.061300  0.317800  0.222400  1.0  -0.762
  O  O179  1  0.730900  0.584900  0.178800  1.0  -0.7545
  O  O180  1  0.957800  0.568400  0.173300  1.0  -0.7457
  O  O181  1  0.558700  0.450800  0.854100  1.0  -0.8023
  O  O182  1  0.771300  0.405500  0.890200  1.0  -0.6746
  O  O183  1  0.443200  0.658800  0.847000  1.0  -0.7348
  O  O184  1  0.664100  0.635000  0.874000  1.0  -0.7231
