# generated using pymatgen
data_TbCu3H12C18Br3(NO2)3
_symmetry_space_group_name_H-M   'P 1'
_cell_length_a   9.81160000
_cell_length_b   14.76610000
_cell_length_c   20.17530000
_cell_angle_alpha   73.21300000
_cell_angle_beta   82.54100000
_cell_angle_gamma   77.74800000
_symmetry_Int_Tables_number   1
_chemical_formula_structural   TbCu3H12C18Br3(NO2)3
_chemical_formula_sum   'Tb4 Cu12 H48 C72 Br12 N12 O24'
_cell_volume   2727.33301034
_cell_formula_units_Z   4
loop_
 _symmetry_equiv_pos_site_id
 _symmetry_equiv_pos_as_xyz
  1  'x, y, z'
loop_
 _atom_site_type_symbol
 _atom_site_label
 _atom_site_symmetry_multiplicity
 _atom_site_fract_x
 _atom_site_fract_y
 _atom_site_fract_z
 _atom_site_occupancy
 _atom_site_charge
  Tb  Tb1  1  0.335880  0.047190  0.810150  1.0  2.2787
  Tb  Tb2  1  0.868200  0.051880  0.796420  1.0  2.2739
  Tb  Tb3  1  0.664120  0.952810  0.189850  1.0  2.2839
  Tb  Tb4  1  0.131800  0.948120  0.203580  1.0  2.2744
  Cu  Cu5  1  0.260010  0.560320  0.658620  1.0  0.1794
  Cu  Cu6  1  0.227450  0.743950  0.572200  1.0  0.1962
  Cu  Cu7  1  0.100130  0.601080  0.552970  1.0  0.1807
  Cu  Cu8  1  0.015220  0.667290  0.674280  1.0  0.1864
  Cu  Cu9  1  0.673730  0.495930  0.884920  1.0  0.2086
  Cu  Cu10  1  0.408970  0.514220  0.946330  1.0  0.1964
  Cu  Cu11  1  0.739990  0.439680  0.341380  1.0  0.1806
  Cu  Cu12  1  0.772550  0.256050  0.427800  1.0  0.1994
  Cu  Cu13  1  0.899870  0.398920  0.447030  1.0  0.1813
  Cu  Cu14  1  0.984780  0.332710  0.325720  1.0  0.1862
  Cu  Cu15  1  0.326270  0.504070  0.115080  1.0  0.2063
  Cu  Cu16  1  0.591030  0.485780  0.053670  1.0  0.1966
  H  H17  1  0.352700  0.352100  0.722800  1.0  0.0685
  H  H18  1  0.562700  0.555900  0.627000  1.0  0.0867
  H  H19  1  0.768600  0.454400  0.652600  1.0  0.1196
  H  H20  1  0.768800  0.298900  0.720200  1.0  0.1168
  H  H21  1  0.817800  0.311300  0.865000  1.0  0.0832
  H  H22  1  0.962500  0.542100  0.853000  1.0  0.0627
  H  H23  1  0.188700  0.462000  0.846300  1.0  0.1259
  H  H24  1  0.230200  0.298000  0.853500  1.0  0.1105
  H  H25  1  0.922200  0.809000  0.917100  1.0  0.119
  H  H26  1  0.908100  0.647300  0.962100  1.0  0.1177
  H  H27  1  0.105400  0.533700  0.973800  1.0  0.0748
  H  H28  1  0.336500  0.729500  0.908900  1.0  0.0776
  H  H29  1  0.258000  0.877600  0.647300  1.0  0.0718
  H  H30  1  0.506200  0.793000  0.503000  1.0  0.0618
  H  H31  1  0.672500  0.871400  0.516000  1.0  0.1263
  H  H32  1  0.626800  0.961100  0.596800  1.0  0.1146
  H  H33  1  0.476400  0.790200  0.795200  1.0  0.109
  H  H34  1  0.514500  0.660000  0.748800  1.0  0.1246
  H  H35  1  0.736700  0.604600  0.708000  1.0  0.0642
  H  H36  1  0.883000  0.798700  0.757600  1.0  0.0756
  H  H37  1  0.070300  0.720800  0.411000  1.0  0.0751
  H  H38  1  0.818600  0.565300  0.535200  1.0  0.0672
  H  H39  1  0.642400  0.630200  0.461300  1.0  0.1225
  H  H40  1  0.680300  0.750500  0.360400  1.0  0.1047
  H  H41  1  0.647300  0.647900  0.277200  1.0  0.0713
  H  H42  1  0.437300  0.444100  0.373000  1.0  0.0873
  H  H43  1  0.231400  0.545600  0.347400  1.0  0.1188
  H  H44  1  0.231200  0.701100  0.279800  1.0  0.1163
  H  H45  1  0.182200  0.688700  0.135000  1.0  0.0827
  H  H46  1  0.037500  0.457900  0.147000  1.0  0.0628
  H  H47  1  0.811300  0.538000  0.153700  1.0  0.1263
  H  H48  1  0.769800  0.702000  0.146500  1.0  0.1109
  H  H49  1  0.077800  0.191000  0.082900  1.0  0.1185
  H  H50  1  0.091900  0.352700  0.037900  1.0  0.1161
  H  H51  1  0.894600  0.466300  0.026200  1.0  0.0759
  H  H52  1  0.663500  0.270500  0.091100  1.0  0.0749
  H  H53  1  0.742000  0.122400  0.352700  1.0  0.0747
  H  H54  1  0.493800  0.207000  0.497000  1.0  0.0617
  H  H55  1  0.327500  0.128600  0.484000  1.0  0.1233
  H  H56  1  0.373200  0.038900  0.403200  1.0  0.1148
  H  H57  1  0.523600  0.209800  0.204800  1.0  0.1089
  H  H58  1  0.485500  0.340000  0.251200  1.0  0.1248
  H  H59  1  0.263300  0.395400  0.292000  1.0  0.0671
  H  H60  1  0.117000  0.201300  0.242400  1.0  0.0762
  H  H61  1  0.929700  0.279200  0.589000  1.0  0.0765
  H  H62  1  0.181400  0.434700  0.464800  1.0  0.0673
  H  H63  1  0.357600  0.369800  0.538700  1.0  0.1218
  H  H64  1  0.319700  0.249500  0.639600  1.0  0.1053
  C  C65  1  0.552700  0.207900  0.771600  1.0  0.7657
  C  C66  1  0.559600  0.309000  0.728400  1.0  -0.1916
  C  C67  1  0.437400  0.373300  0.709300  1.0  0.1638
  C  C68  1  0.561300  0.492600  0.652600  1.0  0.152
  C  C69  1  0.684700  0.432700  0.668400  1.0  -0.1582
  C  C70  1  0.685000  0.340200  0.707600  1.0  0.0113
  C  C71  1  0.045300  0.184100  0.860000  1.0  0.7392
  C  C72  1  0.026500  0.288200  0.859600  1.0  -0.2114
  C  C73  1  0.893400  0.341300  0.862600  1.0  0.1797
  C  C74  1  0.978700  0.477000  0.855200  1.0  0.1705
  C  C75  1  0.114800  0.429700  0.851200  1.0  -0.1988
  C  C76  1  0.139300  0.332700  0.854600  1.0  0.0348
  C  C77  1  0.151600  0.888500  0.882400  1.0  0.7237
  C  C78  1  0.133700  0.785300  0.910400  1.0  -0.2036
  C  C79  1  0.002400  0.761900  0.924400  1.0  0.0088
  C  C80  1  0.994800  0.665800  0.949900  1.0  -0.1696
  C  C81  1  0.113500  0.598100  0.957200  1.0  0.1585
  C  C82  1  0.248500  0.712600  0.919300  1.0  0.1771
  C  C83  1  0.401600  0.979100  0.687400  1.0  0.7053
  C  C84  1  0.435800  0.929200  0.631400  1.0  -0.1953
  C  C85  1  0.342300  0.877400  0.620200  1.0  0.2038
  C  C86  1  0.487800  0.827600  0.536100  1.0  0.1781
  C  C87  1  0.588200  0.874600  0.543000  1.0  -0.1732
  C  C88  1  0.561100  0.927200  0.591300  1.0  0.0306
  C  C89  1  0.661300  0.892300  0.811300  1.0  0.7529
  C  C90  1  0.677000  0.808300  0.781800  1.0  -0.2214
  C  C91  1  0.565700  0.766500  0.778600  1.0  0.0373
  C  C92  1  0.587900  0.689700  0.750800  1.0  -0.1782
  C  C93  1  0.721700  0.657600  0.725800  1.0  0.1753
  C  C94  1  0.807500  0.771300  0.755100  1.0  0.1928
  C  C95  1  0.915900  0.818100  0.307800  1.0  0.7268
  C  C96  1  0.882400  0.746000  0.374000  1.0  -0.2255
  C  C97  1  0.982800  0.703100  0.421500  1.0  0.1918
  C  C98  1  0.834900  0.611900  0.494300  1.0  0.175
  C  C99  1  0.727900  0.650600  0.450400  1.0  -0.1348
  C  C100  1  0.751500  0.720700  0.390000  1.0  0.0323
  C  C101  1  0.447300  0.792100  0.228400  1.0  0.7707
  C  C102  1  0.440400  0.691000  0.271600  1.0  -0.1902
  C  C103  1  0.562600  0.626700  0.290700  1.0  0.1636
  C  C104  1  0.438700  0.507400  0.347400  1.0  0.1508
  C  C105  1  0.315300  0.567300  0.331600  1.0  -0.1586
  C  C106  1  0.315000  0.659800  0.292400  1.0  0.0124
  C  C107  1  0.954700  0.815900  0.140000  1.0  0.7301
  C  C108  1  0.973500  0.711800  0.140400  1.0  -0.2109
  C  C109  1  0.106600  0.658700  0.137400  1.0  0.1696
  C  C110  1  0.021300  0.523000  0.144800  1.0  0.1745
  C  C111  1  0.885200  0.570300  0.148800  1.0  -0.2023
  C  C112  1  0.860700  0.667300  0.145400  1.0  0.0363
  C  C113  1  0.848400  0.111500  0.117600  1.0  0.7209
  C  C114  1  0.866300  0.214700  0.089600  1.0  -0.202
  C  C115  1  0.997600  0.238100  0.075600  1.0  0.0097
  C  C116  1  0.005200  0.334200  0.050100  1.0  -0.1675
  C  C117  1  0.886500  0.401900  0.042800  1.0  0.163
  C  C118  1  0.751500  0.287400  0.080700  1.0  0.1732
  C  C119  1  0.598400  0.020900  0.312600  1.0  0.7012
  C  C120  1  0.564200  0.070800  0.368600  1.0  -0.1979
  C  C121  1  0.657700  0.122600  0.379800  1.0  0.1947
  C  C122  1  0.512200  0.172400  0.463900  1.0  0.1767
  C  C123  1  0.411800  0.125400  0.457000  1.0  -0.1782
  C  C124  1  0.438900  0.072800  0.408700  1.0  0.0313
  C  C125  1  0.338700  0.107700  0.188700  1.0  0.7523
  C  C126  1  0.323000  0.191700  0.218200  1.0  -0.2219
  C  C127  1  0.434300  0.233500  0.221400  1.0  0.0338
  C  C128  1  0.412100  0.310300  0.249200  1.0  -0.1726
  C  C129  1  0.278300  0.342400  0.274200  1.0  0.1758
  C  C130  1  0.192500  0.228700  0.244900  1.0  0.2027
  C  C131  1  0.084100  0.181900  0.692200  1.0  0.7272
  C  C132  1  0.117600  0.254000  0.626000  1.0  -0.2268
  C  C133  1  0.017200  0.296900  0.578500  1.0  0.1913
  C  C134  1  0.165100  0.388100  0.505700  1.0  0.1726
  C  C135  1  0.272100  0.349400  0.549600  1.0  -0.1334
  C  C136  1  0.248500  0.279300  0.610000  1.0  0.0319
  Br  Br137  1  0.330050  0.627860  0.507910  1.0  -0.3176
  Br  Br138  1  0.038040  0.496770  0.662190  1.0  -0.3171
  Br  Br139  1  0.983070  0.815110  0.564090  1.0  -0.4051
  Br  Br140  1  0.217330  0.675070  0.728220  1.0  -0.3355
  Br  Br141  1  0.498760  0.421750  0.864150  1.0  -0.3837
  Br  Br142  1  0.623450  0.616160  0.944660  1.0  -0.3703
  Br  Br143  1  0.669950  0.372140  0.492090  1.0  -0.316
  Br  Br144  1  0.961960  0.503230  0.337810  1.0  -0.3158
  Br  Br145  1  0.016930  0.184890  0.435910  1.0  -0.4042
  Br  Br146  1  0.782670  0.324930  0.271780  1.0  -0.3365
  Br  Br147  1  0.501240  0.578250  0.135850  1.0  -0.382
  Br  Br148  1  0.376550  0.383840  0.055340  1.0  -0.3695
  N  N149  1  0.435700  0.464700  0.672300  1.0  -0.2946
  N  N150  1  0.868000  0.434300  0.862200  1.0  -0.3076
  N  N151  1  0.242000  0.619700  0.941700  1.0  -0.2935
  N  N152  1  0.365500  0.827400  0.573200  1.0  -0.2978
  N  N153  1  0.831000  0.698300  0.725900  1.0  -0.2763
  N  N154  1  0.961200  0.637600  0.481400  1.0  -0.2876
  N  N155  1  0.564300  0.535300  0.327700  1.0  -0.2945
  N  N156  1  0.132000  0.565700  0.137800  1.0  -0.3088
  N  N157  1  0.758000  0.380300  0.058300  1.0  -0.2925
  N  N158  1  0.634500  0.172600  0.426800  1.0  -0.2986
  N  N159  1  0.169000  0.301700  0.274100  1.0  -0.2768
  N  N160  1  0.038800  0.362400  0.518600  1.0  -0.2881
  O  O161  1  0.437600  0.181600  0.778100  1.0  -0.7091
  O  O162  1  0.660900  0.158100  0.799100  1.0  -0.7562
  O  O163  1  0.942400  0.157100  0.846900  1.0  -0.7293
  O  O164  1  0.164900  0.132900  0.872300  1.0  -0.7319
  O  O165  1  0.268000  0.907600  0.887400  1.0  -0.665
  O  O166  1  0.053600  0.950300  0.855000  1.0  -0.7908
  O  O167  1  0.468200  0.041100  0.690400  1.0  -0.6346
  O  O168  1  0.303500  0.954300  0.733500  1.0  -0.6663
  O  O169  1  0.769500  0.916700  0.820400  1.0  -0.76
  O  O170  1  0.540300  0.934000  0.825100  1.0  -0.7357
  O  O171  1  0.038500  0.835500  0.297000  1.0  -0.6478
  O  O172  1  0.821600  0.856600  0.267800  1.0  -0.6971
  O  O173  1  0.562400  0.818400  0.221900  1.0  -0.7098
  O  O174  1  0.339100  0.841900  0.200900  1.0  -0.7557
  O  O175  1  0.057600  0.842900  0.153100  1.0  -0.7305
  O  O176  1  0.835100  0.867100  0.127700  1.0  -0.7315
  O  O177  1  0.732000  0.092400  0.112600  1.0  -0.6614
  O  O178  1  0.946400  0.049700  0.145000  1.0  -0.7882
  O  O179  1  0.531800  0.958900  0.309600  1.0  -0.6332
  O  O180  1  0.696500  0.045700  0.266500  1.0  -0.666
  O  O181  1  0.230500  0.083300  0.179600  1.0  -0.7511
  O  O182  1  0.459700  0.066000  0.174900  1.0  -0.7371
  O  O183  1  0.961500  0.164500  0.703000  1.0  -0.6478
  O  O184  1  0.178400  0.143400  0.732200  1.0  -0.6971
