# generated using pymatgen
data_FeH24C27S2(N3O2)2
_symmetry_space_group_name_H-M   'P 1'
_cell_length_a   8.98460000
_cell_length_b   12.32590000
_cell_length_c   24.02290000
_cell_angle_alpha   90.00000000
_cell_angle_beta   90.00000000
_cell_angle_gamma   111.37400000
_symmetry_Int_Tables_number   1
_chemical_formula_structural   FeH24C27S2(N3O2)2
_chemical_formula_sum   'Fe2 H48 C54 S4 N12 O8'
_cell_volume   2477.39763931
_cell_formula_units_Z   2
loop_
 _symmetry_equiv_pos_site_id
 _symmetry_equiv_pos_as_xyz
  1  'x, y, z'
loop_
 _atom_site_type_symbol
 _atom_site_label
 _atom_site_symmetry_multiplicity
 _atom_site_fract_x
 _atom_site_fract_y
 _atom_site_fract_z
 _atom_site_occupancy
 _atom_site_charge
  Fe  Fe1  1  0.500000  0.500000  0.500000  1.0  0.6401
  Fe  Fe2  1  0.000000  0.500000  0.000000  1.0  0.6401
  H  H3  1  0.843500  0.598200  0.551200  1.0  0.0585
  H  H4  1  0.000300  0.730400  0.613400  1.0  0.126
  H  H5  1  0.611700  0.792400  0.662000  1.0  0.1251
  H  H6  1  0.468800  0.657600  0.598000  1.0  0.0749
  H  H7  1  0.821500  0.972000  0.690700  1.0  0.064
  H  H8  1  0.773900  0.875000  0.737100  1.0  0.0639
  H  H9  1  0.156500  0.401800  0.551200  1.0  0.0582
  H  H10  1  0.999700  0.269600  0.613400  1.0  0.1269
  H  H11  1  0.388300  0.207600  0.662000  1.0  0.1253
  H  H12  1  0.531200  0.342400  0.598000  1.0  0.0746
  H  H13  1  0.178500  0.028000  0.690700  1.0  0.0631
  H  H14  1  0.226100  0.125000  0.737100  1.0  0.0626
  H  H15  1  0.754700  0.598200  0.948800  1.0  0.0585
  H  H16  1  0.730100  0.730400  0.886600  1.0  0.1268
  H  H17  1  0.180700  0.792400  0.838000  1.0  0.1252
  H  H18  1  0.188800  0.657600  0.902000  1.0  0.0742
  H  H19  1  0.150500  0.972000  0.809300  1.0  0.0641
  H  H20  1  0.101100  0.875000  0.762900  1.0  0.0626
  H  H21  1  0.245300  0.401800  0.948800  1.0  0.0585
  H  H22  1  0.269900  0.269600  0.886600  1.0  0.1263
  H  H23  1  0.819300  0.207600  0.838000  1.0  0.1249
  H  H24  1  0.811200  0.342400  0.902000  1.0  0.0753
  H  H25  1  0.849500  0.028000  0.809300  1.0  0.0647
  H  H26  1  0.898900  0.125000  0.762900  1.0  0.0643
  H  H27  1  0.156500  0.401800  0.448800  1.0  0.058
  H  H28  1  0.999700  0.269600  0.386600  1.0  0.1268
  H  H29  1  0.388300  0.207600  0.338000  1.0  0.1251
  H  H30  1  0.531200  0.342400  0.402000  1.0  0.0746
  H  H31  1  0.178500  0.028000  0.309300  1.0  0.0635
  H  H32  1  0.226100  0.125000  0.262900  1.0  0.0635
  H  H33  1  0.843500  0.598200  0.448800  1.0  0.0592
  H  H34  1  0.000300  0.730400  0.386600  1.0  0.1262
  H  H35  1  0.611700  0.792400  0.338000  1.0  0.1249
  H  H36  1  0.468800  0.657600  0.402000  1.0  0.0752
  H  H37  1  0.821500  0.972000  0.309300  1.0  0.0647
  H  H38  1  0.773900  0.875000  0.262900  1.0  0.0636
  H  H39  1  0.245300  0.401800  0.051200  1.0  0.058
  H  H40  1  0.269900  0.269600  0.113400  1.0  0.126
  H  H41  1  0.819300  0.207600  0.162000  1.0  0.1252
  H  H42  1  0.811200  0.342400  0.098000  1.0  0.0751
  H  H43  1  0.849500  0.028000  0.190700  1.0  0.0637
  H  H44  1  0.898900  0.125000  0.237100  1.0  0.0633
  H  H45  1  0.754700  0.598200  0.051200  1.0  0.0587
  H  H46  1  0.730100  0.730400  0.113400  1.0  0.1269
  H  H47  1  0.180700  0.792400  0.162000  1.0  0.1252
  H  H48  1  0.188800  0.657600  0.098000  1.0  0.0742
  H  H49  1  0.150500  0.972000  0.190700  1.0  0.0639
  H  H50  1  0.101100  0.875000  0.237100  1.0  0.0625
  C  C51  1  0.796480  0.638560  0.573400  1.0  0.1835
  C  C52  1  0.891720  0.717240  0.610840  1.0  -0.2399
  C  C53  1  0.823220  0.776840  0.644850  1.0  0.3159
  C  C54  1  0.661990  0.754180  0.639750  1.0  -0.3359
  C  C55  1  0.577990  0.673580  0.600860  1.0  0.1767
  C  C56  1  0.860800  0.924000  0.713950  1.0  0.0746
  C  C57  1  0.203520  0.361440  0.573400  1.0  0.1843
  C  C58  1  0.108280  0.282760  0.610840  1.0  -0.2406
  C  C59  1  0.176780  0.223160  0.644850  1.0  0.3162
  C  C60  1  0.338010  0.245820  0.639750  1.0  -0.3355
  C  C61  1  0.422010  0.326420  0.600860  1.0  0.1776
  C  C62  1  0.139200  0.076000  0.713950  1.0  0.0783
  C  C63  1  0.842080  0.638560  0.926600  1.0  0.184
  C  C64  1  0.825520  0.717240  0.889160  1.0  -0.2408
  C  C65  1  0.953620  0.776840  0.855150  1.0  0.3153
  C  C66  1  0.092190  0.754180  0.860250  1.0  -0.3353
  C  C67  1  0.095590  0.673580  0.899140  1.0  0.1782
  C  C68  1  0.063200  0.924000  0.786050  1.0  0.0775
  C  C69  1  0.157920  0.361440  0.926600  1.0  0.184
  C  C70  1  0.174480  0.282760  0.889160  1.0  -0.2399
  C  C71  1  0.046380  0.223160  0.855150  1.0  0.3159
  C  C72  1  0.907810  0.245820  0.860250  1.0  -0.3357
  C  C73  1  0.904410  0.326420  0.899140  1.0  0.1767
  C  C74  1  0.936800  0.076000  0.786050  1.0  0.0736
  C  C75  1  0.203520  0.361440  0.426600  1.0  0.1843
  C  C76  1  0.108280  0.282760  0.389160  1.0  -0.2404
  C  C77  1  0.176780  0.223160  0.355150  1.0  0.3161
  C  C78  1  0.338010  0.245820  0.360250  1.0  -0.3355
  C  C79  1  0.422010  0.326420  0.399140  1.0  0.1781
  C  C80  1  0.139200  0.076000  0.286050  1.0  0.0774
  C  C81  1  0.796480  0.638560  0.426600  1.0  0.1838
  C  C82  1  0.891720  0.717240  0.389160  1.0  -0.2399
  C  C83  1  0.823220  0.776840  0.355150  1.0  0.3156
  C  C84  1  0.661990  0.754180  0.360250  1.0  -0.3355
  C  C85  1  0.577990  0.673580  0.399140  1.0  0.1766
  C  C86  1  0.860800  0.924000  0.286050  1.0  0.075
  C  C87  1  0.157920  0.361440  0.073400  1.0  0.184
  C  C88  1  0.174480  0.282760  0.110840  1.0  -0.24
  C  C89  1  0.046380  0.223160  0.144850  1.0  0.3161
  C  C90  1  0.907810  0.245820  0.139750  1.0  -0.336
  C  C91  1  0.904410  0.326420  0.100860  1.0  0.1767
  C  C92  1  0.936800  0.076000  0.213950  1.0  0.0745
  C  C93  1  0.842080  0.638560  0.073400  1.0  0.1838
  C  C94  1  0.825520  0.717240  0.110840  1.0  -0.2409
  C  C95  1  0.953620  0.776840  0.144850  1.0  0.3156
  C  C96  1  0.092190  0.754180  0.139750  1.0  -0.3352
  C  C97  1  0.095590  0.673580  0.100860  1.0  0.1777
  C  C98  1  0.063200  0.924000  0.213950  1.0  0.0771
  C  C99  1  0.719470  0.341540  0.500000  1.0  0.2362
  C  C100  1  0.280530  0.658460  0.500000  1.0  0.2369
  C  C101  1  0.622070  0.341540  0.000000  1.0  0.2362
  C  C102  1  0.377930  0.658460  0.000000  1.0  0.2356
  C  C103  1  0.000000  0.000000  0.750000  1.0  -0.0355
  C  C104  1  0.000000  0.000000  0.250000  1.0  -0.0354
  S  S105  1  0.801530  0.243100  0.500000  1.0  -0.2747
  S  S106  1  0.198470  0.756900  0.500000  1.0  -0.2758
  S  S107  1  0.441570  0.243100  0.000000  1.0  -0.2748
  S  S108  1  0.558430  0.756900  0.000000  1.0  -0.2759
  N  N109  1  0.641440  0.616280  0.566770  1.0  -0.3297
  N  N110  1  0.358560  0.383720  0.566770  1.0  -0.3288
  N  N111  1  0.974840  0.616280  0.933230  1.0  -0.329
  N  N112  1  0.025160  0.383720  0.933230  1.0  -0.3288
  N  N113  1  0.358560  0.383720  0.433230  1.0  -0.3281
  N  N114  1  0.641440  0.616280  0.433230  1.0  -0.3296
  N  N115  1  0.025160  0.383720  0.066770  1.0  -0.3292
  N  N116  1  0.974840  0.616280  0.066770  1.0  -0.3296
  N  N117  1  0.660660  0.409920  0.500000  1.0  -0.4421
  N  N118  1  0.339340  0.590080  0.500000  1.0  -0.4444
  N  N119  1  0.749260  0.409920  0.000000  1.0  -0.4453
  N  N120  1  0.250740  0.590080  0.000000  1.0  -0.4425
  O  O121  1  0.923290  0.854380  0.680390  1.0  -0.2707
  O  O122  1  0.076710  0.145620  0.680390  1.0  -0.2691
  O  O123  1  0.931090  0.854380  0.819610  1.0  -0.2703
  O  O124  1  0.068910  0.145620  0.819610  1.0  -0.2695
  O  O125  1  0.076710  0.145620  0.319610  1.0  -0.2697
  O  O126  1  0.923290  0.854380  0.319610  1.0  -0.2697
  O  O127  1  0.068910  0.145620  0.180390  1.0  -0.2692
  O  O128  1  0.931090  0.854380  0.180390  1.0  -0.2715
