# generated using pymatgen
data_EuH8C12NO8
_symmetry_space_group_name_H-M   'P 1'
_cell_length_a   21.60240000
_cell_length_b   21.60240000
_cell_length_c   11.38240000
_cell_angle_alpha   90.00000000
_cell_angle_beta   90.00000000
_cell_angle_gamma   90.00000000
_symmetry_Int_Tables_number   1
_chemical_formula_structural   EuH8C12NO8
_chemical_formula_sum   'Eu16 H128 C192 N16 O128'
_cell_volume   5311.75273679
_cell_formula_units_Z   16
loop_
 _symmetry_equiv_pos_site_id
 _symmetry_equiv_pos_as_xyz
  1  'x, y, z'
loop_
 _atom_site_type_symbol
 _atom_site_label
 _atom_site_symmetry_multiplicity
 _atom_site_fract_x
 _atom_site_fract_y
 _atom_site_fract_z
 _atom_site_occupancy
 _atom_site_charge
  Eu  Eu1  1  0.427990  0.563790  0.531090  1.0  2.1154
  Eu  Eu2  1  0.927990  0.063790  0.031090  1.0  2.1154
  Eu  Eu3  1  0.072010  0.436210  0.031090  1.0  2.1163
  Eu  Eu4  1  0.572010  0.936210  0.531090  1.0  2.1163
  Eu  Eu5  1  0.186210  0.677990  0.781090  1.0  2.1153
  Eu  Eu6  1  0.686210  0.177990  0.281090  1.0  2.1153
  Eu  Eu7  1  0.313790  0.322010  0.281090  1.0  2.1136
  Eu  Eu8  1  0.813790  0.822010  0.781090  1.0  2.1136
  Eu  Eu9  1  0.572010  0.436210  0.468910  1.0  2.1169
  Eu  Eu10  1  0.072010  0.936210  0.968910  1.0  2.1169
  Eu  Eu11  1  0.927990  0.563790  0.968910  1.0  2.1155
  Eu  Eu12  1  0.427990  0.063790  0.468910  1.0  2.1155
  Eu  Eu13  1  0.813790  0.322010  0.218910  1.0  2.114
  Eu  Eu14  1  0.313790  0.822010  0.718910  1.0  2.114
  Eu  Eu15  1  0.686210  0.677990  0.718910  1.0  2.1159
  Eu  Eu16  1  0.186210  0.177990  0.218910  1.0  2.1159
  H  H17  1  0.281600  0.400200  0.675100  1.0  0.1248
  H  H18  1  0.402400  0.336600  0.525600  1.0  0.1125
  H  H19  1  0.364300  0.360500  0.637400  1.0  0.1025
  H  H20  1  0.105500  0.287000  0.569300  1.0  0.1093
  H  H21  1  0.099300  0.360400  0.719200  1.0  0.1132
  H  H22  1  0.292200  0.223500  0.570000  1.0  0.1249
  H  H23  1  0.354000  0.249800  0.629200  1.0  0.1132
  H  H24  1  0.210000  0.519200  0.813000  1.0  0.3922
  H  H25  1  0.781600  0.900200  0.175100  1.0  0.1248
  H  H26  1  0.902400  0.836600  0.025600  1.0  0.1125
  H  H27  1  0.864300  0.860500  0.137400  1.0  0.1025
  H  H28  1  0.605500  0.787000  0.069300  1.0  0.1093
  H  H29  1  0.599300  0.860400  0.219200  1.0  0.1132
  H  H30  1  0.792200  0.723500  0.070000  1.0  0.1249
  H  H31  1  0.854000  0.749800  0.129200  1.0  0.1132
  H  H32  1  0.710000  0.019200  0.313000  1.0  0.3922
  H  H33  1  0.218400  0.599800  0.175100  1.0  0.1244
  H  H34  1  0.097600  0.663400  0.025600  1.0  0.1127
  H  H35  1  0.135700  0.639500  0.137400  1.0  0.1022
  H  H36  1  0.394500  0.713000  0.069300  1.0  0.1091
  H  H37  1  0.400700  0.639600  0.219200  1.0  0.1125
  H  H38  1  0.207800  0.776500  0.070000  1.0  0.1241
  H  H39  1  0.146000  0.750200  0.129200  1.0  0.1134
  H  H40  1  0.290000  0.480800  0.313000  1.0  0.3925
  H  H41  1  0.718400  0.099800  0.675100  1.0  0.1244
  H  H42  1  0.597600  0.163400  0.525600  1.0  0.1127
  H  H43  1  0.635700  0.139500  0.637400  1.0  0.1022
  H  H44  1  0.894500  0.213000  0.569300  1.0  0.1091
  H  H45  1  0.900700  0.139600  0.719200  1.0  0.1125
  H  H46  1  0.707800  0.276500  0.570000  1.0  0.1241
  H  H47  1  0.646000  0.250200  0.629200  1.0  0.1134
  H  H48  1  0.790000  0.980800  0.813000  1.0  0.3925
  H  H49  1  0.349800  0.531600  0.925100  1.0  0.1251
  H  H50  1  0.413400  0.652400  0.775600  1.0  0.112
  H  H51  1  0.389500  0.614300  0.887400  1.0  0.1014
  H  H52  1  0.463000  0.355500  0.819300  1.0  0.1088
  H  H53  1  0.389600  0.349300  0.969200  1.0  0.1128
  H  H54  1  0.526500  0.542200  0.820000  1.0  0.1242
  H  H55  1  0.500200  0.604000  0.879200  1.0  0.1125
  H  H56  1  0.230800  0.460000  0.063000  1.0  0.3931
  H  H57  1  0.849800  0.031600  0.425100  1.0  0.1251
  H  H58  1  0.913400  0.152400  0.275600  1.0  0.112
  H  H59  1  0.889500  0.114300  0.387400  1.0  0.1014
  H  H60  1  0.963000  0.855500  0.319300  1.0  0.1088
  H  H61  1  0.889600  0.849300  0.469200  1.0  0.1128
  H  H62  1  0.026500  0.042200  0.320000  1.0  0.1242
  H  H63  1  0.000200  0.104000  0.379200  1.0  0.1125
  H  H64  1  0.730800  0.960000  0.563000  1.0  0.3931
  H  H65  1  0.150200  0.468400  0.425100  1.0  0.1251
  H  H66  1  0.086600  0.347600  0.275600  1.0  0.1127
  H  H67  1  0.110500  0.385700  0.387400  1.0  0.1022
  H  H68  1  0.037000  0.644500  0.319300  1.0  0.1089
  H  H69  1  0.110400  0.650700  0.469200  1.0  0.1126
  H  H70  1  0.973500  0.457800  0.320000  1.0  0.1236
  H  H71  1  0.999800  0.396000  0.379200  1.0  0.1132
  H  H72  1  0.269200  0.540000  0.563000  1.0  0.3934
  H  H73  1  0.650200  0.968400  0.925100  1.0  0.1251
  H  H74  1  0.586600  0.847600  0.775600  1.0  0.1127
  H  H75  1  0.610500  0.885700  0.887400  1.0  0.1022
  H  H76  1  0.537000  0.144500  0.819300  1.0  0.1089
  H  H77  1  0.610400  0.150700  0.969200  1.0  0.1126
  H  H78  1  0.473500  0.957800  0.820000  1.0  0.1236
  H  H79  1  0.499800  0.896000  0.879200  1.0  0.1132
  H  H80  1  0.769200  0.040000  0.063000  1.0  0.3934
  H  H81  1  0.718400  0.599800  0.324900  1.0  0.1236
  H  H82  1  0.597600  0.663400  0.474400  1.0  0.1125
  H  H83  1  0.635700  0.639500  0.362600  1.0  0.1027
  H  H84  1  0.894500  0.713000  0.430700  1.0  0.1091
  H  H85  1  0.900700  0.639600  0.280800  1.0  0.1126
  H  H86  1  0.707800  0.776500  0.430000  1.0  0.1244
  H  H87  1  0.646000  0.750200  0.370800  1.0  0.1135
  H  H88  1  0.790000  0.480800  0.187000  1.0  0.3926
  H  H89  1  0.218400  0.099800  0.824900  1.0  0.1236
  H  H90  1  0.097600  0.163400  0.974400  1.0  0.1125
  H  H91  1  0.135700  0.139500  0.862600  1.0  0.1027
  H  H92  1  0.394500  0.213000  0.930700  1.0  0.1091
  H  H93  1  0.400700  0.139600  0.780800  1.0  0.1126
  H  H94  1  0.207800  0.276500  0.930000  1.0  0.1244
  H  H95  1  0.146000  0.250200  0.870800  1.0  0.1135
  H  H96  1  0.290000  0.980800  0.687000  1.0  0.3926
  H  H97  1  0.781600  0.400200  0.824900  1.0  0.1241
  H  H98  1  0.902400  0.336600  0.974400  1.0  0.1127
  H  H99  1  0.864300  0.360500  0.862600  1.0  0.1023
  H  H100  1  0.605500  0.287000  0.930700  1.0  0.1093
  H  H101  1  0.599300  0.360400  0.780800  1.0  0.113
  H  H102  1  0.792200  0.223500  0.930000  1.0  0.1248
  H  H103  1  0.854000  0.249800  0.870800  1.0  0.1132
  H  H104  1  0.710000  0.519200  0.687000  1.0  0.3924
  H  H105  1  0.281600  0.900200  0.324900  1.0  0.1241
  H  H106  1  0.402400  0.836600  0.474400  1.0  0.1127
  H  H107  1  0.364300  0.860500  0.362600  1.0  0.1023
  H  H108  1  0.105500  0.787000  0.430700  1.0  0.1093
  H  H109  1  0.099300  0.860400  0.280800  1.0  0.113
  H  H110  1  0.292200  0.723500  0.430000  1.0  0.1248
  H  H111  1  0.354000  0.749800  0.370800  1.0  0.1132
  H  H112  1  0.210000  0.019200  0.187000  1.0  0.3924
  H  H113  1  0.650200  0.468400  0.074900  1.0  0.1242
  H  H114  1  0.586600  0.347600  0.224400  1.0  0.1132
  H  H115  1  0.610500  0.385700  0.112600  1.0  0.1022
  H  H116  1  0.537000  0.644500  0.180700  1.0  0.1089
  H  H117  1  0.610400  0.650700  0.030800  1.0  0.1124
  H  H118  1  0.473500  0.457800  0.180000  1.0  0.124
  H  H119  1  0.499800  0.396000  0.120800  1.0  0.1126
  H  H120  1  0.769200  0.540000  0.937000  1.0  0.3933
  H  H121  1  0.150200  0.968400  0.574900  1.0  0.1242
  H  H122  1  0.086600  0.847600  0.724400  1.0  0.1132
  H  H123  1  0.110500  0.885700  0.612600  1.0  0.1022
  H  H124  1  0.037000  0.144500  0.680700  1.0  0.1089
  H  H125  1  0.110400  0.150700  0.530800  1.0  0.1124
  H  H126  1  0.973500  0.957800  0.680000  1.0  0.124
  H  H127  1  0.999800  0.896000  0.620800  1.0  0.1126
  H  H128  1  0.269200  0.040000  0.437000  1.0  0.3933
  H  H129  1  0.849800  0.531600  0.574900  1.0  0.1248
  H  H130  1  0.913400  0.652400  0.724400  1.0  0.1123
  H  H131  1  0.889500  0.614300  0.612600  1.0  0.1025
  H  H132  1  0.963000  0.355500  0.680700  1.0  0.1089
  H  H133  1  0.889600  0.349300  0.530800  1.0  0.1127
  H  H134  1  0.026500  0.542200  0.680000  1.0  0.1244
  H  H135  1  0.000200  0.604000  0.620800  1.0  0.1127
  H  H136  1  0.730800  0.460000  0.437000  1.0  0.3933
  H  H137  1  0.349800  0.031600  0.074900  1.0  0.1248
  H  H138  1  0.413400  0.152400  0.224400  1.0  0.1123
  H  H139  1  0.389500  0.114300  0.112600  1.0  0.1025
  H  H140  1  0.463000  0.855500  0.180700  1.0  0.1089
  H  H141  1  0.389600  0.849300  0.030800  1.0  0.1127
  H  H142  1  0.526500  0.042200  0.180000  1.0  0.1244
  H  H143  1  0.500200  0.104000  0.120800  1.0  0.1127
  H  H144  1  0.230800  0.960000  0.937000  1.0  0.3933
  C  C145  1  0.197340  0.298210  0.533500  1.0  -0.1339
  C  C146  1  0.246380  0.376270  0.654000  1.0  -0.1398
  C  C147  1  0.252050  0.328900  0.570400  1.0  0.1187
  C  C148  1  0.368540  0.216130  0.461500  1.0  0.7613
  C  C149  1  0.362600  0.354980  0.551100  1.0  -0.1684
  C  C150  1  0.181790  0.440160  0.793400  1.0  0.6575
  C  C151  1  0.189030  0.388520  0.706600  1.0  -0.0816
  C  C152  1  0.193370  0.256570  0.426600  1.0  0.6353
  C  C153  1  0.141360  0.309830  0.590900  1.0  -0.0223
  C  C154  1  0.137200  0.354000  0.678700  1.0  -0.0564
  C  C155  1  0.329970  0.248190  0.555200  1.0  -0.2003
  C  C156  1  0.354500  0.417880  0.492800  1.0  0.713
  C  C157  1  0.697340  0.798210  0.033500  1.0  -0.1339
  C  C158  1  0.746380  0.876270  0.154000  1.0  -0.1398
  C  C159  1  0.752050  0.828900  0.070400  1.0  0.1187
  C  C160  1  0.868540  0.716130  0.961500  1.0  0.7613
  C  C161  1  0.862600  0.854980  0.051100  1.0  -0.1684
  C  C162  1  0.681790  0.940160  0.293400  1.0  0.6575
  C  C163  1  0.689030  0.888520  0.206600  1.0  -0.0816
  C  C164  1  0.693370  0.756570  0.926600  1.0  0.6353
  C  C165  1  0.641360  0.809830  0.090900  1.0  -0.0223
  C  C166  1  0.637200  0.854000  0.178700  1.0  -0.0564
  C  C167  1  0.829970  0.748190  0.055200  1.0  -0.2003
  C  C168  1  0.854500  0.917880  0.992800  1.0  0.713
  C  C169  1  0.302660  0.701790  0.033500  1.0  -0.1326
  C  C170  1  0.253620  0.623730  0.154000  1.0  -0.1403
  C  C171  1  0.247950  0.671100  0.070400  1.0  0.1198
  C  C172  1  0.131460  0.783870  0.961500  1.0  0.7617
  C  C173  1  0.137400  0.645020  0.051100  1.0  -0.1688
  C  C174  1  0.318210  0.559840  0.293400  1.0  0.6592
  C  C175  1  0.310970  0.611480  0.206600  1.0  -0.0824
  C  C176  1  0.306630  0.743430  0.926600  1.0  0.6358
  C  C177  1  0.358640  0.690170  0.090900  1.0  -0.0215
  C  C178  1  0.362800  0.646000  0.178700  1.0  -0.0567
  C  C179  1  0.170030  0.751810  0.055200  1.0  -0.2005
  C  C180  1  0.145500  0.582120  0.992800  1.0  0.7132
  C  C181  1  0.802660  0.201790  0.533500  1.0  -0.1326
  C  C182  1  0.753620  0.123730  0.654000  1.0  -0.1403
  C  C183  1  0.747950  0.171100  0.570400  1.0  0.1198
  C  C184  1  0.631460  0.283870  0.461500  1.0  0.7617
  C  C185  1  0.637400  0.145020  0.551100  1.0  -0.1688
  C  C186  1  0.818210  0.059840  0.793400  1.0  0.6592
  C  C187  1  0.810970  0.111480  0.706600  1.0  -0.0824
  C  C188  1  0.806630  0.243430  0.426600  1.0  0.6358
  C  C189  1  0.858640  0.190170  0.590900  1.0  -0.0215
  C  C190  1  0.862800  0.146000  0.678700  1.0  -0.0567
  C  C191  1  0.670030  0.251810  0.555200  1.0  -0.2005
  C  C192  1  0.645500  0.082120  0.492800  1.0  0.7132
  C  C193  1  0.451790  0.447340  0.783500  1.0  -0.1355
  C  C194  1  0.373730  0.496380  0.904000  1.0  -0.1378
  C  C195  1  0.421100  0.502050  0.820400  1.0  0.1206
  C  C196  1  0.533870  0.618540  0.711500  1.0  0.7607
  C  C197  1  0.395020  0.612600  0.801100  1.0  -0.1691
  C  C198  1  0.309840  0.431790  0.043400  1.0  0.6592
  C  C199  1  0.361480  0.439030  0.956600  1.0  -0.0797
  C  C200  1  0.493430  0.443370  0.676600  1.0  0.6354
  C  C201  1  0.440170  0.391360  0.840900  1.0  -0.027
  C  C202  1  0.396000  0.387200  0.928700  1.0  -0.0573
  C  C203  1  0.501810  0.579970  0.805200  1.0  -0.1992
  C  C204  1  0.332120  0.604500  0.742800  1.0  0.7092
  C  C205  1  0.951790  0.947340  0.283500  1.0  -0.1355
  C  C206  1  0.873730  0.996380  0.404000  1.0  -0.1378
  C  C207  1  0.921100  0.002050  0.320400  1.0  0.1206
  C  C208  1  0.033870  0.118540  0.211500  1.0  0.7607
  C  C209  1  0.895020  0.112600  0.301100  1.0  -0.1691
  C  C210  1  0.809840  0.931790  0.543400  1.0  0.6592
  C  C211  1  0.861480  0.939030  0.456600  1.0  -0.0797
  C  C212  1  0.993430  0.943370  0.176600  1.0  0.6354
  C  C213  1  0.940170  0.891360  0.340900  1.0  -0.027
  C  C214  1  0.896000  0.887200  0.428700  1.0  -0.0573
  C  C215  1  0.001810  0.079970  0.305200  1.0  -0.1992
  C  C216  1  0.832120  0.104500  0.242800  1.0  0.7092
  C  C217  1  0.048210  0.552660  0.283500  1.0  -0.1355
  C  C218  1  0.126270  0.503620  0.404000  1.0  -0.1383
  C  C219  1  0.078900  0.497950  0.320400  1.0  0.119
  C  C220  1  0.966130  0.381460  0.211500  1.0  0.7611
  C  C221  1  0.104980  0.387400  0.301100  1.0  -0.1693
  C  C222  1  0.190160  0.568210  0.543400  1.0  0.658
  C  C223  1  0.138520  0.560970  0.456600  1.0  -0.0806
  C  C224  1  0.006570  0.556630  0.176600  1.0  0.6342
  C  C225  1  0.059830  0.608640  0.340900  1.0  -0.026
  C  C226  1  0.104000  0.612800  0.428700  1.0  -0.0563
  C  C227  1  0.998190  0.420030  0.305200  1.0  -0.1977
  C  C228  1  0.167880  0.395500  0.242800  1.0  0.7098
  C  C229  1  0.548210  0.052660  0.783500  1.0  -0.1355
  C  C230  1  0.626270  0.003620  0.904000  1.0  -0.1383
  C  C231  1  0.578900  0.997950  0.820400  1.0  0.119
  C  C232  1  0.466130  0.881460  0.711500  1.0  0.7611
  C  C233  1  0.604980  0.887400  0.801100  1.0  -0.1693
  C  C234  1  0.690160  0.068210  0.043400  1.0  0.658
  C  C235  1  0.638520  0.060970  0.956600  1.0  -0.0806
  C  C236  1  0.506570  0.056630  0.676600  1.0  0.6342
  C  C237  1  0.559830  0.108640  0.840900  1.0  -0.026
  C  C238  1  0.604000  0.112800  0.928700  1.0  -0.0563
  C  C239  1  0.498190  0.920030  0.805200  1.0  -0.1977
  C  C240  1  0.667880  0.895500  0.742800  1.0  0.7098
  C  C241  1  0.802660  0.701790  0.466500  1.0  -0.1327
  C  C242  1  0.753620  0.623730  0.346000  1.0  -0.14
  C  C243  1  0.747950  0.671100  0.429600  1.0  0.1201
  C  C244  1  0.631460  0.783870  0.538500  1.0  0.7607
  C  C245  1  0.637400  0.645020  0.448900  1.0  -0.1681
  C  C246  1  0.818210  0.559840  0.206600  1.0  0.6583
  C  C247  1  0.810970  0.611480  0.293400  1.0  -0.0826
  C  C248  1  0.806630  0.743430  0.573400  1.0  0.6361
  C  C249  1  0.858640  0.690170  0.409100  1.0  -0.0213
  C  C250  1  0.862800  0.646000  0.321300  1.0  -0.0566
  C  C251  1  0.670030  0.751810  0.444800  1.0  -0.1954
  C  C252  1  0.645500  0.582120  0.507200  1.0  0.7125
  C  C253  1  0.302660  0.201790  0.966500  1.0  -0.1327
  C  C254  1  0.253620  0.123730  0.846000  1.0  -0.14
  C  C255  1  0.247950  0.171100  0.929600  1.0  0.1201
  C  C256  1  0.131460  0.283870  0.038500  1.0  0.7607
  C  C257  1  0.137400  0.145020  0.948900  1.0  -0.1681
  C  C258  1  0.318210  0.059840  0.706600  1.0  0.6583
  C  C259  1  0.310970  0.111480  0.793400  1.0  -0.0826
  C  C260  1  0.306630  0.243430  0.073400  1.0  0.6361
  C  C261  1  0.358640  0.190170  0.909100  1.0  -0.0213
  C  C262  1  0.362800  0.146000  0.821300  1.0  -0.0566
  C  C263  1  0.170030  0.251810  0.944800  1.0  -0.1954
  C  C264  1  0.145500  0.082120  0.007200  1.0  0.7125
  C  C265  1  0.697340  0.298210  0.966500  1.0  -0.1337
  C  C266  1  0.746380  0.376270  0.846000  1.0  -0.1397
  C  C267  1  0.752050  0.328900  0.929600  1.0  0.1186
  C  C268  1  0.868540  0.216130  0.038500  1.0  0.7614
  C  C269  1  0.862600  0.354980  0.948900  1.0  -0.1673
  C  C270  1  0.681790  0.440160  0.706600  1.0  0.6567
  C  C271  1  0.689030  0.388520  0.793400  1.0  -0.0822
  C  C272  1  0.693370  0.256570  0.073400  1.0  0.6358
  C  C273  1  0.641360  0.309830  0.909100  1.0  -0.0224
  C  C274  1  0.637200  0.354000  0.821300  1.0  -0.0563
  C  C275  1  0.829970  0.248190  0.944800  1.0  -0.1952
  C  C276  1  0.854500  0.417880  0.007200  1.0  0.7122
  C  C277  1  0.197340  0.798210  0.466500  1.0  -0.1337
  C  C278  1  0.246380  0.876270  0.346000  1.0  -0.1397
  C  C279  1  0.252050  0.828900  0.429600  1.0  0.1186
  C  C280  1  0.368540  0.716130  0.538500  1.0  0.7614
  C  C281  1  0.362600  0.854980  0.448900  1.0  -0.1673
  C  C282  1  0.181790  0.940160  0.206600  1.0  0.6567
  C  C283  1  0.189030  0.888520  0.293400  1.0  -0.0822
  C  C284  1  0.193370  0.756570  0.573400  1.0  0.6358
  C  C285  1  0.141360  0.809830  0.409100  1.0  -0.0224
  C  C286  1  0.137200  0.854000  0.321300  1.0  -0.0563
  C  C287  1  0.329970  0.748190  0.444800  1.0  -0.1952
  C  C288  1  0.354500  0.917880  0.507200  1.0  0.7122
  C  C289  1  0.548210  0.552660  0.216500  1.0  -0.1355
  C  C290  1  0.626270  0.503620  0.096000  1.0  -0.1378
  C  C291  1  0.578900  0.497950  0.179600  1.0  0.1192
  C  C292  1  0.466130  0.381460  0.288500  1.0  0.7609
  C  C293  1  0.604980  0.387400  0.198900  1.0  -0.1689
  C  C294  1  0.690160  0.568210  0.956600  1.0  0.6573
  C  C295  1  0.638520  0.560970  0.043400  1.0  -0.0811
  C  C296  1  0.506570  0.556630  0.323400  1.0  0.6349
  C  C297  1  0.559830  0.608640  0.159100  1.0  -0.026
  C  C298  1  0.604000  0.612800  0.071300  1.0  -0.0561
  C  C299  1  0.498190  0.420030  0.194800  1.0  -0.1919
  C  C300  1  0.667880  0.395500  0.257200  1.0  0.709
  C  C301  1  0.048210  0.052660  0.716500  1.0  -0.1355
  C  C302  1  0.126270  0.003620  0.596000  1.0  -0.1378
  C  C303  1  0.078900  0.997950  0.679600  1.0  0.1192
  C  C304  1  0.966130  0.881460  0.788500  1.0  0.7609
  C  C305  1  0.104980  0.887400  0.698900  1.0  -0.1689
  C  C306  1  0.190160  0.068210  0.456600  1.0  0.6573
  C  C307  1  0.138520  0.060970  0.543400  1.0  -0.0811
  C  C308  1  0.006570  0.056630  0.823400  1.0  0.6349
  C  C309  1  0.059830  0.108640  0.659100  1.0  -0.026
  C  C310  1  0.104000  0.112800  0.571300  1.0  -0.0561
  C  C311  1  0.998190  0.920030  0.694800  1.0  -0.1919
  C  C312  1  0.167880  0.895500  0.757200  1.0  0.709
  C  C313  1  0.951790  0.447340  0.716500  1.0  -0.1354
  C  C314  1  0.873730  0.496380  0.596000  1.0  -0.1381
  C  C315  1  0.921100  0.502050  0.679600  1.0  0.1207
  C  C316  1  0.033870  0.618540  0.788500  1.0  0.7601
  C  C317  1  0.895020  0.612600  0.698900  1.0  -0.1679
  C  C318  1  0.809840  0.431790  0.456600  1.0  0.6585
  C  C319  1  0.861480  0.439030  0.543400  1.0  -0.0803
  C  C320  1  0.993430  0.443370  0.823400  1.0  0.636
  C  C321  1  0.940170  0.391360  0.659100  1.0  -0.027
  C  C322  1  0.896000  0.387200  0.571300  1.0  -0.0571
  C  C323  1  0.001810  0.579970  0.694800  1.0  -0.1934
  C  C324  1  0.832120  0.604500  0.757200  1.0  0.7083
  C  C325  1  0.451790  0.947340  0.216500  1.0  -0.1354
  C  C326  1  0.373730  0.996380  0.096000  1.0  -0.1381
  C  C327  1  0.421100  0.002050  0.179600  1.0  0.1207
  C  C328  1  0.533870  0.118540  0.288500  1.0  0.7601
  C  C329  1  0.395020  0.112600  0.198900  1.0  -0.1679
  C  C330  1  0.309840  0.931790  0.956600  1.0  0.6585
  C  C331  1  0.361480  0.939030  0.043400  1.0  -0.0803
  C  C332  1  0.493430  0.943370  0.323400  1.0  0.636
  C  C333  1  0.440170  0.891360  0.159100  1.0  -0.027
  C  C334  1  0.396000  0.887200  0.071300  1.0  -0.0571
  C  C335  1  0.501810  0.079970  0.194800  1.0  -0.1934
  C  C336  1  0.332120  0.104500  0.257200  1.0  0.7083
  N  N337  1  0.311670  0.312320  0.521400  1.0  -0.1873
  N  N338  1  0.811670  0.812320  0.021400  1.0  -0.1873
  N  N339  1  0.188330  0.687680  0.021400  1.0  -0.1879
  N  N340  1  0.688330  0.187680  0.521400  1.0  -0.1879
  N  N341  1  0.437680  0.561670  0.771400  1.0  -0.1874
  N  N342  1  0.937680  0.061670  0.271400  1.0  -0.1874
  N  N343  1  0.062320  0.438330  0.271400  1.0  -0.1882
  N  N344  1  0.562320  0.938330  0.771400  1.0  -0.1882
  N  N345  1  0.688330  0.687680  0.478600  1.0  -0.1888
  N  N346  1  0.188330  0.187680  0.978600  1.0  -0.1888
  N  N347  1  0.811670  0.312320  0.978600  1.0  -0.1888
  N  N348  1  0.311670  0.812320  0.478600  1.0  -0.1888
  N  N349  1  0.562320  0.438330  0.228600  1.0  -0.189
  N  N350  1  0.062320  0.938330  0.728600  1.0  -0.189
  N  N351  1  0.937680  0.561670  0.728600  1.0  -0.1889
  N  N352  1  0.437680  0.061670  0.228600  1.0  -0.1889
  O  O353  1  0.380520  0.463310  0.539500  1.0  -0.707
  O  O354  1  0.321900  0.418810  0.398300  1.0  -0.6483
  O  O355  1  0.142130  0.235510  0.395500  1.0  -0.6211
  O  O356  1  0.374790  0.241240  0.361900  1.0  -0.6188
  O  O357  1  0.242160  0.244660  0.365900  1.0  -0.7988
  O  O358  1  0.391160  0.165000  0.489800  1.0  -0.6942
  O  O359  1  0.139060  0.441410  0.862600  1.0  -0.6137
  O  O360  1  0.223050  0.484130  0.788600  1.0  -0.5002
  O  O361  1  0.880520  0.963310  0.039500  1.0  -0.707
  O  O362  1  0.821900  0.918810  0.898300  1.0  -0.6483
  O  O363  1  0.642130  0.735510  0.895500  1.0  -0.6211
  O  O364  1  0.874790  0.741240  0.861900  1.0  -0.6188
  O  O365  1  0.742160  0.744660  0.865900  1.0  -0.7988
  O  O366  1  0.891160  0.665000  0.989800  1.0  -0.6942
  O  O367  1  0.639060  0.941410  0.362600  1.0  -0.6137
  O  O368  1  0.723050  0.984130  0.288600  1.0  -0.5002
  O  O369  1  0.119480  0.536690  0.039500  1.0  -0.7059
  O  O370  1  0.178100  0.581190  0.898300  1.0  -0.6483
  O  O371  1  0.357870  0.764490  0.895500  1.0  -0.6204
  O  O372  1  0.125210  0.758760  0.861900  1.0  -0.6191
  O  O373  1  0.257840  0.755340  0.865900  1.0  -0.7983
  O  O374  1  0.108840  0.835000  0.989800  1.0  -0.694
  O  O375  1  0.360940  0.558590  0.362600  1.0  -0.6139
  O  O376  1  0.276950  0.515870  0.288600  1.0  -0.5017
  O  O377  1  0.619480  0.036690  0.539500  1.0  -0.7059
  O  O378  1  0.678100  0.081190  0.398300  1.0  -0.6483
  O  O379  1  0.857870  0.264490  0.395500  1.0  -0.6204
  O  O380  1  0.625210  0.258760  0.361900  1.0  -0.6191
  O  O381  1  0.757840  0.255340  0.365900  1.0  -0.7983
  O  O382  1  0.608840  0.335000  0.489800  1.0  -0.694
  O  O383  1  0.860940  0.058590  0.862600  1.0  -0.6139
  O  O384  1  0.776950  0.015870  0.788600  1.0  -0.5017
  O  O385  1  0.286690  0.630520  0.789500  1.0  -0.7062
  O  O386  1  0.331190  0.571900  0.648300  1.0  -0.6487
  O  O387  1  0.514490  0.392130  0.645500  1.0  -0.62
  O  O388  1  0.508760  0.624790  0.611900  1.0  -0.6196
  O  O389  1  0.505340  0.492160  0.615900  1.0  -0.7975
  O  O390  1  0.585000  0.641160  0.739800  1.0  -0.692
  O  O391  1  0.308590  0.389060  0.112600  1.0  -0.6139
  O  O392  1  0.265870  0.473050  0.038600  1.0  -0.5033
  O  O393  1  0.786690  0.130520  0.289500  1.0  -0.7062
  O  O394  1  0.831190  0.071900  0.148300  1.0  -0.6487
  O  O395  1  0.014490  0.892130  0.145500  1.0  -0.62
  O  O396  1  0.008760  0.124790  0.111900  1.0  -0.6196
  O  O397  1  0.005340  0.992160  0.115900  1.0  -0.7975
  O  O398  1  0.085000  0.141160  0.239800  1.0  -0.692
  O  O399  1  0.808590  0.889060  0.612600  1.0  -0.6139
  O  O400  1  0.765870  0.973050  0.538600  1.0  -0.5033
  O  O401  1  0.213310  0.369480  0.289500  1.0  -0.7058
  O  O402  1  0.168810  0.428100  0.148300  1.0  -0.6482
  O  O403  1  0.985510  0.607870  0.145500  1.0  -0.6194
  O  O404  1  0.991240  0.375210  0.111900  1.0  -0.6204
  O  O405  1  0.994660  0.507840  0.115900  1.0  -0.7989
  O  O406  1  0.915000  0.358840  0.239800  1.0  -0.6923
  O  O407  1  0.191410  0.610940  0.612600  1.0  -0.6147
  O  O408  1  0.234130  0.526950  0.538600  1.0  -0.5032
  O  O409  1  0.713310  0.869480  0.789500  1.0  -0.7058
  O  O410  1  0.668810  0.928100  0.648300  1.0  -0.6482
  O  O411  1  0.485510  0.107870  0.645500  1.0  -0.6194
  O  O412  1  0.491240  0.875210  0.611900  1.0  -0.6204
  O  O413  1  0.494660  0.007840  0.615900  1.0  -0.7989
  O  O414  1  0.415000  0.858840  0.739800  1.0  -0.6923
  O  O415  1  0.691410  0.110940  0.112600  1.0  -0.6147
  O  O416  1  0.734130  0.026950  0.038600  1.0  -0.5032
  O  O417  1  0.619480  0.536690  0.460500  1.0  -0.7064
  O  O418  1  0.678100  0.581190  0.601700  1.0  -0.649
  O  O419  1  0.857870  0.764490  0.604500  1.0  -0.6219
  O  O420  1  0.625210  0.758760  0.638100  1.0  -0.6196
  O  O421  1  0.757840  0.755340  0.634100  1.0  -0.7983
  O  O422  1  0.608840  0.835000  0.510200  1.0  -0.6936
  O  O423  1  0.860940  0.558590  0.137400  1.0  -0.6139
  O  O424  1  0.776950  0.515870  0.211400  1.0  -0.5014
  O  O425  1  0.119480  0.036690  0.960500  1.0  -0.7064
  O  O426  1  0.178100  0.081190  0.101700  1.0  -0.649
  O  O427  1  0.357870  0.264490  0.104500  1.0  -0.6219
  O  O428  1  0.125210  0.258760  0.138100  1.0  -0.6196
  O  O429  1  0.257840  0.255340  0.134100  1.0  -0.7983
  O  O430  1  0.108840  0.335000  0.010200  1.0  -0.6936
  O  O431  1  0.360940  0.058590  0.637400  1.0  -0.6139
  O  O432  1  0.276950  0.015870  0.711400  1.0  -0.5014
  O  O433  1  0.880520  0.463310  0.960500  1.0  -0.7071
  O  O434  1  0.821900  0.418810  0.101700  1.0  -0.6496
  O  O435  1  0.642130  0.235510  0.104500  1.0  -0.6217
  O  O436  1  0.874790  0.241240  0.138100  1.0  -0.6195
  O  O437  1  0.742160  0.244660  0.134100  1.0  -0.798
  O  O438  1  0.891160  0.165000  0.010200  1.0  -0.6934
  O  O439  1  0.639060  0.441410  0.637400  1.0  -0.6143
  O  O440  1  0.723050  0.484130  0.711400  1.0  -0.4995
  O  O441  1  0.380520  0.963310  0.460500  1.0  -0.7071
  O  O442  1  0.321900  0.918810  0.601700  1.0  -0.6496
  O  O443  1  0.142130  0.735510  0.604500  1.0  -0.6217
  O  O444  1  0.374790  0.741240  0.638100  1.0  -0.6195
  O  O445  1  0.242160  0.744660  0.634100  1.0  -0.798
  O  O446  1  0.391160  0.665000  0.510200  1.0  -0.6934
  O  O447  1  0.139060  0.941410  0.137400  1.0  -0.6143
  O  O448  1  0.223050  0.984130  0.211400  1.0  -0.4995
  O  O449  1  0.713310  0.369480  0.210500  1.0  -0.7063
  O  O450  1  0.668810  0.428100  0.351700  1.0  -0.6492
  O  O451  1  0.485510  0.607870  0.354500  1.0  -0.621
  O  O452  1  0.491240  0.375210  0.388100  1.0  -0.6207
  O  O453  1  0.494660  0.507840  0.384100  1.0  -0.7976
  O  O454  1  0.415000  0.358840  0.260200  1.0  -0.692
  O  O455  1  0.691410  0.610940  0.887400  1.0  -0.6146
  O  O456  1  0.734130  0.526950  0.961400  1.0  -0.5026
  O  O457  1  0.213310  0.869480  0.710500  1.0  -0.7063
  O  O458  1  0.168810  0.928100  0.851700  1.0  -0.6492
  O  O459  1  0.985510  0.107870  0.854500  1.0  -0.621
  O  O460  1  0.991240  0.875210  0.888100  1.0  -0.6207
  O  O461  1  0.994660  0.007840  0.884100  1.0  -0.7976
  O  O462  1  0.915000  0.858840  0.760200  1.0  -0.692
  O  O463  1  0.191410  0.110940  0.387400  1.0  -0.6146
  O  O464  1  0.234130  0.026950  0.461400  1.0  -0.5026
  O  O465  1  0.786690  0.630520  0.710500  1.0  -0.7062
  O  O466  1  0.831190  0.571900  0.851700  1.0  -0.6495
  O  O467  1  0.014490  0.392130  0.854500  1.0  -0.6206
  O  O468  1  0.008760  0.624790  0.888100  1.0  -0.6213
  O  O469  1  0.005340  0.492160  0.884100  1.0  -0.7973
  O  O470  1  0.085000  0.641160  0.760200  1.0  -0.6909
  O  O471  1  0.808590  0.389060  0.387400  1.0  -0.6143
  O  O472  1  0.765870  0.473050  0.461400  1.0  -0.5028
  O  O473  1  0.286690  0.130520  0.210500  1.0  -0.7062
  O  O474  1  0.331190  0.071900  0.351700  1.0  -0.6495
  O  O475  1  0.514490  0.892130  0.354500  1.0  -0.6206
  O  O476  1  0.508760  0.124790  0.388100  1.0  -0.6213
  O  O477  1  0.505340  0.992160  0.384100  1.0  -0.7973
  O  O478  1  0.585000  0.141160  0.260200  1.0  -0.6909
  O  O479  1  0.308590  0.889060  0.887400  1.0  -0.6143
  O  O480  1  0.265870  0.973050  0.961400  1.0  -0.5028
