# generated using pymatgen
data_SmH8C12NO8
_symmetry_space_group_name_H-M   'P 1'
_cell_length_a   21.57650000
_cell_length_b   21.57650000
_cell_length_c   11.34690000
_cell_angle_alpha   90.00000000
_cell_angle_beta   90.00000000
_cell_angle_gamma   90.00000000
_symmetry_Int_Tables_number   1
_chemical_formula_structural   SmH8C12NO8
_chemical_formula_sum   'Sm16 H128 C192 N16 O128'
_cell_volume   5282.49655745
_cell_formula_units_Z   16
loop_
 _symmetry_equiv_pos_site_id
 _symmetry_equiv_pos_as_xyz
  1  'x, y, z'
loop_
 _atom_site_type_symbol
 _atom_site_label
 _atom_site_symmetry_multiplicity
 _atom_site_fract_x
 _atom_site_fract_y
 _atom_site_fract_z
 _atom_site_occupancy
 _atom_site_charge
  Sm  Sm1  1  0.427760  0.936180  0.030580  1.0  2.2965
  Sm  Sm2  1  0.927760  0.436180  0.530580  1.0  2.2965
  Sm  Sm3  1  0.072240  0.063820  0.530580  1.0  2.2956
  Sm  Sm4  1  0.572240  0.563820  0.030580  1.0  2.2956
  Sm  Sm5  1  0.813820  0.677760  0.280580  1.0  2.2946
  Sm  Sm6  1  0.313820  0.177760  0.780580  1.0  2.2946
  Sm  Sm7  1  0.686180  0.322240  0.780580  1.0  2.295
  Sm  Sm8  1  0.186180  0.822240  0.280580  1.0  2.295
  Sm  Sm9  1  0.572240  0.063820  0.969420  1.0  2.2953
  Sm  Sm10  1  0.072240  0.563820  0.469420  1.0  2.2953
  Sm  Sm11  1  0.927760  0.936180  0.469420  1.0  2.2963
  Sm  Sm12  1  0.427760  0.436180  0.969420  1.0  2.2963
  Sm  Sm13  1  0.186180  0.322240  0.719420  1.0  2.295
  Sm  Sm14  1  0.686180  0.822240  0.219420  1.0  2.295
  Sm  Sm15  1  0.313820  0.677760  0.219420  1.0  2.2945
  Sm  Sm16  1  0.813820  0.177760  0.719420  1.0  2.2945
  H  H17  1  0.461700  0.144100  0.318000  1.0  0.0975
  H  H18  1  0.388900  0.150600  0.468600  1.0  0.1092
  H  H19  1  0.349600  0.968100  0.423700  1.0  0.1192
  H  H20  1  0.388900  0.886000  0.387400  1.0  0.0906
  H  H21  1  0.413000  0.847700  0.275600  1.0  0.1054
  H  H22  1  0.500100  0.896100  0.379900  1.0  0.1122
  H  H23  1  0.526200  0.958000  0.320200  1.0  0.1126
  H  H24  1  0.237800  0.039500  0.585600  1.0  0.4077
  H  H25  1  0.961700  0.644100  0.818000  1.0  0.0975
  H  H26  1  0.888900  0.650600  0.968600  1.0  0.1092
  H  H27  1  0.849600  0.468100  0.923700  1.0  0.1192
  H  H28  1  0.888900  0.386000  0.887400  1.0  0.0906
  H  H29  1  0.913000  0.347700  0.775600  1.0  0.1054
  H  H30  1  0.000100  0.396100  0.879900  1.0  0.1122
  H  H31  1  0.026200  0.458000  0.820200  1.0  0.1126
  H  H32  1  0.737800  0.539500  0.085600  1.0  0.4077
  H  H33  1  0.038300  0.855900  0.818000  1.0  0.0973
  H  H34  1  0.111100  0.849400  0.968600  1.0  0.1095
  H  H35  1  0.150400  0.031900  0.923700  1.0  0.1191
  H  H36  1  0.111100  0.114000  0.887400  1.0  0.0914
  H  H37  1  0.087000  0.152300  0.775600  1.0  0.1057
  H  H38  1  0.999900  0.103900  0.879900  1.0  0.1118
  H  H39  1  0.973800  0.042000  0.820200  1.0  0.1129
  H  H40  1  0.262200  0.960500  0.085600  1.0  0.4081
  H  H41  1  0.538300  0.355900  0.318000  1.0  0.0973
  H  H42  1  0.611100  0.349400  0.468600  1.0  0.1095
  H  H43  1  0.650400  0.531900  0.423700  1.0  0.1191
  H  H44  1  0.611100  0.614000  0.387400  1.0  0.0914
  H  H45  1  0.587000  0.652300  0.275600  1.0  0.1057
  H  H46  1  0.499900  0.603900  0.379900  1.0  0.1118
  H  H47  1  0.473800  0.542000  0.320200  1.0  0.1129
  H  H48  1  0.762200  0.460500  0.585600  1.0  0.4081
  H  H49  1  0.605900  0.711700  0.568000  1.0  0.0975
  H  H50  1  0.599400  0.638900  0.718600  1.0  0.1095
  H  H51  1  0.781900  0.599600  0.673700  1.0  0.1191
  H  H52  1  0.864000  0.638900  0.637400  1.0  0.0914
  H  H53  1  0.902300  0.663000  0.525600  1.0  0.1056
  H  H54  1  0.853900  0.750100  0.629900  1.0  0.1125
  H  H55  1  0.792000  0.776200  0.570200  1.0  0.1141
  H  H56  1  0.710500  0.487800  0.835600  1.0  0.4071
  H  H57  1  0.105900  0.211700  0.068000  1.0  0.0975
  H  H58  1  0.099400  0.138900  0.218600  1.0  0.1095
  H  H59  1  0.281900  0.099600  0.173700  1.0  0.1191
  H  H60  1  0.364000  0.138900  0.137400  1.0  0.0914
  H  H61  1  0.402300  0.163000  0.025600  1.0  0.1056
  H  H62  1  0.353900  0.250100  0.129900  1.0  0.1125
  H  H63  1  0.292000  0.276200  0.070200  1.0  0.1141
  H  H64  1  0.210500  0.987800  0.335600  1.0  0.4071
  H  H65  1  0.894100  0.288300  0.068000  1.0  0.0979
  H  H66  1  0.900600  0.361100  0.218600  1.0  0.1092
  H  H67  1  0.718100  0.400400  0.173700  1.0  0.1192
  H  H68  1  0.636000  0.361100  0.137400  1.0  0.0919
  H  H69  1  0.597700  0.337000  0.025600  1.0  0.1059
  H  H70  1  0.646100  0.249900  0.129900  1.0  0.1132
  H  H71  1  0.708000  0.223800  0.070200  1.0  0.1137
  H  H72  1  0.789500  0.512200  0.335600  1.0  0.4078
  H  H73  1  0.394100  0.788300  0.568000  1.0  0.0979
  H  H74  1  0.400600  0.861100  0.718600  1.0  0.1092
  H  H75  1  0.218100  0.900400  0.673700  1.0  0.1192
  H  H76  1  0.136000  0.861100  0.637400  1.0  0.0919
  H  H77  1  0.097700  0.837000  0.525600  1.0  0.1059
  H  H78  1  0.146100  0.749900  0.629900  1.0  0.1132
  H  H79  1  0.208000  0.723800  0.570200  1.0  0.1137
  H  H80  1  0.289500  0.012200  0.835600  1.0  0.4078
  H  H81  1  0.538300  0.855900  0.682000  1.0  0.0972
  H  H82  1  0.611100  0.849400  0.531400  1.0  0.1092
  H  H83  1  0.650400  0.031900  0.576300  1.0  0.1188
  H  H84  1  0.611100  0.114000  0.612600  1.0  0.0919
  H  H85  1  0.587000  0.152300  0.724400  1.0  0.1058
  H  H86  1  0.499900  0.103900  0.620100  1.0  0.1123
  H  H87  1  0.473800  0.042000  0.679800  1.0  0.1125
  H  H88  1  0.762200  0.960500  0.414400  1.0  0.4068
  H  H89  1  0.038300  0.355900  0.182000  1.0  0.0972
  H  H90  1  0.111100  0.349400  0.031400  1.0  0.1092
  H  H91  1  0.150400  0.531900  0.076300  1.0  0.1188
  H  H92  1  0.111100  0.614000  0.112600  1.0  0.0919
  H  H93  1  0.087000  0.652300  0.224400  1.0  0.1058
  H  H94  1  0.999900  0.603900  0.120100  1.0  0.1123
  H  H95  1  0.973800  0.542000  0.179800  1.0  0.1125
  H  H96  1  0.262200  0.460500  0.914400  1.0  0.4068
  H  H97  1  0.961700  0.144100  0.182000  1.0  0.0973
  H  H98  1  0.888900  0.150600  0.031400  1.0  0.1092
  H  H99  1  0.849600  0.968100  0.076300  1.0  0.1187
  H  H100  1  0.888900  0.886000  0.112600  1.0  0.0917
  H  H101  1  0.913000  0.847700  0.224400  1.0  0.1062
  H  H102  1  0.000100  0.896100  0.120100  1.0  0.1116
  H  H103  1  0.026200  0.958000  0.179800  1.0  0.1128
  H  H104  1  0.737800  0.039500  0.914400  1.0  0.4068
  H  H105  1  0.461700  0.644100  0.682000  1.0  0.0973
  H  H106  1  0.388900  0.650600  0.531400  1.0  0.1092
  H  H107  1  0.349600  0.468100  0.576300  1.0  0.1187
  H  H108  1  0.388900  0.386000  0.612600  1.0  0.0917
  H  H109  1  0.413000  0.347700  0.724400  1.0  0.1062
  H  H110  1  0.500100  0.396100  0.620100  1.0  0.1116
  H  H111  1  0.526200  0.458000  0.679800  1.0  0.1128
  H  H112  1  0.237800  0.539500  0.414400  1.0  0.4068
  H  H113  1  0.394100  0.288300  0.432000  1.0  0.0976
  H  H114  1  0.400600  0.361100  0.281400  1.0  0.1091
  H  H115  1  0.218100  0.400400  0.326300  1.0  0.1188
  H  H116  1  0.136000  0.361100  0.362600  1.0  0.0921
  H  H117  1  0.097700  0.337000  0.474400  1.0  0.1064
  H  H118  1  0.146100  0.249900  0.370100  1.0  0.1128
  H  H119  1  0.208000  0.223800  0.429800  1.0  0.1133
  H  H120  1  0.289500  0.512200  0.164400  1.0  0.407
  H  H121  1  0.894100  0.788300  0.932000  1.0  0.0976
  H  H122  1  0.900600  0.861100  0.781400  1.0  0.1091
  H  H123  1  0.718100  0.900400  0.826300  1.0  0.1188
  H  H124  1  0.636000  0.861100  0.862600  1.0  0.0921
  H  H125  1  0.597700  0.837000  0.974400  1.0  0.1064
  H  H126  1  0.646100  0.749900  0.870100  1.0  0.1128
  H  H127  1  0.708000  0.723800  0.929800  1.0  0.1133
  H  H128  1  0.789500  0.012200  0.664400  1.0  0.407
  H  H129  1  0.105900  0.711700  0.932000  1.0  0.0973
  H  H130  1  0.099400  0.638900  0.781400  1.0  0.1097
  H  H131  1  0.281900  0.599600  0.826300  1.0  0.1185
  H  H132  1  0.364000  0.638900  0.862600  1.0  0.0918
  H  H133  1  0.402300  0.663000  0.974400  1.0  0.1057
  H  H134  1  0.353900  0.750100  0.870100  1.0  0.1128
  H  H135  1  0.292000  0.776200  0.929800  1.0  0.1142
  H  H136  1  0.210500  0.487800  0.664400  1.0  0.406
  H  H137  1  0.605900  0.211700  0.432000  1.0  0.0973
  H  H138  1  0.599400  0.138900  0.281400  1.0  0.1097
  H  H139  1  0.781900  0.099600  0.326300  1.0  0.1185
  H  H140  1  0.864000  0.138900  0.362600  1.0  0.0918
  H  H141  1  0.902300  0.163000  0.474400  1.0  0.1057
  H  H142  1  0.853900  0.250100  0.370100  1.0  0.1128
  H  H143  1  0.792000  0.276200  0.429800  1.0  0.1142
  H  H144  1  0.710500  0.987800  0.164400  1.0  0.406
  C  C145  1  0.493280  0.055990  0.177700  1.0  0.6422
  C  C146  1  0.451750  0.052240  0.283400  1.0  -0.122
  C  C147  1  0.439260  0.108110  0.340400  1.0  -0.0235
  C  C148  1  0.395430  0.112610  0.428100  1.0  -0.119
  C  C149  1  0.361120  0.060610  0.455900  1.0  -0.135
  C  C150  1  0.373630  0.003380  0.403100  1.0  -0.1419
  C  C151  1  0.420780  0.997750  0.321100  1.0  0.0922
  C  C152  1  0.309510  0.067930  0.542500  1.0  0.6604
  C  C153  1  0.394610  0.887550  0.300900  1.0  -0.1451
  C  C154  1  0.332180  0.895520  0.242400  1.0  0.6777
  C  C155  1  0.501620  0.920030  0.305500  1.0  -0.2119
  C  C156  1  0.533960  0.881400  0.211800  1.0  0.745
  C  C157  1  0.993280  0.555990  0.677700  1.0  0.6422
  C  C158  1  0.951750  0.552240  0.783400  1.0  -0.122
  C  C159  1  0.939260  0.608110  0.840400  1.0  -0.0235
  C  C160  1  0.895430  0.612610  0.928100  1.0  -0.119
  C  C161  1  0.861120  0.560610  0.955900  1.0  -0.135
  C  C162  1  0.873630  0.503380  0.903100  1.0  -0.1419
  C  C163  1  0.920780  0.497750  0.821100  1.0  0.0922
  C  C164  1  0.809510  0.567930  0.042500  1.0  0.6604
  C  C165  1  0.894610  0.387550  0.800900  1.0  -0.1451
  C  C166  1  0.832180  0.395520  0.742400  1.0  0.6777
  C  C167  1  0.001620  0.420030  0.805500  1.0  -0.2119
  C  C168  1  0.033960  0.381400  0.711800  1.0  0.745
  C  C169  1  0.006720  0.944010  0.677700  1.0  0.6413
  C  C170  1  0.048250  0.947760  0.783400  1.0  -0.124
  C  C171  1  0.060740  0.891890  0.840400  1.0  -0.0236
  C  C172  1  0.104570  0.887390  0.928100  1.0  -0.1186
  C  C173  1  0.138880  0.939390  0.955900  1.0  -0.1354
  C  C174  1  0.126370  0.996620  0.903100  1.0  -0.1401
  C  C175  1  0.079220  0.002250  0.821100  1.0  0.0919
  C  C176  1  0.190490  0.932070  0.042500  1.0  0.6612
  C  C177  1  0.105390  0.112450  0.800900  1.0  -0.1463
  C  C178  1  0.167820  0.104480  0.742400  1.0  0.6792
  C  C179  1  0.998380  0.079970  0.805500  1.0  -0.21
  C  C180  1  0.966040  0.118600  0.711800  1.0  0.7455
  C  C181  1  0.506720  0.444010  0.177700  1.0  0.6413
  C  C182  1  0.548250  0.447760  0.283400  1.0  -0.124
  C  C183  1  0.560740  0.391890  0.340400  1.0  -0.0236
  C  C184  1  0.604570  0.387390  0.428100  1.0  -0.1186
  C  C185  1  0.638880  0.439390  0.455900  1.0  -0.1354
  C  C186  1  0.626370  0.496620  0.403100  1.0  -0.1401
  C  C187  1  0.579220  0.502250  0.321100  1.0  0.0919
  C  C188  1  0.690490  0.432070  0.542500  1.0  0.6612
  C  C189  1  0.605390  0.612450  0.300900  1.0  -0.1463
  C  C190  1  0.667820  0.604480  0.242400  1.0  0.6792
  C  C191  1  0.498380  0.579970  0.305500  1.0  -0.21
  C  C192  1  0.466040  0.618600  0.211800  1.0  0.7455
  C  C193  1  0.694010  0.743280  0.427700  1.0  0.6418
  C  C194  1  0.697760  0.701750  0.533400  1.0  -0.1212
  C  C195  1  0.641890  0.689260  0.590400  1.0  -0.0191
  C  C196  1  0.637390  0.645430  0.678100  1.0  -0.1222
  C  C197  1  0.689390  0.611120  0.705900  1.0  -0.137
  C  C198  1  0.746620  0.623630  0.653100  1.0  -0.1428
  C  C199  1  0.752250  0.670780  0.571100  1.0  0.0917
  C  C200  1  0.682070  0.559510  0.792500  1.0  0.6625
  C  C201  1  0.862450  0.644610  0.550900  1.0  -0.1456
  C  C202  1  0.854480  0.582180  0.492400  1.0  0.6819
  C  C203  1  0.829970  0.751620  0.555500  1.0  -0.2103
  C  C204  1  0.868600  0.783960  0.461800  1.0  0.7451
  C  C205  1  0.194010  0.243280  0.927700  1.0  0.6418
  C  C206  1  0.197760  0.201750  0.033400  1.0  -0.1212
  C  C207  1  0.141890  0.189260  0.090400  1.0  -0.0191
  C  C208  1  0.137390  0.145430  0.178100  1.0  -0.1222
  C  C209  1  0.189390  0.111120  0.205900  1.0  -0.137
  C  C210  1  0.246620  0.123630  0.153100  1.0  -0.1428
  C  C211  1  0.252250  0.170780  0.071100  1.0  0.0917
  C  C212  1  0.182070  0.059510  0.292500  1.0  0.6625
  C  C213  1  0.362450  0.144610  0.050900  1.0  -0.1456
  C  C214  1  0.354480  0.082180  0.992400  1.0  0.6819
  C  C215  1  0.329970  0.251620  0.055500  1.0  -0.2103
  C  C216  1  0.368600  0.283960  0.961800  1.0  0.7451
  C  C217  1  0.805990  0.256720  0.927700  1.0  0.6423
  C  C218  1  0.802240  0.298250  0.033400  1.0  -0.1207
  C  C219  1  0.858110  0.310740  0.090400  1.0  -0.0189
  C  C220  1  0.862610  0.354570  0.178100  1.0  -0.1205
  C  C221  1  0.810610  0.388880  0.205900  1.0  -0.1369
  C  C222  1  0.753380  0.376370  0.153100  1.0  -0.1422
  C  C223  1  0.747750  0.329220  0.071100  1.0  0.0922
  C  C224  1  0.817930  0.440490  0.292500  1.0  0.6621
  C  C225  1  0.637550  0.355390  0.050900  1.0  -0.145
  C  C226  1  0.645520  0.417820  0.992400  1.0  0.6831
  C  C227  1  0.670030  0.248380  0.055500  1.0  -0.2113
  C  C228  1  0.631400  0.216040  0.961800  1.0  0.7468
  C  C229  1  0.305990  0.756720  0.427700  1.0  0.6423
  C  C230  1  0.302240  0.798250  0.533400  1.0  -0.1207
  C  C231  1  0.358110  0.810740  0.590400  1.0  -0.0189
  C  C232  1  0.362610  0.854570  0.678100  1.0  -0.1205
  C  C233  1  0.310610  0.888880  0.705900  1.0  -0.1369
  C  C234  1  0.253380  0.876370  0.653100  1.0  -0.1422
  C  C235  1  0.247750  0.829220  0.571100  1.0  0.0922
  C  C236  1  0.317930  0.940490  0.792500  1.0  0.6621
  C  C237  1  0.137550  0.855390  0.550900  1.0  -0.145
  C  C238  1  0.145520  0.917820  0.492400  1.0  0.6831
  C  C239  1  0.170030  0.748380  0.555500  1.0  -0.2113
  C  C240  1  0.131400  0.716040  0.461800  1.0  0.7468
  C  C241  1  0.506720  0.944010  0.822300  1.0  0.6417
  C  C242  1  0.548250  0.947760  0.716600  1.0  -0.1236
  C  C243  1  0.560740  0.891890  0.659600  1.0  -0.0236
  C  C244  1  0.604570  0.887390  0.571900  1.0  -0.1184
  C  C245  1  0.638880  0.939390  0.544100  1.0  -0.1358
  C  C246  1  0.626370  0.996620  0.596900  1.0  -0.1408
  C  C247  1  0.579220  0.002250  0.678900  1.0  0.0918
  C  C248  1  0.690490  0.932070  0.457500  1.0  0.6604
  C  C249  1  0.605390  0.112450  0.699100  1.0  -0.1451
  C  C250  1  0.667820  0.104480  0.757600  1.0  0.6787
  C  C251  1  0.498380  0.079970  0.694500  1.0  -0.2069
  C  C252  1  0.466040  0.118600  0.788200  1.0  0.744
  C  C253  1  0.006720  0.444010  0.322300  1.0  0.6417
  C  C254  1  0.048250  0.447760  0.216600  1.0  -0.1236
  C  C255  1  0.060740  0.391890  0.159600  1.0  -0.0236
  C  C256  1  0.104570  0.387390  0.071900  1.0  -0.1184
  C  C257  1  0.138880  0.439390  0.044100  1.0  -0.1358
  C  C258  1  0.126370  0.496620  0.096900  1.0  -0.1408
  C  C259  1  0.079220  0.502250  0.178900  1.0  0.0918
  C  C260  1  0.190490  0.432070  0.957500  1.0  0.6604
  C  C261  1  0.105390  0.612450  0.199100  1.0  -0.1451
  C  C262  1  0.167820  0.604480  0.257600  1.0  0.6787
  C  C263  1  0.998380  0.579970  0.194500  1.0  -0.2069
  C  C264  1  0.966040  0.618600  0.288200  1.0  0.744
  C  C265  1  0.993280  0.055990  0.322300  1.0  0.6426
  C  C266  1  0.951750  0.052240  0.216600  1.0  -0.122
  C  C267  1  0.939260  0.108110  0.159600  1.0  -0.0237
  C  C268  1  0.895430  0.112610  0.071900  1.0  -0.119
  C  C269  1  0.861120  0.060610  0.044100  1.0  -0.1352
  C  C270  1  0.873630  0.003380  0.096900  1.0  -0.1416
  C  C271  1  0.920780  0.997750  0.178900  1.0  0.0925
  C  C272  1  0.809510  0.067930  0.957500  1.0  0.66
  C  C273  1  0.894610  0.887550  0.199100  1.0  -0.145
  C  C274  1  0.832180  0.895520  0.257600  1.0  0.6775
  C  C275  1  0.001620  0.920030  0.194500  1.0  -0.2086
  C  C276  1  0.033960  0.881400  0.288200  1.0  0.745
  C  C277  1  0.493280  0.555990  0.822300  1.0  0.6426
  C  C278  1  0.451750  0.552240  0.716600  1.0  -0.122
  C  C279  1  0.439260  0.608110  0.659600  1.0  -0.0237
  C  C280  1  0.395430  0.612610  0.571900  1.0  -0.119
  C  C281  1  0.361120  0.560610  0.544100  1.0  -0.1352
  C  C282  1  0.373630  0.503380  0.596900  1.0  -0.1416
  C  C283  1  0.420780  0.497750  0.678900  1.0  0.0925
  C  C284  1  0.309510  0.567930  0.457500  1.0  0.66
  C  C285  1  0.394610  0.387550  0.699100  1.0  -0.145
  C  C286  1  0.332180  0.395520  0.757600  1.0  0.6775
  C  C287  1  0.501620  0.420030  0.694500  1.0  -0.2086
  C  C288  1  0.533960  0.381400  0.788200  1.0  0.745
  C  C289  1  0.305990  0.256720  0.572300  1.0  0.6428
  C  C290  1  0.302240  0.298250  0.466600  1.0  -0.1203
  C  C291  1  0.358110  0.310740  0.409600  1.0  -0.0187
  C  C292  1  0.362610  0.354570  0.321900  1.0  -0.1209
  C  C293  1  0.310610  0.388880  0.294100  1.0  -0.1368
  C  C294  1  0.253380  0.376370  0.346900  1.0  -0.1424
  C  C295  1  0.247750  0.329220  0.428900  1.0  0.0923
  C  C296  1  0.317930  0.440490  0.207500  1.0  0.6611
  C  C297  1  0.137550  0.355390  0.449100  1.0  -0.1442
  C  C298  1  0.145520  0.417820  0.507600  1.0  0.6824
  C  C299  1  0.170030  0.248380  0.444500  1.0  -0.2086
  C  C300  1  0.131400  0.216040  0.538200  1.0  0.7461
  C  C301  1  0.805990  0.756720  0.072300  1.0  0.6428
  C  C302  1  0.802240  0.798250  0.966600  1.0  -0.1203
  C  C303  1  0.858110  0.810740  0.909600  1.0  -0.0187
  C  C304  1  0.862610  0.854570  0.821900  1.0  -0.1209
  C  C305  1  0.810610  0.888880  0.794100  1.0  -0.1368
  C  C306  1  0.753380  0.876370  0.846900  1.0  -0.1424
  C  C307  1  0.747750  0.829220  0.928900  1.0  0.0923
  C  C308  1  0.817930  0.940490  0.707500  1.0  0.6611
  C  C309  1  0.637550  0.855390  0.949100  1.0  -0.1442
  C  C310  1  0.645520  0.917820  0.007600  1.0  0.6824
  C  C311  1  0.670030  0.748380  0.944500  1.0  -0.2086
  C  C312  1  0.631400  0.716040  0.038200  1.0  0.7461
  C  C313  1  0.194010  0.743280  0.072300  1.0  0.6414
  C  C314  1  0.197760  0.701750  0.966600  1.0  -0.121
  C  C315  1  0.141890  0.689260  0.909600  1.0  -0.0194
  C  C316  1  0.137390  0.645430  0.821900  1.0  -0.1221
  C  C317  1  0.189390  0.611120  0.794100  1.0  -0.1374
  C  C318  1  0.246620  0.623630  0.846900  1.0  -0.1425
  C  C319  1  0.252250  0.670780  0.928900  1.0  0.0918
  C  C320  1  0.182070  0.559510  0.707500  1.0  0.6619
  C  C321  1  0.362450  0.644610  0.949100  1.0  -0.1451
  C  C322  1  0.354480  0.582180  0.007600  1.0  0.6819
  C  C323  1  0.329970  0.751620  0.944500  1.0  -0.208
  C  C324  1  0.368600  0.783960  0.038200  1.0  0.7441
  C  C325  1  0.694010  0.243280  0.572300  1.0  0.6414
  C  C326  1  0.697760  0.201750  0.466600  1.0  -0.121
  C  C327  1  0.641890  0.189260  0.409600  1.0  -0.0194
  C  C328  1  0.637390  0.145430  0.321900  1.0  -0.1221
  C  C329  1  0.689390  0.111120  0.294100  1.0  -0.1374
  C  C330  1  0.746620  0.123630  0.346900  1.0  -0.1425
  C  C331  1  0.752250  0.170780  0.428900  1.0  0.0918
  C  C332  1  0.682070  0.059510  0.207500  1.0  0.6619
  C  C333  1  0.862450  0.144610  0.449100  1.0  -0.1451
  C  C334  1  0.854480  0.082180  0.507600  1.0  0.6819
  C  C335  1  0.829970  0.251620  0.444500  1.0  -0.208
  C  C336  1  0.868600  0.283960  0.538200  1.0  0.7441
  N  N337  1  0.437450  0.938050  0.271700  1.0  -0.2018
  N  N338  1  0.937450  0.438050  0.771700  1.0  -0.2018
  N  N339  1  0.062550  0.061950  0.771700  1.0  -0.2024
  N  N340  1  0.562550  0.561950  0.271700  1.0  -0.2024
  N  N341  1  0.811950  0.687450  0.521700  1.0  -0.201
  N  N342  1  0.311950  0.187450  0.021700  1.0  -0.201
  N  N343  1  0.688050  0.312550  0.021700  1.0  -0.2023
  N  N344  1  0.188050  0.812550  0.521700  1.0  -0.2023
  N  N345  1  0.562550  0.061950  0.728300  1.0  -0.2035
  N  N346  1  0.062550  0.561950  0.228300  1.0  -0.2035
  N  N347  1  0.937450  0.938050  0.228300  1.0  -0.2032
  N  N348  1  0.437450  0.438050  0.728300  1.0  -0.2032
  N  N349  1  0.188050  0.312550  0.478300  1.0  -0.2029
  N  N350  1  0.688050  0.812550  0.978300  1.0  -0.2029
  N  N351  1  0.311950  0.687450  0.978300  1.0  -0.2027
  N  N352  1  0.811950  0.187450  0.478300  1.0  -0.2027
  O  O353  1  0.505220  0.007420  0.116470  1.0  -0.7924
  O  O354  1  0.265660  0.026630  0.538180  1.0  -0.518
  O  O355  1  0.514520  0.107490  0.146360  1.0  -0.6322
  O  O356  1  0.308530  0.110520  0.611880  1.0  -0.6195
  O  O357  1  0.331050  0.928060  0.148170  1.0  -0.652
  O  O358  1  0.287240  0.869380  0.289240  1.0  -0.6534
  O  O359  1  0.508730  0.874960  0.112680  1.0  -0.6221
  O  O360  1  0.584630  0.859150  0.241200  1.0  -0.6834
  O  O361  1  0.005220  0.507420  0.616470  1.0  -0.7924
  O  O362  1  0.765660  0.526630  0.038180  1.0  -0.518
  O  O363  1  0.014520  0.607490  0.646360  1.0  -0.6322
  O  O364  1  0.808530  0.610520  0.111880  1.0  -0.6195
  O  O365  1  0.831050  0.428060  0.648170  1.0  -0.652
  O  O366  1  0.787240  0.369380  0.789240  1.0  -0.6534
  O  O367  1  0.008730  0.374960  0.612680  1.0  -0.6221
  O  O368  1  0.084630  0.359150  0.741200  1.0  -0.6834
  O  O369  1  0.994780  0.992580  0.616470  1.0  -0.792
  O  O370  1  0.234340  0.973370  0.038180  1.0  -0.5165
  O  O371  1  0.985480  0.892510  0.646360  1.0  -0.6332
  O  O372  1  0.191470  0.889480  0.111880  1.0  -0.6194
  O  O373  1  0.168950  0.071940  0.648170  1.0  -0.6519
  O  O374  1  0.212760  0.130620  0.789240  1.0  -0.653
  O  O375  1  0.991270  0.125040  0.612680  1.0  -0.6212
  O  O376  1  0.915370  0.140850  0.741200  1.0  -0.6833
  O  O377  1  0.494780  0.492580  0.116470  1.0  -0.792
  O  O378  1  0.734340  0.473370  0.538180  1.0  -0.5165
  O  O379  1  0.485480  0.392510  0.146360  1.0  -0.6332
  O  O380  1  0.691470  0.389480  0.611880  1.0  -0.6194
  O  O381  1  0.668950  0.571940  0.148170  1.0  -0.6519
  O  O382  1  0.712760  0.630620  0.289240  1.0  -0.653
  O  O383  1  0.491270  0.625040  0.112680  1.0  -0.6212
  O  O384  1  0.415370  0.640850  0.241200  1.0  -0.6833
  O  O385  1  0.742580  0.755220  0.366470  1.0  -0.7925
  O  O386  1  0.723370  0.515660  0.788180  1.0  -0.517
  O  O387  1  0.642510  0.764520  0.396360  1.0  -0.6332
  O  O388  1  0.639480  0.558530  0.861880  1.0  -0.6191
  O  O389  1  0.821940  0.581050  0.398170  1.0  -0.6526
  O  O390  1  0.880620  0.537240  0.539240  1.0  -0.6536
  O  O391  1  0.875040  0.758730  0.362680  1.0  -0.6213
  O  O392  1  0.890850  0.834630  0.491200  1.0  -0.6849
  O  O393  1  0.242580  0.255220  0.866470  1.0  -0.7925
  O  O394  1  0.223370  0.015660  0.288180  1.0  -0.517
  O  O395  1  0.142510  0.264520  0.896360  1.0  -0.6332
  O  O396  1  0.139480  0.058530  0.361880  1.0  -0.6191
  O  O397  1  0.321940  0.081050  0.898170  1.0  -0.6526
  O  O398  1  0.380620  0.037240  0.039240  1.0  -0.6536
  O  O399  1  0.375040  0.258730  0.862680  1.0  -0.6213
  O  O400  1  0.390850  0.334630  0.991200  1.0  -0.6849
  O  O401  1  0.757420  0.244780  0.866470  1.0  -0.7933
  O  O402  1  0.776630  0.484340  0.288180  1.0  -0.5176
  O  O403  1  0.857490  0.235480  0.896360  1.0  -0.6333
  O  O404  1  0.860520  0.441470  0.361880  1.0  -0.6191
  O  O405  1  0.678060  0.418950  0.898170  1.0  -0.6522
  O  O406  1  0.619380  0.462760  0.039240  1.0  -0.6542
  O  O407  1  0.624960  0.241270  0.862680  1.0  -0.6214
  O  O408  1  0.609150  0.165370  0.991200  1.0  -0.6858
  O  O409  1  0.257420  0.744780  0.366470  1.0  -0.7933
  O  O410  1  0.276630  0.984340  0.788180  1.0  -0.5176
  O  O411  1  0.357490  0.735480  0.396360  1.0  -0.6333
  O  O412  1  0.360520  0.941470  0.861880  1.0  -0.6191
  O  O413  1  0.178060  0.918950  0.398170  1.0  -0.6522
  O  O414  1  0.119380  0.962760  0.539240  1.0  -0.6542
  O  O415  1  0.124960  0.741270  0.362680  1.0  -0.6214
  O  O416  1  0.109150  0.665370  0.491200  1.0  -0.6858
  O  O417  1  0.494780  0.992580  0.883530  1.0  -0.7915
  O  O418  1  0.734340  0.973370  0.461820  1.0  -0.516
  O  O419  1  0.485480  0.892510  0.853640  1.0  -0.6327
  O  O420  1  0.691470  0.889480  0.388120  1.0  -0.6199
  O  O421  1  0.668950  0.071940  0.851830  1.0  -0.6525
  O  O422  1  0.712760  0.130620  0.710760  1.0  -0.6525
  O  O423  1  0.491270  0.125040  0.887320  1.0  -0.6237
  O  O424  1  0.415370  0.140850  0.758800  1.0  -0.6825
  O  O425  1  0.994780  0.492580  0.383530  1.0  -0.7915
  O  O426  1  0.234340  0.473370  0.961820  1.0  -0.516
  O  O427  1  0.985480  0.392510  0.353640  1.0  -0.6327
  O  O428  1  0.191470  0.389480  0.888120  1.0  -0.6199
  O  O429  1  0.168950  0.571940  0.351830  1.0  -0.6525
  O  O430  1  0.212760  0.630620  0.210760  1.0  -0.6525
  O  O431  1  0.991270  0.625040  0.387320  1.0  -0.6237
  O  O432  1  0.915370  0.640850  0.258800  1.0  -0.6825
  O  O433  1  0.005220  0.007420  0.383530  1.0  -0.7912
  O  O434  1  0.765660  0.026630  0.961820  1.0  -0.5172
  O  O435  1  0.014520  0.107490  0.353640  1.0  -0.6327
  O  O436  1  0.808530  0.110520  0.888120  1.0  -0.6197
  O  O437  1  0.831050  0.928060  0.351830  1.0  -0.6526
  O  O438  1  0.787240  0.869380  0.210760  1.0  -0.6532
  O  O439  1  0.008730  0.874960  0.387320  1.0  -0.6231
  O  O440  1  0.084630  0.859150  0.258800  1.0  -0.6836
  O  O441  1  0.505220  0.507420  0.883530  1.0  -0.7912
  O  O442  1  0.265660  0.526630  0.461820  1.0  -0.5172
  O  O443  1  0.514520  0.607490  0.853640  1.0  -0.6327
  O  O444  1  0.308530  0.610520  0.388120  1.0  -0.6197
  O  O445  1  0.331050  0.428060  0.851830  1.0  -0.6526
  O  O446  1  0.287240  0.369380  0.710760  1.0  -0.6532
  O  O447  1  0.508730  0.374960  0.887320  1.0  -0.6231
  O  O448  1  0.584630  0.359150  0.758800  1.0  -0.6836
  O  O449  1  0.257420  0.244780  0.633530  1.0  -0.7922
  O  O450  1  0.276630  0.484340  0.211820  1.0  -0.5174
  O  O451  1  0.357490  0.235480  0.603640  1.0  -0.633
  O  O452  1  0.360520  0.441470  0.138120  1.0  -0.6196
  O  O453  1  0.178060  0.418950  0.601830  1.0  -0.6525
  O  O454  1  0.119380  0.462760  0.460760  1.0  -0.6537
  O  O455  1  0.124960  0.241270  0.637320  1.0  -0.6229
  O  O456  1  0.109150  0.165370  0.508800  1.0  -0.6856
  O  O457  1  0.757420  0.744780  0.133530  1.0  -0.7922
  O  O458  1  0.776630  0.984340  0.711820  1.0  -0.5174
  O  O459  1  0.857490  0.735480  0.103640  1.0  -0.633
  O  O460  1  0.860520  0.941470  0.638120  1.0  -0.6196
  O  O461  1  0.678060  0.918950  0.101830  1.0  -0.6525
  O  O462  1  0.619380  0.962760  0.960760  1.0  -0.6537
  O  O463  1  0.624960  0.741270  0.137320  1.0  -0.6229
  O  O464  1  0.609150  0.665370  0.008800  1.0  -0.6856
  O  O465  1  0.242580  0.755220  0.133530  1.0  -0.7921
  O  O466  1  0.223370  0.515660  0.711820  1.0  -0.5161
  O  O467  1  0.142510  0.764520  0.103640  1.0  -0.6333
  O  O468  1  0.139480  0.558530  0.638120  1.0  -0.6192
  O  O469  1  0.321940  0.581050  0.101830  1.0  -0.6531
  O  O470  1  0.380620  0.537240  0.960760  1.0  -0.6533
  O  O471  1  0.375040  0.758730  0.137320  1.0  -0.6226
  O  O472  1  0.390850  0.834630  0.008800  1.0  -0.6846
  O  O473  1  0.742580  0.255220  0.633530  1.0  -0.7921
  O  O474  1  0.723370  0.015660  0.211820  1.0  -0.5161
  O  O475  1  0.642510  0.264520  0.603640  1.0  -0.6333
  O  O476  1  0.639480  0.058530  0.138120  1.0  -0.6192
  O  O477  1  0.821940  0.081050  0.601830  1.0  -0.6531
  O  O478  1  0.880620  0.037240  0.460760  1.0  -0.6533
  O  O479  1  0.875040  0.258730  0.637320  1.0  -0.6226
  O  O480  1  0.890850  0.334630  0.508800  1.0  -0.6846
