# generated using pymatgen
data_NiH18C24S2(N4O3)2
_symmetry_space_group_name_H-M   'P 1'
_cell_length_a   7.45300000
_cell_length_b   15.00320000
_cell_length_c   17.61200000
_cell_angle_alpha   90.00000000
_cell_angle_beta   91.29220000
_cell_angle_gamma   90.00000000
_symmetry_Int_Tables_number   1
_chemical_formula_structural   NiH18C24S2(N4O3)2
_chemical_formula_sum   'Ni2 H36 C48 S4 N16 O12'
_cell_volume   1968.85275012
_cell_formula_units_Z   2
loop_
 _symmetry_equiv_pos_site_id
 _symmetry_equiv_pos_as_xyz
  1  'x, y, z'
loop_
 _atom_site_type_symbol
 _atom_site_label
 _atom_site_symmetry_multiplicity
 _atom_site_fract_x
 _atom_site_fract_y
 _atom_site_fract_z
 _atom_site_occupancy
 _atom_site_charge
  Ni  Ni1  1  0.000000  0.000000  0.000000  1.0  0.7139
  Ni  Ni2  1  0.000000  0.500000  0.500000  1.0  0.7139
  H  H3  1  0.105630  0.866540  0.282090  1.0  0.1137
  H  H4  1  0.477190  0.669930  0.299640  1.0  0.12
  H  H5  1  0.633830  0.732940  0.199250  1.0  0.1256
  H  H6  1  0.411750  0.840210  0.023060  1.0  0.126
  H  H7  1  0.638920  0.922600  0.950290  1.0  0.2516
  H  H8  1  0.775630  0.939460  0.171200  1.0  0.1323
  H  H9  1  0.256160  0.590870  0.362330  1.0  0.1252
  H  H10  1  0.919870  0.719620  0.498790  1.0  0.293
  H  H11  1  0.035380  0.828420  0.406090  1.0  0.1278
  H  H12  1  0.894370  0.366540  0.217910  1.0  0.1142
  H  H13  1  0.522810  0.169930  0.200360  1.0  0.1195
  H  H14  1  0.366170  0.232940  0.300750  1.0  0.1259
  H  H15  1  0.588250  0.340210  0.476940  1.0  0.1265
  H  H16  1  0.361080  0.422600  0.549710  1.0  0.2587
  H  H17  1  0.224370  0.439460  0.328800  1.0  0.1314
  H  H18  1  0.743840  0.090870  0.137670  1.0  0.1248
  H  H19  1  0.080130  0.219620  0.001210  1.0  0.2942
  H  H20  1  0.964620  0.328420  0.093910  1.0  0.1283
  H  H21  1  0.894370  0.133460  0.717910  1.0  0.1142
  H  H22  1  0.522810  0.330070  0.700360  1.0  0.1194
  H  H23  1  0.366170  0.267060  0.800750  1.0  0.1256
  H  H24  1  0.588250  0.159790  0.976940  1.0  0.1263
  H  H25  1  0.361080  0.077400  0.049710  1.0  0.2534
  H  H26  1  0.224370  0.060540  0.828800  1.0  0.1313
  H  H27  1  0.743840  0.409130  0.637670  1.0  0.124
  H  H28  1  0.080130  0.280380  0.501210  1.0  0.2845
  H  H29  1  0.964620  0.171580  0.593910  1.0  0.1274
  H  H30  1  0.105630  0.633460  0.782090  1.0  0.1139
  H  H31  1  0.477190  0.830070  0.799640  1.0  0.1195
  H  H32  1  0.633830  0.767060  0.699250  1.0  0.126
  H  H33  1  0.411750  0.659790  0.523060  1.0  0.1266
  H  H34  1  0.638920  0.577400  0.450290  1.0  0.2467
  H  H35  1  0.775630  0.560540  0.671200  1.0  0.1321
  H  H36  1  0.256160  0.909130  0.862330  1.0  0.1241
  H  H37  1  0.919870  0.780380  0.998790  1.0  0.2882
  H  H38  1  0.035380  0.671580  0.906090  1.0  0.127
  C  C39  1  0.462770  0.837170  0.181040  1.0  0.1286
  C  C40  1  0.305890  0.876850  0.205640  1.0  -0.2211
  C  C41  1  0.212850  0.839420  0.265280  1.0  -0.062
  C  C42  1  0.276690  0.762310  0.300300  1.0  0.0636
  C  C43  1  0.433570  0.722630  0.275700  1.0  -0.0991
  C  C44  1  0.526610  0.760060  0.216060  1.0  -0.1153
  C  C45  1  0.559830  0.876220  0.118830  1.0  -0.1034
  C  C46  1  0.513440  0.870490  0.043860  1.0  -0.0331
  C  C47  1  0.713240  0.924990  0.125210  1.0  0.0419
  C  C48  1  0.179630  0.723260  0.362510  1.0  -0.0594
  C  C49  1  0.186740  0.636520  0.384790  1.0  0.0638
  C  C50  1  0.065500  0.766960  0.408820  1.0  -0.0581
  C  C51  1  0.537230  0.337170  0.318960  1.0  0.1274
  C  C52  1  0.694110  0.376850  0.294360  1.0  -0.2216
  C  C53  1  0.787150  0.339420  0.234720  1.0  -0.0606
  C  C54  1  0.723310  0.262310  0.199700  1.0  0.0635
  C  C55  1  0.566430  0.222630  0.224300  1.0  -0.1006
  C  C56  1  0.473390  0.260060  0.283940  1.0  -0.1148
  C  C57  1  0.440170  0.376220  0.381170  1.0  -0.1068
  C  C58  1  0.486560  0.370490  0.456140  1.0  -0.0342
  C  C59  1  0.286760  0.424990  0.374790  1.0  0.0405
  C  C60  1  0.820370  0.223260  0.137490  1.0  -0.0613
  C  C61  1  0.813260  0.136520  0.115210  1.0  0.0654
  C  C62  1  0.934500  0.266960  0.091180  1.0  -0.057
  C  C63  1  0.537230  0.162830  0.818960  1.0  0.1276
  C  C64  1  0.694110  0.123150  0.794360  1.0  -0.2213
  C  C65  1  0.787150  0.160580  0.734720  1.0  -0.0605
  C  C66  1  0.723310  0.237690  0.699700  1.0  0.0637
  C  C67  1  0.566430  0.277370  0.724300  1.0  -0.1015
  C  C68  1  0.473390  0.239940  0.783940  1.0  -0.1162
  C  C69  1  0.440170  0.123780  0.881170  1.0  -0.1013
  C  C70  1  0.486560  0.129510  0.956140  1.0  -0.0347
  C  C71  1  0.286760  0.075010  0.874790  1.0  0.0411
  C  C72  1  0.820370  0.276740  0.637490  1.0  -0.0633
  C  C73  1  0.813260  0.363480  0.615210  1.0  0.065
  C  C74  1  0.934500  0.233040  0.591180  1.0  -0.0592
  C  C75  1  0.462770  0.662830  0.681040  1.0  0.1282
  C  C76  1  0.305890  0.623150  0.705640  1.0  -0.2212
  C  C77  1  0.212850  0.660580  0.765280  1.0  -0.0615
  C  C78  1  0.276690  0.737690  0.800300  1.0  0.0637
  C  C79  1  0.433570  0.777370  0.775700  1.0  -0.1007
  C  C80  1  0.526610  0.739940  0.716060  1.0  -0.1162
  C  C81  1  0.559830  0.623780  0.618830  1.0  -0.0963
  C  C82  1  0.513440  0.629510  0.543860  1.0  -0.0345
  C  C83  1  0.713240  0.575010  0.625210  1.0  0.0423
  C  C84  1  0.179630  0.776740  0.862510  1.0  -0.0615
  C  C85  1  0.186740  0.863480  0.884790  1.0  0.0625
  C  C86  1  0.065500  0.733040  0.908820  1.0  -0.0588
  S  S87  1  0.224610  0.975040  0.161040  1.0  1.2635
  S  S88  1  0.775390  0.475040  0.338960  1.0  1.2613
  S  S89  1  0.775390  0.024960  0.838960  1.0  1.2616
  S  S90  1  0.224610  0.524960  0.661040  1.0  1.2634
  N  N91  1  0.638170  0.915730  0.003910  1.0  -0.0525
  N  N92  1  0.761660  0.949410  0.054180  1.0  -0.2392
  N  N93  1  0.077000  0.626600  0.444870  1.0  -0.2174
  N  N94  1  0.002080  0.707210  0.459720  1.0  -0.108
  N  N95  1  0.361830  0.415730  0.496090  1.0  -0.0522
  N  N96  1  0.238340  0.449410  0.445820  1.0  -0.2383
  N  N97  1  0.923000  0.126600  0.055130  1.0  -0.219
  N  N98  1  0.997920  0.207210  0.040280  1.0  -0.107
  N  N99  1  0.361830  0.084270  0.996090  1.0  -0.0525
  N  N100  1  0.238340  0.050590  0.945820  1.0  -0.2382
  N  N101  1  0.923000  0.373400  0.555130  1.0  -0.2185
  N  N102  1  0.997920  0.292790  0.540280  1.0  -0.1057
  N  N103  1  0.638170  0.584270  0.503910  1.0  -0.0527
  N  N104  1  0.761660  0.550590  0.554180  1.0  -0.2396
  N  N105  1  0.077000  0.873400  0.944870  1.0  -0.2176
  N  N106  1  0.002080  0.792790  0.959720  1.0  -0.1039
  O  O107  1  0.178710  0.955590  0.078160  1.0  -0.6766
  O  O108  1  0.057430  0.006870  0.200810  1.0  -0.6431
  O  O109  1  0.367940  0.047010  0.165960  1.0  -0.6395
  O  O110  1  0.821290  0.455590  0.421840  1.0  -0.6777
  O  O111  1  0.942570  0.506870  0.299190  1.0  -0.6441
  O  O112  1  0.632060  0.547010  0.334040  1.0  -0.6397
  O  O113  1  0.821290  0.044410  0.921840  1.0  -0.6759
  O  O114  1  0.942570  0.993130  0.799190  1.0  -0.6438
  O  O115  1  0.632060  0.952990  0.834040  1.0  -0.639
  O  O116  1  0.178710  0.544410  0.578160  1.0  -0.6746
  O  O117  1  0.057430  0.493130  0.700810  1.0  -0.6429
  O  O118  1  0.367940  0.452990  0.665960  1.0  -0.6391
