# generated using pymatgen
data_GdH4C5O6
_symmetry_space_group_name_H-M   'P 1'
_cell_length_a   9.11900000
_cell_length_b   9.11900000
_cell_length_c   14.49410000
_cell_angle_alpha   100.22400000
_cell_angle_beta   100.22400000
_cell_angle_gamma   115.83200000
_symmetry_Int_Tables_number   1
_chemical_formula_structural   GdH4C5O6
_chemical_formula_sum   'Gd4 H16 C20 O24'
_cell_volume   1022.47418608
_cell_formula_units_Z   4
loop_
 _symmetry_equiv_pos_site_id
 _symmetry_equiv_pos_as_xyz
  1  'x, y, z'
loop_
 _atom_site_type_symbol
 _atom_site_label
 _atom_site_symmetry_multiplicity
 _atom_site_fract_x
 _atom_site_fract_y
 _atom_site_fract_z
 _atom_site_occupancy
 _atom_site_charge
  Gd  Gd1  1  0.740490  0.990490  0.480980  1.0  2.1793
  Gd  Gd2  1  0.509510  0.759510  0.019020  1.0  2.1756
  Gd  Gd3  1  0.259510  0.009510  0.519020  1.0  2.1756
  Gd  Gd4  1  0.490490  0.240490  0.980980  1.0  2.1793
  H  H5  1  0.179200  0.569200  0.490400  1.0  0.0621
  H  H6  1  0.134400  0.517400  0.376800  1.0  0.0913
  H  H7  1  0.311200  0.421200  0.490400  1.0  0.0628
  H  H8  1  0.242400  0.359400  0.376800  1.0  0.0921
  H  H9  1  0.930800  0.320800  0.009600  1.0  0.0632
  H  H10  1  0.982600  0.365600  0.123200  1.0  0.0921
  H  H11  1  0.078800  0.188800  0.009600  1.0  0.0621
  H  H12  1  0.140600  0.257600  0.123200  1.0  0.0924
  H  H13  1  0.820800  0.430800  0.509600  1.0  0.0628
  H  H14  1  0.865600  0.482600  0.623200  1.0  0.0905
  H  H15  1  0.688800  0.578800  0.509600  1.0  0.0636
  H  H16  1  0.757600  0.640600  0.623200  1.0  0.0931
  H  H17  1  0.069200  0.679200  0.990400  1.0  0.063
  H  H18  1  0.017400  0.634400  0.876800  1.0  0.0899
  H  H19  1  0.921200  0.811200  0.990400  1.0  0.0612
  H  H20  1  0.859400  0.742400  0.876800  1.0  0.0932
  C  C21  1  0.376650  0.696270  0.441720  1.0  0.7341
  C  C22  1  0.219240  0.539680  0.435920  1.0  -0.1729
  C  C23  1  0.065070  0.245450  0.441720  1.0  0.7436
  C  C24  1  0.216680  0.396240  0.435920  1.0  -0.1706
  C  C25  1  0.803730  0.123350  0.058280  1.0  0.7337
  C  C26  1  0.960320  0.280760  0.064080  1.0  -0.1739
  C  C27  1  0.254550  0.434930  0.058280  1.0  0.7411
  C  C28  1  0.103760  0.283320  0.064080  1.0  -0.175
  C  C29  1  0.623350  0.303730  0.558280  1.0  0.7339
  C  C30  1  0.780760  0.460320  0.564080  1.0  -0.1728
  C  C31  1  0.934930  0.754550  0.558280  1.0  0.7437
  C  C32  1  0.783320  0.603760  0.564080  1.0  -0.1719
  C  C33  1  0.196270  0.876650  0.941720  1.0  0.732
  C  C34  1  0.039680  0.719240  0.935920  1.0  -0.1768
  C  C35  1  0.745450  0.565070  0.941720  1.0  0.7438
  C  C36  1  0.896240  0.716680  0.935920  1.0  -0.173
  C  C37  1  0.574800  0.925200  0.250000  1.0  0.5087
  C  C38  1  0.675200  0.824800  0.250000  1.0  0.5098
  C  C39  1  0.425200  0.074800  0.750000  1.0  0.5097
  C  C40  1  0.324800  0.175200  0.750000  1.0  0.5087
  O  O41  1  0.504440  0.692460  0.424100  1.0  -0.644
  O  O42  1  0.373990  0.834090  0.467080  1.0  -0.7869
  O  O43  1  0.569100  0.991900  0.331400  1.0  -0.6323
  O  O44  1  0.919660  0.231640  0.424100  1.0  -0.6458
  O  O45  1  0.093090  0.132990  0.467080  1.0  -0.7846
  O  O46  1  0.762300  0.839500  0.331400  1.0  -0.633
  O  O47  1  0.807540  0.995560  0.075900  1.0  -0.6441
  O  O48  1  0.665910  0.126010  0.032920  1.0  -0.7842
  O  O49  1  0.508100  0.930900  0.168600  1.0  -0.6322
  O  O50  1  0.268360  0.580340  0.075900  1.0  -0.6449
  O  O51  1  0.367010  0.406910  0.032920  1.0  -0.7856
  O  O52  1  0.660500  0.737700  0.168600  1.0  -0.6321
  O  O53  1  0.495560  0.307540  0.575900  1.0  -0.6447
  O  O54  1  0.626010  0.165910  0.532920  1.0  -0.7863
  O  O55  1  0.430900  0.008100  0.668600  1.0  -0.6315
  O  O56  1  0.080340  0.768360  0.575900  1.0  -0.6456
  O  O57  1  0.906910  0.867010  0.532920  1.0  -0.7861
  O  O58  1  0.237700  0.160500  0.668600  1.0  -0.6321
  O  O59  1  0.192460  0.004440  0.924100  1.0  -0.6449
  O  O60  1  0.334090  0.873990  0.967080  1.0  -0.7848
  O  O61  1  0.491900  0.069100  0.831400  1.0  -0.6325
  O  O62  1  0.731640  0.419660  0.924100  1.0  -0.6438
  O  O63  1  0.632990  0.593090  0.967080  1.0  -0.7849
  O  O64  1  0.339500  0.262300  0.831400  1.0  -0.6339
