# generated using pymatgen
data_Cd2H22C16S3(NO2)4
_symmetry_space_group_name_H-M   'P 1'
_cell_length_a   7.83980000
_cell_length_b   14.42500000
_cell_length_c   14.48840000
_cell_angle_alpha   90.76000000
_cell_angle_beta   97.90700000
_cell_angle_gamma   105.50600000
_symmetry_Int_Tables_number   1
_chemical_formula_structural   Cd2H22C16S3(NO2)4
_chemical_formula_sum   'Cd4 H44 C32 S6 N8 O16'
_cell_volume   1561.68224187
_cell_formula_units_Z   2
loop_
 _symmetry_equiv_pos_site_id
 _symmetry_equiv_pos_as_xyz
  1  'x, y, z'
loop_
 _atom_site_type_symbol
 _atom_site_label
 _atom_site_symmetry_multiplicity
 _atom_site_fract_x
 _atom_site_fract_y
 _atom_site_fract_z
 _atom_site_occupancy
 _atom_site_charge
  Cd  Cd1  1  0.724420  0.963820  0.993410  1.0  0.8342
  Cd  Cd2  1  0.558610  0.472970  0.646430  1.0  1.0648
  Cd  Cd3  1  0.275580  0.036180  0.006590  1.0  0.8343
  Cd  Cd4  1  0.441390  0.527030  0.353570  1.0  1.0639
  H  H5  1  0.619200  0.759200  0.854400  1.0  0.075
  H  H6  1  0.011200  0.631200  0.904400  1.0  0.1198
  H  H7  1  0.152200  0.749100  0.019600  1.0  0.1123
  H  H8  1  0.643300  0.779700  0.140500  1.0  0.0708
  H  H9  1  0.433000  0.866600  0.348300  1.0  0.1069
  H  H10  1  0.467000  0.014900  0.283400  1.0  0.115
  H  H11  1  0.380800  0.240800  0.145600  1.0  0.0759
  H  H12  1  0.988800  0.368800  0.095600  1.0  0.1196
  H  H13  1  0.847800  0.250900  0.980400  1.0  0.1131
  H  H14  1  0.356700  0.220300  0.859500  1.0  0.0707
  H  H15  1  0.567000  0.133400  0.651700  1.0  0.1068
  H  H16  1  0.533000  0.985100  0.716600  1.0  0.1148
  H  H17  1  0.897200  0.753100  0.308100  1.0  0.115
  H  H18  1  0.080100  0.789500  0.374400  1.0  0.1021
  H  H19  1  0.076500  0.785000  0.265900  1.0  0.1124
  H  H20  1  0.064700  0.632100  0.191600  1.0  0.1039
  H  H21  1  0.988400  0.538700  0.243500  1.0  0.1013
  H  H22  1  0.865200  0.604800  0.209700  1.0  0.1025
  H  H23  1  0.970000  0.626100  0.361800  1.0  0.1444
  H  H24  1  0.151800  0.659200  0.340900  1.0  0.1378
  H  H25  1  0.703200  0.304600  0.238200  1.0  0.1193
  H  H26  1  0.899000  0.366000  0.274500  1.0  0.098
  H  H27  1  0.840800  0.255700  0.292100  1.0  0.1134
  H  H28  1  0.679000  0.206200  0.428100  1.0  0.106
  H  H29  1  0.585700  0.278500  0.467700  1.0  0.1116
  H  H30  1  0.519000  0.231900  0.366300  1.0  0.11
  H  H31  1  0.695600  0.384500  0.368900  1.0  0.1696
  H  H32  1  0.844400  0.355700  0.419700  1.0  0.2321
  H  H33  1  0.102800  0.246900  0.691900  1.0  0.1163
  H  H34  1  0.919900  0.210500  0.625600  1.0  0.1013
  H  H35  1  0.923500  0.215000  0.734100  1.0  0.1136
  H  H36  1  0.935300  0.367900  0.808400  1.0  0.1051
  H  H37  1  0.011600  0.461300  0.756500  1.0  0.1015
  H  H38  1  0.134800  0.395200  0.790300  1.0  0.1068
  H  H39  1  0.030000  0.373900  0.638200  1.0  0.1455
  H  H40  1  0.848200  0.340800  0.659100  1.0  0.1429
  H  H41  1  0.296800  0.695400  0.761800  1.0  0.118
  H  H42  1  0.101000  0.634000  0.725500  1.0  0.0977
  H  H43  1  0.159200  0.744300  0.707900  1.0  0.1128
  H  H44  1  0.321000  0.793800  0.571900  1.0  0.1069
  H  H45  1  0.414300  0.721500  0.532300  1.0  0.113
  H  H46  1  0.481000  0.768100  0.633700  1.0  0.1119
  H  H47  1  0.304400  0.615500  0.631100  1.0  0.1705
  H  H48  1  0.155600  0.644300  0.580300  1.0  0.2279
  C  C49  1  0.728100  0.756900  0.887700  1.0  0.1827
  C  C50  1  0.796400  0.683100  0.866000  1.0  -0.1858
  C  C51  1  0.959800  0.680300  0.916800  1.0  -0.0266
  C  C52  1  0.043700  0.750600  0.985200  1.0  -0.06
  C  C53  1  0.967100  0.824100  0.003300  1.0  -0.0059
  C  C54  1  0.701100  0.607800  0.789200  1.0  0.7005
  C  C55  1  0.604500  0.826900  0.169200  1.0  0.2085
  C  C56  1  0.532500  0.805700  0.250200  1.0  -0.1666
  C  C57  1  0.480900  0.877700  0.293000  1.0  0.0245
  C  C58  1  0.499900  0.966000  0.254100  1.0  -0.0522
  C  C59  1  0.569500  0.980900  0.169900  1.0  0.0424
  C  C60  1  0.506600  0.706800  0.287300  1.0  0.6748
  C  C61  1  0.271900  0.243100  0.112300  1.0  0.1833
  C  C62  1  0.203600  0.316900  0.134000  1.0  -0.1863
  C  C63  1  0.040200  0.319700  0.083200  1.0  -0.0274
  C  C64  1  0.956300  0.249400  0.014800  1.0  -0.0618
  C  C65  1  0.032900  0.175900  0.996700  1.0  -0.0033
  C  C66  1  0.298900  0.392200  0.210800  1.0  0.7015
  C  C67  1  0.395500  0.173100  0.830800  1.0  0.2091
  C  C68  1  0.467500  0.194300  0.749800  1.0  -0.1686
  C  C69  1  0.519100  0.122300  0.707000  1.0  0.023
  C  C70  1  0.500100  0.034000  0.745900  1.0  -0.0534
  C  C71  1  0.430500  0.019100  0.830100  1.0  0.0427
  C  C72  1  0.493400  0.293200  0.712700  1.0  0.6733
  C  C73  1  0.021400  0.754300  0.316900  1.0  -0.1939
  C  C74  1  0.984800  0.604000  0.234500  1.0  -0.1612
  C  C75  1  0.802200  0.313500  0.287600  1.0  -0.1919
  C  C76  1  0.622100  0.256400  0.412700  1.0  -0.1903
  C  C77  1  0.978600  0.245700  0.683100  1.0  -0.1964
  C  C78  1  0.015200  0.396000  0.765500  1.0  -0.161
  C  C79  1  0.197800  0.686500  0.712400  1.0  -0.1909
  C  C80  1  0.377900  0.743600  0.587300  1.0  -0.1912
  S  S81  1  0.063640  0.914310  0.090860  1.0  -0.3175
  S  S82  1  0.593610  0.087170  0.111090  1.0  -0.3369
  S  S83  1  0.782480  0.566580  0.502730  1.0  1.6324
  S  S84  1  0.936360  0.085690  0.909140  1.0  -0.3172
  S  S85  1  0.406390  0.912830  0.888910  1.0  -0.3373
  S  S86  1  0.217520  0.433420  0.497270  1.0  1.6327
  N  N87  1  0.809000  0.826400  0.954300  1.0  -0.316
  N  N88  1  0.621900  0.911100  0.129200  1.0  -0.2966
  N  N89  1  0.191000  0.173600  0.045700  1.0  -0.3119
  N  N90  1  0.378100  0.088900  0.870800  1.0  -0.2961
  N  N91  1  0.037200  0.657100  0.320200  1.0  -0.0448
  N  N92  1  0.746100  0.335500  0.376700  1.0  -0.0214
  N  N93  1  0.962800  0.342900  0.679800  1.0  -0.0466
  N  N94  1  0.253900  0.664500  0.623300  1.0  -0.022
  O  O95  1  0.773300  0.544700  0.770300  1.0  -0.5802
  O  O96  1  0.554300  0.612000  0.747300  1.0  -0.6197
  O  O97  1  0.581400  0.651200  0.254800  1.0  -0.6067
  O  O98  1  0.411000  0.684500  0.350000  1.0  -0.5996
  O  O99  1  0.630800  0.596500  0.530900  1.0  -0.8226
  O  O100  1  0.813200  0.489700  0.561600  1.0  -0.7397
  O  O101  1  0.730700  0.528800  0.403590  1.0  -0.7383
  O  O102  1  0.941800  0.647900  0.508300  1.0  -0.6753
  O  O103  1  0.226700  0.455300  0.229700  1.0  -0.5799
  O  O104  1  0.445700  0.388000  0.252700  1.0  -0.6223
  O  O105  1  0.418600  0.348800  0.745200  1.0  -0.604
  O  O106  1  0.589000  0.315500  0.650000  1.0  -0.5998
  O  O107  1  0.369200  0.403500  0.469100  1.0  -0.8216
  O  O108  1  0.186800  0.510300  0.438400  1.0  -0.7395
  O  O109  1  0.269300  0.471200  0.596410  1.0  -0.7378
  O  O110  1  0.058200  0.352100  0.491700  1.0  -0.6744
