# generated using pymatgen
data_EuH8C12(NO3)3
_symmetry_space_group_name_H-M   'P 1'
_cell_length_a   10.20310000
_cell_length_b   11.45880000
_cell_length_c   17.53460000
_cell_angle_alpha   90.00000000
_cell_angle_beta   90.00000000
_cell_angle_gamma   109.87400000
_symmetry_Int_Tables_number   1
_chemical_formula_structural   EuH8C12(NO3)3
_chemical_formula_sum   'Eu4 H32 C48 N12 O36'
_cell_volume   1927.96607744
_cell_formula_units_Z   4
loop_
 _symmetry_equiv_pos_site_id
 _symmetry_equiv_pos_as_xyz
  1  'x, y, z'
loop_
 _atom_site_type_symbol
 _atom_site_label
 _atom_site_symmetry_multiplicity
 _atom_site_fract_x
 _atom_site_fract_y
 _atom_site_fract_z
 _atom_site_occupancy
 _atom_site_charge
  Eu  Eu1  1  0.490600  0.318950  0.992720  1.0  2.1256
  Eu  Eu2  1  0.509400  0.181050  0.492720  1.0  2.1236
  Eu  Eu3  1  0.509400  0.681050  0.007280  1.0  2.1236
  Eu  Eu4  1  0.490600  0.818950  0.507280  1.0  2.1257
  H  H5  1  0.400800  0.365400  0.714900  1.0  0.1289
  H  H6  1  0.448400  0.463300  0.598600  1.0  0.1179
  H  H7  1  0.645000  0.783400  0.697900  1.0  0.1282
  H  H8  1  0.589100  0.694300  0.816600  1.0  0.1216
  H  H9  1  0.018400  0.211400  0.008600  1.0  0.1099
  H  H10  1  0.780800  0.153600  0.026200  1.0  0.1233
  H  H11  1  0.825400  0.472300  0.125500  1.0  0.1376
  H  H12  1  0.063200  0.538900  0.107000  1.0  0.1162
  H  H13  1  0.599200  0.134600  0.214900  1.0  0.1285
  H  H14  1  0.551600  0.036700  0.098600  1.0  0.1177
  H  H15  1  0.355000  0.716600  0.197900  1.0  0.1285
  H  H16  1  0.410900  0.805700  0.316600  1.0  0.1222
  H  H17  1  0.981600  0.288600  0.508600  1.0  0.11
  H  H18  1  0.219200  0.346400  0.526200  1.0  0.124
  H  H19  1  0.174600  0.027700  0.625500  1.0  0.1385
  H  H20  1  0.936800  0.961100  0.607000  1.0  0.1163
  H  H21  1  0.599200  0.634600  0.285100  1.0  0.1286
  H  H22  1  0.551600  0.536700  0.401400  1.0  0.1178
  H  H23  1  0.355000  0.216600  0.302100  1.0  0.1285
  H  H24  1  0.410900  0.305700  0.183400  1.0  0.1214
  H  H25  1  0.981600  0.788600  0.991400  1.0  0.1096
  H  H26  1  0.219200  0.846400  0.973800  1.0  0.1233
  H  H27  1  0.174600  0.527700  0.874500  1.0  0.1376
  H  H28  1  0.936800  0.461100  0.893000  1.0  0.1163
  H  H29  1  0.400800  0.865400  0.785100  1.0  0.1283
  H  H30  1  0.448400  0.963300  0.901400  1.0  0.1178
  H  H31  1  0.645000  0.283400  0.802100  1.0  0.1285
  H  H32  1  0.589100  0.194300  0.683400  1.0  0.121
  H  H33  1  0.018400  0.711400  0.491400  1.0  0.1097
  H  H34  1  0.780800  0.653600  0.473800  1.0  0.1233
  H  H35  1  0.825400  0.972300  0.374500  1.0  0.1376
  H  H36  1  0.063200  0.038900  0.393000  1.0  0.1162
  C  C37  1  0.462000  0.457500  0.856000  1.0  0.7042
  C  C38  1  0.491400  0.520000  0.778900  1.0  -0.0998
  C  C39  1  0.449100  0.450200  0.712200  1.0  -0.0625
  C  C40  1  0.479600  0.508600  0.643000  1.0  -0.026
  C  C41  1  0.594700  0.699100  0.701900  1.0  0.0036
  C  C42  1  0.562800  0.645900  0.772900  1.0  -0.0449
  C  C43  1  0.222900  0.426600  0.038200  1.0  0.7259
  C  C44  1  0.069700  0.383100  0.054500  1.0  -0.0459
  C  C45  1  0.981100  0.266400  0.031400  1.0  -0.0132
  C  C46  1  0.839000  0.231600  0.041800  1.0  -0.0395
  C  C47  1  0.865700  0.421400  0.100400  1.0  0.0079
  C  C48  1  0.008000  0.460600  0.090200  1.0  -0.0334
  C  C49  1  0.538000  0.042500  0.356000  1.0  0.7034
  C  C50  1  0.508600  0.980000  0.278900  1.0  -0.0993
  C  C51  1  0.550900  0.049800  0.212200  1.0  -0.0638
  C  C52  1  0.520400  0.991400  0.143000  1.0  -0.0266
  C  C53  1  0.405300  0.800900  0.201900  1.0  0.004
  C  C54  1  0.437200  0.854100  0.272900  1.0  -0.0442
  C  C55  1  0.777100  0.073400  0.538200  1.0  0.7252
  C  C56  1  0.930300  0.116900  0.554500  1.0  -0.0457
  C  C57  1  0.018900  0.233600  0.531400  1.0  -0.0146
  C  C58  1  0.161000  0.268400  0.541800  1.0  -0.0384
  C  C59  1  0.134300  0.078600  0.600400  1.0  0.0078
  C  C60  1  0.992000  0.039400  0.590200  1.0  -0.0338
  C  C61  1  0.538000  0.542500  0.144000  1.0  0.703
  C  C62  1  0.508600  0.480000  0.221100  1.0  -0.0989
  C  C63  1  0.550900  0.549800  0.287800  1.0  -0.0642
  C  C64  1  0.520400  0.491400  0.357000  1.0  -0.0271
  C  C65  1  0.405300  0.300900  0.298100  1.0  0.0039
  C  C66  1  0.437200  0.354100  0.227100  1.0  -0.0447
  C  C67  1  0.777100  0.573400  0.961800  1.0  0.7252
  C  C68  1  0.930300  0.616900  0.945500  1.0  -0.0459
  C  C69  1  0.018900  0.733600  0.968600  1.0  -0.0143
  C  C70  1  0.161000  0.768400  0.958200  1.0  -0.0393
  C  C71  1  0.134300  0.578600  0.899600  1.0  0.0071
  C  C72  1  0.992000  0.539400  0.909800  1.0  -0.0316
  C  C73  1  0.462000  0.957500  0.644000  1.0  0.7032
  C  C74  1  0.491400  0.020000  0.721100  1.0  -0.1001
  C  C75  1  0.449100  0.950200  0.787800  1.0  -0.0625
  C  C76  1  0.479600  0.008600  0.857000  1.0  -0.0261
  C  C77  1  0.594700  0.199100  0.798100  1.0  0.0034
  C  C78  1  0.562800  0.145900  0.727100  1.0  -0.0455
  C  C79  1  0.222900  0.926600  0.461800  1.0  0.7259
  C  C80  1  0.069700  0.883100  0.445500  1.0  -0.0456
  C  C81  1  0.981100  0.766400  0.468600  1.0  -0.0129
  C  C82  1  0.839000  0.731600  0.458200  1.0  -0.0394
  C  C83  1  0.865700  0.921400  0.399600  1.0  0.0081
  C  C84  1  0.008000  0.960600  0.409800  1.0  -0.0313
  N  N85  1  0.268200  0.090900  0.031900  1.0  0.8481
  N  N86  1  0.554000  0.630500  0.638100  1.0  0.3416
  N  N87  1  0.785300  0.310800  0.074600  1.0  0.3659
  N  N88  1  0.731800  0.409100  0.531900  1.0  0.8468
  N  N89  1  0.446000  0.869500  0.138100  1.0  0.3415
  N  N90  1  0.214700  0.189200  0.574600  1.0  0.3647
  N  N91  1  0.731800  0.909100  0.968100  1.0  0.8455
  N  N92  1  0.446000  0.369500  0.361900  1.0  0.3413
  N  N93  1  0.214700  0.689200  0.925400  1.0  0.3657
  N  N94  1  0.268200  0.590900  0.468100  1.0  0.8468
  N  N95  1  0.554000  0.130500  0.861900  1.0  0.3412
  N  N96  1  0.785300  0.810800  0.425400  1.0  0.3659
  O  O97  1  0.353000  0.155300  0.082000  1.0  -0.7023
  O  O98  1  0.296400  0.118400  0.963100  1.0  -0.6289
  O  O99  1  0.439200  0.343500  0.859000  1.0  -0.6125
  O  O100  1  0.474500  0.522700  0.914800  1.0  -0.772
  O  O101  1  0.587600  0.683000  0.570700  1.0  -0.6266
  O  O102  1  0.271400  0.346300  0.015100  1.0  -0.6948
  O  O103  1  0.289700  0.540900  0.047700  1.0  -0.6938
  O  O104  1  0.646300  0.274500  0.082100  1.0  -0.6174
  O  O105  1  0.168200  0.005100  0.049000  1.0  -0.3869
  O  O106  1  0.647000  0.344700  0.582000  1.0  -0.7021
  O  O107  1  0.703600  0.381600  0.463100  1.0  -0.6275
  O  O108  1  0.560800  0.156500  0.359000  1.0  -0.6121
  O  O109  1  0.525500  0.977300  0.414800  1.0  -0.772
  O  O110  1  0.412400  0.817000  0.070700  1.0  -0.6272
  O  O111  1  0.728600  0.153700  0.515100  1.0  -0.6946
  O  O112  1  0.710300  0.959100  0.547700  1.0  -0.6949
  O  O113  1  0.353700  0.225500  0.582100  1.0  -0.6195
  O  O114  1  0.831800  0.494900  0.549000  1.0  -0.3877
  O  O115  1  0.647000  0.844700  0.918000  1.0  -0.7018
  O  O116  1  0.703600  0.881600  0.036900  1.0  -0.6279
  O  O117  1  0.560800  0.656500  0.141000  1.0  -0.6121
  O  O118  1  0.525500  0.477300  0.085200  1.0  -0.773
  O  O119  1  0.412400  0.317000  0.429300  1.0  -0.6275
  O  O120  1  0.728600  0.653700  0.984900  1.0  -0.6954
  O  O121  1  0.710300  0.459100  0.952300  1.0  -0.695
  O  O122  1  0.353700  0.725500  0.917900  1.0  -0.6198
  O  O123  1  0.831800  0.994900  0.951000  1.0  -0.3867
  O  O124  1  0.353000  0.655300  0.418000  1.0  -0.703
  O  O125  1  0.296400  0.618400  0.536900  1.0  -0.6291
  O  O126  1  0.439200  0.843500  0.641000  1.0  -0.6118
  O  O127  1  0.474500  0.022700  0.585200  1.0  -0.7727
  O  O128  1  0.587600  0.183000  0.929300  1.0  -0.6268
  O  O129  1  0.271400  0.846300  0.484900  1.0  -0.6949
  O  O130  1  0.289700  0.040900  0.452300  1.0  -0.6939
  O  O131  1  0.646300  0.774500  0.417900  1.0  -0.6176
  O  O132  1  0.168200  0.505100  0.451000  1.0  -0.3874
