# generated using pymatgen
data_TbH8C12(NO3)3
_symmetry_space_group_name_H-M   'P 1'
_cell_length_a   10.17920000
_cell_length_b   11.42680000
_cell_length_c   17.51930000
_cell_angle_alpha   90.00000000
_cell_angle_beta   90.00000000
_cell_angle_gamma   110.03500000
_symmetry_Int_Tables_number   1
_chemical_formula_structural   TbH8C12(NO3)3
_chemical_formula_sum   'Tb4 H32 C48 N12 O36'
_cell_volume   1914.45070453
_cell_formula_units_Z   4
loop_
 _symmetry_equiv_pos_site_id
 _symmetry_equiv_pos_as_xyz
  1  'x, y, z'
loop_
 _atom_site_type_symbol
 _atom_site_label
 _atom_site_symmetry_multiplicity
 _atom_site_fract_x
 _atom_site_fract_y
 _atom_site_fract_z
 _atom_site_occupancy
 _atom_site_charge
  Tb  Tb1  1  0.010380  0.181710  0.507250  1.0  2.2708
  Tb  Tb2  1  0.989620  0.318290  0.007250  1.0  2.2729
  Tb  Tb3  1  0.989620  0.818290  0.492750  1.0  2.2718
  Tb  Tb4  1  0.010380  0.681710  0.992750  1.0  2.2712
  H  H5  1  0.910400  0.303800  0.816100  1.0  0.1141
  H  H6  1  0.101000  0.635200  0.716400  1.0  0.1127
  H  H7  1  0.856100  0.215200  0.697500  1.0  0.1218
  H  H8  1  0.054500  0.539400  0.599000  1.0  0.1078
  H  H9  1  0.434200  0.960800  0.392200  1.0  0.116
  H  H10  1  0.479300  0.287600  0.491100  1.0  0.1162
  H  H11  1  0.675700  0.026800  0.374500  1.0  0.1364
  H  H12  1  0.720000  0.344600  0.477800  1.0  0.1155
  H  H13  1  0.089600  0.196200  0.316100  1.0  0.1136
  H  H14  1  0.899000  0.864800  0.216400  1.0  0.1133
  H  H15  1  0.143900  0.284800  0.197500  1.0  0.1221
  H  H16  1  0.945500  0.960600  0.099000  1.0  0.1081
  H  H17  1  0.565800  0.539200  0.892200  1.0  0.116
  H  H18  1  0.520700  0.212400  0.991100  1.0  0.1144
  H  H19  1  0.324300  0.473200  0.874500  1.0  0.1357
  H  H20  1  0.280000  0.155400  0.977800  1.0  0.115
  H  H21  1  0.089600  0.696200  0.183900  1.0  0.1133
  H  H22  1  0.899000  0.364800  0.283600  1.0  0.1132
  H  H23  1  0.143900  0.784800  0.302500  1.0  0.1227
  H  H24  1  0.945500  0.460600  0.401000  1.0  0.1083
  H  H25  1  0.565800  0.039200  0.607800  1.0  0.1159
  H  H26  1  0.520700  0.712400  0.508900  1.0  0.1146
  H  H27  1  0.324300  0.973200  0.625500  1.0  0.1356
  H  H28  1  0.280000  0.655400  0.522200  1.0  0.1153
  H  H29  1  0.910400  0.803800  0.683900  1.0  0.1136
  H  H30  1  0.101000  0.135200  0.783600  1.0  0.1132
  H  H31  1  0.856100  0.715200  0.802500  1.0  0.1222
  H  H32  1  0.054500  0.039400  0.901000  1.0  0.1079
  H  H33  1  0.434200  0.460800  0.107800  1.0  0.1162
  H  H34  1  0.479300  0.787600  0.008900  1.0  0.1169
  H  H35  1  0.675700  0.526800  0.125500  1.0  0.1368
  H  H36  1  0.720000  0.844600  0.022200  1.0  0.1159
  C  C37  1  0.038900  0.541800  0.856700  1.0  0.7016
  C  C38  1  0.011000  0.479600  0.779300  1.0  -0.1103
  C  C39  1  0.938000  0.352700  0.772600  1.0  -0.031
  C  C40  1  0.053000  0.549900  0.713200  1.0  -0.0424
  C  C41  1  0.906800  0.299800  0.701800  1.0  -0.0287
  C  C42  1  0.023300  0.492900  0.643200  1.0  -0.0298
  C  C43  1  0.275100  0.072100  0.461900  1.0  0.7107
  C  C44  1  0.430100  0.116000  0.445400  1.0  -0.117
  C  C45  1  0.490300  0.038800  0.409600  1.0  -0.0125
  C  C46  1  0.517400  0.232400  0.469100  1.0  -0.015
  C  C47  1  0.635300  0.077800  0.399500  1.0  0.042
  C  C48  1  0.661600  0.267500  0.460300  1.0  -0.0434
  C  C49  1  0.961100  0.958200  0.356700  1.0  0.7021
  C  C50  1  0.989000  0.020400  0.279300  1.0  -0.111
  C  C51  1  0.062000  0.147300  0.272600  1.0  -0.0329
  C  C52  1  0.947000  0.950100  0.213200  1.0  -0.0421
  C  C53  1  0.093200  0.200200  0.201800  1.0  -0.0303
  C  C54  1  0.976700  0.007100  0.143200  1.0  -0.029
  C  C55  1  0.724900  0.427900  0.961900  1.0  0.7101
  C  C56  1  0.569900  0.384000  0.945400  1.0  -0.1164
  C  C57  1  0.509700  0.461200  0.909600  1.0  -0.0133
  C  C58  1  0.482600  0.267600  0.969100  1.0  -0.0152
  C  C59  1  0.364700  0.422200  0.899500  1.0  0.0417
  C  C60  1  0.338400  0.232500  0.960300  1.0  -0.0437
  C  C61  1  0.961100  0.458200  0.143300  1.0  0.7
  C  C62  1  0.989000  0.520400  0.220700  1.0  -0.1103
  C  C63  1  0.062000  0.647300  0.227400  1.0  -0.0332
  C  C64  1  0.947000  0.450100  0.286800  1.0  -0.0418
  C  C65  1  0.093200  0.700200  0.298200  1.0  -0.0308
  C  C66  1  0.976700  0.507100  0.356800  1.0  -0.0292
  C  C67  1  0.724900  0.927900  0.538100  1.0  0.7103
  C  C68  1  0.569900  0.884000  0.554600  1.0  -0.1166
  C  C69  1  0.509700  0.961200  0.590400  1.0  -0.0166
  C  C70  1  0.482600  0.767600  0.530900  1.0  -0.0151
  C  C71  1  0.364700  0.922200  0.600500  1.0  0.0405
  C  C72  1  0.338400  0.732500  0.539700  1.0  -0.0437
  C  C73  1  0.038900  0.041800  0.643300  1.0  0.7001
  C  C74  1  0.011000  0.979600  0.720700  1.0  -0.1093
  C  C75  1  0.938000  0.852700  0.727400  1.0  -0.031
  C  C76  1  0.053000  0.049900  0.786800  1.0  -0.0427
  C  C77  1  0.906800  0.799800  0.798200  1.0  -0.0292
  C  C78  1  0.023300  0.992900  0.856800  1.0  -0.0304
  C  C79  1  0.275100  0.572100  0.038100  1.0  0.7107
  C  C80  1  0.430100  0.616000  0.054600  1.0  -0.1164
  C  C81  1  0.490300  0.538800  0.090400  1.0  -0.017
  C  C82  1  0.517400  0.732400  0.030900  1.0  -0.015
  C  C83  1  0.635300  0.577800  0.100500  1.0  0.042
  C  C84  1  0.661600  0.767500  0.039700  1.0  -0.0427
  N  N85  1  0.949000  0.369600  0.637600  1.0  0.3471
  N  N86  1  0.715600  0.189300  0.426200  1.0  0.3543
  N  N87  1  0.231900  0.408300  0.467500  1.0  0.8197
  N  N88  1  0.051000  0.130400  0.137600  1.0  0.3477
  N  N89  1  0.284400  0.310700  0.926200  1.0  0.3562
  N  N90  1  0.768100  0.091700  0.967500  1.0  0.8206
  N  N91  1  0.051000  0.630400  0.362400  1.0  0.3458
  N  N92  1  0.284400  0.810700  0.573800  1.0  0.3558
  N  N93  1  0.768100  0.591700  0.532500  1.0  0.8205
  N  N94  1  0.949000  0.869600  0.862400  1.0  0.3454
  N  N95  1  0.715600  0.689300  0.073800  1.0  0.3532
  N  N96  1  0.231900  0.908300  0.032500  1.0  0.8196
  O  O97  1  0.915700  0.318600  0.569700  1.0  -0.6345
  O  O98  1  0.025500  0.474100  0.915200  1.0  -0.8027
  O  O99  1  0.062000  0.655600  0.861000  1.0  -0.6107
  O  O100  1  0.227300  0.153300  0.486100  1.0  -0.6861
  O  O101  1  0.208400  0.957600  0.452000  1.0  -0.6806
  O  O102  1  0.854500  0.225000  0.419000  1.0  -0.6249
  O  O103  1  0.205800  0.380200  0.537600  1.0  -0.6598
  O  O104  1  0.145600  0.342700  0.418200  1.0  -0.675
  O  O105  1  0.333400  0.495000  0.451900  1.0  -0.3809
  O  O106  1  0.084300  0.181400  0.069700  1.0  -0.633
  O  O107  1  0.974500  0.025900  0.415200  1.0  -0.8026
  O  O108  1  0.938000  0.844400  0.361000  1.0  -0.6109
  O  O109  1  0.772700  0.346700  0.986100  1.0  -0.6859
  O  O110  1  0.791600  0.542400  0.952000  1.0  -0.6792
  O  O111  1  0.145500  0.275000  0.919000  1.0  -0.6231
  O  O112  1  0.794200  0.119800  0.037600  1.0  -0.6572
  O  O113  1  0.854400  0.157300  0.918200  1.0  -0.6765
  O  O114  1  0.666667  0.005000  0.951900  1.0  -0.3825
  O  O115  1  0.084300  0.681400  0.430300  1.0  -0.6327
  O  O116  1  0.974500  0.525900  0.084800  1.0  -0.8013
  O  O117  1  0.938000  0.344400  0.139000  1.0  -0.6105
  O  O118  1  0.772700  0.846700  0.513900  1.0  -0.686
  O  O119  1  0.791600  0.042400  0.548000  1.0  -0.6794
  O  O120  1  0.145500  0.775000  0.581000  1.0  -0.6231
  O  O121  1  0.794200  0.619800  0.462400  1.0  -0.6575
  O  O122  1  0.854400  0.657300  0.581800  1.0  -0.6757
  O  O123  1  0.666667  0.505000  0.548100  1.0  -0.3822
  O  O124  1  0.915700  0.818600  0.930300  1.0  -0.6339
  O  O125  1  0.025500  0.974100  0.584800  1.0  -0.8015
  O  O126  1  0.062000  0.155600  0.639000  1.0  -0.611
  O  O127  1  0.227300  0.653300  0.013900  1.0  -0.6861
  O  O128  1  0.208400  0.457600  0.048000  1.0  -0.6807
  O  O129  1  0.854500  0.725000  0.081000  1.0  -0.6247
  O  O130  1  0.205800  0.880200  0.962400  1.0  -0.6592
  O  O131  1  0.145600  0.842700  0.081800  1.0  -0.6759
  O  O132  1  0.333400  0.995000  0.048100  1.0  -0.3822
