# generated using pymatgen
data_Al2(PO4)3
_symmetry_space_group_name_H-M   'P 1'
_cell_length_a   20.24590000
_cell_length_b   20.24590000
_cell_length_c   23.01600000
_cell_angle_alpha   90.00000000
_cell_angle_beta   90.00000000
_cell_angle_gamma   120.00000000
_symmetry_Int_Tables_number   1
_chemical_formula_structural   Al2(PO4)3
_chemical_formula_sum   'Al36 P54 O216'
_cell_volume   8170.23701517
_cell_formula_units_Z   18
loop_
 _symmetry_equiv_pos_site_id
 _symmetry_equiv_pos_as_xyz
  1  'x, y, z'
loop_
 _atom_site_type_symbol
 _atom_site_label
 _atom_site_symmetry_multiplicity
 _atom_site_fract_x
 _atom_site_fract_y
 _atom_site_fract_z
 _atom_site_occupancy
 _atom_site_charge
  Al  Al1  1  0.221150  0.951410  0.049240  1.0  2.0498
  Al  Al2  1  0.139400  0.777800  0.134020  1.0  2.042
  Al  Al3  1  0.887820  0.284740  0.382570  1.0  2.0498
  Al  Al4  1  0.806070  0.111130  0.467350  1.0  2.042
  Al  Al5  1  0.554480  0.618080  0.715910  1.0  2.0498
  Al  Al6  1  0.472730  0.444470  0.800690  1.0  2.042
  Al  Al7  1  0.048590  0.269740  0.049240  1.0  2.048
  Al  Al8  1  0.222200  0.361600  0.134020  1.0  2.041
  Al  Al9  1  0.715260  0.603070  0.382570  1.0  2.048
  Al  Al10  1  0.888870  0.694930  0.467350  1.0  2.041
  Al  Al11  1  0.381920  0.936410  0.715910  1.0  2.048
  Al  Al12  1  0.555530  0.028270  0.800690  1.0  2.041
  Al  Al13  1  0.730260  0.778850  0.049240  1.0  2.0485
  Al  Al14  1  0.638400  0.860600  0.134020  1.0  2.0398
  Al  Al15  1  0.396930  0.112180  0.382570  1.0  2.0485
  Al  Al16  1  0.305070  0.193930  0.467350  1.0  2.0402
  Al  Al17  1  0.063590  0.445520  0.715910  1.0  2.0485
  Al  Al18  1  0.971730  0.527270  0.800690  1.0  2.0398
  Al  Al19  1  0.778850  0.048590  0.950760  1.0  2.0514
  Al  Al20  1  0.860600  0.222200  0.865980  1.0  2.0433
  Al  Al21  1  0.445520  0.381920  0.284090  1.0  2.0514
  Al  Al22  1  0.527270  0.555530  0.199310  1.0  2.0433
  Al  Al23  1  0.112180  0.715260  0.617430  1.0  2.0514
  Al  Al24  1  0.193930  0.888870  0.532650  1.0  2.0433
  Al  Al25  1  0.951410  0.730260  0.950760  1.0  2.0496
  Al  Al26  1  0.777800  0.638400  0.865980  1.0  2.0421
  Al  Al27  1  0.618080  0.063590  0.284090  1.0  2.0496
  Al  Al28  1  0.444470  0.971730  0.199310  1.0  2.0421
  Al  Al29  1  0.284740  0.396930  0.617430  1.0  2.0496
  Al  Al30  1  0.111130  0.305070  0.532650  1.0  2.0421
  Al  Al31  1  0.269740  0.221150  0.950760  1.0  2.049
  Al  Al32  1  0.361600  0.139400  0.865980  1.0  2.043
  Al  Al33  1  0.936410  0.554480  0.284090  1.0  2.049
  Al  Al34  1  0.028270  0.472730  0.199310  1.0  2.043
  Al  Al35  1  0.603070  0.887820  0.617430  1.0  2.049
  Al  Al36  1  0.694930  0.806070  0.532650  1.0  2.0435
  P  P37  1  0.111390  0.788070  0.003500  1.0  1.8312
  P  P38  1  0.312040  0.885500  0.109970  1.0  1.8089
  P  P39  1  0.119530  0.918860  0.157980  1.0  1.7898
  P  P40  1  0.778060  0.121400  0.336830  1.0  1.8312
  P  P41  1  0.978710  0.218830  0.443300  1.0  1.8089
  P  P42  1  0.786200  0.252190  0.491310  1.0  1.7898
  P  P43  1  0.444720  0.454740  0.670170  1.0  1.8312
  P  P44  1  0.645370  0.552170  0.776640  1.0  1.8089
  P  P45  1  0.452860  0.585530  0.824650  1.0  1.7898
  P  P46  1  0.211930  0.323320  0.003500  1.0  1.8308
  P  P47  1  0.114500  0.426540  0.109970  1.0  1.8074
  P  P48  1  0.081140  0.200670  0.157980  1.0  1.7911
  P  P49  1  0.878600  0.656650  0.336830  1.0  1.8308
  P  P50  1  0.781170  0.759870  0.443300  1.0  1.8074
  P  P51  1  0.747810  0.534000  0.491310  1.0  1.7911
  P  P52  1  0.545260  0.989990  0.670170  1.0  1.8308
  P  P53  1  0.447830  0.093210  0.776640  1.0  1.8074
  P  P54  1  0.414470  0.867340  0.824650  1.0  1.7911
  P  P55  1  0.676680  0.888610  0.003500  1.0  1.8306
  P  P56  1  0.573460  0.687960  0.109970  1.0  1.8077
  P  P57  1  0.799330  0.880470  0.157980  1.0  1.7908
  P  P58  1  0.343350  0.221940  0.336830  1.0  1.8305
  P  P59  1  0.240130  0.021290  0.443300  1.0  1.8077
  P  P60  1  0.466000  0.213800  0.491310  1.0  1.7908
  P  P61  1  0.010010  0.555280  0.670170  1.0  1.8306
  P  P62  1  0.906790  0.354630  0.776640  1.0  1.8077
  P  P63  1  0.132660  0.547140  0.824650  1.0  1.7908
  P  P64  1  0.888610  0.211930  0.996500  1.0  1.8313
  P  P65  1  0.687960  0.114500  0.890030  1.0  1.8072
  P  P66  1  0.880470  0.081140  0.842020  1.0  1.791
  P  P67  1  0.555280  0.545260  0.329830  1.0  1.8313
  P  P68  1  0.354630  0.447830  0.223360  1.0  1.8072
  P  P69  1  0.547140  0.414470  0.175350  1.0  1.791
  P  P70  1  0.221940  0.878600  0.663170  1.0  1.8313
  P  P71  1  0.021290  0.781170  0.556700  1.0  1.8072
  P  P72  1  0.213800  0.747810  0.508690  1.0  1.791
  P  P73  1  0.788070  0.676680  0.996500  1.0  1.8314
  P  P74  1  0.885500  0.573460  0.890030  1.0  1.808
  P  P75  1  0.918860  0.799330  0.842020  1.0  1.7904
  P  P76  1  0.454740  0.010010  0.329830  1.0  1.8314
  P  P77  1  0.552170  0.906790  0.223360  1.0  1.808
  P  P78  1  0.585530  0.132660  0.175350  1.0  1.7904
  P  P79  1  0.121400  0.343350  0.663170  1.0  1.8314
  P  P80  1  0.218830  0.240130  0.556700  1.0  1.8079
  P  P81  1  0.252190  0.466000  0.508690  1.0  1.7904
  P  P82  1  0.323320  0.111390  0.996500  1.0  1.8316
  P  P83  1  0.426540  0.312040  0.890030  1.0  1.8083
  P  P84  1  0.200670  0.119530  0.842020  1.0  1.7895
  P  P85  1  0.989990  0.444720  0.329830  1.0  1.8316
  P  P86  1  0.093210  0.645370  0.223360  1.0  1.8083
  P  P87  1  0.867340  0.452860  0.175350  1.0  1.7895
  P  P88  1  0.656650  0.778060  0.663170  1.0  1.8316
  P  P89  1  0.759870  0.978710  0.556700  1.0  1.8083
  P  P90  1  0.534000  0.786200  0.508690  1.0  1.7895
  O  O91  1  0.135700  0.753500  0.957350  1.0  -0.5583
  O  O92  1  0.163000  0.875100  0.005890  1.0  -0.9514
  O  O93  1  0.030500  0.773000  0.993300  1.0  -0.9327
  O  O94  1  0.110600  0.754400  0.062970  1.0  -0.8839
  O  O95  1  0.238100  0.820700  0.135800  1.0  -0.9291
  O  O96  1  0.361500  0.930400  0.161500  1.0  -0.8863
  O  O97  1  0.351600  0.856000  0.072600  1.0  -0.5298
  O  O98  1  0.162700  0.962500  0.211300  1.0  -0.5462
  O  O99  1  0.293800  0.939200  0.076200  1.0  -0.9061
  O  O100  1  0.109800  0.837700  0.161700  1.0  -0.9368
  O  O101  1  0.170100  0.960400  0.105100  1.0  -0.9275
  O  O102  1  0.044100  0.912700  0.152900  1.0  -0.514
  O  O103  1  0.802370  0.086830  0.290680  1.0  -0.5583
  O  O104  1  0.829670  0.208430  0.339220  1.0  -0.9514
  O  O105  1  0.697170  0.106330  0.326630  1.0  -0.9327
  O  O106  1  0.777270  0.087730  0.396300  1.0  -0.884
  O  O107  1  0.904770  0.154030  0.469130  1.0  -0.9291
  O  O108  1  0.028170  0.263730  0.494830  1.0  -0.8847
  O  O109  1  0.018270  0.189330  0.405930  1.0  -0.5284
  O  O110  1  0.829370  0.295830  0.544630  1.0  -0.5462
  O  O111  1  0.960470  0.272530  0.409530  1.0  -0.9061
  O  O112  1  0.776470  0.171030  0.495030  1.0  -0.9368
  O  O113  1  0.836770  0.293730  0.438430  1.0  -0.9275
  O  O114  1  0.710770  0.246030  0.486230  1.0  -0.5239
  O  O115  1  0.469030  0.420170  0.624020  1.0  -0.5582
  O  O116  1  0.496330  0.541770  0.672560  1.0  -0.9514
  O  O117  1  0.363830  0.439670  0.659970  1.0  -0.9327
  O  O118  1  0.443930  0.421070  0.729640  1.0  -0.8839
  O  O119  1  0.571430  0.487370  0.802470  1.0  -0.9291
  O  O120  1  0.694830  0.597070  0.828170  1.0  -0.8863
  O  O121  1  0.684930  0.522670  0.739270  1.0  -0.5478
  O  O122  1  0.496030  0.629170  0.877970  1.0  -0.5462
  O  O123  1  0.627130  0.605870  0.742870  1.0  -0.9061
  O  O124  1  0.443130  0.504370  0.828370  1.0  -0.9368
  O  O125  1  0.503430  0.627070  0.771770  1.0  -0.9275
  O  O126  1  0.377430  0.579370  0.819570  1.0  -0.514
  O  O127  1  0.246500  0.382200  0.957350  1.0  -0.559
  O  O128  1  0.124900  0.287900  0.005890  1.0  -0.9515
  O  O129  1  0.227000  0.257500  0.993300  1.0  -0.9391
  O  O130  1  0.245600  0.356200  0.062970  1.0  -0.8813
  O  O131  1  0.179300  0.417400  0.135800  1.0  -0.9286
  O  O132  1  0.069600  0.431100  0.161500  1.0  -0.8853
  O  O133  1  0.144000  0.495600  0.072600  1.0  -0.5455
  O  O134  1  0.037500  0.200200  0.211300  1.0  -0.5448
  O  O135  1  0.060800  0.354600  0.076200  1.0  -0.9058
  O  O136  1  0.162300  0.272100  0.161700  1.0  -0.9351
  O  O137  1  0.039600  0.209700  0.105100  1.0  -0.9264
  O  O138  1  0.087300  0.131400  0.152900  1.0  -0.5304
  O  O139  1  0.913170  0.715530  0.290680  1.0  -0.559
  O  O140  1  0.791570  0.621230  0.339220  1.0  -0.9515
  O  O141  1  0.893670  0.590830  0.326630  1.0  -0.9391
  O  O142  1  0.912270  0.689530  0.396300  1.0  -0.8813
  O  O143  1  0.845970  0.750730  0.469130  1.0  -0.9286
  O  O144  1  0.736270  0.764430  0.494830  1.0  -0.8854
  O  O145  1  0.810670  0.828930  0.405930  1.0  -0.5524
  O  O146  1  0.704170  0.533530  0.544630  1.0  -0.5448
  O  O147  1  0.727470  0.687930  0.409530  1.0  -0.9058
  O  O148  1  0.828970  0.605430  0.495030  1.0  -0.9351
  O  O149  1  0.706270  0.543030  0.438430  1.0  -0.9264
  O  O150  1  0.753970  0.464730  0.486230  1.0  -0.5304
  O  O151  1  0.579830  0.048870  0.624020  1.0  -0.559
  O  O152  1  0.458230  0.954570  0.672560  1.0  -0.9515
  O  O153  1  0.560330  0.924170  0.659970  1.0  -0.9391
  O  O154  1  0.578930  0.022870  0.729640  1.0  -0.8813
  O  O155  1  0.512630  0.084070  0.802470  1.0  -0.9286
  O  O156  1  0.402930  0.097770  0.828170  1.0  -0.8853
  O  O157  1  0.477330  0.162270  0.739270  1.0  -0.5524
  O  O158  1  0.370830  0.866870  0.877970  1.0  -0.5448
  O  O159  1  0.394130  0.021270  0.742870  1.0  -0.9058
  O  O160  1  0.495630  0.938770  0.828370  1.0  -0.9351
  O  O161  1  0.372930  0.876370  0.771770  1.0  -0.9264
  O  O162  1  0.420630  0.798070  0.819570  1.0  -0.5304
  O  O163  1  0.617800  0.864300  0.957350  1.0  -0.5576
  O  O164  1  0.712100  0.837000  0.005890  1.0  -0.9507
  O  O165  1  0.742500  0.969500  0.993300  1.0  -0.936
  O  O166  1  0.643800  0.889400  0.062970  1.0  -0.881
  O  O167  1  0.582600  0.761900  0.135800  1.0  -0.9292
  O  O168  1  0.568900  0.638500  0.161500  1.0  -0.8852
  O  O169  1  0.504400  0.648400  0.072600  1.0  -0.5322
  O  O170  1  0.799800  0.837300  0.211300  1.0  -0.5462
  O  O171  1  0.645400  0.706200  0.076200  1.0  -0.9077
  O  O172  1  0.727900  0.890200  0.161700  1.0  -0.9358
  O  O173  1  0.790300  0.829900  0.105100  1.0  -0.9251
  O  O174  1  0.868600  0.955900  0.152900  1.0  -0.5318
  O  O175  1  0.284470  0.197630  0.290680  1.0  -0.5576
  O  O176  1  0.378770  0.170330  0.339220  1.0  -0.9507
  O  O177  1  0.409170  0.302830  0.326630  1.0  -0.936
  O  O178  1  0.310470  0.222730  0.396300  1.0  -0.8812
  O  O179  1  0.249270  0.095230  0.469130  1.0  -0.9292
  O  O180  1  0.235570  0.971830  0.494830  1.0  -0.8856
  O  O181  1  0.171070  0.981730  0.405930  1.0  -0.5502
  O  O182  1  0.466470  0.170630  0.544630  1.0  -0.5462
  O  O183  1  0.312070  0.039530  0.409530  1.0  -0.9077
  O  O184  1  0.394570  0.223530  0.495030  1.0  -0.9358
  O  O185  1  0.456970  0.163230  0.438430  1.0  -0.9251
  O  O186  1  0.535270  0.289230  0.486230  1.0  -0.5218
  O  O187  1  0.951130  0.530970  0.624020  1.0  -0.5576
  O  O188  1  0.045430  0.503670  0.672560  1.0  -0.9507
  O  O189  1  0.075830  0.636170  0.659970  1.0  -0.936
  O  O190  1  0.977130  0.556070  0.729640  1.0  -0.881
  O  O191  1  0.915930  0.428570  0.802470  1.0  -0.9292
  O  O192  1  0.902230  0.305170  0.828170  1.0  -0.8852
  O  O193  1  0.837730  0.315070  0.739270  1.0  -0.5303
  O  O194  1  0.133130  0.503970  0.877970  1.0  -0.5462
  O  O195  1  0.978730  0.372870  0.742870  1.0  -0.9077
  O  O196  1  0.061230  0.556870  0.828370  1.0  -0.9358
  O  O197  1  0.123630  0.496570  0.771770  1.0  -0.9251
  O  O198  1  0.201930  0.622570  0.819570  1.0  -0.5318
  O  O199  1  0.864300  0.246500  0.042650  1.0  -0.5601
  O  O200  1  0.837000  0.124900  0.994110  1.0  -0.95
  O  O201  1  0.969500  0.227000  0.006700  1.0  -0.9349
  O  O202  1  0.889400  0.245600  0.937030  1.0  -0.884
  O  O203  1  0.761900  0.179300  0.864200  1.0  -0.9272
  O  O204  1  0.638500  0.069600  0.838500  1.0  -0.885
  O  O205  1  0.648400  0.144000  0.927400  1.0  -0.5299
  O  O206  1  0.837300  0.037500  0.788700  1.0  -0.5444
  O  O207  1  0.706200  0.060800  0.923800  1.0  -0.9065
  O  O208  1  0.890200  0.162300  0.838300  1.0  -0.9338
  O  O209  1  0.829900  0.039600  0.894900  1.0  -0.9268
  O  O210  1  0.955900  0.087300  0.847100  1.0  -0.5214
  O  O211  1  0.530970  0.579830  0.375980  1.0  -0.56
  O  O212  1  0.503670  0.458230  0.327440  1.0  -0.95
  O  O213  1  0.636170  0.560330  0.340030  1.0  -0.9349
  O  O214  1  0.556070  0.578930  0.270360  1.0  -0.884
  O  O215  1  0.428570  0.512630  0.197530  1.0  -0.9272
  O  O216  1  0.305170  0.402930  0.171830  1.0  -0.885
  O  O217  1  0.315070  0.477330  0.260730  1.0  -0.5486
  O  O218  1  0.503970  0.370830  0.122030  1.0  -0.5444
  O  O219  1  0.372870  0.394130  0.257130  1.0  -0.9065
  O  O220  1  0.556870  0.495630  0.171630  1.0  -0.9338
  O  O221  1  0.496570  0.372930  0.228230  1.0  -0.9268
  O  O222  1  0.622570  0.420630  0.180430  1.0  -0.5214
  O  O223  1  0.197630  0.913170  0.709320  1.0  -0.5601
  O  O224  1  0.170330  0.791570  0.660780  1.0  -0.95
  O  O225  1  0.302830  0.893670  0.673370  1.0  -0.9349
  O  O226  1  0.222730  0.912270  0.603700  1.0  -0.8841
  O  O227  1  0.095230  0.845970  0.530870  1.0  -0.9272
  O  O228  1  0.971830  0.736270  0.505170  1.0  -0.8834
  O  O229  1  0.981730  0.810670  0.594070  1.0  -0.5286
  O  O230  1  0.170630  0.704170  0.455370  1.0  -0.5444
  O  O231  1  0.039530  0.727470  0.590470  1.0  -0.9065
  O  O232  1  0.223530  0.828970  0.504970  1.0  -0.9338
  O  O233  1  0.163230  0.706270  0.561570  1.0  -0.9268
  O  O234  1  0.289230  0.753970  0.513770  1.0  -0.5304
  O  O235  1  0.753500  0.617800  0.042650  1.0  -0.5593
  O  O236  1  0.875100  0.712100  0.994110  1.0  -0.9481
  O  O237  1  0.773000  0.742500  0.006700  1.0  -0.9399
  O  O238  1  0.754400  0.643800  0.937030  1.0  -0.8784
  O  O239  1  0.820700  0.582600  0.864200  1.0  -0.9301
  O  O240  1  0.930400  0.568900  0.838500  1.0  -0.885
  O  O241  1  0.856000  0.504400  0.927400  1.0  -0.5439
  O  O242  1  0.962500  0.799800  0.788700  1.0  -0.5434
  O  O243  1  0.939200  0.645400  0.923800  1.0  -0.906
  O  O244  1  0.837700  0.727900  0.838300  1.0  -0.9332
  O  O245  1  0.960400  0.790300  0.894900  1.0  -0.9272
  O  O246  1  0.912700  0.868600  0.847100  1.0  -0.5321
  O  O247  1  0.420170  0.951130  0.375980  1.0  -0.5593
  O  O248  1  0.541770  0.045430  0.327440  1.0  -0.9481
  O  O249  1  0.439670  0.075830  0.340030  1.0  -0.9399
  O  O250  1  0.421070  0.977130  0.270360  1.0  -0.8784
  O  O251  1  0.487370  0.915930  0.197530  1.0  -0.9301
  O  O252  1  0.597070  0.902230  0.171830  1.0  -0.885
  O  O253  1  0.522670  0.837730  0.260730  1.0  -0.551
  O  O254  1  0.629170  0.133130  0.122030  1.0  -0.5434
  O  O255  1  0.605870  0.978730  0.257130  1.0  -0.906
  O  O256  1  0.504370  0.061230  0.171630  1.0  -0.9332
  O  O257  1  0.627070  0.123630  0.228230  1.0  -0.9272
  O  O258  1  0.579370  0.201930  0.180430  1.0  -0.5321
  O  O259  1  0.086830  0.284470  0.709320  1.0  -0.5593
  O  O260  1  0.208430  0.378770  0.660780  1.0  -0.9481
  O  O261  1  0.106330  0.409170  0.673370  1.0  -0.9399
  O  O262  1  0.087730  0.310470  0.603700  1.0  -0.8785
  O  O263  1  0.154030  0.249270  0.530870  1.0  -0.9301
  O  O264  1  0.263730  0.235570  0.505170  1.0  -0.8851
  O  O265  1  0.189330  0.171070  0.594070  1.0  -0.551
  O  O266  1  0.295830  0.466470  0.455370  1.0  -0.5434
  O  O267  1  0.272530  0.312070  0.590470  1.0  -0.906
  O  O268  1  0.171030  0.394570  0.504970  1.0  -0.9332
  O  O269  1  0.293730  0.456970  0.561570  1.0  -0.9272
  O  O270  1  0.246030  0.535270  0.513770  1.0  -0.532
  O  O271  1  0.382200  0.135700  0.042650  1.0  -0.5581
  O  O272  1  0.287900  0.163000  0.994110  1.0  -0.9478
  O  O273  1  0.257500  0.030500  0.006700  1.0  -0.9353
  O  O274  1  0.356200  0.110600  0.937030  1.0  -0.88
  O  O275  1  0.417400  0.238100  0.864200  1.0  -0.929
  O  O276  1  0.431100  0.361500  0.838500  1.0  -0.8847
  O  O277  1  0.495600  0.351600  0.927400  1.0  -0.5303
  O  O278  1  0.200200  0.162700  0.788700  1.0  -0.5436
  O  O279  1  0.354600  0.293800  0.923800  1.0  -0.9086
  O  O280  1  0.272100  0.109800  0.838300  1.0  -0.9357
  O  O281  1  0.209700  0.170100  0.894900  1.0  -0.9267
  O  O282  1  0.131400  0.044100  0.847100  1.0  -0.5308
  O  O283  1  0.048870  0.469030  0.375980  1.0  -0.558
  O  O284  1  0.954570  0.496330  0.327440  1.0  -0.9478
  O  O285  1  0.924170  0.363830  0.340030  1.0  -0.9353
  O  O286  1  0.022870  0.443930  0.270360  1.0  -0.88
  O  O287  1  0.084070  0.571430  0.197530  1.0  -0.929
  O  O288  1  0.097770  0.694830  0.171830  1.0  -0.8847
  O  O289  1  0.162270  0.684930  0.260730  1.0  -0.5285
  O  O290  1  0.866870  0.496030  0.122030  1.0  -0.5436
  O  O291  1  0.021270  0.627130  0.257130  1.0  -0.9086
  O  O292  1  0.938770  0.443130  0.171630  1.0  -0.9357
  O  O293  1  0.876370  0.503430  0.228230  1.0  -0.9267
  O  O294  1  0.798070  0.377430  0.180430  1.0  -0.5308
  O  O295  1  0.715530  0.802370  0.709320  1.0  -0.5581
  O  O296  1  0.621230  0.829670  0.660780  1.0  -0.9478
  O  O297  1  0.590830  0.697170  0.673370  1.0  -0.9353
  O  O298  1  0.689530  0.777270  0.603700  1.0  -0.88
  O  O299  1  0.750730  0.904770  0.530870  1.0  -0.929
  O  O300  1  0.764430  0.028170  0.505170  1.0  -0.8848
  O  O301  1  0.828930  0.018270  0.594070  1.0  -0.548
  O  O302  1  0.533530  0.829370  0.455370  1.0  -0.5436
  O  O303  1  0.687930  0.960470  0.590470  1.0  -0.9086
  O  O304  1  0.605430  0.776470  0.504970  1.0  -0.9357
  O  O305  1  0.543030  0.836770  0.561570  1.0  -0.9267
  O  O306  1  0.464730  0.710770  0.513770  1.0  -0.5211
