# generated using pymatgen
data_Zn4H20C37O20
_symmetry_space_group_name_H-M   'P 1'
_cell_length_a   12.31000000
_cell_length_b   26.25000000
_cell_length_c   26.34100000
_cell_angle_alpha   90.00000000
_cell_angle_beta   90.00000000
_cell_angle_gamma   90.00000000
_symmetry_Int_Tables_number   1
_chemical_formula_structural   Zn4H20C37O20
_chemical_formula_sum   'Zn16 H80 C148 O80'
_cell_volume   8511.76488750
_cell_formula_units_Z   4
loop_
 _symmetry_equiv_pos_site_id
 _symmetry_equiv_pos_as_xyz
  1  'x, y, z'
loop_
 _atom_site_type_symbol
 _atom_site_label
 _atom_site_symmetry_multiplicity
 _atom_site_fract_x
 _atom_site_fract_y
 _atom_site_fract_z
 _atom_site_occupancy
 _atom_site_charge
  Zn  Zn1  1  0.417330  0.992660  0.959100  1.0  1.1278
  Zn  Zn2  1  0.582670  0.007340  0.459100  1.0  1.128
  Zn  Zn3  1  0.582670  0.492660  0.540900  1.0  1.1291
  Zn  Zn4  1  0.417330  0.507340  0.040900  1.0  1.1268
  Zn  Zn5  1  0.582670  0.007340  0.040900  1.0  1.1289
  Zn  Zn6  1  0.417330  0.992660  0.540900  1.0  1.1273
  Zn  Zn7  1  0.417330  0.507340  0.459100  1.0  1.1276
  Zn  Zn8  1  0.582670  0.492660  0.959100  1.0  1.128
  Zn  Zn9  1  0.492510  0.805550  0.750000  1.0  1.1187
  Zn  Zn10  1  0.660860  0.723600  0.750000  1.0  1.1072
  Zn  Zn11  1  0.507490  0.194450  0.250000  1.0  1.1189
  Zn  Zn12  1  0.339140  0.276400  0.250000  1.0  1.1072
  Zn  Zn13  1  0.507490  0.305550  0.750000  1.0  1.1189
  Zn  Zn14  1  0.339140  0.223600  0.750000  1.0  1.1102
  Zn  Zn15  1  0.492510  0.694450  0.250000  1.0  1.1195
  Zn  Zn16  1  0.660860  0.776400  0.250000  1.0  1.1099
  H  H17  1  0.920700  0.741900  0.948200  1.0  0.0568
  H  H18  1  0.019700  0.772500  0.925700  1.0  0.0599
  H  H19  1  0.073100  0.677400  0.971000  1.0  0.0621
  H  H20  1  0.164200  0.694300  0.009500  1.0  0.0509
  H  H21  1  0.812800  0.889300  0.991500  1.0  0.1169
  H  H22  1  0.609600  0.890000  0.873000  1.0  0.106
  H  H23  1  0.844000  0.784400  0.881300  1.0  0.1107
  H  H24  1  0.261300  0.635500  0.971100  1.0  0.1095
  H  H25  1  0.297500  0.746100  0.867300  1.0  0.1164
  H  H26  1  0.506300  0.629600  0.870500  1.0  0.1042
  H  H27  1  0.079300  0.258100  0.448200  1.0  0.0562
  H  H28  1  0.980300  0.227500  0.425700  1.0  0.0599
  H  H29  1  0.926900  0.322600  0.471000  1.0  0.0627
  H  H30  1  0.835800  0.305700  0.509500  1.0  0.0496
  H  H31  1  0.187200  0.110700  0.491500  1.0  0.1168
  H  H32  1  0.390400  0.110000  0.373000  1.0  0.1057
  H  H33  1  0.156000  0.215600  0.381300  1.0  0.1111
  H  H34  1  0.738700  0.364500  0.471100  1.0  0.1088
  H  H35  1  0.702500  0.253900  0.367300  1.0  0.1161
  H  H36  1  0.493700  0.370400  0.370500  1.0  0.1046
  H  H37  1  0.079300  0.241900  0.551800  1.0  0.0557
  H  H38  1  0.980300  0.272500  0.574300  1.0  0.0595
  H  H39  1  0.926900  0.177400  0.529000  1.0  0.0632
  H  H40  1  0.835800  0.194300  0.490500  1.0  0.0508
  H  H41  1  0.187200  0.389300  0.508500  1.0  0.1174
  H  H42  1  0.390400  0.390000  0.627000  1.0  0.1053
  H  H43  1  0.156000  0.284400  0.618700  1.0  0.1112
  H  H44  1  0.738700  0.135500  0.528900  1.0  0.1098
  H  H45  1  0.702500  0.246100  0.632700  1.0  0.1164
  H  H46  1  0.493700  0.129600  0.629500  1.0  0.1045
  H  H47  1  0.920700  0.758100  0.051800  1.0  0.0575
  H  H48  1  0.019700  0.727500  0.074300  1.0  0.06
  H  H49  1  0.073100  0.822600  0.029000  1.0  0.0633
  H  H50  1  0.164200  0.805700  0.990500  1.0  0.052
  H  H51  1  0.812800  0.610700  0.008500  1.0  0.1177
  H  H52  1  0.609600  0.610000  0.127000  1.0  0.1054
  H  H53  1  0.844000  0.715600  0.118700  1.0  0.1112
  H  H54  1  0.261300  0.864500  0.028900  1.0  0.1096
  H  H55  1  0.297500  0.753900  0.132700  1.0  0.1164
  H  H56  1  0.506300  0.870400  0.129500  1.0  0.1042
  H  H57  1  0.079300  0.258100  0.051800  1.0  0.0559
  H  H58  1  0.980300  0.227500  0.074300  1.0  0.0599
  H  H59  1  0.926900  0.322600  0.029000  1.0  0.0631
  H  H60  1  0.835800  0.305700  0.990500  1.0  0.0507
  H  H61  1  0.187200  0.110700  0.008500  1.0  0.1175
  H  H62  1  0.390400  0.110000  0.127000  1.0  0.1056
  H  H63  1  0.156000  0.215600  0.118700  1.0  0.1114
  H  H64  1  0.738700  0.364500  0.028900  1.0  0.1096
  H  H65  1  0.702500  0.253900  0.132700  1.0  0.1161
  H  H66  1  0.493700  0.370400  0.129500  1.0  0.1043
  H  H67  1  0.920700  0.741900  0.551800  1.0  0.0574
  H  H68  1  0.019700  0.772500  0.574300  1.0  0.0593
  H  H69  1  0.073100  0.677400  0.529000  1.0  0.063
  H  H70  1  0.164200  0.694300  0.490500  1.0  0.0513
  H  H71  1  0.812800  0.889300  0.508500  1.0  0.1175
  H  H72  1  0.609600  0.890000  0.627000  1.0  0.1055
  H  H73  1  0.844000  0.784400  0.618700  1.0  0.1111
  H  H74  1  0.261300  0.635500  0.528900  1.0  0.1098
  H  H75  1  0.297500  0.746100  0.632700  1.0  0.1166
  H  H76  1  0.506300  0.629600  0.629500  1.0  0.1041
  H  H77  1  0.920700  0.758100  0.448200  1.0  0.0573
  H  H78  1  0.019700  0.727500  0.425700  1.0  0.0598
  H  H79  1  0.073100  0.822600  0.471000  1.0  0.0631
  H  H80  1  0.164200  0.805700  0.509500  1.0  0.0508
  H  H81  1  0.812800  0.610700  0.491500  1.0  0.117
  H  H82  1  0.609600  0.610000  0.373000  1.0  0.1057
  H  H83  1  0.844000  0.715600  0.381300  1.0  0.111
  H  H84  1  0.261300  0.864500  0.471100  1.0  0.109
  H  H85  1  0.297500  0.753900  0.367300  1.0  0.1159
  H  H86  1  0.506300  0.870400  0.370500  1.0  0.1044
  H  H87  1  0.079300  0.241900  0.948200  1.0  0.0556
  H  H88  1  0.980300  0.272500  0.925700  1.0  0.0604
  H  H89  1  0.926900  0.177400  0.971000  1.0  0.0621
  H  H90  1  0.835800  0.194300  0.009500  1.0  0.0502
  H  H91  1  0.187200  0.389300  0.991500  1.0  0.1167
  H  H92  1  0.390400  0.390000  0.873000  1.0  0.1057
  H  H93  1  0.156000  0.284400  0.881300  1.0  0.1107
  H  H94  1  0.738700  0.135500  0.971100  1.0  0.1094
  H  H95  1  0.702500  0.246100  0.867300  1.0  0.1162
  H  H96  1  0.493700  0.129600  0.870500  1.0  0.1045
  C  C97  1  0.975430  0.767400  0.955750  1.0  0.0623
  C  C98  1  0.117690  0.705800  0.982050  1.0  0.0665
  C  C99  1  0.843000  0.833520  0.940430  1.0  0.2681
  C  C100  1  0.789400  0.875450  0.960890  1.0  -0.0616
  C  C101  1  0.701800  0.896480  0.936080  1.0  -0.1786
  C  C102  1  0.668300  0.875760  0.890220  1.0  -0.007
  C  C103  1  0.721800  0.833910  0.869830  1.0  -0.1458
  C  C104  1  0.808600  0.812620  0.894850  1.0  -0.1498
  C  C105  1  0.637000  0.938460  0.960490  1.0  0.6901
  C  C106  1  0.677200  0.809980  0.822130  1.0  0.6929
  C  C107  1  0.299000  0.649750  0.944030  1.0  -0.1364
  C  C108  1  0.265800  0.695470  0.923480  1.0  0.2714
  C  C109  1  0.321600  0.715850  0.881940  1.0  -0.0632
  C  C110  1  0.389700  0.625000  0.923860  1.0  -0.1572
  C  C111  1  0.445600  0.646070  0.883590  1.0  0.0236
  C  C112  1  0.411200  0.691910  0.862550  1.0  -0.1764
  C  C113  1  0.472900  0.716590  0.819640  1.0  0.72
  C  C114  1  0.429600  0.576600  0.948810  1.0  0.686
  C  C115  1  0.024570  0.232600  0.455750  1.0  0.0592
  C  C116  1  0.882310  0.294200  0.482050  1.0  0.0656
  C  C117  1  0.157000  0.166480  0.440430  1.0  0.2672
  C  C118  1  0.210600  0.124550  0.460890  1.0  -0.0615
  C  C119  1  0.298200  0.103520  0.436080  1.0  -0.1786
  C  C120  1  0.331700  0.124240  0.390220  1.0  -0.0073
  C  C121  1  0.278200  0.166090  0.369830  1.0  -0.1457
  C  C122  1  0.191400  0.187380  0.394850  1.0  -0.1511
  C  C123  1  0.363000  0.061540  0.460490  1.0  0.6905
  C  C124  1  0.322800  0.190020  0.322130  1.0  0.6927
  C  C125  1  0.701000  0.350250  0.444030  1.0  -0.1362
  C  C126  1  0.734200  0.304530  0.423480  1.0  0.2715
  C  C127  1  0.678400  0.284150  0.381940  1.0  -0.0629
  C  C128  1  0.610300  0.375000  0.423860  1.0  -0.1572
  C  C129  1  0.554400  0.353930  0.383590  1.0  0.0237
  C  C130  1  0.588800  0.308090  0.362550  1.0  -0.1766
  C  C131  1  0.527100  0.283410  0.319640  1.0  0.7197
  C  C132  1  0.570400  0.423400  0.448810  1.0  0.6865
  C  C133  1  0.024570  0.267400  0.544250  1.0  0.0582
  C  C134  1  0.882310  0.205800  0.517950  1.0  0.0666
  C  C135  1  0.157000  0.333520  0.559570  1.0  0.2678
  C  C136  1  0.210600  0.375450  0.539110  1.0  -0.0603
  C  C137  1  0.298200  0.396480  0.563920  1.0  -0.1785
  C  C138  1  0.331700  0.375760  0.609780  1.0  -0.0084
  C  C139  1  0.278200  0.333910  0.630170  1.0  -0.1491
  C  C140  1  0.191400  0.312620  0.605150  1.0  -0.1511
  C  C141  1  0.363000  0.438460  0.539510  1.0  0.6907
  C  C142  1  0.322800  0.309980  0.677870  1.0  0.6926
  C  C143  1  0.701000  0.149750  0.555970  1.0  -0.1369
  C  C144  1  0.734200  0.195470  0.576520  1.0  0.272
  C  C145  1  0.678400  0.215850  0.618060  1.0  -0.0629
  C  C146  1  0.610300  0.125000  0.576140  1.0  -0.1576
  C  C147  1  0.554400  0.146070  0.616410  1.0  0.0246
  C  C148  1  0.588800  0.191910  0.637450  1.0  -0.1775
  C  C149  1  0.527100  0.216590  0.680360  1.0  0.7198
  C  C150  1  0.570400  0.076600  0.551190  1.0  0.6867
  C  C151  1  0.975430  0.732600  0.044250  1.0  0.0594
  C  C152  1  0.117690  0.794200  0.017950  1.0  0.0646
  C  C153  1  0.843000  0.666480  0.059570  1.0  0.2673
  C  C154  1  0.789400  0.624550  0.039110  1.0  -0.0614
  C  C155  1  0.701800  0.603520  0.063920  1.0  -0.179
  C  C156  1  0.668300  0.624240  0.109780  1.0  -0.0078
  C  C157  1  0.721800  0.666090  0.130170  1.0  -0.1492
  C  C158  1  0.808600  0.687380  0.105150  1.0  -0.15
  C  C159  1  0.637000  0.561540  0.039510  1.0  0.6899
  C  C160  1  0.677200  0.690020  0.177870  1.0  0.694
  C  C161  1  0.299000  0.850250  0.055970  1.0  -0.1377
  C  C162  1  0.265800  0.804530  0.076520  1.0  0.2715
  C  C163  1  0.321600  0.784150  0.118060  1.0  -0.0629
  C  C164  1  0.389700  0.875000  0.076140  1.0  -0.1567
  C  C165  1  0.445600  0.853930  0.116410  1.0  0.0238
  C  C166  1  0.411200  0.808090  0.137450  1.0  -0.1778
  C  C167  1  0.472900  0.783410  0.180360  1.0  0.7195
  C  C168  1  0.429600  0.923400  0.051190  1.0  0.6865
  C  C169  1  0.024570  0.232600  0.044250  1.0  0.0576
  C  C170  1  0.882310  0.294200  0.017950  1.0  0.0651
  C  C171  1  0.157000  0.166480  0.059570  1.0  0.2671
  C  C172  1  0.210600  0.124550  0.039110  1.0  -0.0604
  C  C173  1  0.298200  0.103520  0.063920  1.0  -0.1787
  C  C174  1  0.331700  0.124240  0.109780  1.0  -0.0068
  C  C175  1  0.278200  0.166090  0.130170  1.0  -0.1455
  C  C176  1  0.191400  0.187380  0.105150  1.0  -0.1511
  C  C177  1  0.363000  0.061540  0.039510  1.0  0.6903
  C  C178  1  0.322800  0.190020  0.177870  1.0  0.6932
  C  C179  1  0.701000  0.350250  0.055970  1.0  -0.1367
  C  C180  1  0.734200  0.304530  0.076520  1.0  0.2721
  C  C181  1  0.678400  0.284150  0.118060  1.0  -0.0628
  C  C182  1  0.610300  0.375000  0.076140  1.0  -0.1571
  C  C183  1  0.554400  0.353930  0.116410  1.0  0.0241
  C  C184  1  0.588800  0.308090  0.137450  1.0  -0.1777
  C  C185  1  0.527100  0.283410  0.180360  1.0  0.7193
  C  C186  1  0.570400  0.423400  0.051190  1.0  0.6868
  C  C187  1  0.975430  0.767400  0.544250  1.0  0.0577
  C  C188  1  0.117690  0.705800  0.517950  1.0  0.0663
  C  C189  1  0.843000  0.833520  0.559570  1.0  0.268
  C  C190  1  0.789400  0.875450  0.539110  1.0  -0.061
  C  C191  1  0.701800  0.896480  0.563920  1.0  -0.1784
  C  C192  1  0.668300  0.875760  0.609780  1.0  -0.0073
  C  C193  1  0.721800  0.833910  0.630170  1.0  -0.1453
  C  C194  1  0.808600  0.812620  0.605150  1.0  -0.1501
  C  C195  1  0.637000  0.938460  0.539510  1.0  0.69
  C  C196  1  0.677200  0.809980  0.677870  1.0  0.6934
  C  C197  1  0.299000  0.649750  0.555970  1.0  -0.1373
  C  C198  1  0.265800  0.695470  0.576520  1.0  0.2716
  C  C199  1  0.321600  0.715850  0.618060  1.0  -0.063
  C  C200  1  0.389700  0.625000  0.576140  1.0  -0.157
  C  C201  1  0.445600  0.646070  0.616410  1.0  0.0245
  C  C202  1  0.411200  0.691910  0.637450  1.0  -0.1776
  C  C203  1  0.472900  0.716590  0.680360  1.0  0.7198
  C  C204  1  0.429600  0.576600  0.551190  1.0  0.6862
  C  C205  1  0.975430  0.732600  0.455750  1.0  0.0626
  C  C206  1  0.117690  0.794200  0.482050  1.0  0.0648
  C  C207  1  0.843000  0.666480  0.440430  1.0  0.2675
  C  C208  1  0.789400  0.624550  0.460890  1.0  -0.0615
  C  C209  1  0.701800  0.603520  0.436080  1.0  -0.1789
  C  C210  1  0.668300  0.624240  0.390220  1.0  -0.0078
  C  C211  1  0.721800  0.666090  0.369830  1.0  -0.149
  C  C212  1  0.808600  0.687380  0.394850  1.0  -0.1502
  C  C213  1  0.637000  0.561540  0.460490  1.0  0.69
  C  C214  1  0.677200  0.690020  0.322130  1.0  0.6932
  C  C215  1  0.299000  0.850250  0.444030  1.0  -0.1366
  C  C216  1  0.265800  0.804530  0.423480  1.0  0.2709
  C  C217  1  0.321600  0.784150  0.381940  1.0  -0.0627
  C  C218  1  0.389700  0.875000  0.423860  1.0  -0.1568
  C  C219  1  0.445600  0.853930  0.383590  1.0  0.0237
  C  C220  1  0.411200  0.808090  0.362550  1.0  -0.1765
  C  C221  1  0.472900  0.783410  0.319640  1.0  0.7197
  C  C222  1  0.429600  0.923400  0.448810  1.0  0.6862
  C  C223  1  0.024570  0.267400  0.955750  1.0  0.0612
  C  C224  1  0.882310  0.205800  0.982050  1.0  0.067
  C  C225  1  0.157000  0.333520  0.940430  1.0  0.2679
  C  C226  1  0.210600  0.375450  0.960890  1.0  -0.062
  C  C227  1  0.298200  0.396480  0.936080  1.0  -0.1786
  C  C228  1  0.331700  0.375760  0.890220  1.0  -0.0081
  C  C229  1  0.278200  0.333910  0.869830  1.0  -0.1489
  C  C230  1  0.191400  0.312620  0.894850  1.0  -0.1507
  C  C231  1  0.363000  0.438460  0.960490  1.0  0.6908
  C  C232  1  0.322800  0.309980  0.822130  1.0  0.6926
  C  C233  1  0.701000  0.149750  0.944030  1.0  -0.1363
  C  C234  1  0.734200  0.195470  0.923480  1.0  0.2719
  C  C235  1  0.678400  0.215850  0.881940  1.0  -0.0635
  C  C236  1  0.610300  0.125000  0.923860  1.0  -0.1578
  C  C237  1  0.554400  0.146070  0.883590  1.0  0.0234
  C  C238  1  0.588800  0.191910  0.862550  1.0  -0.1765
  C  C239  1  0.527100  0.216590  0.819640  1.0  0.7201
  C  C240  1  0.570400  0.076600  0.948810  1.0  0.6864
  C  C241  1  0.045800  0.750000  0.000000  1.0  -0.0542
  C  C242  1  0.954200  0.250000  0.500000  1.0  -0.054
  C  C243  1  0.954200  0.250000  0.000000  1.0  -0.054
  C  C244  1  0.045800  0.750000  0.500000  1.0  -0.0542
  O  O245  1  0.924900  0.814200  0.970350  1.0  -0.2812
  O  O246  1  0.181450  0.724190  0.941060  1.0  -0.2842
  O  O247  1  0.674390  0.957990  0.000170  1.0  -0.5933
  O  O248  1  0.549140  0.950450  0.938960  1.0  -0.6327
  O  O249  1  0.594820  0.832040  0.803150  1.0  -0.6258
  O  O250  1  0.721870  0.770750  0.805300  1.0  -0.6088
  O  O251  1  0.434090  0.757800  0.803280  1.0  -0.6313
  O  O252  1  0.555930  0.695580  0.803980  1.0  -0.6072
  O  O253  1  0.508590  0.554330  0.928070  1.0  -0.594
  O  O254  1  0.382980  0.563100  0.988950  1.0  -0.6498
  O  O255  1  0.075100  0.185800  0.470350  1.0  -0.2836
  O  O256  1  0.818550  0.275810  0.441060  1.0  -0.2832
  O  O257  1  0.325610  0.042010  0.500170  1.0  -0.5931
  O  O258  1  0.450860  0.049550  0.438960  1.0  -0.633
  O  O259  1  0.405180  0.167960  0.303150  1.0  -0.6249
  O  O260  1  0.278130  0.229250  0.305300  1.0  -0.6082
  O  O261  1  0.565910  0.242200  0.303280  1.0  -0.6312
  O  O262  1  0.444070  0.304420  0.303980  1.0  -0.607
  O  O263  1  0.491410  0.445670  0.428070  1.0  -0.5943
  O  O264  1  0.617020  0.436900  0.488950  1.0  -0.6502
  O  O265  1  0.075100  0.314200  0.529650  1.0  -0.282
  O  O266  1  0.818550  0.224190  0.558940  1.0  -0.2843
  O  O267  1  0.325610  0.457990  0.499830  1.0  -0.5921
  O  O268  1  0.450860  0.450450  0.561040  1.0  -0.6319
  O  O269  1  0.405180  0.332040  0.696850  1.0  -0.6264
  O  O270  1  0.278130  0.270750  0.694700  1.0  -0.6069
  O  O271  1  0.565910  0.257800  0.696720  1.0  -0.6317
  O  O272  1  0.444070  0.195580  0.696020  1.0  -0.6075
  O  O273  1  0.491410  0.054330  0.571930  1.0  -0.5933
  O  O274  1  0.617020  0.063100  0.511050  1.0  -0.6491
  O  O275  1  0.924900  0.685800  0.029650  1.0  -0.2843
  O  O276  1  0.181450  0.775810  0.058940  1.0  -0.2848
  O  O277  1  0.674390  0.542010  0.999830  1.0  -0.5918
  O  O278  1  0.549140  0.549550  0.061040  1.0  -0.6325
  O  O279  1  0.594820  0.667960  0.196850  1.0  -0.6249
  O  O280  1  0.721870  0.729250  0.194700  1.0  -0.6083
  O  O281  1  0.434090  0.742200  0.196720  1.0  -0.6317
  O  O282  1  0.555930  0.804420  0.196020  1.0  -0.6075
  O  O283  1  0.508590  0.945670  0.071930  1.0  -0.5932
  O  O284  1  0.382980  0.936900  0.011050  1.0  -0.649
  O  O285  1  0.075100  0.185800  0.029650  1.0  -0.284
  O  O286  1  0.818550  0.275810  0.058940  1.0  -0.2839
  O  O287  1  0.325610  0.042010  0.999830  1.0  -0.5925
  O  O288  1  0.450860  0.049550  0.061040  1.0  -0.6317
  O  O289  1  0.405180  0.167960  0.196850  1.0  -0.6253
  O  O290  1  0.278130  0.229250  0.194700  1.0  -0.6073
  O  O291  1  0.565910  0.242200  0.196720  1.0  -0.6322
  O  O292  1  0.444070  0.304420  0.196020  1.0  -0.6072
  O  O293  1  0.491410  0.445670  0.071930  1.0  -0.5935
  O  O294  1  0.617020  0.436900  0.011050  1.0  -0.6488
  O  O295  1  0.924900  0.814200  0.529650  1.0  -0.2828
  O  O296  1  0.181450  0.724190  0.558940  1.0  -0.2849
  O  O297  1  0.674390  0.957990  0.499830  1.0  -0.5909
  O  O298  1  0.549140  0.950450  0.561040  1.0  -0.6322
  O  O299  1  0.594820  0.832040  0.696850  1.0  -0.6257
  O  O300  1  0.721870  0.770750  0.694700  1.0  -0.6084
  O  O301  1  0.434090  0.757800  0.696720  1.0  -0.632
  O  O302  1  0.555930  0.695580  0.696020  1.0  -0.6072
  O  O303  1  0.508590  0.554330  0.571930  1.0  -0.5932
  O  O304  1  0.382980  0.563100  0.511050  1.0  -0.6485
  O  O305  1  0.924900  0.685800  0.470350  1.0  -0.2839
  O  O306  1  0.181450  0.775810  0.441060  1.0  -0.2845
  O  O307  1  0.674390  0.542010  0.500170  1.0  -0.5928
  O  O308  1  0.549140  0.549550  0.438960  1.0  -0.6326
  O  O309  1  0.594820  0.667960  0.303150  1.0  -0.6248
  O  O310  1  0.721870  0.729250  0.305300  1.0  -0.6089
  O  O311  1  0.434090  0.742200  0.303280  1.0  -0.6314
  O  O312  1  0.555930  0.804420  0.303980  1.0  -0.6076
  O  O313  1  0.508590  0.945670  0.428070  1.0  -0.5943
  O  O314  1  0.382980  0.936900  0.488950  1.0  -0.6499
  O  O315  1  0.075100  0.314200  0.970350  1.0  -0.2808
  O  O316  1  0.818550  0.224190  0.941060  1.0  -0.2829
  O  O317  1  0.325610  0.457990  0.000170  1.0  -0.5935
  O  O318  1  0.450860  0.450450  0.938960  1.0  -0.6327
  O  O319  1  0.405180  0.332040  0.803150  1.0  -0.6265
  O  O320  1  0.278130  0.270750  0.805300  1.0  -0.6078
  O  O321  1  0.565910  0.257800  0.803280  1.0  -0.6309
  O  O322  1  0.444070  0.195580  0.803980  1.0  -0.6077
  O  O323  1  0.491410  0.054330  0.928070  1.0  -0.5942
  O  O324  1  0.617020  0.063100  0.988950  1.0  -0.6498
