# generated using pymatgen
data_Zn4H20C37O20
_symmetry_space_group_name_H-M   'P 1'
_cell_length_a   12.16000000
_cell_length_b   26.33100000
_cell_length_c   26.46800000
_cell_angle_alpha   90.00000000
_cell_angle_beta   90.00000000
_cell_angle_gamma   90.00000000
_symmetry_Int_Tables_number   1
_chemical_formula_structural   Zn4H20C37O20
_chemical_formula_sum   'Zn16 H80 C148 O80'
_cell_volume   8474.65552128
_cell_formula_units_Z   4
loop_
 _symmetry_equiv_pos_site_id
 _symmetry_equiv_pos_as_xyz
  1  'x, y, z'
loop_
 _atom_site_type_symbol
 _atom_site_label
 _atom_site_symmetry_multiplicity
 _atom_site_fract_x
 _atom_site_fract_y
 _atom_site_fract_z
 _atom_site_occupancy
 _atom_site_charge
  Zn  Zn1  1  0.915070  0.459610  0.992940  1.0  1.1284
  Zn  Zn2  1  0.084930  0.959610  0.007060  1.0  1.1301
  Zn  Zn3  1  0.084930  0.040390  0.492940  1.0  1.1276
  Zn  Zn4  1  0.915070  0.540390  0.507060  1.0  1.1284
  Zn  Zn5  1  0.084930  0.540390  0.007060  1.0  1.1296
  Zn  Zn6  1  0.915070  0.040390  0.992940  1.0  1.1264
  Zn  Zn7  1  0.915070  0.959610  0.507060  1.0  1.1304
  Zn  Zn8  1  0.084930  0.459610  0.492940  1.0  1.1282
  Zn  Zn9  1  0.164480  0.750000  0.777120  1.0  1.1239
  Zn  Zn10  1  0.989550  0.750000  0.696450  1.0  1.1376
  Zn  Zn11  1  0.835520  0.250000  0.222880  1.0  1.1233
  Zn  Zn12  1  0.010450  0.250000  0.303550  1.0  1.1393
  Zn  Zn13  1  0.835520  0.750000  0.277120  1.0  1.1225
  Zn  Zn14  1  0.010450  0.750000  0.196450  1.0  1.1383
  Zn  Zn15  1  0.164480  0.250000  0.722880  1.0  1.1239
  Zn  Zn16  1  0.989550  0.250000  0.803550  1.0  1.1381
  H  H17  1  0.573000  0.529600  0.821600  1.0  0.0665
  H  H18  1  0.664400  0.490300  0.805700  1.0  0.0562
  H  H19  1  0.419800  0.448300  0.741700  1.0  0.0599
  H  H20  1  0.519500  0.425900  0.772300  1.0  0.0608
  H  H21  1  0.803600  0.631500  0.754400  1.0  0.1235
  H  H22  1  0.004800  0.631900  0.873700  1.0  0.1118
  H  H23  1  0.762200  0.527900  0.864500  1.0  0.1182
  H  H24  1  0.341300  0.381600  0.783500  1.0  0.1144
  H  H25  1  0.314200  0.490700  0.889200  1.0  0.1191
  H  H26  1  0.102900  0.374200  0.888500  1.0  0.1066
  H  H27  1  0.427000  0.029600  0.178400  1.0  0.0674
  H  H28  1  0.335600  0.990300  0.194300  1.0  0.0536
  H  H29  1  0.580200  0.948300  0.258300  1.0  0.0584
  H  H30  1  0.480500  0.925900  0.227700  1.0  0.0608
  H  H31  1  0.196400  0.131500  0.245600  1.0  0.1227
  H  H32  1  0.995200  0.131900  0.126300  1.0  0.1122
  H  H33  1  0.237800  0.027900  0.135500  1.0  0.1178
  H  H34  1  0.658700  0.881600  0.216500  1.0  0.1148
  H  H35  1  0.685800  0.990700  0.110800  1.0  0.118
  H  H36  1  0.897100  0.874200  0.111500  1.0  0.1063
  H  H37  1  0.427000  0.970400  0.321600  1.0  0.0685
  H  H38  1  0.335600  0.009700  0.305700  1.0  0.0542
  H  H39  1  0.580200  0.051700  0.241700  1.0  0.0585
  H  H40  1  0.480500  0.074100  0.272300  1.0  0.0625
  H  H41  1  0.196400  0.868500  0.254400  1.0  0.1234
  H  H42  1  0.995200  0.868100  0.373700  1.0  0.1121
  H  H43  1  0.237800  0.972100  0.364500  1.0  0.1175
  H  H44  1  0.658700  0.118400  0.283500  1.0  0.1138
  H  H45  1  0.685800  0.009300  0.389200  1.0  0.1188
  H  H46  1  0.897100  0.125800  0.388500  1.0  0.1067
  H  H47  1  0.573000  0.470400  0.678400  1.0  0.0669
  H  H48  1  0.664400  0.509700  0.694300  1.0  0.0551
  H  H49  1  0.419800  0.551700  0.758300  1.0  0.0593
  H  H50  1  0.519500  0.574100  0.727700  1.0  0.0624
  H  H51  1  0.803600  0.368500  0.745600  1.0  0.1229
  H  H52  1  0.004800  0.368100  0.626300  1.0  0.112
  H  H53  1  0.762200  0.472100  0.635500  1.0  0.1178
  H  H54  1  0.341300  0.618400  0.716500  1.0  0.1142
  H  H55  1  0.314200  0.509300  0.610800  1.0  0.1186
  H  H56  1  0.102900  0.625800  0.611500  1.0  0.1062
  H  H57  1  0.427000  0.470400  0.178400  1.0  0.0674
  H  H58  1  0.335600  0.509700  0.194300  1.0  0.0544
  H  H59  1  0.580200  0.551700  0.258300  1.0  0.0582
  H  H60  1  0.480500  0.574100  0.227700  1.0  0.0623
  H  H61  1  0.196400  0.368500  0.245600  1.0  0.1225
  H  H62  1  0.995200  0.368100  0.126300  1.0  0.1123
  H  H63  1  0.237800  0.472100  0.135500  1.0  0.1177
  H  H64  1  0.658700  0.618400  0.216500  1.0  0.1143
  H  H65  1  0.685800  0.509300  0.110800  1.0  0.1185
  H  H66  1  0.897100  0.625800  0.111500  1.0  0.1064
  H  H67  1  0.573000  0.970400  0.821600  1.0  0.0671
  H  H68  1  0.664400  0.009700  0.805700  1.0  0.0549
  H  H69  1  0.419800  0.051700  0.741700  1.0  0.0593
  H  H70  1  0.519500  0.074100  0.772300  1.0  0.0625
  H  H71  1  0.803600  0.868500  0.754400  1.0  0.1235
  H  H72  1  0.004800  0.868100  0.873700  1.0  0.1119
  H  H73  1  0.762200  0.972100  0.864500  1.0  0.118
  H  H74  1  0.341300  0.118400  0.783500  1.0  0.1138
  H  H75  1  0.314200  0.009300  0.889200  1.0  0.1188
  H  H76  1  0.102900  0.125800  0.888500  1.0  0.1064
  H  H77  1  0.573000  0.029600  0.678400  1.0  0.0674
  H  H78  1  0.664400  0.990300  0.694300  1.0  0.0544
  H  H79  1  0.419800  0.948300  0.758300  1.0  0.0599
  H  H80  1  0.519500  0.925900  0.727700  1.0  0.0601
  H  H81  1  0.803600  0.131500  0.745600  1.0  0.1229
  H  H82  1  0.004800  0.131900  0.626300  1.0  0.112
  H  H83  1  0.762200  0.027900  0.635500  1.0  0.1178
  H  H84  1  0.341300  0.881600  0.716500  1.0  0.1147
  H  H85  1  0.314200  0.990700  0.610800  1.0  0.1182
  H  H86  1  0.102900  0.874200  0.611500  1.0  0.1064
  H  H87  1  0.427000  0.529600  0.321600  1.0  0.0676
  H  H88  1  0.335600  0.490300  0.305700  1.0  0.0552
  H  H89  1  0.580200  0.448300  0.241700  1.0  0.0584
  H  H90  1  0.480500  0.425900  0.272300  1.0  0.0617
  H  H91  1  0.196400  0.631500  0.254400  1.0  0.1232
  H  H92  1  0.995200  0.631900  0.373700  1.0  0.1118
  H  H93  1  0.237800  0.527900  0.364500  1.0  0.1179
  H  H94  1  0.658700  0.381600  0.283500  1.0  0.1144
  H  H95  1  0.685800  0.490700  0.389200  1.0  0.1189
  H  H96  1  0.897100  0.374200  0.388500  1.0  0.1067
  C  C97  1  0.618600  0.518010  0.793760  1.0  0.0619
  C  C98  1  0.474800  0.455920  0.767120  1.0  0.083
  C  C99  1  0.768800  0.576230  0.804990  1.0  0.296
  C  C100  1  0.825200  0.617660  0.785160  1.0  -0.1389
  C  C101  1  0.912000  0.637980  0.810730  1.0  -0.1692
  C  C102  1  0.945400  0.617860  0.856570  1.0  0.0215
  C  C103  1  0.889700  0.576790  0.876640  1.0  -0.1501
  C  C104  1  0.799900  0.555410  0.850960  1.0  -0.1498
  C  C105  1  0.974900  0.680720  0.786220  1.0  0.69
  C  C106  1  0.928700  0.551980  0.924920  1.0  0.7081
  C  C107  1  0.305200  0.395240  0.811290  1.0  -0.1459
  C  C108  1  0.339400  0.441170  0.831820  1.0  0.2669
  C  C109  1  0.288200  0.460940  0.874620  1.0  -0.0774
  C  C110  1  0.216300  0.369830  0.832810  1.0  -0.1979
  C  C111  1  0.163100  0.390840  0.874500  1.0  0.0045
  C  C112  1  0.198800  0.436260  0.895280  1.0  -0.1656
  C  C113  1  0.173000  0.322490  0.809710  1.0  0.712
  C  C114  1  0.135000  0.460160  0.938220  1.0  0.7109
  C  C115  1  0.381400  0.018010  0.206240  1.0  0.0609
  C  C116  1  0.525200  0.955920  0.232880  1.0  0.0812
  C  C117  1  0.231200  0.076230  0.195010  1.0  0.2961
  C  C118  1  0.174800  0.117660  0.214840  1.0  -0.1396
  C  C119  1  0.088000  0.137980  0.189270  1.0  -0.169
  C  C120  1  0.054600  0.117860  0.143430  1.0  0.0218
  C  C121  1  0.110300  0.076790  0.123360  1.0  -0.1506
  C  C122  1  0.200100  0.055410  0.149040  1.0  -0.149
  C  C123  1  0.025100  0.180720  0.213780  1.0  0.6902
  C  C124  1  0.071300  0.051980  0.075080  1.0  0.7084
  C  C125  1  0.694800  0.895240  0.188710  1.0  -0.147
  C  C126  1  0.660600  0.941170  0.168180  1.0  0.2672
  C  C127  1  0.711800  0.960940  0.125380  1.0  -0.0802
  C  C128  1  0.783700  0.869830  0.167190  1.0  -0.198
  C  C129  1  0.836900  0.890840  0.125500  1.0  0.0051
  C  C130  1  0.801200  0.936260  0.104720  1.0  -0.1652
  C  C131  1  0.827000  0.822490  0.190290  1.0  0.7114
  C  C132  1  0.865000  0.960160  0.061780  1.0  0.7103
  C  C133  1  0.381400  0.981990  0.293760  1.0  0.0638
  C  C134  1  0.525200  0.044080  0.267120  1.0  0.0796
  C  C135  1  0.231200  0.923770  0.304990  1.0  0.2963
  C  C136  1  0.174800  0.882340  0.285160  1.0  -0.14
  C  C137  1  0.088000  0.862020  0.310730  1.0  -0.1691
  C  C138  1  0.054600  0.882140  0.356570  1.0  0.0227
  C  C139  1  0.110300  0.923210  0.376640  1.0  -0.1505
  C  C140  1  0.200100  0.944590  0.350960  1.0  -0.1497
  C  C141  1  0.025100  0.819280  0.286220  1.0  0.6897
  C  C142  1  0.071300  0.948020  0.424920  1.0  0.7079
  C  C143  1  0.694800  0.104760  0.311290  1.0  -0.1468
  C  C144  1  0.660600  0.058830  0.331820  1.0  0.2672
  C  C145  1  0.711800  0.039060  0.374620  1.0  -0.0791
  C  C146  1  0.783700  0.130170  0.332810  1.0  -0.1974
  C  C147  1  0.836900  0.109160  0.374500  1.0  0.0048
  C  C148  1  0.801200  0.063740  0.395280  1.0  -0.1655
  C  C149  1  0.827000  0.177510  0.309710  1.0  0.7113
  C  C150  1  0.865000  0.039840  0.438220  1.0  0.7104
  C  C151  1  0.618600  0.481990  0.706240  1.0  0.0602
  C  C152  1  0.474800  0.544080  0.732880  1.0  0.0822
  C  C153  1  0.768800  0.423770  0.695010  1.0  0.2959
  C  C154  1  0.825200  0.382340  0.714840  1.0  -0.1381
  C  C155  1  0.912000  0.362020  0.689270  1.0  -0.1689
  C  C156  1  0.945400  0.382140  0.643430  1.0  0.0217
  C  C157  1  0.889700  0.423210  0.623360  1.0  -0.1506
  C  C158  1  0.799900  0.444590  0.649040  1.0  -0.1495
  C  C159  1  0.974900  0.319280  0.713780  1.0  0.6903
  C  C160  1  0.928700  0.448020  0.575080  1.0  0.7085
  C  C161  1  0.305200  0.604760  0.688710  1.0  -0.1457
  C  C162  1  0.339400  0.558830  0.668180  1.0  0.2676
  C  C163  1  0.288200  0.539060  0.625380  1.0  -0.0792
  C  C164  1  0.216300  0.630170  0.667190  1.0  -0.1968
  C  C165  1  0.163100  0.609160  0.625500  1.0  0.0058
  C  C166  1  0.198800  0.563740  0.604720  1.0  -0.1656
  C  C167  1  0.173000  0.677510  0.690290  1.0  0.7118
  C  C168  1  0.135000  0.539840  0.561780  1.0  0.7108
  C  C169  1  0.381400  0.481990  0.206240  1.0  0.0597
  C  C170  1  0.525200  0.544080  0.232880  1.0  0.0802
  C  C171  1  0.231200  0.423770  0.195010  1.0  0.296
  C  C172  1  0.174800  0.382340  0.214840  1.0  -0.1392
  C  C173  1  0.088000  0.362020  0.189270  1.0  -0.1691
  C  C174  1  0.054600  0.382140  0.143430  1.0  0.0218
  C  C175  1  0.110300  0.423210  0.123360  1.0  -0.1507
  C  C176  1  0.200100  0.444590  0.149040  1.0  -0.1494
  C  C177  1  0.025100  0.319280  0.213780  1.0  0.69
  C  C178  1  0.071300  0.448020  0.075080  1.0  0.7085
  C  C179  1  0.694800  0.604760  0.188710  1.0  -0.1465
  C  C180  1  0.660600  0.558830  0.168180  1.0  0.2673
  C  C181  1  0.711800  0.539060  0.125380  1.0  -0.0802
  C  C182  1  0.783700  0.630170  0.167190  1.0  -0.1971
  C  C183  1  0.836900  0.609160  0.125500  1.0  0.0057
  C  C184  1  0.801200  0.563740  0.104720  1.0  -0.1654
  C  C185  1  0.827000  0.677510  0.190290  1.0  0.7114
  C  C186  1  0.865000  0.539840  0.061780  1.0  0.7104
  C  C187  1  0.618600  0.981990  0.793760  1.0  0.0624
  C  C188  1  0.474800  0.044080  0.767120  1.0  0.0817
  C  C189  1  0.768800  0.923770  0.804990  1.0  0.296
  C  C190  1  0.825200  0.882340  0.785160  1.0  -0.1385
  C  C191  1  0.912000  0.862020  0.810730  1.0  -0.1688
  C  C192  1  0.945400  0.882140  0.856570  1.0  0.0222
  C  C193  1  0.889700  0.923210  0.876640  1.0  -0.1506
  C  C194  1  0.799900  0.944590  0.850960  1.0  -0.1499
  C  C195  1  0.974900  0.819280  0.786220  1.0  0.6898
  C  C196  1  0.928700  0.948020  0.924920  1.0  0.708
  C  C197  1  0.305200  0.104760  0.811290  1.0  -0.1457
  C  C198  1  0.339400  0.058830  0.831820  1.0  0.2675
  C  C199  1  0.288200  0.039060  0.874620  1.0  -0.078
  C  C200  1  0.216300  0.130170  0.832810  1.0  -0.1971
  C  C201  1  0.163100  0.109160  0.874500  1.0  0.0045
  C  C202  1  0.198800  0.063740  0.895280  1.0  -0.1655
  C  C203  1  0.173000  0.177510  0.809710  1.0  0.7117
  C  C204  1  0.135000  0.039840  0.938220  1.0  0.7108
  C  C205  1  0.618600  0.018010  0.706240  1.0  0.0612
  C  C206  1  0.474800  0.955920  0.732880  1.0  0.0833
  C  C207  1  0.768800  0.076230  0.695010  1.0  0.2958
  C  C208  1  0.825200  0.117660  0.714840  1.0  -0.1392
  C  C209  1  0.912000  0.137980  0.689270  1.0  -0.1691
  C  C210  1  0.945400  0.117860  0.643430  1.0  0.0214
  C  C211  1  0.889700  0.076790  0.623360  1.0  -0.1505
  C  C212  1  0.799900  0.055410  0.649040  1.0  -0.1489
  C  C213  1  0.974900  0.180720  0.713780  1.0  0.6904
  C  C214  1  0.928700  0.051980  0.575080  1.0  0.7084
  C  C215  1  0.305200  0.895240  0.688710  1.0  -0.1463
  C  C216  1  0.339400  0.941170  0.668180  1.0  0.2675
  C  C217  1  0.288200  0.960940  0.625380  1.0  -0.0792
  C  C218  1  0.216300  0.869830  0.667190  1.0  -0.1978
  C  C219  1  0.163100  0.890840  0.625500  1.0  0.0054
  C  C220  1  0.198800  0.936260  0.604720  1.0  -0.1654
  C  C221  1  0.173000  0.822490  0.690290  1.0  0.7119
  C  C222  1  0.135000  0.960160  0.561780  1.0  0.7107
  C  C223  1  0.381400  0.518010  0.293760  1.0  0.063
  C  C224  1  0.525200  0.455920  0.267120  1.0  0.0809
  C  C225  1  0.231200  0.576230  0.304990  1.0  0.2964
  C  C226  1  0.174800  0.617660  0.285160  1.0  -0.1399
  C  C227  1  0.088000  0.637980  0.310730  1.0  -0.169
  C  C228  1  0.054600  0.617860  0.356570  1.0  0.0221
  C  C229  1  0.110300  0.576790  0.376640  1.0  -0.15
  C  C230  1  0.200100  0.555410  0.350960  1.0  -0.1496
  C  C231  1  0.025100  0.680720  0.286220  1.0  0.69
  C  C232  1  0.071300  0.551980  0.424920  1.0  0.7079
  C  C233  1  0.694800  0.395240  0.311290  1.0  -0.1466
  C  C234  1  0.660600  0.441170  0.331820  1.0  0.2667
  C  C235  1  0.711800  0.460940  0.374620  1.0  -0.0789
  C  C236  1  0.783700  0.369830  0.332810  1.0  -0.198
  C  C237  1  0.836900  0.390840  0.374500  1.0  0.0045
  C  C238  1  0.801200  0.436260  0.395280  1.0  -0.1655
  C  C239  1  0.827000  0.322490  0.309710  1.0  0.7116
  C  C240  1  0.865000  0.460160  0.438220  1.0  0.7105
  C  C241  1  0.546300  0.500000  0.750000  1.0  -0.0574
  C  C242  1  0.453700  0.000000  0.250000  1.0  -0.0572
  C  C243  1  0.453700  0.500000  0.250000  1.0  -0.0572
  C  C244  1  0.546300  0.000000  0.750000  1.0  -0.0574
  O  O245  1  0.685000  0.558300  0.775950  1.0  -0.2794
  O  O246  1  0.423200  0.470410  0.813140  1.0  -0.2845
  O  O247  1  0.935300  0.697600  0.745660  1.0  -0.6126
  O  O248  1  0.061500  0.695910  0.807440  1.0  -0.6097
  O  O249  1  0.007500  0.572290  0.946950  1.0  -0.6099
  O  O250  1  0.879700  0.511880  0.938110  1.0  -0.6426
  O  O251  1  0.174400  0.499510  0.957120  1.0  -0.5978
  O  O252  1  0.219000  0.305630  0.771270  1.0  -0.6407
  O  O253  1  0.046500  0.439500  0.949680  1.0  -0.6266
  O  O254  1  0.090000  0.303530  0.831490  1.0  -0.6172
  O  O255  1  0.315000  0.058300  0.224050  1.0  -0.2772
  O  O256  1  0.576800  0.970410  0.186860  1.0  -0.2856
  O  O257  1  0.064700  0.197600  0.254340  1.0  -0.6125
  O  O258  1  0.938500  0.195910  0.192560  1.0  -0.6101
  O  O259  1  0.992500  0.072290  0.053050  1.0  -0.6099
  O  O260  1  0.120300  0.011880  0.061890  1.0  -0.6424
  O  O261  1  0.825600  0.999510  0.042880  1.0  -0.5986
  O  O262  1  0.781000  0.805630  0.228730  1.0  -0.6398
  O  O263  1  0.953500  0.939500  0.050320  1.0  -0.6271
  O  O264  1  0.910000  0.803530  0.168510  1.0  -0.618
  O  O265  1  0.315000  0.941700  0.275950  1.0  -0.2813
  O  O266  1  0.576800  0.029590  0.313140  1.0  -0.2845
  O  O267  1  0.064700  0.802400  0.245660  1.0  -0.6127
  O  O268  1  0.938500  0.804090  0.307440  1.0  -0.6104
  O  O269  1  0.992500  0.927710  0.446950  1.0  -0.6099
  O  O270  1  0.120300  0.988120  0.438110  1.0  -0.6436
  O  O271  1  0.825600  0.000490  0.457120  1.0  -0.5974
  O  O272  1  0.781000  0.194370  0.271270  1.0  -0.6396
  O  O273  1  0.953500  0.060500  0.449680  1.0  -0.628
  O  O274  1  0.910000  0.196470  0.331490  1.0  -0.617
  O  O275  1  0.685000  0.441700  0.724050  1.0  -0.2787
  O  O276  1  0.423200  0.529590  0.686860  1.0  -0.286
  O  O277  1  0.935300  0.302400  0.754340  1.0  -0.6123
  O  O278  1  0.061500  0.304090  0.692560  1.0  -0.6101
  O  O279  1  0.007500  0.427710  0.553050  1.0  -0.6097
  O  O280  1  0.879700  0.488120  0.561890  1.0  -0.6431
  O  O281  1  0.174400  0.500490  0.542880  1.0  -0.5974
  O  O282  1  0.219000  0.694370  0.728730  1.0  -0.6426
  O  O283  1  0.046500  0.560500  0.550320  1.0  -0.627
  O  O284  1  0.090000  0.696470  0.668510  1.0  -0.6176
  O  O285  1  0.315000  0.441700  0.224050  1.0  -0.2786
  O  O286  1  0.576800  0.529590  0.186860  1.0  -0.2866
  O  O287  1  0.064700  0.302400  0.254340  1.0  -0.6126
  O  O288  1  0.938500  0.304090  0.192560  1.0  -0.6105
  O  O289  1  0.992500  0.427710  0.053050  1.0  -0.6095
  O  O290  1  0.120300  0.488120  0.061890  1.0  -0.6431
  O  O291  1  0.825600  0.500490  0.042880  1.0  -0.5983
  O  O292  1  0.781000  0.694370  0.228730  1.0  -0.6406
  O  O293  1  0.953500  0.560500  0.050320  1.0  -0.6278
  O  O294  1  0.910000  0.696470  0.168510  1.0  -0.6182
  O  O295  1  0.685000  0.941700  0.775950  1.0  -0.2805
  O  O296  1  0.423200  0.029590  0.813140  1.0  -0.2844
  O  O297  1  0.935300  0.802400  0.745660  1.0  -0.6128
  O  O298  1  0.061500  0.804090  0.807440  1.0  -0.6102
  O  O299  1  0.007500  0.927710  0.946950  1.0  -0.6093
  O  O300  1  0.879700  0.988120  0.938110  1.0  -0.6435
  O  O301  1  0.174400  0.000490  0.957120  1.0  -0.5979
  O  O302  1  0.219000  0.194370  0.771270  1.0  -0.6407
  O  O303  1  0.046500  0.060500  0.949680  1.0  -0.6274
  O  O304  1  0.090000  0.196470  0.831490  1.0  -0.6171
  O  O305  1  0.685000  0.058300  0.724050  1.0  -0.2777
  O  O306  1  0.423200  0.970410  0.686860  1.0  -0.2852
  O  O307  1  0.935300  0.197600  0.754340  1.0  -0.6122
  O  O308  1  0.061500  0.195910  0.692560  1.0  -0.6101
  O  O309  1  0.007500  0.072290  0.553050  1.0  -0.61
  O  O310  1  0.879700  0.011880  0.561890  1.0  -0.6424
  O  O311  1  0.174400  0.999510  0.542880  1.0  -0.5984
  O  O312  1  0.219000  0.805630  0.728730  1.0  -0.6427
  O  O313  1  0.046500  0.939500  0.550320  1.0  -0.6266
  O  O314  1  0.090000  0.803530  0.668510  1.0  -0.6176
  O  O315  1  0.315000  0.558300  0.275950  1.0  -0.2793
  O  O316  1  0.576800  0.470410  0.313140  1.0  -0.2841
  O  O317  1  0.064700  0.697600  0.245660  1.0  -0.6121
  O  O318  1  0.938500  0.695910  0.307440  1.0  -0.6103
  O  O319  1  0.992500  0.572290  0.446950  1.0  -0.6097
  O  O320  1  0.120300  0.511880  0.438110  1.0  -0.6429
  O  O321  1  0.825600  0.499510  0.457120  1.0  -0.5994
  O  O322  1  0.781000  0.305630  0.271270  1.0  -0.6408
  O  O323  1  0.953500  0.439500  0.449680  1.0  -0.6272
  O  O324  1  0.910000  0.303530  0.331490  1.0  -0.6172
