# generated using pymatgen
data_Zn4H20C37O20
_symmetry_space_group_name_H-M   'P 1'
_cell_length_a   12.50590000
_cell_length_b   26.17080000
_cell_length_c   26.25090000
_cell_angle_alpha   90.00000000
_cell_angle_beta   90.00000000
_cell_angle_gamma   90.00000000
_symmetry_Int_Tables_number   1
_chemical_formula_structural   Zn4H20C37O20
_chemical_formula_sum   'Zn16 H80 C148 O80'
_cell_volume   8591.64151312
_cell_formula_units_Z   4
loop_
 _symmetry_equiv_pos_site_id
 _symmetry_equiv_pos_as_xyz
  1  'x, y, z'
loop_
 _atom_site_type_symbol
 _atom_site_label
 _atom_site_symmetry_multiplicity
 _atom_site_fract_x
 _atom_site_fract_y
 _atom_site_fract_z
 _atom_site_occupancy
 _atom_site_charge
  Zn  Zn1  1  0.418960  0.006600  0.458840  1.0  1.1539
  Zn  Zn2  1  0.581040  0.993400  0.958840  1.0  1.1542
  Zn  Zn3  1  0.581040  0.506600  0.041160  1.0  1.1536
  Zn  Zn4  1  0.418960  0.493400  0.541160  1.0  1.1522
  Zn  Zn5  1  0.581040  0.993400  0.541160  1.0  1.1538
  Zn  Zn6  1  0.418960  0.006600  0.041160  1.0  1.1519
  Zn  Zn7  1  0.418960  0.493400  0.958840  1.0  1.1541
  Zn  Zn8  1  0.581040  0.506600  0.458840  1.0  1.1541
  Zn  Zn9  1  0.513330  0.803430  0.750000  1.0  1.1306
  Zn  Zn10  1  0.349840  0.720660  0.750000  1.0  1.1223
  Zn  Zn11  1  0.486670  0.196570  0.250000  1.0  1.1298
  Zn  Zn12  1  0.650160  0.279340  0.250000  1.0  1.1226
  Zn  Zn13  1  0.486670  0.303430  0.750000  1.0  1.1305
  Zn  Zn14  1  0.650160  0.220660  0.750000  1.0  1.122
  Zn  Zn15  1  0.513330  0.696570  0.250000  1.0  1.1302
  Zn  Zn16  1  0.349840  0.779340  0.250000  1.0  1.1224
  H  H17  1  0.077200  0.739900  0.554100  1.0  0.0557
  H  H18  1  0.983600  0.774900  0.574000  1.0  0.0622
  H  H19  1  0.162200  0.781500  0.618500  1.0  0.1083
  H  H20  1  0.399700  0.884900  0.625100  1.0  0.1063
  H  H21  1  0.195700  0.886500  0.507800  1.0  0.1145
  H  H22  1  0.931700  0.823800  0.473700  1.0  0.0627
  H  H23  1  0.839700  0.804700  0.509900  1.0  0.0546
  H  H24  1  0.748800  0.866700  0.471300  1.0  0.1101
  H  H25  1  0.712900  0.755300  0.366700  1.0  0.1151
  H  H26  1  0.509500  0.873700  0.368200  1.0  0.1042
  H  H27  1  0.922800  0.260100  0.054100  1.0  0.0559
  H  H28  1  0.016400  0.225100  0.074000  1.0  0.063
  H  H29  1  0.837800  0.218500  0.118500  1.0  0.1086
  H  H30  1  0.600300  0.115100  0.125100  1.0  0.1062
  H  H31  1  0.804300  0.113500  0.007800  1.0  0.1152
  H  H32  1  0.068300  0.176200  0.973700  1.0  0.0613
  H  H33  1  0.160300  0.195300  0.009900  1.0  0.0549
  H  H34  1  0.251200  0.133300  0.971300  1.0  0.1106
  H  H35  1  0.287100  0.244700  0.866700  1.0  0.115
  H  H36  1  0.490500  0.126300  0.868200  1.0  0.1039
  H  H37  1  0.922800  0.239900  0.945900  1.0  0.0549
  H  H38  1  0.016400  0.274900  0.926000  1.0  0.0614
  H  H39  1  0.837800  0.281500  0.881500  1.0  0.1081
  H  H40  1  0.600300  0.384900  0.874900  1.0  0.1058
  H  H41  1  0.804300  0.386500  0.992200  1.0  0.114
  H  H42  1  0.068300  0.323800  0.026300  1.0  0.0623
  H  H43  1  0.160300  0.304700  0.990100  1.0  0.0552
  H  H44  1  0.251200  0.366700  0.028700  1.0  0.1099
  H  H45  1  0.287100  0.255300  0.133300  1.0  0.1152
  H  H46  1  0.490500  0.373700  0.131800  1.0  0.1042
  H  H47  1  0.077200  0.760100  0.445900  1.0  0.0557
  H  H48  1  0.983600  0.725100  0.426000  1.0  0.0608
  H  H49  1  0.162200  0.718500  0.381500  1.0  0.1084
  H  H50  1  0.399700  0.615100  0.374900  1.0  0.1059
  H  H51  1  0.195700  0.613500  0.492200  1.0  0.1144
  H  H52  1  0.931700  0.676200  0.526300  1.0  0.0625
  H  H53  1  0.839700  0.695300  0.490100  1.0  0.0555
  H  H54  1  0.748800  0.633300  0.528700  1.0  0.1101
  H  H55  1  0.712900  0.744700  0.633300  1.0  0.1153
  H  H56  1  0.509500  0.626300  0.631800  1.0  0.1044
  H  H57  1  0.922800  0.260100  0.445900  1.0  0.0558
  H  H58  1  0.016400  0.225100  0.426000  1.0  0.061
  H  H59  1  0.837800  0.218500  0.381500  1.0  0.1086
  H  H60  1  0.600300  0.115100  0.374900  1.0  0.106
  H  H61  1  0.804300  0.113500  0.492200  1.0  0.1143
  H  H62  1  0.068300  0.176200  0.526300  1.0  0.0617
  H  H63  1  0.160300  0.195300  0.490100  1.0  0.0554
  H  H64  1  0.251200  0.133300  0.528700  1.0  0.11
  H  H65  1  0.287100  0.244700  0.633300  1.0  0.1153
  H  H66  1  0.490500  0.126300  0.631800  1.0  0.1041
  H  H67  1  0.077200  0.739900  0.945900  1.0  0.0547
  H  H68  1  0.983600  0.774900  0.926000  1.0  0.0618
  H  H69  1  0.162200  0.781500  0.881500  1.0  0.108
  H  H70  1  0.399700  0.884900  0.874900  1.0  0.1059
  H  H71  1  0.195700  0.886500  0.992200  1.0  0.1139
  H  H72  1  0.931700  0.823800  0.026300  1.0  0.063
  H  H73  1  0.839700  0.804700  0.990100  1.0  0.0548
  H  H74  1  0.748800  0.866700  0.028700  1.0  0.11
  H  H75  1  0.712900  0.755300  0.133300  1.0  0.1151
  H  H76  1  0.509500  0.873700  0.131800  1.0  0.1042
  H  H77  1  0.077200  0.760100  0.054100  1.0  0.0555
  H  H78  1  0.983600  0.725100  0.074000  1.0  0.0621
  H  H79  1  0.162200  0.718500  0.118500  1.0  0.1085
  H  H80  1  0.399700  0.615100  0.125100  1.0  0.1063
  H  H81  1  0.195700  0.613500  0.007800  1.0  0.115
  H  H82  1  0.931700  0.676200  0.973700  1.0  0.062
  H  H83  1  0.839700  0.695300  0.009900  1.0  0.0551
  H  H84  1  0.748800  0.633300  0.971300  1.0  0.1103
  H  H85  1  0.712900  0.744700  0.866700  1.0  0.1149
  H  H86  1  0.509500  0.626300  0.868200  1.0  0.1042
  H  H87  1  0.922800  0.239900  0.554100  1.0  0.0563
  H  H88  1  0.016400  0.274900  0.574000  1.0  0.0628
  H  H89  1  0.837800  0.281500  0.618500  1.0  0.1083
  H  H90  1  0.600300  0.384900  0.625100  1.0  0.106
  H  H91  1  0.804300  0.386500  0.507800  1.0  0.1145
  H  H92  1  0.068300  0.323800  0.473700  1.0  0.062
  H  H93  1  0.160300  0.304700  0.509900  1.0  0.0549
  H  H94  1  0.251200  0.366700  0.471300  1.0  0.1102
  H  H95  1  0.287100  0.255300  0.366700  1.0  0.1151
  H  H96  1  0.490500  0.373700  0.368200  1.0  0.104
  C  C97  1  0.329900  0.805400  0.677710  1.0  0.7006
  C  C98  1  0.027900  0.766850  0.544700  1.0  0.0718
  C  C99  1  0.166000  0.829450  0.558560  1.0  0.2633
  C  C100  1  0.198500  0.809070  0.604410  1.0  -0.1711
  C  C101  1  0.286000  0.830110  0.629390  1.0  -0.1593
  C  C102  1  0.340300  0.871390  0.608590  1.0  0.024
  C  C103  1  0.305700  0.892360  0.563100  1.0  -0.1789
  C  C104  1  0.219100  0.872060  0.538160  1.0  -0.072
  C  C105  1  0.369300  0.935010  0.538470  1.0  0.6964
  C  C106  1  0.887700  0.794650  0.482690  1.0  0.0501
  C  C107  1  0.622300  0.877780  0.423390  1.0  -0.1562
  C  C108  1  0.712300  0.852790  0.443760  1.0  -0.1478
  C  C109  1  0.745900  0.807220  0.422300  1.0  0.2932
  C  C110  1  0.690100  0.785940  0.380940  1.0  -0.0791
  C  C111  1  0.580800  0.925280  0.449080  1.0  0.7048
  C  C112  1  0.601700  0.810600  0.361530  1.0  -0.1683
  C  C113  1  0.568100  0.856820  0.382070  1.0  0.0242
  C  C114  1  0.539200  0.784430  0.319190  1.0  0.6999
  C  C115  1  0.670100  0.194600  0.177710  1.0  0.701
  C  C116  1  0.972100  0.233150  0.044700  1.0  0.0728
  C  C117  1  0.834000  0.170550  0.058560  1.0  0.2625
  C  C118  1  0.801500  0.190930  0.104410  1.0  -0.1707
  C  C119  1  0.714000  0.169890  0.129390  1.0  -0.1597
  C  C120  1  0.659700  0.128610  0.108590  1.0  0.025
  C  C121  1  0.694300  0.107640  0.063100  1.0  -0.1794
  C  C122  1  0.780900  0.127940  0.038160  1.0  -0.0722
  C  C123  1  0.630700  0.064990  0.038470  1.0  0.6958
  C  C124  1  0.112300  0.205350  0.982690  1.0  0.05
  C  C125  1  0.377700  0.122220  0.923390  1.0  -0.1562
  C  C126  1  0.287700  0.147210  0.943760  1.0  -0.1488
  C  C127  1  0.254100  0.192780  0.922300  1.0  0.2926
  C  C128  1  0.309900  0.214060  0.880940  1.0  -0.0808
  C  C129  1  0.419200  0.074720  0.949080  1.0  0.7046
  C  C130  1  0.398300  0.189400  0.861530  1.0  -0.1681
  C  C131  1  0.431900  0.143180  0.882070  1.0  0.0253
  C  C132  1  0.460800  0.215570  0.819190  1.0  0.7004
  C  C133  1  0.670100  0.305400  0.822290  1.0  0.7003
  C  C134  1  0.972100  0.266850  0.955300  1.0  0.0741
  C  C135  1  0.834000  0.329450  0.941440  1.0  0.2637
  C  C136  1  0.801500  0.309070  0.895590  1.0  -0.1694
  C  C137  1  0.714000  0.330110  0.870610  1.0  -0.1604
  C  C138  1  0.659700  0.371390  0.891410  1.0  0.0254
  C  C139  1  0.694300  0.392360  0.936900  1.0  -0.1801
  C  C140  1  0.780900  0.372060  0.961840  1.0  -0.0725
  C  C141  1  0.630700  0.435010  0.961530  1.0  0.6959
  C  C142  1  0.112300  0.294650  0.017310  1.0  0.0494
  C  C143  1  0.377700  0.377780  0.076610  1.0  -0.1561
  C  C144  1  0.287700  0.352790  0.056240  1.0  -0.1475
  C  C145  1  0.254100  0.307220  0.077700  1.0  0.2923
  C  C146  1  0.309900  0.285940  0.119060  1.0  -0.0784
  C  C147  1  0.419200  0.425280  0.050920  1.0  0.7043
  C  C148  1  0.398300  0.310600  0.138470  1.0  -0.1696
  C  C149  1  0.431900  0.356820  0.117930  1.0  0.0258
  C  C150  1  0.460800  0.284430  0.180810  1.0  0.6999
  C  C151  1  0.329900  0.694600  0.322290  1.0  0.7014
  C  C152  1  0.027900  0.733150  0.455300  1.0  0.0727
  C  C153  1  0.166000  0.670550  0.441440  1.0  0.2622
  C  C154  1  0.198500  0.690930  0.395590  1.0  -0.1704
  C  C155  1  0.286000  0.669890  0.370610  1.0  -0.1602
  C  C156  1  0.340300  0.628610  0.391410  1.0  0.0252
  C  C157  1  0.305700  0.607640  0.436900  1.0  -0.1787
  C  C158  1  0.219100  0.627940  0.461840  1.0  -0.0736
  C  C159  1  0.369300  0.564990  0.461530  1.0  0.6964
  C  C160  1  0.887700  0.705350  0.517310  1.0  0.0531
  C  C161  1  0.622300  0.622220  0.576610  1.0  -0.1561
  C  C162  1  0.712300  0.647210  0.556240  1.0  -0.1483
  C  C163  1  0.745900  0.692780  0.577700  1.0  0.2933
  C  C164  1  0.690100  0.714060  0.619060  1.0  -0.0797
  C  C165  1  0.580800  0.574720  0.550920  1.0  0.7043
  C  C166  1  0.601700  0.689400  0.638470  1.0  -0.1691
  C  C167  1  0.568100  0.643180  0.617930  1.0  0.0251
  C  C168  1  0.539200  0.715570  0.680810  1.0  0.7002
  C  C169  1  0.670100  0.194600  0.322290  1.0  0.7009
  C  C170  1  0.972100  0.233150  0.455300  1.0  0.074
  C  C171  1  0.834000  0.170550  0.441440  1.0  0.2625
  C  C172  1  0.801500  0.190930  0.395590  1.0  -0.17
  C  C173  1  0.714000  0.169890  0.370610  1.0  -0.1601
  C  C174  1  0.659700  0.128610  0.391410  1.0  0.0242
  C  C175  1  0.694300  0.107640  0.436900  1.0  -0.1798
  C  C176  1  0.780900  0.127940  0.461840  1.0  -0.0725
  C  C177  1  0.630700  0.064990  0.461530  1.0  0.6961
  C  C178  1  0.112300  0.205350  0.517310  1.0  0.0498
  C  C179  1  0.377700  0.122220  0.576610  1.0  -0.156
  C  C180  1  0.287700  0.147210  0.556240  1.0  -0.1488
  C  C181  1  0.254100  0.192780  0.577700  1.0  0.2926
  C  C182  1  0.309900  0.214060  0.619060  1.0  -0.0798
  C  C183  1  0.419200  0.074720  0.550920  1.0  0.704
  C  C184  1  0.398300  0.189400  0.638470  1.0  -0.1694
  C  C185  1  0.431900  0.143180  0.617930  1.0  0.0261
  C  C186  1  0.460800  0.215570  0.680810  1.0  0.7004
  C  C187  1  0.329900  0.805400  0.822290  1.0  0.7008
  C  C188  1  0.027900  0.766850  0.955300  1.0  0.0728
  C  C189  1  0.166000  0.829450  0.941440  1.0  0.2634
  C  C190  1  0.198500  0.809070  0.895590  1.0  -0.17
  C  C191  1  0.286000  0.830110  0.870610  1.0  -0.1603
  C  C192  1  0.340300  0.871390  0.891410  1.0  0.0234
  C  C193  1  0.305700  0.892360  0.936900  1.0  -0.1794
  C  C194  1  0.219100  0.872060  0.961840  1.0  -0.074
  C  C195  1  0.369300  0.935010  0.961530  1.0  0.6965
  C  C196  1  0.887700  0.794650  0.017310  1.0  0.0495
  C  C197  1  0.622300  0.877780  0.076610  1.0  -0.1561
  C  C198  1  0.712300  0.852790  0.056240  1.0  -0.1467
  C  C199  1  0.745900  0.807220  0.077700  1.0  0.293
  C  C200  1  0.690100  0.785940  0.119060  1.0  -0.0784
  C  C201  1  0.580800  0.925280  0.050920  1.0  0.7044
  C  C202  1  0.601700  0.810600  0.138470  1.0  -0.1693
  C  C203  1  0.568100  0.856820  0.117930  1.0  0.0247
  C  C204  1  0.539200  0.784430  0.180810  1.0  0.6997
  C  C205  1  0.329900  0.694600  0.177710  1.0  0.7013
  C  C206  1  0.027900  0.733150  0.044700  1.0  0.0727
  C  C207  1  0.166000  0.670550  0.058560  1.0  0.2622
  C  C208  1  0.198500  0.690930  0.104410  1.0  -0.1711
  C  C209  1  0.286000  0.669890  0.129390  1.0  -0.1596
  C  C210  1  0.340300  0.628610  0.108590  1.0  0.0261
  C  C211  1  0.305700  0.607640  0.063100  1.0  -0.1784
  C  C212  1  0.219100  0.627940  0.038160  1.0  -0.0717
  C  C213  1  0.369300  0.564990  0.038470  1.0  0.6961
  C  C214  1  0.887700  0.705350  0.982690  1.0  0.0532
  C  C215  1  0.622300  0.622220  0.923390  1.0  -0.1562
  C  C216  1  0.712300  0.647210  0.943760  1.0  -0.1486
  C  C217  1  0.745900  0.692780  0.922300  1.0  0.2935
  C  C218  1  0.690100  0.714060  0.880940  1.0  -0.081
  C  C219  1  0.580800  0.574720  0.949080  1.0  0.7048
  C  C220  1  0.601700  0.689400  0.861530  1.0  -0.1681
  C  C221  1  0.568100  0.643180  0.882070  1.0  0.0241
  C  C222  1  0.539200  0.715570  0.819190  1.0  0.7004
  C  C223  1  0.670100  0.305400  0.677710  1.0  0.7002
  C  C224  1  0.972100  0.266850  0.544700  1.0  0.0719
  C  C225  1  0.834000  0.329450  0.558560  1.0  0.2637
  C  C226  1  0.801500  0.309070  0.604410  1.0  -0.1705
  C  C227  1  0.714000  0.330110  0.629390  1.0  -0.1595
  C  C228  1  0.659700  0.371390  0.608590  1.0  0.0257
  C  C229  1  0.694300  0.392360  0.563100  1.0  -0.1794
  C  C230  1  0.780900  0.372060  0.538160  1.0  -0.0722
  C  C231  1  0.630700  0.435010  0.538470  1.0  0.6957
  C  C232  1  0.112300  0.294650  0.482690  1.0  0.0499
  C  C233  1  0.377700  0.377780  0.423390  1.0  -0.1562
  C  C234  1  0.287700  0.352790  0.443760  1.0  -0.1481
  C  C235  1  0.254100  0.307220  0.422300  1.0  0.2924
  C  C236  1  0.309900  0.285940  0.380940  1.0  -0.0789
  C  C237  1  0.419200  0.425280  0.449080  1.0  0.7047
  C  C238  1  0.398300  0.310600  0.361530  1.0  -0.1683
  C  C239  1  0.431900  0.356820  0.382070  1.0  0.0254
  C  C240  1  0.460800  0.284430  0.319190  1.0  0.6998
  C  C241  1  0.958500  0.750000  0.500000  1.0  -0.036
  C  C242  1  0.041500  0.250000  0.000000  1.0  -0.0361
  C  C243  1  0.041500  0.250000  0.500000  1.0  -0.0361
  C  C244  1  0.958500  0.750000  0.000000  1.0  -0.036
  O  O245  1  0.410300  0.827370  0.697160  1.0  -0.6287
  O  O246  1  0.286200  0.766190  0.694140  1.0  -0.6088
  O  O247  1  0.085300  0.811120  0.528350  1.0  -0.2862
  O  O248  1  0.333000  0.954610  0.498290  1.0  -0.5995
  O  O249  1  0.454900  0.947150  0.560080  1.0  -0.6406
  O  O250  1  0.828100  0.778070  0.439580  1.0  -0.2793
  O  O251  1  0.625900  0.938660  0.489370  1.0  -0.641
  O  O252  1  0.455900  0.806140  0.304240  1.0  -0.6282
  O  O253  1  0.502200  0.946930  0.428230  1.0  -0.6135
  O  O254  1  0.576100  0.742940  0.303680  1.0  -0.6243
  O  O255  1  0.589700  0.172630  0.197160  1.0  -0.6283
  O  O256  1  0.713800  0.233810  0.194140  1.0  -0.6114
  O  O257  1  0.914700  0.188880  0.028350  1.0  -0.2873
  O  O258  1  0.667000  0.045390  0.998290  1.0  -0.599
  O  O259  1  0.545100  0.052850  0.060080  1.0  -0.6401
  O  O260  1  0.171900  0.221930  0.939580  1.0  -0.2786
  O  O261  1  0.374100  0.061340  0.989370  1.0  -0.6391
  O  O262  1  0.544100  0.193860  0.804240  1.0  -0.6286
  O  O263  1  0.497800  0.053070  0.928230  1.0  -0.6127
  O  O264  1  0.423900  0.257060  0.803680  1.0  -0.6244
  O  O265  1  0.589700  0.327370  0.802840  1.0  -0.6286
  O  O266  1  0.713800  0.266190  0.805860  1.0  -0.6107
  O  O267  1  0.914700  0.311120  0.971650  1.0  -0.2839
  O  O268  1  0.667000  0.454610  0.001710  1.0  -0.6005
  O  O269  1  0.545100  0.447150  0.939920  1.0  -0.6404
  O  O270  1  0.171900  0.278070  0.060420  1.0  -0.2791
  O  O271  1  0.374100  0.438660  0.010630  1.0  -0.6398
  O  O272  1  0.544100  0.306140  0.195760  1.0  -0.6294
  O  O273  1  0.497800  0.446930  0.071770  1.0  -0.6127
  O  O274  1  0.423900  0.242940  0.196320  1.0  -0.6241
  O  O275  1  0.410300  0.672630  0.302840  1.0  -0.6283
  O  O276  1  0.286200  0.733810  0.305860  1.0  -0.6112
  O  O277  1  0.085300  0.688880  0.471650  1.0  -0.2865
  O  O278  1  0.333000  0.545390  0.501710  1.0  -0.601
  O  O279  1  0.454900  0.552850  0.439920  1.0  -0.6412
  O  O280  1  0.828100  0.721930  0.560420  1.0  -0.2797
  O  O281  1  0.625900  0.561340  0.510630  1.0  -0.6411
  O  O282  1  0.455900  0.693860  0.695760  1.0  -0.6281
  O  O283  1  0.502200  0.553070  0.571770  1.0  -0.6124
  O  O284  1  0.576100  0.757060  0.696320  1.0  -0.6252
  O  O285  1  0.589700  0.172630  0.302840  1.0  -0.6277
  O  O286  1  0.713800  0.233810  0.305860  1.0  -0.6115
  O  O287  1  0.914700  0.188880  0.471650  1.0  -0.2861
  O  O288  1  0.667000  0.045390  0.501710  1.0  -0.6002
  O  O289  1  0.545100  0.052850  0.439920  1.0  -0.6404
  O  O290  1  0.171900  0.221930  0.560420  1.0  -0.2792
  O  O291  1  0.374100  0.061340  0.510630  1.0  -0.6399
  O  O292  1  0.544100  0.193860  0.695760  1.0  -0.6286
  O  O293  1  0.497800  0.053070  0.571770  1.0  -0.6124
  O  O294  1  0.423900  0.257060  0.696320  1.0  -0.6248
  O  O295  1  0.410300  0.827370  0.802840  1.0  -0.6288
  O  O296  1  0.286200  0.766190  0.805860  1.0  -0.6094
  O  O297  1  0.085300  0.811120  0.971650  1.0  -0.284
  O  O298  1  0.333000  0.954610  0.001710  1.0  -0.6014
  O  O299  1  0.454900  0.947150  0.939920  1.0  -0.6413
  O  O300  1  0.828100  0.778070  0.060420  1.0  -0.2792
  O  O301  1  0.625900  0.938660  0.010630  1.0  -0.641
  O  O302  1  0.455900  0.806140  0.195760  1.0  -0.6283
  O  O303  1  0.502200  0.946930  0.071770  1.0  -0.6127
  O  O304  1  0.576100  0.742940  0.196320  1.0  -0.6247
  O  O305  1  0.410300  0.672630  0.197160  1.0  -0.6281
  O  O306  1  0.286200  0.733810  0.194140  1.0  -0.6111
  O  O307  1  0.085300  0.688880  0.028350  1.0  -0.2872
  O  O308  1  0.333000  0.545390  0.998290  1.0  -0.6003
  O  O309  1  0.454900  0.552850  0.060080  1.0  -0.6404
  O  O310  1  0.828100  0.721930  0.939580  1.0  -0.2786
  O  O311  1  0.625900  0.561340  0.989370  1.0  -0.641
  O  O312  1  0.455900  0.693860  0.804240  1.0  -0.6283
  O  O313  1  0.502200  0.553070  0.928230  1.0  -0.6132
  O  O314  1  0.576100  0.757060  0.803680  1.0  -0.6246
  O  O315  1  0.589700  0.327370  0.697160  1.0  -0.6278
  O  O316  1  0.713800  0.266190  0.694140  1.0  -0.6107
  O  O317  1  0.914700  0.311120  0.528350  1.0  -0.2862
  O  O318  1  0.667000  0.454610  0.498290  1.0  -0.599
  O  O319  1  0.545100  0.447150  0.560080  1.0  -0.6403
  O  O320  1  0.171900  0.278070  0.439580  1.0  -0.2794
  O  O321  1  0.374100  0.438660  0.489370  1.0  -0.6392
  O  O322  1  0.544100  0.306140  0.304240  1.0  -0.6293
  O  O323  1  0.497800  0.446930  0.428230  1.0  -0.6134
  O  O324  1  0.423900  0.242940  0.303680  1.0  -0.6241
