# generated using pymatgen
data_Zn4H20C37O20
_symmetry_space_group_name_H-M   'P 1'
_cell_length_a   12.38300000
_cell_length_b   26.27100000
_cell_length_c   26.27800000
_cell_angle_alpha   90.00000000
_cell_angle_beta   90.00000000
_cell_angle_gamma   90.00000000
_symmetry_Int_Tables_number   1
_chemical_formula_structural   Zn4H20C37O20
_chemical_formula_sum   'Zn16 H80 C148 O80'
_cell_volume   8548.59585245
_cell_formula_units_Z   4
loop_
 _symmetry_equiv_pos_site_id
 _symmetry_equiv_pos_as_xyz
  1  'x, y, z'
loop_
 _atom_site_type_symbol
 _atom_site_label
 _atom_site_symmetry_multiplicity
 _atom_site_fract_x
 _atom_site_fract_y
 _atom_site_fract_z
 _atom_site_occupancy
 _atom_site_charge
  Zn  Zn1  1  0.917430  0.994320  0.959160  1.0  1.1386
  Zn  Zn2  1  0.082570  0.005680  0.459160  1.0  1.1387
  Zn  Zn3  1  0.082570  0.494320  0.540840  1.0  1.139
  Zn  Zn4  1  0.917430  0.505680  0.040840  1.0  1.1374
  Zn  Zn5  1  0.082570  0.005680  0.040840  1.0  1.1385
  Zn  Zn6  1  0.917430  0.994320  0.540840  1.0  1.1378
  Zn  Zn7  1  0.917430  0.505680  0.459160  1.0  1.1382
  Zn  Zn8  1  0.082570  0.494320  0.959160  1.0  1.139
  Zn  Zn9  1  0.978810  0.699190  0.250000  1.0  1.1416
  Zn  Zn10  1  0.146650  0.781070  0.250000  1.0  1.125
  Zn  Zn11  1  0.021190  0.300810  0.750000  1.0  1.1423
  Zn  Zn12  1  0.853350  0.218930  0.750000  1.0  1.1251
  Zn  Zn13  1  0.021190  0.199190  0.250000  1.0  1.1419
  Zn  Zn14  1  0.853350  0.281070  0.250000  1.0  1.1245
  Zn  Zn15  1  0.978810  0.800810  0.750000  1.0  1.1421
  Zn  Zn16  1  0.146650  0.718930  0.750000  1.0  1.1246
  H  H17  1  0.565500  0.823400  0.024400  1.0  0.061
  H  H18  1  0.657900  0.803100  0.988700  1.0  0.0512
  H  H19  1  0.749300  0.867500  0.027600  1.0  0.1185
  H  H20  1  0.785000  0.757100  0.132600  1.0  0.1144
  H  H21  1  0.988400  0.874500  0.130200  1.0  0.1027
  H  H22  1  0.297200  0.615100  0.008000  1.0  0.1214
  H  H23  1  0.416600  0.760700  0.054000  1.0  0.0542
  H  H24  1  0.510900  0.726000  0.074500  1.0  0.0599
  H  H25  1  0.330900  0.720500  0.118300  1.0  0.1149
  H  H26  1  0.095800  0.615600  0.126800  1.0  0.0992
  H  H27  1  0.434500  0.176600  0.524400  1.0  0.0604
  H  H28  1  0.342100  0.196900  0.488700  1.0  0.0522
  H  H29  1  0.250700  0.132500  0.527600  1.0  0.1184
  H  H30  1  0.215000  0.242900  0.632600  1.0  0.1144
  H  H31  1  0.011600  0.125500  0.630200  1.0  0.1024
  H  H32  1  0.702800  0.384900  0.508000  1.0  0.1214
  H  H33  1  0.583400  0.239300  0.554000  1.0  0.0548
  H  H34  1  0.489100  0.274000  0.574500  1.0  0.0598
  H  H35  1  0.669100  0.279500  0.618300  1.0  0.1151
  H  H36  1  0.904200  0.384400  0.626800  1.0  0.099
  H  H37  1  0.434500  0.323400  0.475600  1.0  0.0619
  H  H38  1  0.342100  0.303100  0.511300  1.0  0.0508
  H  H39  1  0.250700  0.367500  0.472400  1.0  0.1187
  H  H40  1  0.215000  0.257100  0.367400  1.0  0.1146
  H  H41  1  0.011600  0.374500  0.369800  1.0  0.1027
  H  H42  1  0.702800  0.115100  0.492000  1.0  0.1211
  H  H43  1  0.583400  0.260700  0.446000  1.0  0.054
  H  H44  1  0.489100  0.226000  0.425500  1.0  0.0589
  H  H45  1  0.669100  0.220500  0.381700  1.0  0.1147
  H  H46  1  0.904200  0.115600  0.373200  1.0  0.0994
  H  H47  1  0.565500  0.676600  0.975600  1.0  0.0598
  H  H48  1  0.657900  0.696900  0.011300  1.0  0.0514
  H  H49  1  0.749300  0.632500  0.972400  1.0  0.1189
  H  H50  1  0.785000  0.742900  0.867400  1.0  0.1148
  H  H51  1  0.988400  0.625500  0.869800  1.0  0.1022
  H  H52  1  0.297200  0.884900  0.992000  1.0  0.1209
  H  H53  1  0.416600  0.739300  0.946000  1.0  0.0539
  H  H54  1  0.510900  0.774000  0.925500  1.0  0.0591
  H  H55  1  0.330900  0.779500  0.881700  1.0  0.1147
  H  H56  1  0.095800  0.884400  0.873200  1.0  0.0993
  H  H57  1  0.434500  0.176600  0.975600  1.0  0.0592
  H  H58  1  0.342100  0.196900  0.011300  1.0  0.0519
  H  H59  1  0.250700  0.132500  0.972400  1.0  0.1188
  H  H60  1  0.215000  0.242900  0.867400  1.0  0.1143
  H  H61  1  0.011600  0.125500  0.869800  1.0  0.1024
  H  H62  1  0.702800  0.384900  0.992000  1.0  0.1208
  H  H63  1  0.583400  0.239300  0.946000  1.0  0.0538
  H  H64  1  0.489100  0.274000  0.925500  1.0  0.0596
  H  H65  1  0.669100  0.279500  0.881700  1.0  0.1145
  H  H66  1  0.904200  0.384400  0.873200  1.0  0.0993
  H  H67  1  0.565500  0.823400  0.475600  1.0  0.0609
  H  H68  1  0.657900  0.803100  0.511300  1.0  0.0509
  H  H69  1  0.749300  0.867500  0.472400  1.0  0.1185
  H  H70  1  0.785000  0.757100  0.367400  1.0  0.1145
  H  H71  1  0.988400  0.874500  0.369800  1.0  0.1027
  H  H72  1  0.297200  0.615100  0.492000  1.0  0.1211
  H  H73  1  0.416600  0.760700  0.446000  1.0  0.0544
  H  H74  1  0.510900  0.726000  0.425500  1.0  0.059
  H  H75  1  0.330900  0.720500  0.381700  1.0  0.1149
  H  H76  1  0.095800  0.615600  0.373200  1.0  0.0994
  H  H77  1  0.565500  0.676600  0.524400  1.0  0.0606
  H  H78  1  0.657900  0.696900  0.488700  1.0  0.0515
  H  H79  1  0.749300  0.632500  0.527600  1.0  0.1187
  H  H80  1  0.785000  0.742900  0.632600  1.0  0.1148
  H  H81  1  0.988400  0.625500  0.630200  1.0  0.1023
  H  H82  1  0.297200  0.884900  0.508000  1.0  0.1213
  H  H83  1  0.416600  0.739300  0.554000  1.0  0.0549
  H  H84  1  0.510900  0.774000  0.574500  1.0  0.0595
  H  H85  1  0.330900  0.779500  0.618300  1.0  0.1149
  H  H86  1  0.095800  0.884400  0.626800  1.0  0.0989
  H  H87  1  0.434500  0.323400  0.024400  1.0  0.0619
  H  H88  1  0.342100  0.303100  0.988700  1.0  0.0516
  H  H89  1  0.250700  0.367500  0.027600  1.0  0.1183
  H  H90  1  0.215000  0.257100  0.132600  1.0  0.1143
  H  H91  1  0.011600  0.374500  0.130200  1.0  0.1026
  H  H92  1  0.702800  0.115100  0.008000  1.0  0.1214
  H  H93  1  0.583400  0.260700  0.054000  1.0  0.0535
  H  H94  1  0.489100  0.226000  0.074500  1.0  0.0598
  H  H95  1  0.669100  0.220500  0.118300  1.0  0.1151
  H  H96  1  0.904200  0.115600  0.126800  1.0  0.0992
  C  C97  1  0.875400  0.877220  0.075190  1.0  -0.1463
  C  C98  1  0.896400  0.811990  0.137750  1.0  -0.1662
  C  C99  1  0.609300  0.793980  0.016110  1.0  0.0697
  C  C100  1  0.786200  0.853320  0.054980  1.0  -0.1533
  C  C101  1  0.918000  0.925320  0.049670  1.0  0.6953
  C  C102  1  0.752900  0.807910  0.076220  1.0  0.2645
  C  C103  1  0.808300  0.787460  0.118100  1.0  -0.0565
  C  C104  1  0.956200  0.786600  0.180190  1.0  0.6969
  C  C105  1  0.929500  0.857270  0.116570  1.0  0.0036
  C  C106  1  0.274400  0.629440  0.038550  1.0  -0.0912
  C  C107  1  0.466700  0.733720  0.045040  1.0  0.0686
  C  C108  1  0.327500  0.671400  0.058530  1.0  0.2478
  C  C109  1  0.294700  0.692710  0.104660  1.0  -0.1496
  C  C110  1  0.205700  0.671250  0.129980  1.0  -0.1445
  C  C111  1  0.186700  0.609110  0.064610  1.0  -0.1628
  C  C112  1  0.124300  0.566560  0.040230  1.0  0.6978
  C  C113  1  0.154100  0.629840  0.109640  1.0  0.0357
  C  C114  1  0.162700  0.695940  0.177340  1.0  0.7013
  C  C115  1  0.124600  0.122780  0.575190  1.0  -0.1465
  C  C116  1  0.103600  0.188010  0.637750  1.0  -0.166
  C  C117  1  0.390700  0.206020  0.516110  1.0  0.0728
  C  C118  1  0.213800  0.146680  0.554980  1.0  -0.1539
  C  C119  1  0.082000  0.074680  0.549670  1.0  0.6947
  C  C120  1  0.247100  0.192090  0.576220  1.0  0.2652
  C  C121  1  0.191700  0.212540  0.618100  1.0  -0.0569
  C  C122  1  0.043800  0.213400  0.680190  1.0  0.6969
  C  C123  1  0.070500  0.142730  0.616570  1.0  0.0043
  C  C124  1  0.725600  0.370560  0.538550  1.0  -0.091
  C  C125  1  0.533300  0.266280  0.545040  1.0  0.0678
  C  C126  1  0.672500  0.328600  0.558530  1.0  0.2474
  C  C127  1  0.705300  0.307290  0.604660  1.0  -0.1497
  C  C128  1  0.794300  0.328750  0.629980  1.0  -0.1437
  C  C129  1  0.813300  0.390890  0.564610  1.0  -0.1627
  C  C130  1  0.875700  0.433440  0.540230  1.0  0.6979
  C  C131  1  0.845900  0.370160  0.609640  1.0  0.0346
  C  C132  1  0.837300  0.304060  0.677340  1.0  0.701
  C  C133  1  0.124600  0.377220  0.424810  1.0  -0.1465
  C  C134  1  0.103600  0.311990  0.362250  1.0  -0.1666
  C  C135  1  0.390700  0.293980  0.483890  1.0  0.0719
  C  C136  1  0.213800  0.353320  0.445020  1.0  -0.153
  C  C137  1  0.082000  0.425320  0.450330  1.0  0.6956
  C  C138  1  0.247100  0.307910  0.423780  1.0  0.2645
  C  C139  1  0.191700  0.287460  0.381900  1.0  -0.0565
  C  C140  1  0.043800  0.286600  0.319810  1.0  0.697
  C  C141  1  0.070500  0.357270  0.383430  1.0  0.0037
  C  C142  1  0.725600  0.129440  0.461450  1.0  -0.0926
  C  C143  1  0.533300  0.233720  0.454960  1.0  0.071
  C  C144  1  0.672500  0.171400  0.441470  1.0  0.2472
  C  C145  1  0.705300  0.192710  0.395340  1.0  -0.1498
  C  C146  1  0.794300  0.171250  0.370020  1.0  -0.144
  C  C147  1  0.813300  0.109110  0.435390  1.0  -0.1625
  C  C148  1  0.875700  0.066560  0.459770  1.0  0.6979
  C  C149  1  0.845900  0.129840  0.390360  1.0  0.0349
  C  C150  1  0.837300  0.195940  0.322660  1.0  0.7014
  C  C151  1  0.875400  0.622780  0.924810  1.0  -0.1462
  C  C152  1  0.896400  0.688010  0.862250  1.0  -0.1664
  C  C153  1  0.609300  0.706020  0.983890  1.0  0.071
  C  C154  1  0.786200  0.646680  0.945020  1.0  -0.1548
  C  C155  1  0.918000  0.574680  0.950330  1.0  0.6952
  C  C156  1  0.752900  0.692090  0.923780  1.0  0.2636
  C  C157  1  0.808300  0.712540  0.881900  1.0  -0.0578
  C  C158  1  0.956200  0.713400  0.819810  1.0  0.6969
  C  C159  1  0.929500  0.642730  0.883430  1.0  0.003
  C  C160  1  0.274400  0.870560  0.961450  1.0  -0.0925
  C  C161  1  0.466700  0.766280  0.954960  1.0  0.073
  C  C162  1  0.327500  0.828600  0.941470  1.0  0.247
  C  C163  1  0.294700  0.807290  0.895340  1.0  -0.149
  C  C164  1  0.205700  0.828750  0.870020  1.0  -0.1445
  C  C165  1  0.186700  0.890890  0.935390  1.0  -0.1626
  C  C166  1  0.124300  0.933440  0.959770  1.0  0.698
  C  C167  1  0.154100  0.870160  0.890360  1.0  0.0351
  C  C168  1  0.162700  0.804060  0.822660  1.0  0.7005
  C  C169  1  0.124600  0.122780  0.924810  1.0  -0.1466
  C  C170  1  0.103600  0.188010  0.862250  1.0  -0.1665
  C  C171  1  0.390700  0.206020  0.983890  1.0  0.0727
  C  C172  1  0.213800  0.146680  0.945020  1.0  -0.1543
  C  C173  1  0.082000  0.074680  0.950330  1.0  0.6951
  C  C174  1  0.247100  0.192090  0.923780  1.0  0.2645
  C  C175  1  0.191700  0.212540  0.881900  1.0  -0.0578
  C  C176  1  0.043800  0.213400  0.819810  1.0  0.697
  C  C177  1  0.070500  0.142730  0.883430  1.0  0.0034
  C  C178  1  0.725600  0.370560  0.961450  1.0  -0.0933
  C  C179  1  0.533300  0.266280  0.954960  1.0  0.0701
  C  C180  1  0.672500  0.328600  0.941470  1.0  0.2469
  C  C181  1  0.705300  0.307290  0.895340  1.0  -0.1492
  C  C182  1  0.794300  0.328750  0.870020  1.0  -0.1442
  C  C183  1  0.813300  0.390890  0.935390  1.0  -0.1627
  C  C184  1  0.875700  0.433440  0.959770  1.0  0.6981
  C  C185  1  0.845900  0.370160  0.890360  1.0  0.0345
  C  C186  1  0.837300  0.304060  0.822660  1.0  0.701
  C  C187  1  0.875400  0.877220  0.424810  1.0  -0.1463
  C  C188  1  0.896400  0.811990  0.362250  1.0  -0.1664
  C  C189  1  0.609300  0.793980  0.483890  1.0  0.0702
  C  C190  1  0.786200  0.853320  0.445020  1.0  -0.1538
  C  C191  1  0.918000  0.925320  0.450330  1.0  0.6957
  C  C192  1  0.752900  0.807910  0.423780  1.0  0.2636
  C  C193  1  0.808300  0.787460  0.381900  1.0  -0.0566
  C  C194  1  0.956200  0.786600  0.319810  1.0  0.6968
  C  C195  1  0.929500  0.857270  0.383430  1.0  0.0032
  C  C196  1  0.274400  0.629440  0.461450  1.0  -0.0922
  C  C197  1  0.466700  0.733720  0.454960  1.0  0.0708
  C  C198  1  0.327500  0.671400  0.441470  1.0  0.2473
  C  C199  1  0.294700  0.692710  0.395340  1.0  -0.1497
  C  C200  1  0.205700  0.671250  0.370020  1.0  -0.1442
  C  C201  1  0.186700  0.609110  0.435390  1.0  -0.1626
  C  C202  1  0.124300  0.566560  0.459770  1.0  0.698
  C  C203  1  0.154100  0.629840  0.390360  1.0  0.0356
  C  C204  1  0.162700  0.695940  0.322660  1.0  0.7012
  C  C205  1  0.875400  0.622780  0.575190  1.0  -0.1461
  C  C206  1  0.896400  0.688010  0.637750  1.0  -0.1662
  C  C207  1  0.609300  0.706020  0.516110  1.0  0.071
  C  C208  1  0.786200  0.646680  0.554980  1.0  -0.1543
  C  C209  1  0.918000  0.574680  0.549670  1.0  0.6949
  C  C210  1  0.752900  0.692090  0.576220  1.0  0.2642
  C  C211  1  0.808300  0.712540  0.618100  1.0  -0.0571
  C  C212  1  0.956200  0.713400  0.680190  1.0  0.697
  C  C213  1  0.929500  0.642730  0.616570  1.0  0.0038
  C  C214  1  0.274400  0.870560  0.538550  1.0  -0.0911
  C  C215  1  0.466700  0.766280  0.545040  1.0  0.0691
  C  C216  1  0.327500  0.828600  0.558530  1.0  0.2475
  C  C217  1  0.294700  0.807290  0.604660  1.0  -0.1493
  C  C218  1  0.205700  0.828750  0.629980  1.0  -0.1441
  C  C219  1  0.186700  0.890890  0.564610  1.0  -0.1625
  C  C220  1  0.124300  0.933440  0.540230  1.0  0.6978
  C  C221  1  0.154100  0.870160  0.609640  1.0  0.0348
  C  C222  1  0.162700  0.804060  0.677340  1.0  0.7007
  C  C223  1  0.124600  0.377220  0.075190  1.0  -0.1464
  C  C224  1  0.103600  0.311990  0.137750  1.0  -0.1661
  C  C225  1  0.390700  0.293980  0.016110  1.0  0.0717
  C  C226  1  0.213800  0.353320  0.054980  1.0  -0.1527
  C  C227  1  0.082000  0.425320  0.049670  1.0  0.6952
  C  C228  1  0.247100  0.307910  0.076220  1.0  0.2656
  C  C229  1  0.191700  0.287460  0.118100  1.0  -0.0563
  C  C230  1  0.043800  0.286600  0.180190  1.0  0.6968
  C  C231  1  0.070500  0.357270  0.116570  1.0  0.0039
  C  C232  1  0.725600  0.129440  0.038550  1.0  -0.091
  C  C233  1  0.533300  0.233720  0.045040  1.0  0.0698
  C  C234  1  0.672500  0.171400  0.058530  1.0  0.2477
  C  C235  1  0.705300  0.192710  0.104660  1.0  -0.1498
  C  C236  1  0.794300  0.171250  0.129980  1.0  -0.1442
  C  C237  1  0.813300  0.109110  0.064610  1.0  -0.1627
  C  C238  1  0.875700  0.066560  0.040230  1.0  0.6978
  C  C239  1  0.845900  0.129840  0.109640  1.0  0.0352
  C  C240  1  0.837300  0.195940  0.177340  1.0  0.7014
  C  C241  1  0.537800  0.750000  0.000000  1.0  -0.04
  C  C242  1  0.462200  0.250000  0.500000  1.0  -0.0409
  C  C243  1  0.462200  0.250000  0.000000  1.0  -0.0409
  C  C244  1  0.537800  0.750000  0.500000  1.0  -0.04
  O  O245  1  0.669100  0.778390  0.059300  1.0  -0.2784
  O  O246  1  0.041800  0.808130  0.195780  1.0  -0.6234
  O  O247  1  0.871600  0.938790  0.009700  1.0  -0.6551
  O  O248  1  0.996900  0.947200  0.070600  1.0  -0.6141
  O  O249  1  0.917200  0.746390  0.197860  1.0  -0.6191
  O  O250  1  0.409700  0.689580  0.028750  1.0  -0.284
  O  O251  1  0.162200  0.546300  0.000790  1.0  -0.6148
  O  O252  1  0.210500  0.735540  0.193980  1.0  -0.6091
  O  O253  1  0.038900  0.553580  0.061720  1.0  -0.641
  O  O254  1  0.082900  0.674990  0.196970  1.0  -0.6205
  O  O255  1  0.330900  0.221610  0.559300  1.0  -0.2787
  O  O256  1  0.958200  0.191870  0.695780  1.0  -0.6228
  O  O257  1  0.128400  0.061210  0.509700  1.0  -0.6567
  O  O258  1  0.003100  0.052800  0.570600  1.0  -0.6143
  O  O259  1  0.082800  0.253610  0.697860  1.0  -0.6194
  O  O260  1  0.590300  0.310420  0.528750  1.0  -0.282
  O  O261  1  0.837800  0.453700  0.500790  1.0  -0.6153
  O  O262  1  0.789500  0.264460  0.693980  1.0  -0.6095
  O  O263  1  0.961100  0.446420  0.561720  1.0  -0.6412
  O  O264  1  0.917100  0.325010  0.696970  1.0  -0.6208
  O  O265  1  0.330900  0.278390  0.440700  1.0  -0.2774
  O  O266  1  0.958200  0.308130  0.304220  1.0  -0.6229
  O  O267  1  0.128400  0.438790  0.490300  1.0  -0.6571
  O  O268  1  0.003100  0.447200  0.429400  1.0  -0.6142
  O  O269  1  0.082800  0.246390  0.302140  1.0  -0.619
  O  O270  1  0.590300  0.189580  0.471250  1.0  -0.284
  O  O271  1  0.837800  0.046300  0.499210  1.0  -0.6141
  O  O272  1  0.789500  0.235540  0.306020  1.0  -0.6103
  O  O273  1  0.961100  0.053580  0.438280  1.0  -0.6425
  O  O274  1  0.917100  0.174990  0.303030  1.0  -0.6203
  O  O275  1  0.669100  0.721610  0.940700  1.0  -0.2773
  O  O276  1  0.041800  0.691870  0.804220  1.0  -0.623
  O  O277  1  0.871600  0.561210  0.990300  1.0  -0.6563
  O  O278  1  0.996900  0.552800  0.929400  1.0  -0.6144
  O  O279  1  0.917200  0.753610  0.802140  1.0  -0.6192
  O  O280  1  0.409700  0.810420  0.971250  1.0  -0.2799
  O  O281  1  0.162200  0.953700  0.999210  1.0  -0.6146
  O  O282  1  0.210500  0.764460  0.806020  1.0  -0.6095
  O  O283  1  0.038900  0.946420  0.938280  1.0  -0.6415
  O  O284  1  0.082900  0.825010  0.803030  1.0  -0.6201
  O  O285  1  0.330900  0.221610  0.940700  1.0  -0.2768
  O  O286  1  0.958200  0.191870  0.804220  1.0  -0.6232
  O  O287  1  0.128400  0.061210  0.990300  1.0  -0.6568
  O  O288  1  0.003100  0.052800  0.929400  1.0  -0.6141
  O  O289  1  0.082800  0.253610  0.802140  1.0  -0.619
  O  O290  1  0.590300  0.310420  0.971250  1.0  -0.2803
  O  O291  1  0.837800  0.453700  0.999210  1.0  -0.6151
  O  O292  1  0.789500  0.264460  0.806020  1.0  -0.6098
  O  O293  1  0.961100  0.446420  0.938280  1.0  -0.6426
  O  O294  1  0.917100  0.325010  0.803030  1.0  -0.6205
  O  O295  1  0.669100  0.778390  0.440700  1.0  -0.2779
  O  O296  1  0.041800  0.808130  0.304220  1.0  -0.6237
  O  O297  1  0.871600  0.938790  0.490300  1.0  -0.6561
  O  O298  1  0.996900  0.947200  0.429400  1.0  -0.615
  O  O299  1  0.917200  0.746390  0.302140  1.0  -0.6193
  O  O300  1  0.409700  0.689580  0.471250  1.0  -0.2838
  O  O301  1  0.162200  0.546300  0.499210  1.0  -0.614
  O  O302  1  0.210500  0.735540  0.306020  1.0  -0.609
  O  O303  1  0.038900  0.553580  0.438280  1.0  -0.6417
  O  O304  1  0.082900  0.674990  0.303030  1.0  -0.6202
  O  O305  1  0.669100  0.721610  0.559300  1.0  -0.2787
  O  O306  1  0.041800  0.691870  0.695780  1.0  -0.623
  O  O307  1  0.871600  0.561210  0.509700  1.0  -0.6551
  O  O308  1  0.996900  0.552800  0.570600  1.0  -0.6142
  O  O309  1  0.917200  0.753610  0.697860  1.0  -0.6189
  O  O310  1  0.409700  0.810420  0.528750  1.0  -0.2824
  O  O311  1  0.162200  0.953700  0.500790  1.0  -0.6145
  O  O312  1  0.210500  0.764460  0.693980  1.0  -0.6095
  O  O313  1  0.038900  0.946420  0.561720  1.0  -0.641
  O  O314  1  0.082900  0.825010  0.696970  1.0  -0.6204
  O  O315  1  0.330900  0.278390  0.059300  1.0  -0.2784
  O  O316  1  0.958200  0.308130  0.195780  1.0  -0.623
  O  O317  1  0.128400  0.438790  0.009700  1.0  -0.6565
  O  O318  1  0.003100  0.447200  0.070600  1.0  -0.6144
  O  O319  1  0.082800  0.246390  0.197860  1.0  -0.6189
  O  O320  1  0.590300  0.189580  0.028750  1.0  -0.2836
  O  O321  1  0.837800  0.046300  0.000790  1.0  -0.616
  O  O322  1  0.789500  0.235540  0.193980  1.0  -0.6105
  O  O323  1  0.961100  0.053580  0.061720  1.0  -0.6411
  O  O324  1  0.917100  0.174990  0.196970  1.0  -0.6208
