# generated using pymatgen
data_Zn4H20C37O20
_symmetry_space_group_name_H-M   'P 1'
_cell_length_a   19.03960000
_cell_length_b   19.03960000
_cell_length_c   23.56300000
_cell_angle_alpha   90.00000000
_cell_angle_beta   90.00000000
_cell_angle_gamma   90.00000000
_symmetry_Int_Tables_number   1
_chemical_formula_structural   Zn4H20C37O20
_chemical_formula_sum   'Zn16 H80 C148 O80'
_cell_volume   8541.73755295
_cell_formula_units_Z   4
loop_
 _symmetry_equiv_pos_site_id
 _symmetry_equiv_pos_as_xyz
  1  'x, y, z'
loop_
 _atom_site_type_symbol
 _atom_site_label
 _atom_site_symmetry_multiplicity
 _atom_site_fract_x
 _atom_site_fract_y
 _atom_site_fract_z
 _atom_site_occupancy
 _atom_site_charge
  Zn  Zn1  1  0.527080  0.548860  0.296030  1.0  1.141
  Zn  Zn2  1  0.972920  0.951140  0.296030  1.0  1.1408
  Zn  Zn3  1  0.951140  0.527080  0.296030  1.0  1.1413
  Zn  Zn4  1  0.548860  0.972920  0.296030  1.0  1.1405
  Zn  Zn5  1  0.472920  0.048860  0.203970  1.0  1.1423
  Zn  Zn6  1  0.027080  0.451140  0.203970  1.0  1.1423
  Zn  Zn7  1  0.048860  0.027080  0.203970  1.0  1.138
  Zn  Zn8  1  0.451140  0.472920  0.203970  1.0  1.1408
  Zn  Zn9  1  0.472920  0.451140  0.703970  1.0  1.1416
  Zn  Zn10  1  0.027080  0.048860  0.703970  1.0  1.1391
  Zn  Zn11  1  0.048860  0.472920  0.703970  1.0  1.1397
  Zn  Zn12  1  0.451140  0.027080  0.703970  1.0  1.1402
  Zn  Zn13  1  0.527080  0.951140  0.796030  1.0  1.1429
  Zn  Zn14  1  0.972920  0.548860  0.796030  1.0  1.1433
  Zn  Zn15  1  0.951140  0.972920  0.796030  1.0  1.1391
  Zn  Zn16  1  0.548860  0.527080  0.796030  1.0  1.1413
  H  H17  1  0.337200  0.612300  0.387800  1.0  0.114
  H  H18  1  0.302000  0.655900  0.485500  1.0  0.0567
  H  H19  1  0.311300  0.709300  0.435000  1.0  0.0533
  H  H20  1  0.242800  0.488600  0.271700  1.0  0.1031
  H  H21  1  0.127000  0.595200  0.384300  1.0  0.1147
  H  H22  1  0.162800  0.887700  0.387800  1.0  0.1138
  H  H23  1  0.198000  0.844100  0.485500  1.0  0.0566
  H  H24  1  0.188700  0.790700  0.435000  1.0  0.0526
  H  H25  1  0.257200  0.011400  0.271700  1.0  0.1032
  H  H26  1  0.373000  0.904800  0.384300  1.0  0.1146
  H  H27  1  0.887700  0.337200  0.387800  1.0  0.1136
  H  H28  1  0.844100  0.302000  0.485500  1.0  0.0556
  H  H29  1  0.790700  0.311300  0.435000  1.0  0.0525
  H  H30  1  0.011400  0.242800  0.271700  1.0  0.1024
  H  H31  1  0.904800  0.127000  0.384300  1.0  0.1146
  H  H32  1  0.612300  0.162800  0.387800  1.0  0.1139
  H  H33  1  0.655900  0.198000  0.485500  1.0  0.0571
  H  H34  1  0.709300  0.188700  0.435000  1.0  0.0513
  H  H35  1  0.488600  0.257200  0.271700  1.0  0.1026
  H  H36  1  0.595200  0.373000  0.384300  1.0  0.1146
  H  H37  1  0.662800  0.112300  0.112200  1.0  0.1136
  H  H38  1  0.698000  0.155900  0.014500  1.0  0.056
  H  H39  1  0.688700  0.209300  0.065000  1.0  0.0508
  H  H40  1  0.757200  0.988600  0.228300  1.0  0.1034
  H  H41  1  0.873000  0.095200  0.115700  1.0  0.1149
  H  H42  1  0.837200  0.387700  0.112200  1.0  0.1142
  H  H43  1  0.802000  0.344100  0.014500  1.0  0.0559
  H  H44  1  0.811300  0.290700  0.065000  1.0  0.0525
  H  H45  1  0.742800  0.511400  0.228300  1.0  0.103
  H  H46  1  0.627000  0.404800  0.115700  1.0  0.1147
  H  H47  1  0.112300  0.837200  0.112200  1.0  0.1137
  H  H48  1  0.155900  0.802000  0.014500  1.0  0.0572
  H  H49  1  0.209300  0.811300  0.065000  1.0  0.0505
  H  H50  1  0.988600  0.742800  0.228300  1.0  0.1025
  H  H51  1  0.095200  0.627000  0.115700  1.0  0.115
  H  H52  1  0.387700  0.662800  0.112200  1.0  0.1133
  H  H53  1  0.344100  0.698000  0.014500  1.0  0.0551
  H  H54  1  0.290700  0.688700  0.065000  1.0  0.0511
  H  H55  1  0.511400  0.757200  0.228300  1.0  0.1025
  H  H56  1  0.404800  0.873000  0.115700  1.0  0.1144
  H  H57  1  0.662800  0.387700  0.612200  1.0  0.1139
  H  H58  1  0.698000  0.344100  0.514500  1.0  0.0569
  H  H59  1  0.688700  0.290700  0.565000  1.0  0.0515
  H  H60  1  0.757200  0.511400  0.728300  1.0  0.103
  H  H61  1  0.873000  0.404800  0.615700  1.0  0.115
  H  H62  1  0.837200  0.112300  0.612200  1.0  0.1139
  H  H63  1  0.802000  0.155900  0.514500  1.0  0.0558
  H  H64  1  0.811300  0.209300  0.565000  1.0  0.0523
  H  H65  1  0.742800  0.988600  0.728300  1.0  0.1032
  H  H66  1  0.627000  0.095200  0.615700  1.0  0.1148
  H  H67  1  0.112300  0.662800  0.612200  1.0  0.1136
  H  H68  1  0.155900  0.698000  0.514500  1.0  0.0566
  H  H69  1  0.209300  0.688700  0.565000  1.0  0.0507
  H  H70  1  0.988600  0.757200  0.728300  1.0  0.1026
  H  H71  1  0.095200  0.873000  0.615700  1.0  0.1142
  H  H72  1  0.387700  0.837200  0.612200  1.0  0.1136
  H  H73  1  0.344100  0.802000  0.514500  1.0  0.0562
  H  H74  1  0.290700  0.811300  0.565000  1.0  0.0509
  H  H75  1  0.511400  0.742800  0.728300  1.0  0.1023
  H  H76  1  0.404800  0.627000  0.615700  1.0  0.1149
  H  H77  1  0.337200  0.887700  0.887800  1.0  0.1142
  H  H78  1  0.302000  0.844100  0.985500  1.0  0.0553
  H  H79  1  0.311300  0.790700  0.935000  1.0  0.0538
  H  H80  1  0.242800  0.011400  0.771700  1.0  0.1032
  H  H81  1  0.127000  0.904800  0.884300  1.0  0.1146
  H  H82  1  0.162800  0.612300  0.887800  1.0  0.1135
  H  H83  1  0.198000  0.655900  0.985500  1.0  0.0571
  H  H84  1  0.188700  0.709300  0.935000  1.0  0.0519
  H  H85  1  0.257200  0.488600  0.771700  1.0  0.1032
  H  H86  1  0.373000  0.595200  0.884300  1.0  0.1147
  H  H87  1  0.887700  0.162800  0.887800  1.0  0.1135
  H  H88  1  0.844100  0.198000  0.985500  1.0  0.0555
  H  H89  1  0.790700  0.188700  0.935000  1.0  0.0522
  H  H90  1  0.011400  0.257200  0.771700  1.0  0.1024
  H  H91  1  0.904800  0.373000  0.884300  1.0  0.1144
  H  H92  1  0.612300  0.337200  0.887800  1.0  0.1137
  H  H93  1  0.655900  0.302000  0.985500  1.0  0.0569
  H  H94  1  0.709300  0.311300  0.935000  1.0  0.0516
  H  H95  1  0.488600  0.242800  0.771700  1.0  0.1026
  H  H96  1  0.595200  0.127000  0.884300  1.0  0.1148
  C  C97  1  0.231000  0.611400  0.392800  1.0  0.2606
  C  C98  1  0.300600  0.546400  0.326370  1.0  -0.151
  C  C99  1  0.296600  0.593400  0.371900  1.0  -0.1444
  C  C100  1  0.278190  0.690800  0.462490  1.0  0.0718
  C  C101  1  0.239800  0.518900  0.302580  1.0  0.0225
  C  C102  1  0.170700  0.582900  0.369560  1.0  -0.09
  C  C103  1  0.174600  0.536400  0.324760  1.0  -0.18
  C  C104  1  0.371800  0.530800  0.299060  1.0  0.7051
  C  C105  1  0.107600  0.511600  0.297040  1.0  0.6941
  C  C106  1  0.269000  0.888600  0.392800  1.0  0.2602
  C  C107  1  0.199400  0.953600  0.326370  1.0  -0.1515
  C  C108  1  0.203400  0.906600  0.371900  1.0  -0.1455
  C  C109  1  0.221810  0.809200  0.462490  1.0  0.0732
  C  C110  1  0.260200  0.981100  0.302580  1.0  0.0229
  C  C111  1  0.329300  0.917100  0.369560  1.0  -0.0912
  C  C112  1  0.325400  0.963600  0.324760  1.0  -0.1795
  C  C113  1  0.128200  0.969200  0.299060  1.0  0.7057
  C  C114  1  0.392400  0.988400  0.297040  1.0  0.6943
  C  C115  1  0.888600  0.231000  0.392800  1.0  0.2613
  C  C116  1  0.953600  0.300600  0.326370  1.0  -0.1517
  C  C117  1  0.906600  0.296600  0.371900  1.0  -0.1448
  C  C118  1  0.809200  0.278190  0.462490  1.0  0.0704
  C  C119  1  0.981100  0.239800  0.302580  1.0  0.0232
  C  C120  1  0.917100  0.170700  0.369560  1.0  -0.09
  C  C121  1  0.963600  0.174600  0.324760  1.0  -0.1773
  C  C122  1  0.969200  0.371800  0.299060  1.0  0.7051
  C  C123  1  0.988400  0.107600  0.297040  1.0  0.6958
  C  C124  1  0.611400  0.269000  0.392800  1.0  0.2612
  C  C125  1  0.546400  0.199400  0.326370  1.0  -0.1523
  C  C126  1  0.593400  0.203400  0.371900  1.0  -0.1459
  C  C127  1  0.690800  0.221810  0.462490  1.0  0.0712
  C  C128  1  0.518900  0.260200  0.302580  1.0  0.0226
  C  C129  1  0.582900  0.329300  0.369560  1.0  -0.0896
  C  C130  1  0.536400  0.325400  0.324760  1.0  -0.1775
  C  C131  1  0.530800  0.128200  0.299060  1.0  0.7053
  C  C132  1  0.511600  0.392400  0.297040  1.0  0.6956
  C  C133  1  0.769000  0.111400  0.107200  1.0  0.2605
  C  C134  1  0.699400  0.046400  0.173630  1.0  -0.1524
  C  C135  1  0.703400  0.093400  0.128100  1.0  -0.1449
  C  C136  1  0.721810  0.190800  0.037510  1.0  0.0724
  C  C137  1  0.760200  0.018900  0.197420  1.0  0.0228
  C  C138  1  0.829300  0.082900  0.130440  1.0  -0.0913
  C  C139  1  0.825400  0.036400  0.175240  1.0  -0.18
  C  C140  1  0.628200  0.030800  0.200940  1.0  0.7064
  C  C141  1  0.892400  0.011600  0.202960  1.0  0.6942
  C  C142  1  0.731000  0.388600  0.107200  1.0  0.2603
  C  C143  1  0.800600  0.453600  0.173630  1.0  -0.1516
  C  C144  1  0.796600  0.406600  0.128100  1.0  -0.1439
  C  C145  1  0.778190  0.309200  0.037510  1.0  0.0727
  C  C146  1  0.739800  0.481100  0.197420  1.0  0.022
  C  C147  1  0.670700  0.417100  0.130440  1.0  -0.0899
  C  C148  1  0.674600  0.463600  0.175240  1.0  -0.1792
  C  C149  1  0.871800  0.469200  0.200940  1.0  0.7051
  C  C150  1  0.607600  0.488400  0.202960  1.0  0.6942
  C  C151  1  0.111400  0.731000  0.107200  1.0  0.2616
  C  C152  1  0.046400  0.800600  0.173630  1.0  -0.1523
  C  C153  1  0.093400  0.796600  0.128100  1.0  -0.1446
  C  C154  1  0.190800  0.778190  0.037510  1.0  0.0714
  C  C155  1  0.018900  0.739800  0.197420  1.0  0.023
  C  C156  1  0.082900  0.670700  0.130440  1.0  -0.0881
  C  C157  1  0.036400  0.674600  0.175240  1.0  -0.1783
  C  C158  1  0.030800  0.871800  0.200940  1.0  0.706
  C  C159  1  0.011600  0.607600  0.202960  1.0  0.6955
  C  C160  1  0.388600  0.769000  0.107200  1.0  0.2608
  C  C161  1  0.453600  0.699400  0.173630  1.0  -0.1514
  C  C162  1  0.406600  0.703400  0.128100  1.0  -0.1454
  C  C163  1  0.309200  0.721810  0.037510  1.0  0.0712
  C  C164  1  0.481100  0.760200  0.197420  1.0  0.0225
  C  C165  1  0.417100  0.829300  0.130440  1.0  -0.0909
  C  C166  1  0.463600  0.825400  0.175240  1.0  -0.1776
  C  C167  1  0.469200  0.628200  0.200940  1.0  0.705
  C  C168  1  0.488400  0.892400  0.202960  1.0  0.6962
  C  C169  1  0.769000  0.388600  0.607200  1.0  0.2603
  C  C170  1  0.699400  0.453600  0.673630  1.0  -0.1518
  C  C171  1  0.703400  0.406600  0.628100  1.0  -0.1451
  C  C172  1  0.721810  0.309200  0.537510  1.0  0.0722
  C  C173  1  0.760200  0.481100  0.697420  1.0  0.0221
  C  C174  1  0.829300  0.417100  0.630440  1.0  -0.0912
  C  C175  1  0.825400  0.463600  0.675240  1.0  -0.1797
  C  C176  1  0.628200  0.469200  0.700940  1.0  0.7061
  C  C177  1  0.892400  0.488400  0.702960  1.0  0.6945
  C  C178  1  0.731000  0.111400  0.607200  1.0  0.2605
  C  C179  1  0.800600  0.046400  0.673630  1.0  -0.1513
  C  C180  1  0.796600  0.093400  0.628100  1.0  -0.1443
  C  C181  1  0.778190  0.190800  0.537510  1.0  0.0724
  C  C182  1  0.739800  0.018900  0.697420  1.0  0.0226
  C  C183  1  0.670700  0.082900  0.630440  1.0  -0.0901
  C  C184  1  0.674600  0.036400  0.675240  1.0  -0.1801
  C  C185  1  0.871800  0.030800  0.700940  1.0  0.7053
  C  C186  1  0.607600  0.011600  0.702960  1.0  0.6943
  C  C187  1  0.111400  0.769000  0.607200  1.0  0.261
  C  C188  1  0.046400  0.699400  0.673630  1.0  -0.1522
  C  C189  1  0.093400  0.703400  0.628100  1.0  -0.1457
  C  C190  1  0.190800  0.721810  0.537510  1.0  0.0715
  C  C191  1  0.018900  0.760200  0.697420  1.0  0.0228
  C  C192  1  0.082900  0.829300  0.630440  1.0  -0.0894
  C  C193  1  0.036400  0.825400  0.675240  1.0  -0.1775
  C  C194  1  0.030800  0.628200  0.700940  1.0  0.7054
  C  C195  1  0.011600  0.892400  0.702960  1.0  0.6956
  C  C196  1  0.388600  0.731000  0.607200  1.0  0.2613
  C  C197  1  0.453600  0.800600  0.673630  1.0  -0.1518
  C  C198  1  0.406600  0.796600  0.628100  1.0  -0.1445
  C  C199  1  0.309200  0.778190  0.537510  1.0  0.0699
  C  C200  1  0.481100  0.739800  0.697420  1.0  0.0224
  C  C201  1  0.417100  0.670700  0.630440  1.0  -0.0893
  C  C202  1  0.463600  0.674600  0.675240  1.0  -0.1773
  C  C203  1  0.469200  0.871800  0.700940  1.0  0.7055
  C  C204  1  0.488400  0.607600  0.702960  1.0  0.696
  C  C205  1  0.231000  0.888600  0.892800  1.0  0.2603
  C  C206  1  0.300600  0.953600  0.826370  1.0  -0.1513
  C  C207  1  0.296600  0.906600  0.871900  1.0  -0.1442
  C  C208  1  0.278190  0.809200  0.962490  1.0  0.0736
  C  C209  1  0.239800  0.981100  0.802580  1.0  0.0228
  C  C210  1  0.170700  0.917100  0.869560  1.0  -0.0901
  C  C211  1  0.174600  0.963600  0.824760  1.0  -0.1792
  C  C212  1  0.371800  0.969200  0.799060  1.0  0.7048
  C  C213  1  0.107600  0.988400  0.797040  1.0  0.694
  C  C214  1  0.269000  0.611400  0.892800  1.0  0.2606
  C  C215  1  0.199400  0.546400  0.826370  1.0  -0.1521
  C  C216  1  0.203400  0.593400  0.871900  1.0  -0.1452
  C  C217  1  0.221810  0.690800  0.962490  1.0  0.0721
  C  C218  1  0.260200  0.518900  0.802580  1.0  0.0227
  C  C219  1  0.329300  0.582900  0.869560  1.0  -0.0911
  C  C220  1  0.325400  0.536400  0.824760  1.0  -0.1798
  C  C221  1  0.128200  0.530800  0.799060  1.0  0.7062
  C  C222  1  0.392400  0.511600  0.797040  1.0  0.6941
  C  C223  1  0.888600  0.269000  0.892800  1.0  0.2607
  C  C224  1  0.953600  0.199400  0.826370  1.0  -0.1513
  C  C225  1  0.906600  0.203400  0.871900  1.0  -0.1456
  C  C226  1  0.809200  0.221810  0.962490  1.0  0.0713
  C  C227  1  0.981100  0.260200  0.802580  1.0  0.0232
  C  C228  1  0.917100  0.329300  0.869560  1.0  -0.091
  C  C229  1  0.963600  0.325400  0.824760  1.0  -0.1773
  C  C230  1  0.969200  0.128200  0.799060  1.0  0.7049
  C  C231  1  0.988400  0.392400  0.797040  1.0  0.6961
  C  C232  1  0.611400  0.231000  0.892800  1.0  0.2616
  C  C233  1  0.546400  0.300600  0.826370  1.0  -0.1523
  C  C234  1  0.593400  0.296600  0.871900  1.0  -0.1451
  C  C235  1  0.690800  0.278190  0.962490  1.0  0.0719
  C  C236  1  0.518900  0.239800  0.802580  1.0  0.0229
  C  C237  1  0.582900  0.170700  0.869560  1.0  -0.0886
  C  C238  1  0.536400  0.174600  0.824760  1.0  -0.1784
  C  C239  1  0.530800  0.371800  0.799060  1.0  0.7056
  C  C240  1  0.511600  0.107600  0.797040  1.0  0.6954
  C  C241  1  0.250000  0.750000  0.500000  1.0  -0.037
  C  C242  1  0.750000  0.250000  0.500000  1.0  -0.037
  C  C243  1  0.750000  0.250000  0.000000  1.0  -0.037
  C  C244  1  0.250000  0.750000  0.000000  1.0  -0.037
  O  O245  1  0.219930  0.660350  0.434500  1.0  -0.2852
  O  O246  1  0.423890  0.557430  0.321980  1.0  -0.6231
  O  O247  1  0.370410  0.490870  0.257160  1.0  -0.6172
  O  O248  1  0.051610  0.526680  0.321450  1.0  -0.6416
  O  O249  1  0.113960  0.477100  0.251530  1.0  -0.5949
  O  O250  1  0.280070  0.839650  0.434500  1.0  -0.2845
  O  O251  1  0.076110  0.942570  0.321980  1.0  -0.6234
  O  O252  1  0.129590  0.009130  0.257160  1.0  -0.6177
  O  O253  1  0.448390  0.973320  0.321450  1.0  -0.6411
  O  O254  1  0.386040  0.022900  0.251530  1.0  -0.5944
  O  O255  1  0.839650  0.219930  0.434500  1.0  -0.2848
  O  O256  1  0.942570  0.423890  0.321980  1.0  -0.6238
  O  O257  1  0.009130  0.370410  0.257160  1.0  -0.6166
  O  O258  1  0.973320  0.051610  0.321450  1.0  -0.6415
  O  O259  1  0.022900  0.113960  0.251530  1.0  -0.5941
  O  O260  1  0.660350  0.280070  0.434500  1.0  -0.2828
  O  O261  1  0.557430  0.076110  0.321980  1.0  -0.6241
  O  O262  1  0.490870  0.129590  0.257160  1.0  -0.616
  O  O263  1  0.526680  0.448390  0.321450  1.0  -0.6424
  O  O264  1  0.477100  0.386040  0.251530  1.0  -0.5946
  O  O265  1  0.780070  0.160350  0.065500  1.0  -0.2855
  O  O266  1  0.576110  0.057430  0.178020  1.0  -0.6218
  O  O267  1  0.629590  0.990870  0.242840  1.0  -0.6174
  O  O268  1  0.948390  0.026680  0.178550  1.0  -0.6438
  O  O269  1  0.886040  0.977100  0.248470  1.0  -0.5957
  O  O270  1  0.719930  0.339650  0.065500  1.0  -0.2832
  O  O271  1  0.923890  0.442570  0.178020  1.0  -0.6226
  O  O272  1  0.870410  0.509130  0.242840  1.0  -0.6174
  O  O273  1  0.551610  0.473320  0.178550  1.0  -0.643
  O  O274  1  0.613960  0.522900  0.248470  1.0  -0.5943
  O  O275  1  0.160350  0.719930  0.065500  1.0  -0.284
  O  O276  1  0.057430  0.923890  0.178020  1.0  -0.6228
  O  O277  1  0.990870  0.870410  0.242840  1.0  -0.616
  O  O278  1  0.026680  0.551610  0.178550  1.0  -0.6425
  O  O279  1  0.977100  0.613960  0.248470  1.0  -0.5946
  O  O280  1  0.339650  0.780070  0.065500  1.0  -0.2841
  O  O281  1  0.442570  0.576110  0.178020  1.0  -0.6227
  O  O282  1  0.509130  0.629590  0.242840  1.0  -0.6165
  O  O283  1  0.473320  0.948390  0.178550  1.0  -0.6437
  O  O284  1  0.522900  0.886040  0.248470  1.0  -0.5953
  O  O285  1  0.780070  0.339650  0.565500  1.0  -0.2848
  O  O286  1  0.576110  0.442570  0.678020  1.0  -0.6221
  O  O287  1  0.629590  0.509130  0.742840  1.0  -0.6173
  O  O288  1  0.948390  0.473320  0.678550  1.0  -0.6435
  O  O289  1  0.886040  0.522900  0.748470  1.0  -0.5951
  O  O290  1  0.719930  0.160350  0.565500  1.0  -0.2848
  O  O291  1  0.923890  0.057430  0.678020  1.0  -0.6226
  O  O292  1  0.870410  0.990870  0.742840  1.0  -0.6171
  O  O293  1  0.551610  0.026680  0.678550  1.0  -0.6429
  O  O294  1  0.613960  0.977100  0.748470  1.0  -0.5957
  O  O295  1  0.160350  0.780070  0.565500  1.0  -0.2833
  O  O296  1  0.057430  0.576110  0.678020  1.0  -0.623
  O  O297  1  0.990870  0.629590  0.742840  1.0  -0.6157
  O  O298  1  0.026680  0.948390  0.678550  1.0  -0.6436
  O  O299  1  0.977100  0.886040  0.748470  1.0  -0.5951
  O  O300  1  0.339650  0.719930  0.565500  1.0  -0.2844
  O  O301  1  0.442570  0.923890  0.678020  1.0  -0.6229
  O  O302  1  0.509130  0.870410  0.742840  1.0  -0.6167
  O  O303  1  0.473320  0.551610  0.678550  1.0  -0.6429
  O  O304  1  0.522900  0.613960  0.748470  1.0  -0.5948
  O  O305  1  0.219930  0.839650  0.934500  1.0  -0.283
  O  O306  1  0.423890  0.942570  0.821980  1.0  -0.6234
  O  O307  1  0.370410  0.009130  0.757160  1.0  -0.6177
  O  O308  1  0.051610  0.973320  0.821450  1.0  -0.6415
  O  O309  1  0.113960  0.022900  0.751530  1.0  -0.594
  O  O310  1  0.280070  0.660350  0.934500  1.0  -0.2853
  O  O311  1  0.076110  0.557430  0.821980  1.0  -0.6227
  O  O312  1  0.129590  0.490870  0.757160  1.0  -0.6177
  O  O313  1  0.448390  0.526680  0.821450  1.0  -0.6414
  O  O314  1  0.386040  0.477100  0.751530  1.0  -0.5943
  O  O315  1  0.839650  0.280070  0.934500  1.0  -0.2836
  O  O316  1  0.942570  0.076110  0.821980  1.0  -0.6236
  O  O317  1  0.009130  0.129590  0.757160  1.0  -0.6168
  O  O318  1  0.973320  0.448390  0.821450  1.0  -0.6427
  O  O319  1  0.022900  0.386040  0.751530  1.0  -0.5951
  O  O320  1  0.660350  0.219930  0.934500  1.0  -0.2843
  O  O321  1  0.557430  0.423890  0.821980  1.0  -0.6233
  O  O322  1  0.490870  0.370410  0.757160  1.0  -0.6163
  O  O323  1  0.526680  0.051610  0.821450  1.0  -0.6413
  O  O324  1  0.477100  0.113960  0.751530  1.0  -0.594
