# generated using pymatgen
data_Zn4H20C37O20
_symmetry_space_group_name_H-M   'P 1'
_cell_length_a   21.55300000
_cell_length_b   21.55300000
_cell_length_c   40.78100000
_cell_angle_alpha   90.00000000
_cell_angle_beta   90.00000000
_cell_angle_gamma   90.00000000
_symmetry_Int_Tables_number   1
_chemical_formula_structural   Zn4H20C37O20
_chemical_formula_sum   'Zn32 H160 C296 O160'
_cell_volume   18944.07170283
_cell_formula_units_Z   8
loop_
 _symmetry_equiv_pos_site_id
 _symmetry_equiv_pos_as_xyz
  1  'x, y, z'
loop_
 _atom_site_type_symbol
 _atom_site_label
 _atom_site_symmetry_multiplicity
 _atom_site_fract_x
 _atom_site_fract_y
 _atom_site_fract_z
 _atom_site_occupancy
 _atom_site_charge
  Zn  Zn1  1  0.379990  0.084750  0.372860  1.0  1.0205
  Zn  Zn2  1  0.450000  0.966290  0.415380  1.0  1.0454
  Zn  Zn3  1  0.941070  0.936700  0.393780  1.0  1.0329
  Zn  Zn4  1  0.008750  0.034510  0.339370  1.0  1.0921
  Zn  Zn5  1  0.620010  0.915250  0.872860  1.0  1.0213
  Zn  Zn6  1  0.550000  0.033710  0.915380  1.0  1.0462
  Zn  Zn7  1  0.058930  0.063300  0.893780  1.0  1.0326
  Zn  Zn8  1  0.991250  0.965490  0.839370  1.0  1.0929
  Zn  Zn9  1  0.415250  0.879990  0.622860  1.0  1.021
  Zn  Zn10  1  0.533710  0.950000  0.665380  1.0  1.0458
  Zn  Zn11  1  0.563300  0.441070  0.643780  1.0  1.0324
  Zn  Zn12  1  0.465490  0.508750  0.589370  1.0  1.0927
  Zn  Zn13  1  0.584750  0.120010  0.122860  1.0  1.02
  Zn  Zn14  1  0.466290  0.050000  0.165380  1.0  1.0461
  Zn  Zn15  1  0.436700  0.558930  0.143780  1.0  1.0308
  Zn  Zn16  1  0.534510  0.491250  0.089370  1.0  1.092
  Zn  Zn17  1  0.120010  0.584750  0.877140  1.0  1.0207
  Zn  Zn18  1  0.050000  0.466290  0.834620  1.0  1.0454
  Zn  Zn19  1  0.558930  0.436700  0.856220  1.0  1.0356
  Zn  Zn20  1  0.491250  0.534510  0.910630  1.0  1.0926
  Zn  Zn21  1  0.879990  0.415250  0.377140  1.0  1.0206
  Zn  Zn22  1  0.950000  0.533710  0.334620  1.0  1.0455
  Zn  Zn23  1  0.441070  0.563300  0.356220  1.0  1.0319
  Zn  Zn24  1  0.508750  0.465490  0.410630  1.0  1.0926
  Zn  Zn25  1  0.084750  0.379990  0.627140  1.0  1.0189
  Zn  Zn26  1  0.966290  0.450000  0.584620  1.0  1.0458
  Zn  Zn27  1  0.936700  0.941070  0.606220  1.0  1.0334
  Zn  Zn28  1  0.034510  0.008750  0.660630  1.0  1.0918
  Zn  Zn29  1  0.915250  0.620010  0.127140  1.0  1.0192
  Zn  Zn30  1  0.033710  0.550000  0.084620  1.0  1.0458
  Zn  Zn31  1  0.063300  0.058930  0.106220  1.0  1.0316
  Zn  Zn32  1  0.965490  0.991250  0.160630  1.0  1.0923
  H  H33  1  0.233400  0.779100  0.503800  1.0  0.0597
  H  H34  1  0.209800  0.722100  0.524200  1.0  0.059
  H  H35  1  0.083800  0.714100  0.500600  1.0  0.0719
  H  H36  1  0.127600  0.656400  0.504900  1.0  0.0622
  H  H37  1  0.253100  0.710600  0.456700  1.0  0.0621
  H  H38  1  0.199600  0.667500  0.443500  1.0  0.0709
  H  H39  1  0.120900  0.803700  0.463200  1.0  0.0621
  H  H40  1  0.134400  0.756100  0.434900  1.0  0.0643
  H  H41  1  0.288900  0.877600  0.426400  1.0  0.1248
  H  H42  1  0.193500  0.006400  0.377100  1.0  0.1091
  H  H43  1  0.104600  0.864800  0.420700  1.0  0.1009
  H  H44  1  0.260000  0.809100  0.555500  1.0  0.1092
  H  H45  1  0.198300  0.920900  0.625300  1.0  0.0857
  H  H46  1  0.078900  0.853500  0.558500  1.0  0.128
  H  H47  1  0.038500  0.596500  0.417300  1.0  0.1241
  H  H48  1  0.954800  0.465500  0.470500  1.0  0.1063
  H  H49  1  0.051100  0.600700  0.515400  1.0  0.108
  H  H50  1  0.299700  0.598500  0.532100  1.0  0.1156
  H  H51  1  0.448600  0.539000  0.479900  1.0  0.1149
  H  H52  1  0.304100  0.618100  0.433900  1.0  0.107
  H  H53  1  0.766600  0.220900  0.003800  1.0  0.0599
  H  H54  1  0.790200  0.277900  0.024200  1.0  0.0582
  H  H55  1  0.916200  0.285900  0.000600  1.0  0.0713
  H  H56  1  0.872400  0.343600  0.004900  1.0  0.0615
  H  H57  1  0.746900  0.289400  0.956700  1.0  0.0604
  H  H58  1  0.800400  0.332500  0.943500  1.0  0.0718
  H  H59  1  0.879100  0.196300  0.963200  1.0  0.0619
  H  H60  1  0.865600  0.243900  0.934900  1.0  0.065
  H  H61  1  0.711100  0.122400  0.926400  1.0  0.1248
  H  H62  1  0.806500  0.993600  0.877100  1.0  0.1083
  H  H63  1  0.895400  0.135200  0.920700  1.0  0.1016
  H  H64  1  0.740000  0.190900  0.055500  1.0  0.1085
  H  H65  1  0.801700  0.079100  0.125300  1.0  0.086
  H  H66  1  0.921100  0.146500  0.058500  1.0  0.1279
  H  H67  1  0.961500  0.403500  0.917300  1.0  0.1244
  H  H68  1  0.045200  0.534500  0.970500  1.0  0.1069
  H  H69  1  0.948900  0.399300  0.015400  1.0  0.1075
  H  H70  1  0.700300  0.401500  0.032100  1.0  0.1151
  H  H71  1  0.551400  0.461000  0.979900  1.0  0.1144
  H  H72  1  0.695900  0.381900  0.933900  1.0  0.1066
  H  H73  1  0.720900  0.733400  0.753800  1.0  0.0596
  H  H74  1  0.777900  0.709800  0.774200  1.0  0.0577
  H  H75  1  0.785900  0.583800  0.750600  1.0  0.0723
  H  H76  1  0.843600  0.627600  0.754900  1.0  0.063
  H  H77  1  0.789400  0.753100  0.706700  1.0  0.0605
  H  H78  1  0.832500  0.699600  0.693500  1.0  0.0709
  H  H79  1  0.696300  0.620900  0.713200  1.0  0.0629
  H  H80  1  0.743900  0.634400  0.684900  1.0  0.0631
  H  H81  1  0.622400  0.788900  0.676400  1.0  0.1259
  H  H82  1  0.493600  0.693500  0.627100  1.0  0.1086
  H  H83  1  0.635200  0.604600  0.670700  1.0  0.1004
  H  H84  1  0.690900  0.760000  0.805500  1.0  0.1084
  H  H85  1  0.579100  0.698300  0.875300  1.0  0.0864
  H  H86  1  0.646500  0.578900  0.808500  1.0  0.1278
  H  H87  1  0.903500  0.538500  0.667300  1.0  0.1246
  H  H88  1  0.034500  0.454800  0.720500  1.0  0.1047
  H  H89  1  0.899300  0.551100  0.765400  1.0  0.1075
  H  H90  1  0.901500  0.799700  0.782100  1.0  0.1142
  H  H91  1  0.961000  0.948600  0.729900  1.0  0.1143
  H  H92  1  0.881900  0.804100  0.683900  1.0  0.1068
  H  H93  1  0.279100  0.266600  0.253800  1.0  0.0592
  H  H94  1  0.222100  0.290200  0.274200  1.0  0.0581
  H  H95  1  0.214100  0.416200  0.250600  1.0  0.0714
  H  H96  1  0.156400  0.372400  0.254900  1.0  0.063
  H  H97  1  0.210600  0.246900  0.206700  1.0  0.0603
  H  H98  1  0.167500  0.300400  0.193500  1.0  0.0712
  H  H99  1  0.303700  0.379100  0.213200  1.0  0.0628
  H  H100  1  0.256100  0.365600  0.184900  1.0  0.0638
  H  H101  1  0.377600  0.211100  0.176400  1.0  0.1263
  H  H102  1  0.506400  0.306500  0.127100  1.0  0.1084
  H  H103  1  0.364800  0.395400  0.170700  1.0  0.1004
  H  H104  1  0.309100  0.240000  0.305500  1.0  0.109
  H  H105  1  0.420900  0.301700  0.375300  1.0  0.086
  H  H106  1  0.353500  0.421100  0.308500  1.0  0.1276
  H  H107  1  0.096500  0.461500  0.167300  1.0  0.1242
  H  H108  1  0.965500  0.545200  0.220500  1.0  0.1046
  H  H109  1  0.100700  0.448900  0.265400  1.0  0.1077
  H  H110  1  0.098500  0.200300  0.282100  1.0  0.115
  H  H111  1  0.039000  0.051400  0.229900  1.0  0.1141
  H  H112  1  0.118100  0.195900  0.183900  1.0  0.1065
  H  H113  1  0.266600  0.279100  0.746200  1.0  0.0596
  H  H114  1  0.290200  0.222100  0.725800  1.0  0.0591
  H  H115  1  0.416200  0.214100  0.749400  1.0  0.072
  H  H116  1  0.372400  0.156400  0.745100  1.0  0.0622
  H  H117  1  0.246900  0.210600  0.793300  1.0  0.0614
  H  H118  1  0.300400  0.167500  0.806500  1.0  0.0727
  H  H119  1  0.379100  0.303700  0.786800  1.0  0.062
  H  H120  1  0.365600  0.256100  0.815100  1.0  0.0639
  H  H121  1  0.211100  0.377600  0.823600  1.0  0.1254
  H  H122  1  0.306500  0.506400  0.872900  1.0  0.1092
  H  H123  1  0.395400  0.364800  0.829300  1.0  0.1018
  H  H124  1  0.240000  0.309100  0.694500  1.0  0.1085
  H  H125  1  0.301700  0.420900  0.624700  1.0  0.0864
  H  H126  1  0.421100  0.353500  0.691500  1.0  0.1275
  H  H127  1  0.461500  0.096500  0.832700  1.0  0.124
  H  H128  1  0.545200  0.965500  0.779500  1.0  0.1052
  H  H129  1  0.448900  0.100700  0.734600  1.0  0.1073
  H  H130  1  0.200300  0.098500  0.717900  1.0  0.115
  H  H131  1  0.051400  0.039000  0.770100  1.0  0.1141
  H  H132  1  0.195900  0.118100  0.816100  1.0  0.1066
  H  H133  1  0.733400  0.720900  0.246200  1.0  0.0589
  H  H134  1  0.709800  0.777900  0.225800  1.0  0.0592
  H  H135  1  0.583800  0.785900  0.249400  1.0  0.0713
  H  H136  1  0.627600  0.843600  0.245100  1.0  0.0626
  H  H137  1  0.753100  0.789400  0.293300  1.0  0.0605
  H  H138  1  0.699600  0.832500  0.306500  1.0  0.0725
  H  H139  1  0.620900  0.696300  0.286800  1.0  0.0625
  H  H140  1  0.634400  0.743900  0.315100  1.0  0.0652
  H  H141  1  0.788900  0.622400  0.323600  1.0  0.1251
  H  H142  1  0.693500  0.493600  0.372900  1.0  0.1089
  H  H143  1  0.604600  0.635200  0.329300  1.0  0.1011
  H  H144  1  0.760000  0.690900  0.194500  1.0  0.1085
  H  H145  1  0.698300  0.579100  0.124700  1.0  0.0857
  H  H146  1  0.578900  0.646500  0.191500  1.0  0.1276
  H  H147  1  0.538500  0.903500  0.332700  1.0  0.1238
  H  H148  1  0.454800  0.034500  0.279500  1.0  0.1053
  H  H149  1  0.551100  0.899300  0.234600  1.0  0.1073
  H  H150  1  0.799700  0.901500  0.217900  1.0  0.1155
  H  H151  1  0.948600  0.961000  0.270100  1.0  0.1143
  H  H152  1  0.804100  0.881900  0.316100  1.0  0.1065
  H  H153  1  0.779100  0.233400  0.496200  1.0  0.0593
  H  H154  1  0.722100  0.209800  0.475800  1.0  0.0589
  H  H155  1  0.714100  0.083800  0.499400  1.0  0.071
  H  H156  1  0.656400  0.127600  0.495100  1.0  0.0632
  H  H157  1  0.710600  0.253100  0.543300  1.0  0.0592
  H  H158  1  0.667500  0.199600  0.556500  1.0  0.0729
  H  H159  1  0.803700  0.120900  0.536800  1.0  0.0622
  H  H160  1  0.756100  0.134400  0.565100  1.0  0.0626
  H  H161  1  0.877600  0.288900  0.573600  1.0  0.126
  H  H162  1  0.006400  0.193500  0.622900  1.0  0.1088
  H  H163  1  0.864800  0.104600  0.579300  1.0  0.1002
  H  H164  1  0.809100  0.260000  0.444500  1.0  0.1081
  H  H165  1  0.920900  0.198300  0.374700  1.0  0.0862
  H  H166  1  0.853500  0.078900  0.441500  1.0  0.127
  H  H167  1  0.596500  0.038500  0.582700  1.0  0.1241
  H  H168  1  0.465500  0.954800  0.529500  1.0  0.1056
  H  H169  1  0.600700  0.051100  0.484600  1.0  0.1074
  H  H170  1  0.598500  0.299700  0.467900  1.0  0.1148
  H  H171  1  0.539000  0.448600  0.520100  1.0  0.1141
  H  H172  1  0.618100  0.304100  0.566100  1.0  0.1068
  H  H173  1  0.220900  0.766600  0.996200  1.0  0.0585
  H  H174  1  0.277900  0.790200  0.975800  1.0  0.0581
  H  H175  1  0.285900  0.916200  0.999400  1.0  0.0726
  H  H176  1  0.343600  0.872400  0.995100  1.0  0.0637
  H  H177  1  0.289400  0.746900  0.043300  1.0  0.0606
  H  H178  1  0.332500  0.800400  0.056500  1.0  0.0721
  H  H179  1  0.196300  0.879100  0.036800  1.0  0.0628
  H  H180  1  0.243900  0.865600  0.065100  1.0  0.0638
  H  H181  1  0.122400  0.711100  0.073600  1.0  0.1265
  H  H182  1  0.993600  0.806500  0.122900  1.0  0.1089
  H  H183  1  0.135200  0.895400  0.079300  1.0  0.1
  H  H184  1  0.190900  0.740000  0.944500  1.0  0.109
  H  H185  1  0.079100  0.801700  0.874700  1.0  0.0862
  H  H186  1  0.146500  0.921100  0.941500  1.0  0.1276
  H  H187  1  0.403500  0.961500  0.082700  1.0  0.124
  H  H188  1  0.534500  0.045200  0.029500  1.0  0.1064
  H  H189  1  0.399300  0.948900  0.984600  1.0  0.107
  H  H190  1  0.401500  0.700300  0.967900  1.0  0.1141
  H  H191  1  0.461000  0.551400  0.020100  1.0  0.1139
  H  H192  1  0.381900  0.695900  0.066100  1.0  0.1066
  C  C193  1  0.169600  0.727500  0.479210  1.0  -0.0116
  C  C194  1  0.197000  0.755000  0.509470  1.0  0.08
  C  C195  1  0.114100  0.688100  0.489630  1.0  0.0528
  C  C196  1  0.216900  0.686600  0.462950  1.0  0.0885
  C  C197  1  0.151900  0.776000  0.454100  1.0  0.0524
  C  C198  1  0.196400  0.862200  0.427840  1.0  0.3267
  C  C199  1  0.250700  0.893400  0.419850  1.0  -0.0204
  C  C200  1  0.248100  0.948400  0.402030  1.0  -0.1209
  C  C201  1  0.313800  0.981700  0.397220  1.0  0.6431
  C  C202  1  0.194100  0.970500  0.389790  1.0  0.0144
  C  C203  1  0.139700  0.938500  0.396640  1.0  -0.1068
  C  C204  1  0.141400  0.885300  0.415860  1.0  -0.1439
  C  C205  1  0.080000  0.960700  0.386400  1.0  0.6965
  C  C206  1  0.168100  0.827000  0.552680  1.0  0.3141
  C  C207  1  0.227700  0.830400  0.565570  1.0  -0.0952
  C  C208  1  0.238900  0.865800  0.593440  1.0  -0.1791
  C  C209  1  0.307800  0.871600  0.608700  1.0  0.4282
  C  C210  1  0.191000  0.896100  0.607030  1.0  0.019
  C  C211  1  0.130800  0.891900  0.594930  1.0  -0.1629
  C  C212  1  0.118800  0.856700  0.567080  1.0  -0.14
  C  C213  1  0.076300  0.924800  0.609870  1.0  0.7177
  C  C214  1  0.046800  0.609500  0.466240  1.0  0.2741
  C  C215  1  0.026800  0.580700  0.437630  1.0  -0.0494
  C  C216  1  0.989400  0.528300  0.439360  1.0  -0.1519
  C  C217  1  0.968100  0.502700  0.405950  1.0  0.7028
  C  C218  1  0.977500  0.502100  0.469320  1.0  0.0162
  C  C219  1  0.999200  0.529600  0.497960  1.0  -0.1678
  C  C220  1  0.035100  0.583000  0.496350  1.0  -0.1901
  C  C221  1  0.986000  0.503200  0.531520  1.0  0.615
  C  C222  1  0.290500  0.612700  0.483300  1.0  0.2099
  C  C223  1  0.319300  0.593000  0.511980  1.0  -0.0901
  C  C224  1  0.377300  0.565000  0.510590  1.0  -0.1524
  C  C225  1  0.403800  0.546700  0.543200  1.0  0.6449
  C  C226  1  0.409000  0.556100  0.480410  1.0  0.0071
  C  C227  1  0.379200  0.573900  0.451700  1.0  -0.1085
  C  C228  1  0.322100  0.603700  0.453220  1.0  -0.1459
  C  C229  1  0.407500  0.563500  0.418700  1.0  0.6867
  C  C230  1  0.830400  0.272500  0.979210  1.0  -0.0113
  C  C231  1  0.803000  0.245000  0.009470  1.0  0.079
  C  C232  1  0.885900  0.311900  0.989630  1.0  0.0525
  C  C233  1  0.783100  0.313400  0.962950  1.0  0.0917
  C  C234  1  0.848100  0.224000  0.954100  1.0  0.0514
  C  C235  1  0.803600  0.137800  0.927840  1.0  0.327
  C  C236  1  0.749300  0.106600  0.919850  1.0  -0.021
  C  C237  1  0.751900  0.051600  0.902030  1.0  -0.1149
  C  C238  1  0.686200  0.018300  0.897220  1.0  0.6445
  C  C239  1  0.805900  0.029500  0.889790  1.0  0.0131
  C  C240  1  0.860300  0.061500  0.896640  1.0  -0.1177
  C  C241  1  0.858600  0.114700  0.915860  1.0  -0.1464
  C  C242  1  0.920000  0.039300  0.886400  1.0  0.6975
  C  C243  1  0.831900  0.173000  0.052680  1.0  0.3155
  C  C244  1  0.772300  0.169600  0.065570  1.0  -0.0961
  C  C245  1  0.761100  0.134200  0.093440  1.0  -0.1774
  C  C246  1  0.692200  0.128400  0.108700  1.0  0.4266
  C  C247  1  0.809000  0.103900  0.107030  1.0  0.0195
  C  C248  1  0.869200  0.108100  0.094930  1.0  -0.1633
  C  C249  1  0.881200  0.143300  0.067080  1.0  -0.1408
  C  C250  1  0.923700  0.075200  0.109870  1.0  0.7178
  C  C251  1  0.953200  0.390500  0.966240  1.0  0.2745
  C  C252  1  0.973200  0.419300  0.937630  1.0  -0.0497
  C  C253  1  0.010600  0.471700  0.939360  1.0  -0.1508
  C  C254  1  0.031900  0.497300  0.905950  1.0  0.7027
  C  C255  1  0.022500  0.497900  0.969320  1.0  0.014
  C  C256  1  0.000800  0.470400  0.997960  1.0  -0.1683
  C  C257  1  0.964900  0.417000  0.996350  1.0  -0.1915
  C  C258  1  0.014000  0.496800  0.031520  1.0  0.6144
  C  C259  1  0.709500  0.387300  0.983300  1.0  0.2112
  C  C260  1  0.680700  0.407000  0.011980  1.0  -0.0903
  C  C261  1  0.622700  0.435000  0.010590  1.0  -0.1523
  C  C262  1  0.596200  0.453300  0.043200  1.0  0.6449
  C  C263  1  0.591000  0.443900  0.980410  1.0  0.0077
  C  C264  1  0.620800  0.426100  0.951700  1.0  -0.1087
  C  C265  1  0.677900  0.396300  0.953220  1.0  -0.1457
  C  C266  1  0.592500  0.436500  0.918700  1.0  0.6851
  C  C267  1  0.772500  0.669600  0.729210  1.0  -0.0112
  C  C268  1  0.745000  0.697000  0.759470  1.0  0.0755
  C  C269  1  0.811900  0.614100  0.739630  1.0  0.0501
  C  C270  1  0.813400  0.716900  0.712950  1.0  0.0905
  C  C271  1  0.724000  0.651900  0.704100  1.0  0.05
  C  C272  1  0.637800  0.696400  0.677840  1.0  0.3278
  C  C273  1  0.606600  0.750700  0.669850  1.0  -0.0238
  C  C274  1  0.551600  0.748100  0.652030  1.0  -0.1192
  C  C275  1  0.518300  0.813800  0.647220  1.0  0.644
  C  C276  1  0.529500  0.694100  0.639790  1.0  0.0136
  C  C277  1  0.561500  0.639700  0.646640  1.0  -0.1062
  C  C278  1  0.614700  0.641400  0.665860  1.0  -0.1451
  C  C279  1  0.539300  0.580000  0.636400  1.0  0.6984
  C  C280  1  0.673000  0.668100  0.802680  1.0  0.3151
  C  C281  1  0.669600  0.727700  0.815570  1.0  -0.0949
  C  C282  1  0.634200  0.738900  0.843440  1.0  -0.1745
  C  C283  1  0.628400  0.807800  0.858700  1.0  0.4259
  C  C284  1  0.603900  0.691000  0.857030  1.0  0.0205
  C  C285  1  0.608100  0.630800  0.844930  1.0  -0.163
  C  C286  1  0.643300  0.618800  0.817080  1.0  -0.1395
  C  C287  1  0.575200  0.576300  0.859870  1.0  0.7184
  C  C288  1  0.890500  0.546800  0.716240  1.0  0.2746
  C  C289  1  0.919300  0.526800  0.687630  1.0  -0.049
  C  C290  1  0.971700  0.489400  0.689360  1.0  -0.1495
  C  C291  1  0.997300  0.468100  0.655950  1.0  0.7065
  C  C292  1  0.997900  0.477500  0.719320  1.0  0.0108
  C  C293  1  0.970400  0.499200  0.747960  1.0  -0.1681
  C  C294  1  0.917000  0.535100  0.746350  1.0  -0.1942
  C  C295  1  0.996800  0.486000  0.781520  1.0  0.6151
  C  C296  1  0.887300  0.790500  0.733300  1.0  0.2102
  C  C297  1  0.907000  0.819300  0.761980  1.0  -0.0908
  C  C298  1  0.935000  0.877300  0.760590  1.0  -0.1526
  C  C299  1  0.953300  0.903800  0.793200  1.0  0.6454
  C  C300  1  0.943900  0.909000  0.730410  1.0  0.0116
  C  C301  1  0.926100  0.879200  0.701700  1.0  -0.1079
  C  C302  1  0.896300  0.822100  0.703220  1.0  -0.1467
  C  C303  1  0.936500  0.907500  0.668700  1.0  0.6869
  C  C304  1  0.227500  0.330400  0.229210  1.0  -0.0114
  C  C305  1  0.255000  0.303000  0.259470  1.0  0.0768
  C  C306  1  0.188100  0.385900  0.239630  1.0  0.0498
  C  C307  1  0.186600  0.283100  0.212950  1.0  0.0909
  C  C308  1  0.276000  0.348100  0.204100  1.0  0.0498
  C  C309  1  0.362200  0.303600  0.177840  1.0  0.3277
  C  C310  1  0.393400  0.249300  0.169850  1.0  -0.0213
  C  C311  1  0.448400  0.251900  0.152030  1.0  -0.12
  C  C312  1  0.481700  0.186200  0.147220  1.0  0.6443
  C  C313  1  0.470500  0.305900  0.139790  1.0  0.0139
  C  C314  1  0.438500  0.360300  0.146640  1.0  -0.1065
  C  C315  1  0.385300  0.358600  0.165860  1.0  -0.145
  C  C316  1  0.460700  0.420000  0.136400  1.0  0.6977
  C  C317  1  0.327000  0.331900  0.302680  1.0  0.3163
  C  C318  1  0.330400  0.272300  0.315570  1.0  -0.0959
  C  C319  1  0.365800  0.261100  0.343440  1.0  -0.1752
  C  C320  1  0.371600  0.192200  0.358700  1.0  0.4224
  C  C321  1  0.396100  0.309000  0.357030  1.0  0.02
  C  C322  1  0.391900  0.369200  0.344930  1.0  -0.1636
  C  C323  1  0.356700  0.381200  0.317080  1.0  -0.1403
  C  C324  1  0.424800  0.423700  0.359870  1.0  0.7188
  C  C325  1  0.109500  0.453200  0.216240  1.0  0.2751
  C  C326  1  0.080700  0.473200  0.187630  1.0  -0.0487
  C  C327  1  0.028300  0.510600  0.189360  1.0  -0.149
  C  C328  1  0.002700  0.531900  0.155950  1.0  0.7067
  C  C329  1  0.002100  0.522500  0.219320  1.0  0.0112
  C  C330  1  0.029600  0.500800  0.247960  1.0  -0.1671
  C  C331  1  0.083000  0.464900  0.246350  1.0  -0.1934
  C  C332  1  0.003200  0.514000  0.281520  1.0  0.6144
  C  C333  1  0.112700  0.209500  0.233300  1.0  0.2091
  C  C334  1  0.093000  0.180700  0.261980  1.0  -0.0905
  C  C335  1  0.065000  0.122700  0.260590  1.0  -0.1521
  C  C336  1  0.046700  0.096200  0.293200  1.0  0.645
  C  C337  1  0.056100  0.091000  0.230410  1.0  0.0117
  C  C338  1  0.073900  0.120800  0.201700  1.0  -0.1086
  C  C339  1  0.103700  0.177900  0.203220  1.0  -0.1471
  C  C340  1  0.063500  0.092500  0.168700  1.0  0.6881
  C  C341  1  0.330400  0.227500  0.770790  1.0  -0.0111
  C  C342  1  0.303000  0.255000  0.740530  1.0  0.0791
  C  C343  1  0.385900  0.188100  0.760370  1.0  0.0538
  C  C344  1  0.283100  0.186600  0.787050  1.0  0.0876
  C  C345  1  0.348100  0.276000  0.795900  1.0  0.0521
  C  C346  1  0.303600  0.362200  0.822160  1.0  0.327
  C  C347  1  0.249300  0.393400  0.830150  1.0  -0.0206
  C  C348  1  0.251900  0.448400  0.847970  1.0  -0.1201
  C  C349  1  0.186200  0.481700  0.852780  1.0  0.6441
  C  C350  1  0.305900  0.470500  0.860210  1.0  0.0147
  C  C351  1  0.360300  0.438500  0.853360  1.0  -0.1073
  C  C352  1  0.358600  0.385300  0.834140  1.0  -0.1471
  C  C353  1  0.420000  0.460700  0.863600  1.0  0.6981
  C  C354  1  0.331900  0.327000  0.697320  1.0  0.3146
  C  C355  1  0.272300  0.330400  0.684430  1.0  -0.0955
  C  C356  1  0.261100  0.365800  0.656560  1.0  -0.1789
  C  C357  1  0.192200  0.371600  0.641300  1.0  0.4264
  C  C358  1  0.309000  0.396100  0.642970  1.0  0.02
  C  C359  1  0.369200  0.391900  0.655070  1.0  -0.1631
  C  C360  1  0.381200  0.356700  0.682920  1.0  -0.1394
  C  C361  1  0.423700  0.424800  0.640130  1.0  0.7183
  C  C362  1  0.453200  0.109500  0.783760  1.0  0.2729
  C  C363  1  0.473200  0.080700  0.812370  1.0  -0.0495
  C  C364  1  0.510600  0.028300  0.810640  1.0  -0.1506
  C  C365  1  0.531900  0.002700  0.844050  1.0  0.7071
  C  C366  1  0.522500  0.002100  0.780680  1.0  0.0108
  C  C367  1  0.500800  0.029600  0.752040  1.0  -0.1686
  C  C368  1  0.464900  0.083000  0.753650  1.0  -0.1939
  C  C369  1  0.514000  0.003200  0.718480  1.0  0.6138
  C  C370  1  0.209500  0.112700  0.766700  1.0  0.2098
  C  C371  1  0.180700  0.093000  0.738020  1.0  -0.0903
  C  C372  1  0.122700  0.065000  0.739410  1.0  -0.1519
  C  C373  1  0.096200  0.046700  0.706800  1.0  0.6433
  C  C374  1  0.091000  0.056100  0.769590  1.0  0.0081
  C  C375  1  0.120800  0.073900  0.798300  1.0  -0.1095
  C  C376  1  0.177900  0.103700  0.796780  1.0  -0.1461
  C  C377  1  0.092500  0.063500  0.831300  1.0  0.6863
  C  C378  1  0.669600  0.772500  0.270790  1.0  -0.0112
  C  C379  1  0.697000  0.745000  0.240530  1.0  0.0778
  C  C380  1  0.614100  0.811900  0.260370  1.0  0.0516
  C  C381  1  0.716900  0.813400  0.287050  1.0  0.0869
  C  C382  1  0.651900  0.724000  0.295900  1.0  0.0528
  C  C383  1  0.696400  0.637800  0.322160  1.0  0.3267
  C  C384  1  0.750700  0.606600  0.330150  1.0  -0.0214
  C  C385  1  0.748100  0.551600  0.347970  1.0  -0.1209
  C  C386  1  0.813800  0.518300  0.352780  1.0  0.6433
  C  C387  1  0.694100  0.529500  0.360210  1.0  0.0142
  C  C388  1  0.639700  0.561500  0.353360  1.0  -0.1069
  C  C389  1  0.641400  0.614700  0.334140  1.0  -0.1433
  C  C390  1  0.580000  0.539300  0.363600  1.0  0.6966
  C  C391  1  0.668100  0.673000  0.197320  1.0  0.3135
  C  C392  1  0.727700  0.669600  0.184430  1.0  -0.0949
  C  C393  1  0.738900  0.634200  0.156560  1.0  -0.1788
  C  C394  1  0.807800  0.628400  0.141300  1.0  0.427
  C  C395  1  0.691000  0.603900  0.142970  1.0  0.0187
  C  C396  1  0.630800  0.608100  0.155070  1.0  -0.1633
  C  C397  1  0.618800  0.643300  0.182920  1.0  -0.1394
  C  C398  1  0.576300  0.575200  0.140130  1.0  0.7176
  C  C399  1  0.546800  0.890500  0.283760  1.0  0.2723
  C  C400  1  0.526800  0.919300  0.312370  1.0  -0.0482
  C  C401  1  0.489400  0.971700  0.310640  1.0  -0.1507
  C  C402  1  0.468100  0.997300  0.344050  1.0  0.7061
  C  C403  1  0.477500  0.997900  0.280680  1.0  0.0102
  C  C404  1  0.499200  0.970400  0.252040  1.0  -0.1674
  C  C405  1  0.535100  0.917000  0.253650  1.0  -0.1929
  C  C406  1  0.486000  0.996800  0.218480  1.0  0.6137
  C  C407  1  0.790500  0.887300  0.266700  1.0  0.2113
  C  C408  1  0.819300  0.907000  0.238020  1.0  -0.0907
  C  C409  1  0.877300  0.935000  0.239410  1.0  -0.1514
  C  C410  1  0.903800  0.953300  0.206800  1.0  0.6438
  C  C411  1  0.909000  0.943900  0.269590  1.0  0.0072
  C  C412  1  0.879200  0.926100  0.298300  1.0  -0.1091
  C  C413  1  0.822100  0.896300  0.296780  1.0  -0.1467
  C  C414  1  0.907500  0.936500  0.331300  1.0  0.6879
  C  C415  1  0.727500  0.169600  0.520790  1.0  -0.0112
  C  C416  1  0.755000  0.197000  0.490530  1.0  0.0746
  C  C417  1  0.688100  0.114100  0.510370  1.0  0.0502
  C  C418  1  0.686600  0.216900  0.537050  1.0  0.0876
  C  C419  1  0.776000  0.151900  0.545900  1.0  0.05
  C  C420  1  0.862200  0.196400  0.572160  1.0  0.328
  C  C421  1  0.893400  0.250700  0.580150  1.0  -0.0237
  C  C422  1  0.948400  0.248100  0.597970  1.0  -0.1207
  C  C423  1  0.981700  0.313800  0.602780  1.0  0.6439
  C  C424  1  0.970500  0.194100  0.610210  1.0  0.0141
  C  C425  1  0.938500  0.139700  0.603360  1.0  -0.1064
  C  C426  1  0.885300  0.141400  0.584140  1.0  -0.1448
  C  C427  1  0.960700  0.080000  0.613600  1.0  0.6984
  C  C428  1  0.827000  0.168100  0.447320  1.0  0.315
  C  C429  1  0.830400  0.227700  0.434430  1.0  -0.096
  C  C430  1  0.865800  0.238900  0.406560  1.0  -0.1759
  C  C431  1  0.871600  0.307800  0.391300  1.0  0.4251
  C  C432  1  0.896100  0.191000  0.392970  1.0  0.0192
  C  C433  1  0.891900  0.130800  0.405070  1.0  -0.1636
  C  C434  1  0.856700  0.118800  0.432920  1.0  -0.1386
  C  C435  1  0.924800  0.076300  0.390130  1.0  0.7187
  C  C436  1  0.609500  0.046800  0.533760  1.0  0.2732
  C  C437  1  0.580700  0.026800  0.562370  1.0  -0.0482
  C  C438  1  0.528300  0.989400  0.560640  1.0  -0.1519
  C  C439  1  0.502700  0.968100  0.594050  1.0  0.7035
  C  C440  1  0.502100  0.977500  0.530680  1.0  0.016
  C  C441  1  0.529600  0.999200  0.502040  1.0  -0.1679
  C  C442  1  0.583000  0.035100  0.503650  1.0  -0.1898
  C  C443  1  0.503200  0.986000  0.468480  1.0  0.6134
  C  C444  1  0.612700  0.290500  0.516700  1.0  0.2089
  C  C445  1  0.593000  0.319300  0.488020  1.0  -0.0915
  C  C446  1  0.565000  0.377300  0.489410  1.0  -0.1515
  C  C447  1  0.546700  0.403800  0.456800  1.0  0.6439
  C  C448  1  0.556100  0.409000  0.519590  1.0  0.012
  C  C449  1  0.573900  0.379200  0.548300  1.0  -0.1088
  C  C450  1  0.603700  0.322100  0.546780  1.0  -0.1474
  C  C451  1  0.563500  0.407500  0.581300  1.0  0.6895
  C  C452  1  0.272500  0.830400  0.020790  1.0  -0.0114
  C  C453  1  0.245000  0.803000  0.990530  1.0  0.0763
  C  C454  1  0.311900  0.885900  0.010370  1.0  0.0496
  C  C455  1  0.313400  0.783100  0.037050  1.0  0.0872
  C  C456  1  0.224000  0.848100  0.045900  1.0  0.0499
  C  C457  1  0.137800  0.803600  0.072160  1.0  0.3271
  C  C458  1  0.106600  0.749300  0.080150  1.0  -0.0207
  C  C459  1  0.051600  0.751900  0.097970  1.0  -0.114
  C  C460  1  0.018300  0.686200  0.102780  1.0  0.6442
  C  C461  1  0.029500  0.805900  0.110210  1.0  0.0133
  C  C462  1  0.061500  0.860300  0.103360  1.0  -0.1166
  C  C463  1  0.114700  0.858600  0.084140  1.0  -0.1452
  C  C464  1  0.039300  0.920000  0.113600  1.0  0.6972
  C  C465  1  0.173000  0.831900  0.947320  1.0  0.3151
  C  C466  1  0.169600  0.772300  0.934430  1.0  -0.0941
  C  C467  1  0.134200  0.761100  0.906560  1.0  -0.1761
  C  C468  1  0.128400  0.692200  0.891300  1.0  0.4224
  C  C469  1  0.103900  0.809000  0.892970  1.0  0.0205
  C  C470  1  0.108100  0.869200  0.905070  1.0  -0.1629
  C  C471  1  0.143300  0.881200  0.932920  1.0  -0.1393
  C  C472  1  0.075200  0.923700  0.890130  1.0  0.7189
  C  C473  1  0.390500  0.953200  0.033760  1.0  0.2731
  C  C474  1  0.419300  0.973200  0.062370  1.0  -0.0486
  C  C475  1  0.471700  0.010600  0.060640  1.0  -0.1527
  C  C476  1  0.497300  0.031900  0.094050  1.0  0.7043
  C  C477  1  0.497900  0.022500  0.030680  1.0  0.015
  C  C478  1  0.470400  0.000800  0.002040  1.0  -0.1681
  C  C479  1  0.417000  0.964900  0.003650  1.0  -0.1914
  C  C480  1  0.496800  0.014000  0.968480  1.0  0.6133
  C  C481  1  0.387300  0.709500  0.016700  1.0  0.21
  C  C482  1  0.407000  0.680700  0.988020  1.0  -0.0914
  C  C483  1  0.435000  0.622700  0.989410  1.0  -0.1522
  C  C484  1  0.453300  0.596200  0.956800  1.0  0.6439
  C  C485  1  0.443900  0.591000  0.019590  1.0  0.0124
  C  C486  1  0.426100  0.620800  0.048300  1.0  -0.1092
  C  C487  1  0.396300  0.677900  0.046780  1.0  -0.1478
  C  C488  1  0.436500  0.592500  0.081300  1.0  0.6878
  O  O489  1  0.362300  0.958100  0.408010  1.0  -0.6063
  O  O490  1  0.307300  0.036600  0.382680  1.0  -0.5739
  O  O491  1  0.995800  0.530200  0.556680  1.0  -0.5609
  O  O492  1  0.969200  0.447300  0.532260  1.0  -0.6166
  O  O493  1  0.078200  0.005200  0.365090  1.0  -0.6238
  O  O494  1  0.030800  0.937800  0.396310  1.0  -0.6942
  O  O495  1  0.379500  0.554400  0.568020  1.0  -0.5112
  O  O496  1  0.459100  0.522500  0.540770  1.0  -0.5685
  O  O497  1  0.927400  0.458300  0.409500  1.0  -0.6018
  O  O498  1  0.982000  0.527600  0.380190  1.0  -0.5682
  O  O499  1  0.086900  0.954600  0.636160  1.0  -0.6147
  O  O500  1  0.025200  0.919500  0.595920  1.0  -0.6147
  O  O501  1  0.383000  0.579600  0.392430  1.0  -0.611
  O  O502  1  0.458700  0.543200  0.418420  1.0  -0.6327
  O  O503  1  0.344500  0.843600  0.595410  1.0  -0.5239
  O  O504  1  0.316300  0.900100  0.631020  1.0  -0.5337
  O  O505  1  0.204500  0.809800  0.445260  1.0  -0.2697
  O  O506  1  0.153000  0.793800  0.525450  1.0  -0.2872
  O  O507  1  0.233600  0.640000  0.486530  1.0  -0.2934
  O  O508  1  0.086400  0.659600  0.461680  1.0  -0.2713
  O  O509  1  0.637700  0.041900  0.908010  1.0  -0.6062
  O  O510  1  0.692700  0.963400  0.882680  1.0  -0.5752
  O  O511  1  0.004200  0.469800  0.056680  1.0  -0.5607
  O  O512  1  0.030800  0.552700  0.032260  1.0  -0.6148
  O  O513  1  0.921800  0.994800  0.865090  1.0  -0.6239
  O  O514  1  0.969200  0.062200  0.896310  1.0  -0.6971
  O  O515  1  0.620500  0.445600  0.068020  1.0  -0.5115
  O  O516  1  0.540900  0.477500  0.040770  1.0  -0.5675
  O  O517  1  0.072600  0.541700  0.909500  1.0  -0.6019
  O  O518  1  0.018000  0.472400  0.880190  1.0  -0.568
  O  O519  1  0.913100  0.045400  0.136160  1.0  -0.6149
  O  O520  1  0.974800  0.080500  0.095920  1.0  -0.6158
  O  O521  1  0.617000  0.420400  0.892430  1.0  -0.611
  O  O522  1  0.541300  0.456800  0.918420  1.0  -0.635
  O  O523  1  0.655500  0.156400  0.095410  1.0  -0.5234
  O  O524  1  0.683700  0.099900  0.131020  1.0  -0.5334
  O  O525  1  0.795500  0.190200  0.945260  1.0  -0.2703
  O  O526  1  0.847000  0.206200  0.025450  1.0  -0.2879
  O  O527  1  0.766400  0.360000  0.986530  1.0  -0.2927
  O  O528  1  0.913600  0.340400  0.961680  1.0  -0.2722
  O  O529  1  0.541900  0.862300  0.658010  1.0  -0.6063
  O  O530  1  0.463400  0.807300  0.632680  1.0  -0.5732
  O  O531  1  0.969800  0.495800  0.806680  1.0  -0.5597
  O  O532  1  0.052700  0.469200  0.782260  1.0  -0.6103
  O  O533  1  0.494800  0.578200  0.615090  1.0  -0.6231
  O  O534  1  0.562200  0.530800  0.646310  1.0  -0.6963
  O  O535  1  0.945600  0.879500  0.818020  1.0  -0.5115
  O  O536  1  0.977500  0.959100  0.790770  1.0  -0.5699
  O  O537  1  0.041700  0.427400  0.659500  1.0  -0.6036
  O  O538  1  0.972400  0.482000  0.630190  1.0  -0.5684
  O  O539  1  0.545400  0.586900  0.886160  1.0  -0.6147
  O  O540  1  0.580500  0.525200  0.845920  1.0  -0.6167
  O  O541  1  0.920400  0.883000  0.642430  1.0  -0.6111
  O  O542  1  0.956800  0.958700  0.668420  1.0  -0.6369
  O  O543  1  0.656400  0.844500  0.845410  1.0  -0.5233
  O  O544  1  0.599900  0.816300  0.881020  1.0  -0.5342
  O  O545  1  0.690200  0.704500  0.695260  1.0  -0.2677
  O  O546  1  0.706200  0.653000  0.775450  1.0  -0.2882
  O  O547  1  0.860000  0.733600  0.736530  1.0  -0.2927
  O  O548  1  0.840400  0.586400  0.711680  1.0  -0.2737
  O  O549  1  0.458100  0.137700  0.158010  1.0  -0.6057
  O  O550  1  0.536600  0.192700  0.132680  1.0  -0.5731
  O  O551  1  0.030200  0.504200  0.306680  1.0  -0.5592
  O  O552  1  0.947300  0.530800  0.282260  1.0  -0.6124
  O  O553  1  0.505200  0.421800  0.115090  1.0  -0.6232
  O  O554  1  0.437800  0.469200  0.146310  1.0  -0.6957
  O  O555  1  0.054400  0.120500  0.318020  1.0  -0.5115
  O  O556  1  0.022500  0.040900  0.290770  1.0  -0.5699
  O  O557  1  0.958300  0.572600  0.159500  1.0  -0.6026
  O  O558  1  0.027600  0.518000  0.130190  1.0  -0.5675
  O  O559  1  0.454600  0.413100  0.386160  1.0  -0.6141
  O  O560  1  0.419500  0.474800  0.345920  1.0  -0.6168
  O  O561  1  0.079600  0.117000  0.142430  1.0  -0.6128
  O  O562  1  0.043200  0.041300  0.168420  1.0  -0.6369
  O  O563  1  0.343600  0.155500  0.345410  1.0  -0.5245
  O  O564  1  0.400100  0.183700  0.381020  1.0  -0.5341
  O  O565  1  0.309800  0.295500  0.195260  1.0  -0.2704
  O  O566  1  0.293800  0.347000  0.275450  1.0  -0.2865
  O  O567  1  0.140000  0.266400  0.236530  1.0  -0.2913
  O  O568  1  0.159600  0.413600  0.211680  1.0  -0.2752
  O  O569  1  0.137700  0.458100  0.841990  1.0  -0.6043
  O  O570  1  0.192700  0.536600  0.867320  1.0  -0.5736
  O  O571  1  0.504200  0.030200  0.693320  1.0  -0.5614
  O  O572  1  0.530800  0.947300  0.717740  1.0  -0.6124
  O  O573  1  0.421800  0.505200  0.884910  1.0  -0.6244
  O  O574  1  0.469200  0.437800  0.853690  1.0  -0.6961
  O  O575  1  0.120500  0.054400  0.681980  1.0  -0.5107
  O  O576  1  0.040900  0.022500  0.709230  1.0  -0.5677
  O  O577  1  0.572600  0.958300  0.840500  1.0  -0.6024
  O  O578  1  0.518000  0.027600  0.869810  1.0  -0.569
  O  O579  1  0.413100  0.454600  0.613840  1.0  -0.6153
  O  O580  1  0.474800  0.419500  0.654080  1.0  -0.6159
  O  O581  1  0.117000  0.079600  0.857570  1.0  -0.61
  O  O582  1  0.041300  0.043200  0.831580  1.0  -0.6358
  O  O583  1  0.155500  0.343600  0.654590  1.0  -0.5236
  O  O584  1  0.183700  0.400100  0.618980  1.0  -0.535
  O  O585  1  0.295500  0.309800  0.804740  1.0  -0.2695
  O  O586  1  0.347000  0.293800  0.724550  1.0  -0.2877
  O  O587  1  0.266400  0.140000  0.763470  1.0  -0.2944
  O  O588  1  0.413600  0.159600  0.788320  1.0  -0.2708
  O  O589  1  0.862300  0.541900  0.341990  1.0  -0.6048
  O  O590  1  0.807300  0.463400  0.367320  1.0  -0.575
  O  O591  1  0.495800  0.969800  0.193320  1.0  -0.5592
  O  O592  1  0.469200  0.052700  0.217740  1.0  -0.6121
  O  O593  1  0.578200  0.494800  0.384910  1.0  -0.6236
  O  O594  1  0.530800  0.562200  0.353690  1.0  -0.6955
  O  O595  1  0.879500  0.945600  0.181980  1.0  -0.5098
  O  O596  1  0.959100  0.977500  0.209230  1.0  -0.5681
  O  O597  1  0.427400  0.041700  0.340500  1.0  -0.6018
  O  O598  1  0.482000  0.972400  0.369810  1.0  -0.569
  O  O599  1  0.586900  0.545400  0.113840  1.0  -0.6154
  O  O600  1  0.525200  0.580500  0.154080  1.0  -0.6163
  O  O601  1  0.883000  0.920400  0.357570  1.0  -0.6103
  O  O602  1  0.958700  0.956800  0.331580  1.0  -0.6331
  O  O603  1  0.844500  0.656400  0.154590  1.0  -0.5223
  O  O604  1  0.816300  0.599900  0.118980  1.0  -0.5354
  O  O605  1  0.704500  0.690200  0.304740  1.0  -0.269
  O  O606  1  0.653000  0.706200  0.224550  1.0  -0.2886
  O  O607  1  0.733600  0.860000  0.263470  1.0  -0.2932
  O  O608  1  0.586400  0.840400  0.288320  1.0  -0.2695
  O  O609  1  0.958100  0.362300  0.591990  1.0  -0.6055
  O  O610  1  0.036600  0.307300  0.617320  1.0  -0.5734
  O  O611  1  0.530200  0.995800  0.443320  1.0  -0.5588
  O  O612  1  0.447300  0.969200  0.467740  1.0  -0.6147
  O  O613  1  0.005200  0.078200  0.634910  1.0  -0.6231
  O  O614  1  0.937800  0.030800  0.603690  1.0  -0.6947
  O  O615  1  0.554400  0.379500  0.431980  1.0  -0.5106
  O  O616  1  0.522500  0.459100  0.459230  1.0  -0.569
  O  O617  1  0.458300  0.927400  0.590500  1.0  -0.6038
  O  O618  1  0.527600  0.982000  0.619810  1.0  -0.5685
  O  O619  1  0.954600  0.086900  0.363840  1.0  -0.6154
  O  O620  1  0.919500  0.025200  0.404080  1.0  -0.6187
  O  O621  1  0.579600  0.383000  0.607570  1.0  -0.6099
  O  O622  1  0.543200  0.458700  0.581580  1.0  -0.6374
  O  O623  1  0.843600  0.344500  0.404590  1.0  -0.5223
  O  O624  1  0.900100  0.316300  0.368980  1.0  -0.5361
  O  O625  1  0.809800  0.204500  0.554740  1.0  -0.2674
  O  O626  1  0.793800  0.153000  0.474550  1.0  -0.2876
  O  O627  1  0.640000  0.233600  0.513470  1.0  -0.2943
  O  O628  1  0.659600  0.086400  0.538320  1.0  -0.2729
  O  O629  1  0.041900  0.637700  0.091990  1.0  -0.6044
  O  O630  1  0.963400  0.692700  0.117320  1.0  -0.5753
  O  O631  1  0.469800  0.004200  0.943320  1.0  -0.5583
  O  O632  1  0.552700  0.030800  0.967740  1.0  -0.6129
  O  O633  1  0.994800  0.921800  0.134910  1.0  -0.6233
  O  O634  1  0.062200  0.969200  0.103690  1.0  -0.6957
  O  O635  1  0.445600  0.620500  0.931980  1.0  -0.51
  O  O636  1  0.477500  0.540900  0.959230  1.0  -0.5703
  O  O637  1  0.541700  0.072600  0.090500  1.0  -0.6032
  O  O638  1  0.472400  0.018000  0.119810  1.0  -0.5697
  O  O639  1  0.045400  0.913100  0.863840  1.0  -0.6143
  O  O640  1  0.080500  0.974800  0.904080  1.0  -0.6172
  O  O641  1  0.420400  0.617000  0.107570  1.0  -0.6105
  O  O642  1  0.456800  0.541300  0.081580  1.0  -0.6358
  O  O643  1  0.156400  0.655500  0.904590  1.0  -0.5237
  O  O644  1  0.099900  0.683700  0.868980  1.0  -0.535
  O  O645  1  0.190200  0.795500  0.054740  1.0  -0.2702
  O  O646  1  0.206200  0.847000  0.974550  1.0  -0.2871
  O  O647  1  0.360000  0.766400  0.013470  1.0  -0.2916
  O  O648  1  0.340400  0.913600  0.038320  1.0  -0.2712
