# generated using pymatgen
data_Zn5H20C37O21
_symmetry_space_group_name_H-M   'P 1'
_cell_length_a   21.88300000
_cell_length_b   21.88300000
_cell_length_c   40.18400000
_cell_angle_alpha   90.00000000
_cell_angle_beta   90.00000000
_cell_angle_gamma   90.00000000
_symmetry_Int_Tables_number   1
_chemical_formula_structural   Zn5H20C37O21
_chemical_formula_sum   'Zn40 H160 C296 O168'
_cell_volume   19242.73884678
_cell_formula_units_Z   8
loop_
 _symmetry_equiv_pos_site_id
 _symmetry_equiv_pos_as_xyz
  1  'x, y, z'
loop_
 _atom_site_type_symbol
 _atom_site_label
 _atom_site_symmetry_multiplicity
 _atom_site_fract_x
 _atom_site_fract_y
 _atom_site_fract_z
 _atom_site_occupancy
 _atom_site_charge
  Zn  Zn1  1  0.818150  0.989710  0.714230  1.0  1.0892
  Zn  Zn2  1  0.262480  0.431030  0.964850  1.0  1.0674
  Zn  Zn3  1  0.779670  0.343230  0.710250  1.0  1.0891
  Zn  Zn4  1  0.193450  0.517650  0.025360  1.0  1.0608
  Zn  Zn5  1  0.740440  0.913810  0.773890  1.0  1.0397
  Zn  Zn6  1  0.190750  0.927630  0.989540  1.0  1.1031
  Zn  Zn7  1  0.629810  0.466690  0.967050  1.0  1.0982
  Zn  Zn8  1  0.200240  0.969730  0.744380  1.0  1.0606
  Zn  Zn9  1  0.655600  0.395630  0.744460  1.0  1.046
  Zn  Zn10  1  0.749170  0.422990  0.011510  1.0  0.9855
  Zn  Zn11  1  0.681850  0.010290  0.214230  1.0  1.0892
  Zn  Zn12  1  0.237520  0.568970  0.464850  1.0  1.0677
  Zn  Zn13  1  0.720330  0.656770  0.210250  1.0  1.089
  Zn  Zn14  1  0.306550  0.482350  0.525360  1.0  1.059
  Zn  Zn15  1  0.759560  0.086190  0.273890  1.0  1.0396
  Zn  Zn16  1  0.309250  0.072370  0.489540  1.0  1.1021
  Zn  Zn17  1  0.870190  0.533310  0.467050  1.0  1.099
  Zn  Zn18  1  0.299760  0.030270  0.244380  1.0  1.061
  Zn  Zn19  1  0.844400  0.604370  0.244460  1.0  1.048
  Zn  Zn20  1  0.750830  0.577010  0.511510  1.0  0.9871
  Zn  Zn21  1  0.181850  0.489710  0.785770  1.0  1.0885
  Zn  Zn22  1  0.737520  0.931030  0.535150  1.0  1.0675
  Zn  Zn23  1  0.220330  0.843230  0.789750  1.0  1.0893
  Zn  Zn24  1  0.806550  0.017650  0.474640  1.0  1.0563
  Zn  Zn25  1  0.259560  0.413810  0.726110  1.0  1.0413
  Zn  Zn26  1  0.809250  0.427630  0.510460  1.0  1.1037
  Zn  Zn27  1  0.370190  0.966690  0.532950  1.0  1.0994
  Zn  Zn28  1  0.799760  0.469730  0.755620  1.0  1.0612
  Zn  Zn29  1  0.344400  0.895630  0.755540  1.0  1.048
  Zn  Zn30  1  0.250830  0.922990  0.488490  1.0  0.9861
  Zn  Zn31  1  0.318150  0.510290  0.285770  1.0  1.0886
  Zn  Zn32  1  0.762480  0.068970  0.035150  1.0  1.0669
  Zn  Zn33  1  0.279670  0.156770  0.289750  1.0  1.0899
  Zn  Zn34  1  0.693450  0.982350  0.974640  1.0  1.0613
  Zn  Zn35  1  0.240440  0.586190  0.226110  1.0  1.0398
  Zn  Zn36  1  0.690750  0.572370  0.010460  1.0  1.1036
  Zn  Zn37  1  0.129810  0.033310  0.032950  1.0  1.0991
  Zn  Zn38  1  0.700240  0.530270  0.255620  1.0  1.061
  Zn  Zn39  1  0.155600  0.104370  0.255540  1.0  1.0464
  Zn  Zn40  1  0.249170  0.077010  0.988490  1.0  0.9872
  H  H41  1  0.262600  0.408200  0.852800  1.0  0.082
  H  H42  1  0.371800  0.286000  0.896700  1.0  0.1152
  H  H43  1  0.350700  0.289600  0.796400  1.0  0.1108
  H  H44  1  0.464400  0.248700  0.876300  1.0  0.0492
  H  H45  1  0.416500  0.198700  0.886800  1.0  0.0626
  H  H46  1  0.560700  0.120900  0.880900  1.0  0.057
  H  H47  1  0.508800  0.137200  0.906600  1.0  0.0542
  H  H48  1  0.544700  0.219300  0.832500  1.0  0.0566
  H  H49  1  0.494200  0.190600  0.809500  1.0  0.0646
  H  H50  1  0.611900  0.122200  0.930900  1.0  0.1152
  H  H51  1  0.705100  0.235200  0.991700  1.0  0.1135
  H  H52  1  0.593000  0.302400  0.921800  1.0  0.1148
  H  H53  1  0.631500  0.057600  0.796800  1.0  0.123
  H  H54  1  0.735900  0.161600  0.736700  1.0  0.1091
  H  H55  1  0.593700  0.234300  0.784600  1.0  0.114
  H  H56  1  0.389000  0.009900  0.832700  1.0  0.1003
  H  H57  1  0.477800  0.073300  0.844600  1.0  0.0543
  H  H58  1  0.421000  0.112700  0.833700  1.0  0.0559
  H  H59  1  0.362300  0.050100  0.929500  1.0  0.1219
  H  H60  1  0.269000  0.916700  0.887000  1.0  0.1053
  H  H61  1  0.714500  0.503700  0.880400  1.0  0.0964
  H  H62  1  0.800800  0.634600  0.928100  1.0  0.1132
  H  H63  1  0.847200  0.597200  0.833400  1.0  0.132
  H  H64  1  0.852200  0.734200  0.910300  1.0  0.0631
  H  H65  1  0.893700  0.680900  0.923800  1.0  0.0583
  H  H66  1  0.895600  0.813100  0.873900  1.0  0.0574
  H  H67  1  0.912600  0.761300  0.848400  1.0  0.0539
  H  H68  1  0.889200  0.861600  0.821400  1.0  0.1169
  H  H69  1  0.993000  0.948200  0.754600  1.0  0.1148
  H  H70  1  0.072300  0.855100  0.830300  1.0  0.116
  H  H71  1  0.027300  0.725600  0.876200  1.0  0.0529
  H  H72  1  0.978700  0.676000  0.865900  1.0  0.0516
  H  H73  1  0.060400  0.623700  0.855400  1.0  0.1033
  H  H74  1  0.173500  0.503300  0.895100  1.0  0.096
  H  H75  1  0.068800  0.607100  0.954300  1.0  0.1135
  H  H76  1  0.838300  0.883600  0.958200  1.0  0.1114
  H  H77  1  0.999900  0.806700  0.919000  1.0  0.0657
  H  H78  1  0.980700  0.752900  0.942900  1.0  0.0668
  H  H79  1  0.019000  0.855300  0.964400  1.0  0.1149
  H  H80  1  0.945800  0.996600  0.012400  1.0  0.1012
  H  H81  1  0.237400  0.591800  0.352800  1.0  0.0819
  H  H82  1  0.128200  0.714000  0.396700  1.0  0.1148
  H  H83  1  0.149300  0.710400  0.296400  1.0  0.1111
  H  H84  1  0.035600  0.751300  0.376300  1.0  0.0494
  H  H85  1  0.083500  0.801300  0.386800  1.0  0.0627
  H  H86  1  0.939300  0.879100  0.380900  1.0  0.0562
  H  H87  1  0.991200  0.862800  0.406600  1.0  0.0541
  H  H88  1  0.955300  0.780700  0.332500  1.0  0.0566
  H  H89  1  0.005800  0.809400  0.309500  1.0  0.0639
  H  H90  1  0.888100  0.877800  0.430900  1.0  0.1139
  H  H91  1  0.794900  0.764800  0.491700  1.0  0.1147
  H  H92  1  0.907000  0.697600  0.421800  1.0  0.1142
  H  H93  1  0.868500  0.942400  0.296800  1.0  0.1236
  H  H94  1  0.764100  0.838400  0.236700  1.0  0.1095
  H  H95  1  0.906300  0.765700  0.284600  1.0  0.1143
  H  H96  1  0.111000  0.990100  0.332700  1.0  0.1006
  H  H97  1  0.022200  0.926700  0.344600  1.0  0.0549
  H  H98  1  0.079000  0.887300  0.333700  1.0  0.0552
  H  H99  1  0.137700  0.949900  0.429500  1.0  0.1217
  H  H100  1  0.231000  0.083300  0.387000  1.0  0.1057
  H  H101  1  0.785500  0.496300  0.380400  1.0  0.0969
  H  H102  1  0.699200  0.365400  0.428100  1.0  0.1136
  H  H103  1  0.652800  0.402800  0.333400  1.0  0.1313
  H  H104  1  0.647800  0.265800  0.410300  1.0  0.064
  H  H105  1  0.606300  0.319100  0.423800  1.0  0.0578
  H  H106  1  0.604400  0.186900  0.373900  1.0  0.0575
  H  H107  1  0.587400  0.238700  0.348400  1.0  0.0548
  H  H108  1  0.610800  0.138400  0.321400  1.0  0.1172
  H  H109  1  0.507000  0.051800  0.254600  1.0  0.1145
  H  H110  1  0.427700  0.144900  0.330300  1.0  0.1161
  H  H111  1  0.472700  0.274400  0.376200  1.0  0.0524
  H  H112  1  0.521300  0.324000  0.365900  1.0  0.0516
  H  H113  1  0.439600  0.376300  0.355400  1.0  0.1037
  H  H114  1  0.326500  0.496700  0.395100  1.0  0.094
  H  H115  1  0.431200  0.392900  0.454300  1.0  0.1137
  H  H116  1  0.661700  0.116400  0.458200  1.0  0.1121
  H  H117  1  0.500100  0.193300  0.419000  1.0  0.0642
  H  H118  1  0.519300  0.247100  0.442900  1.0  0.0671
  H  H119  1  0.481000  0.144700  0.464400  1.0  0.1148
  H  H120  1  0.554200  0.003400  0.512400  1.0  0.1001
  H  H121  1  0.737400  0.908200  0.647200  1.0  0.0819
  H  H122  1  0.628200  0.786000  0.603300  1.0  0.1158
  H  H123  1  0.649300  0.789600  0.703600  1.0  0.1106
  H  H124  1  0.535600  0.748700  0.623700  1.0  0.0489
  H  H125  1  0.583500  0.698700  0.613200  1.0  0.0629
  H  H126  1  0.439300  0.620900  0.619100  1.0  0.0562
  H  H127  1  0.491200  0.637200  0.593400  1.0  0.054
  H  H128  1  0.455300  0.719300  0.667500  1.0  0.0564
  H  H129  1  0.505800  0.690600  0.690500  1.0  0.0651
  H  H130  1  0.388100  0.622200  0.569100  1.0  0.1148
  H  H131  1  0.294900  0.735200  0.508300  1.0  0.1141
  H  H132  1  0.407000  0.802400  0.578200  1.0  0.1135
  H  H133  1  0.368500  0.557600  0.703200  1.0  0.1235
  H  H134  1  0.264100  0.661600  0.763300  1.0  0.1091
  H  H135  1  0.406300  0.734300  0.715400  1.0  0.1142
  H  H136  1  0.611000  0.509900  0.667300  1.0  0.1004
  H  H137  1  0.522200  0.573300  0.655400  1.0  0.0545
  H  H138  1  0.579000  0.612700  0.666300  1.0  0.0552
  H  H139  1  0.637700  0.550100  0.570500  1.0  0.1215
  H  H140  1  0.731000  0.416700  0.613000  1.0  0.1056
  H  H141  1  0.285500  0.003700  0.619600  1.0  0.0963
  H  H142  1  0.199200  0.134600  0.571900  1.0  0.1141
  H  H143  1  0.152800  0.097200  0.666667  1.0  0.13
  H  H144  1  0.147800  0.234200  0.589700  1.0  0.0643
  H  H145  1  0.106300  0.180900  0.576200  1.0  0.0588
  H  H146  1  0.104400  0.313100  0.626100  1.0  0.0577
  H  H147  1  0.087400  0.261300  0.651600  1.0  0.0531
  H  H148  1  0.110800  0.361600  0.678600  1.0  0.1162
  H  H149  1  0.007000  0.448200  0.745400  1.0  0.1162
  H  H150  1  0.927700  0.355100  0.669700  1.0  0.117
  H  H151  1  0.972700  0.225600  0.623800  1.0  0.0528
  H  H152  1  0.021300  0.176000  0.634100  1.0  0.0523
  H  H153  1  0.939600  0.123700  0.644600  1.0  0.1033
  H  H154  1  0.826500  0.003300  0.604900  1.0  0.0957
  H  H155  1  0.931200  0.107100  0.545700  1.0  0.1134
  H  H156  1  0.161700  0.383600  0.541800  1.0  0.1118
  H  H157  1  0.000100  0.306700  0.581000  1.0  0.0645
  H  H158  1  0.019300  0.252900  0.557100  1.0  0.0657
  H  H159  1  0.981000  0.355300  0.535600  1.0  0.1148
  H  H160  1  0.054200  0.496600  0.487600  1.0  0.1009
  H  H161  1  0.762600  0.091800  0.147200  1.0  0.0815
  H  H162  1  0.871800  0.214000  0.103300  1.0  0.1158
  H  H163  1  0.850700  0.210400  0.203600  1.0  0.1108
  H  H164  1  0.964400  0.251300  0.123700  1.0  0.049
  H  H165  1  0.916500  0.301300  0.113200  1.0  0.0621
  H  H166  1  0.060700  0.379100  0.119100  1.0  0.0561
  H  H167  1  0.008800  0.362800  0.093400  1.0  0.0543
  H  H168  1  0.044700  0.280700  0.167500  1.0  0.0566
  H  H169  1  0.994200  0.309400  0.190500  1.0  0.0653
  H  H170  1  0.111900  0.377800  0.069100  1.0  0.1144
  H  H171  1  0.205100  0.264800  0.008300  1.0  0.1138
  H  H172  1  0.093000  0.197600  0.078200  1.0  0.1139
  H  H173  1  0.131500  0.442400  0.203200  1.0  0.124
  H  H174  1  0.235900  0.338400  0.263300  1.0  0.1096
  H  H175  1  0.093700  0.265700  0.215400  1.0  0.1138
  H  H176  1  0.889000  0.490100  0.167300  1.0  0.1001
  H  H177  1  0.977800  0.426700  0.155400  1.0  0.0551
  H  H178  1  0.921000  0.387300  0.166300  1.0  0.0558
  H  H179  1  0.862300  0.449900  0.070500  1.0  0.1218
  H  H180  1  0.769000  0.583300  0.113000  1.0  0.1056
  H  H181  1  0.214500  0.996300  0.119600  1.0  0.097
  H  H182  1  0.300800  0.865400  0.071900  1.0  0.1138
  H  H183  1  0.347200  0.902800  0.166600  1.0  0.1326
  H  H184  1  0.352200  0.765800  0.089700  1.0  0.0618
  H  H185  1  0.393700  0.819100  0.076200  1.0  0.0581
  H  H186  1  0.395600  0.686900  0.126100  1.0  0.0578
  H  H187  1  0.412600  0.738700  0.151600  1.0  0.0542
  H  H188  1  0.389200  0.638400  0.178600  1.0  0.1164
  H  H189  1  0.493000  0.551800  0.245400  1.0  0.1145
  H  H190  1  0.572300  0.644900  0.169700  1.0  0.1169
  H  H191  1  0.527300  0.774400  0.123800  1.0  0.0523
  H  H192  1  0.478700  0.824000  0.134100  1.0  0.0511
  H  H193  1  0.560400  0.876300  0.144600  1.0  0.1032
  H  H194  1  0.673500  0.996700  0.104900  1.0  0.0954
  H  H195  1  0.568800  0.892900  0.045700  1.0  0.1134
  H  H196  1  0.338300  0.616400  0.041800  1.0  0.1113
  H  H197  1  0.499900  0.693300  0.081000  1.0  0.0655
  H  H198  1  0.480700  0.747100  0.057100  1.0  0.0654
  H  H199  1  0.519000  0.644700  0.035600  1.0  0.115
  H  H200  1  0.445800  0.503400  0.987600  1.0  0.0986
  C  C201  1  0.877400  0.926900  0.769240  1.0  0.7406
  C  C202  1  0.727200  0.045100  0.757170  1.0  0.7294
  C  C203  1  0.276500  0.381600  0.789700  1.0  0.6268
  C  C204  1  0.301900  0.352400  0.819670  1.0  -0.1583
  C  C205  1  0.289900  0.375800  0.851010  1.0  0.0081
  C  C206  1  0.315700  0.353900  0.878880  1.0  -0.1569
  C  C207  1  0.355200  0.302400  0.877390  1.0  -0.2156
  C  C208  1  0.368700  0.276600  0.846050  1.0  0.2861
  C  C209  1  0.341200  0.304800  0.817340  1.0  -0.0734
  C  C210  1  0.441800  0.213200  0.868630  1.0  0.0654
  C  C211  1  0.486000  0.163400  0.858030  1.0  -0.0169
  C  C212  1  0.530700  0.151500  0.887100  1.0  0.0696
  C  C213  1  0.521800  0.182300  0.827780  1.0  0.0522
  C  C214  1  0.598400  0.211200  0.920490  1.0  0.287
  C  C215  1  0.622400  0.161800  0.937030  1.0  -0.1296
  C  C216  1  0.663600  0.172600  0.963750  1.0  -0.1297
  C  C217  1  0.677800  0.229300  0.974300  1.0  0.0217
  C  C218  1  0.650800  0.278300  0.958680  1.0  -0.1661
  C  C219  1  0.611200  0.268900  0.932000  1.0  -0.0177
  C  C220  1  0.664300  0.342300  0.970490  1.0  0.6841
  C  C221  1  0.607500  0.146300  0.795260  1.0  0.2847
  C  C222  1  0.641100  0.095200  0.787300  1.0  -0.0628
  C  C223  1  0.689500  0.100000  0.765030  1.0  -0.2052
  C  C224  1  0.702700  0.157100  0.750980  1.0  -0.0541
  C  C225  1  0.666500  0.206000  0.758420  1.0  -0.1292
  C  C226  1  0.618500  0.200700  0.780180  1.0  -0.1191
  C  C227  1  0.680600  0.266500  0.744500  1.0  0.7174
  C  C228  1  0.312100  0.922300  0.823700  1.0  0.7262
  C  C229  1  0.326100  0.959500  0.855070  1.0  -0.1747
  C  C230  1  0.368300  0.004000  0.852620  1.0  -0.1502
  C  C231  1  0.381200  0.041700  0.880120  1.0  0.2719
  C  C232  1  0.450400  0.105800  0.851370  1.0  0.0808
  C  C233  1  0.352700  0.027700  0.910470  1.0  -0.0561
  C  C234  1  0.311100  0.981400  0.912130  1.0  -0.1576
  C  C235  1  0.297600  0.947900  0.885400  1.0  0.0037
  C  C236  1  0.279100  0.971800  0.945210  1.0  0.6852
  C  C237  1  0.107200  0.922500  0.779630  1.0  0.6833
  C  C238  1  0.773700  0.503400  0.821440  1.0  0.6748
  C  C239  1  0.780400  0.542700  0.852110  1.0  -0.1837
  C  C240  1  0.745200  0.533100  0.880650  1.0  -0.0314
  C  C241  1  0.754900  0.565000  0.907780  1.0  -0.1473
  C  C242  1  0.718900  0.550900  0.938690  1.0  0.7258
  C  C243  1  0.051700  0.948800  0.001020  1.0  0.7103
  C  C244  1  0.795300  0.612300  0.908650  1.0  -0.1403
  C  C245  1  0.828400  0.627200  0.880220  1.0  0.2754
  C  C246  1  0.822900  0.590200  0.851960  1.0  -0.1103
  C  C247  1  0.885400  0.706800  0.904680  1.0  0.0704
  C  C248  1  0.942600  0.743200  0.895200  1.0  0.0061
  C  C249  1  0.927400  0.784700  0.867190  1.0  0.062
  C  C250  1  0.979500  0.850500  0.829790  1.0  0.2348
  C  C251  1  0.927800  0.871500  0.813430  1.0  -0.2036
  C  C252  1  0.933600  0.906200  0.786150  1.0  -0.1274
  C  C253  1  0.990200  0.924000  0.773590  1.0  0.0009
  C  C254  1  0.044000  0.903900  0.790680  1.0  -0.1571
  C  C255  1  0.037800  0.867900  0.818730  1.0  -0.0753
  C  C256  1  0.992900  0.701700  0.884050  1.0  0.0638
  C  C257  1  0.054800  0.620900  0.905520  1.0  0.2967
  C  C258  1  0.075600  0.603900  0.874200  1.0  -0.1517
  C  C259  1  0.117800  0.558800  0.870620  1.0  -0.112
  C  C260  1  0.137700  0.540500  0.836760  1.0  0.6821
  C  C261  1  0.144400  0.533900  0.897660  1.0  -0.0452
  C  C262  1  0.128100  0.554400  0.930290  1.0  -0.1165
  C  C263  1  0.082100  0.595600  0.933250  1.0  -0.1223
  C  C264  1  0.157400  0.527500  0.959230  1.0  0.7135
  C  C265  1  0.691800  0.117200  0.980680  1.0  0.7154
  C  C266  1  0.303600  0.375600  0.915700  1.0  0.5734
  C  C267  1  0.823800  0.979100  0.997200  1.0  0.7237
  C  C268  1  0.880300  0.945300  0.988660  1.0  -0.16
  C  C269  1  0.876100  0.894700  0.966940  1.0  -0.1188
  C  C270  1  0.926900  0.862300  0.958640  1.0  0.2817
  C  C271  1  0.966500  0.780200  0.925570  1.0  0.0644
  C  C272  1  0.984800  0.878100  0.970360  1.0  -0.1889
  C  C273  1  0.990600  0.928600  0.991030  1.0  -0.1296
  C  C274  1  0.940800  0.961900  0.999370  1.0  -0.0436
  C  C275  1  0.622600  0.073100  0.269240  1.0  0.7397
  C  C276  1  0.772800  0.954900  0.257170  1.0  0.7294
  C  C277  1  0.223500  0.618400  0.289700  1.0  0.6249
  C  C278  1  0.198100  0.647600  0.319670  1.0  -0.1581
  C  C279  1  0.210100  0.624200  0.351010  1.0  0.007
  C  C280  1  0.184300  0.646100  0.378880  1.0  -0.158
  C  C281  1  0.144800  0.697600  0.377390  1.0  -0.2157
  C  C282  1  0.131300  0.723400  0.346050  1.0  0.2867
  C  C283  1  0.158800  0.695200  0.317340  1.0  -0.0743
  C  C284  1  0.058200  0.786800  0.368630  1.0  0.064
  C  C285  1  0.014000  0.836600  0.358030  1.0  -0.017
  C  C286  1  0.969300  0.848500  0.387100  1.0  0.0697
  C  C287  1  0.978200  0.817700  0.327780  1.0  0.0528
  C  C288  1  0.901600  0.788800  0.420490  1.0  0.2871
  C  C289  1  0.877600  0.838200  0.437030  1.0  -0.1282
  C  C290  1  0.836400  0.827400  0.463750  1.0  -0.1295
  C  C291  1  0.822200  0.770700  0.474300  1.0  0.0208
  C  C292  1  0.849200  0.721700  0.458680  1.0  -0.1655
  C  C293  1  0.888800  0.731100  0.432000  1.0  -0.0158
  C  C294  1  0.835700  0.657700  0.470490  1.0  0.6856
  C  C295  1  0.892500  0.853700  0.295260  1.0  0.2858
  C  C296  1  0.858900  0.904800  0.287300  1.0  -0.0636
  C  C297  1  0.810500  0.900000  0.265030  1.0  -0.2042
  C  C298  1  0.797300  0.842900  0.250980  1.0  -0.0547
  C  C299  1  0.833500  0.794000  0.258420  1.0  -0.1304
  C  C300  1  0.881500  0.799300  0.280180  1.0  -0.1171
  C  C301  1  0.819400  0.733500  0.244500  1.0  0.7166
  C  C302  1  0.187900  0.077700  0.323700  1.0  0.7256
  C  C303  1  0.173900  0.040500  0.355070  1.0  -0.1752
  C  C304  1  0.131700  0.996000  0.352620  1.0  -0.1514
  C  C305  1  0.118800  0.958300  0.380120  1.0  0.2718
  C  C306  1  0.049600  0.894200  0.351370  1.0  0.0794
  C  C307  1  0.147300  0.972300  0.410470  1.0  -0.0566
  C  C308  1  0.188900  0.018600  0.412130  1.0  -0.1581
  C  C309  1  0.202400  0.052100  0.385400  1.0  0.0019
  C  C310  1  0.220900  0.028200  0.445210  1.0  0.6853
  C  C311  1  0.392800  0.077500  0.279630  1.0  0.6823
  C  C312  1  0.726300  0.496600  0.321440  1.0  0.6745
  C  C313  1  0.719600  0.457300  0.352110  1.0  -0.1818
  C  C314  1  0.754800  0.466900  0.380650  1.0  -0.0327
  C  C315  1  0.745100  0.435000  0.407780  1.0  -0.1481
  C  C316  1  0.781100  0.449100  0.438690  1.0  0.7257
  C  C317  1  0.448300  0.051200  0.501020  1.0  0.7096
  C  C318  1  0.704700  0.387700  0.408650  1.0  -0.1404
  C  C319  1  0.671600  0.372800  0.380220  1.0  0.2763
  C  C320  1  0.677100  0.409800  0.351960  1.0  -0.1106
  C  C321  1  0.614600  0.293200  0.404680  1.0  0.0699
  C  C322  1  0.557400  0.256800  0.395200  1.0  0.0059
  C  C323  1  0.572600  0.215300  0.367190  1.0  0.0622
  C  C324  1  0.520500  0.149500  0.329790  1.0  0.2356
  C  C325  1  0.572200  0.128500  0.313430  1.0  -0.2026
  C  C326  1  0.566400  0.093800  0.286150  1.0  -0.1274
  C  C327  1  0.509800  0.076000  0.273590  1.0  0.0014
  C  C328  1  0.456000  0.096100  0.290680  1.0  -0.1579
  C  C329  1  0.462200  0.132100  0.318730  1.0  -0.0747
  C  C330  1  0.507100  0.298300  0.384050  1.0  0.0633
  C  C331  1  0.445200  0.379100  0.405520  1.0  0.2971
  C  C332  1  0.424400  0.396100  0.374200  1.0  -0.1508
  C  C333  1  0.382200  0.441200  0.370620  1.0  -0.111
  C  C334  1  0.362300  0.459500  0.336760  1.0  0.6828
  C  C335  1  0.355600  0.466100  0.397660  1.0  -0.0451
  C  C336  1  0.371900  0.445600  0.430290  1.0  -0.1168
  C  C337  1  0.417900  0.404400  0.433250  1.0  -0.1201
  C  C338  1  0.342600  0.472500  0.459230  1.0  0.7142
  C  C339  1  0.808200  0.882800  0.480680  1.0  0.7148
  C  C340  1  0.196400  0.624400  0.415700  1.0  0.5729
  C  C341  1  0.676200  0.020900  0.497200  1.0  0.7233
  C  C342  1  0.619700  0.054700  0.488660  1.0  -0.1569
  C  C343  1  0.623900  0.105300  0.466940  1.0  -0.1191
  C  C344  1  0.573100  0.137700  0.458640  1.0  0.282
  C  C345  1  0.533500  0.219800  0.425570  1.0  0.0632
  C  C346  1  0.515200  0.121900  0.470360  1.0  -0.1891
  C  C347  1  0.509400  0.071400  0.491030  1.0  -0.1249
  C  C348  1  0.559200  0.038100  0.499370  1.0  -0.0387
  C  C349  1  0.122600  0.426900  0.730760  1.0  0.7397
  C  C350  1  0.272800  0.545100  0.742830  1.0  0.7297
  C  C351  1  0.723500  0.881600  0.710300  1.0  0.6254
  C  C352  1  0.698100  0.852400  0.680330  1.0  -0.1571
  C  C353  1  0.710100  0.875800  0.648990  1.0  0.007
  C  C354  1  0.684300  0.853900  0.621120  1.0  -0.1568
  C  C355  1  0.644800  0.802400  0.622610  1.0  -0.2141
  C  C356  1  0.631300  0.776600  0.653950  1.0  0.2838
  C  C357  1  0.658800  0.804800  0.682660  1.0  -0.074
  C  C358  1  0.558200  0.713200  0.631370  1.0  0.0656
  C  C359  1  0.514000  0.663400  0.641970  1.0  -0.0167
  C  C360  1  0.469300  0.651500  0.612900  1.0  0.0698
  C  C361  1  0.478200  0.682300  0.672220  1.0  0.051
  C  C362  1  0.401600  0.711200  0.579510  1.0  0.2874
  C  C363  1  0.377600  0.661800  0.562970  1.0  -0.1295
  C  C364  1  0.336400  0.672600  0.536250  1.0  -0.1291
  C  C365  1  0.322200  0.729300  0.525700  1.0  0.0207
  C  C366  1  0.349200  0.778300  0.541320  1.0  -0.1658
  C  C367  1  0.388800  0.768900  0.568000  1.0  -0.018
  C  C368  1  0.335700  0.842300  0.529510  1.0  0.6848
  C  C369  1  0.392500  0.646300  0.704740  1.0  0.2851
  C  C370  1  0.358900  0.595200  0.712700  1.0  -0.0625
  C  C371  1  0.310500  0.600000  0.734970  1.0  -0.2055
  C  C372  1  0.297300  0.657100  0.749020  1.0  -0.0549
  C  C373  1  0.333500  0.706000  0.741580  1.0  -0.1294
  C  C374  1  0.381500  0.700700  0.719820  1.0  -0.1187
  C  C375  1  0.319400  0.766500  0.755500  1.0  0.7172
  C  C376  1  0.687900  0.422300  0.676300  1.0  0.7266
  C  C377  1  0.673900  0.459500  0.644930  1.0  -0.1755
  C  C378  1  0.631700  0.504000  0.647380  1.0  -0.152
  C  C379  1  0.618800  0.541700  0.619880  1.0  0.2719
  C  C380  1  0.549600  0.605800  0.648630  1.0  0.0795
  C  C381  1  0.647300  0.527700  0.589530  1.0  -0.0568
  C  C382  1  0.688900  0.481400  0.587870  1.0  -0.1609
  C  C383  1  0.702400  0.447900  0.614600  1.0  0.0032
  C  C384  1  0.720900  0.471800  0.554790  1.0  0.684
  C  C385  1  0.892800  0.422500  0.720370  1.0  0.6827
  C  C386  1  0.226300  0.003400  0.678560  1.0  0.675
  C  C387  1  0.219600  0.042700  0.647890  1.0  -0.1834
  C  C388  1  0.254800  0.033100  0.619350  1.0  -0.0326
  C  C389  1  0.245100  0.065000  0.592220  1.0  -0.1485
  C  C390  1  0.281100  0.050900  0.561310  1.0  0.7229
  C  C391  1  0.948300  0.448800  0.498980  1.0  0.7097
  C  C392  1  0.204700  0.112300  0.591350  1.0  -0.1417
  C  C393  1  0.171600  0.127200  0.619780  1.0  0.2746
  C  C394  1  0.177100  0.090200  0.648040  1.0  -0.1145
  C  C395  1  0.114600  0.206800  0.595320  1.0  0.0691
  C  C396  1  0.057400  0.243200  0.604800  1.0  0.0054
  C  C397  1  0.072600  0.284700  0.632810  1.0  0.0626
  C  C398  1  0.020500  0.350500  0.670210  1.0  0.2363
  C  C399  1  0.072200  0.371500  0.686570  1.0  -0.204
  C  C400  1  0.066400  0.406200  0.713850  1.0  -0.1281
  C  C401  1  0.009800  0.424000  0.726410  1.0  0.0003
  C  C402  1  0.956000  0.403900  0.709320  1.0  -0.1569
  C  C403  1  0.962200  0.367900  0.681270  1.0  -0.0741
  C  C404  1  0.007100  0.201700  0.615950  1.0  0.0636
  C  C405  1  0.945200  0.120900  0.594480  1.0  0.2982
  C  C406  1  0.924400  0.103900  0.625800  1.0  -0.1522
  C  C407  1  0.882200  0.058800  0.629380  1.0  -0.11
  C  C408  1  0.862300  0.040500  0.663240  1.0  0.6833
  C  C409  1  0.855600  0.033900  0.602340  1.0  -0.0441
  C  C410  1  0.871900  0.054400  0.569710  1.0  -0.118
  C  C411  1  0.917900  0.095600  0.566750  1.0  -0.1231
  C  C412  1  0.842600  0.027500  0.540770  1.0  0.7126
  C  C413  1  0.308200  0.617200  0.519320  1.0  0.7155
  C  C414  1  0.696400  0.875600  0.584300  1.0  0.5719
  C  C415  1  0.176200  0.479100  0.502800  1.0  0.7234
  C  C416  1  0.119700  0.445300  0.511340  1.0  -0.157
  C  C417  1  0.123900  0.394700  0.533060  1.0  -0.1184
  C  C418  1  0.073100  0.362300  0.541360  1.0  0.2813
  C  C419  1  0.033500  0.280200  0.574430  1.0  0.0644
  C  C420  1  0.015200  0.378100  0.529640  1.0  -0.1887
  C  C421  1  0.009400  0.428600  0.508970  1.0  -0.1247
  C  C422  1  0.059200  0.461900  0.500630  1.0  -0.0392
  C  C423  1  0.377400  0.573100  0.230760  1.0  0.7406
  C  C424  1  0.227200  0.454900  0.242830  1.0  0.7297
  C  C425  1  0.776500  0.118400  0.210300  1.0  0.6266
  C  C426  1  0.801900  0.147600  0.180330  1.0  -0.1571
  C  C427  1  0.789900  0.124200  0.148990  1.0  0.0095
  C  C428  1  0.815700  0.146100  0.121120  1.0  -0.1577
  C  C429  1  0.855200  0.197600  0.122610  1.0  -0.2146
  C  C430  1  0.868700  0.223400  0.153950  1.0  0.2834
  C  C431  1  0.841200  0.195200  0.182660  1.0  -0.0735
  C  C432  1  0.941800  0.286800  0.131370  1.0  0.0656
  C  C433  1  0.986000  0.336600  0.141970  1.0  -0.017
  C  C434  1  0.030700  0.348500  0.112900  1.0  0.0684
  C  C435  1  0.021800  0.317700  0.172220  1.0  0.0518
  C  C436  1  0.098400  0.288800  0.079510  1.0  0.2872
  C  C437  1  0.122400  0.338200  0.062970  1.0  -0.1284
  C  C438  1  0.163600  0.327400  0.036250  1.0  -0.1293
  C  C439  1  0.177800  0.270700  0.025700  1.0  0.0204
  C  C440  1  0.150800  0.221700  0.041320  1.0  -0.1656
  C  C441  1  0.111200  0.231100  0.068000  1.0  -0.0163
  C  C442  1  0.164300  0.157700  0.029510  1.0  0.6848
  C  C443  1  0.107500  0.353700  0.204740  1.0  0.2861
  C  C444  1  0.141100  0.404800  0.212700  1.0  -0.0643
  C  C445  1  0.189500  0.400000  0.234970  1.0  -0.2052
  C  C446  1  0.202700  0.342900  0.249020  1.0  -0.0539
  C  C447  1  0.166500  0.294000  0.241580  1.0  -0.1296
  C  C448  1  0.118500  0.299300  0.219820  1.0  -0.1183
  C  C449  1  0.180600  0.233500  0.255500  1.0  0.7168
  C  C450  1  0.812100  0.577700  0.176300  1.0  0.7259
  C  C451  1  0.826100  0.540500  0.144930  1.0  -0.1736
  C  C452  1  0.868300  0.496000  0.147380  1.0  -0.1506
  C  C453  1  0.881200  0.458300  0.119880  1.0  0.2742
  C  C454  1  0.950400  0.394200  0.148630  1.0  0.0793
  C  C455  1  0.852700  0.472300  0.089530  1.0  -0.0565
  C  C456  1  0.811100  0.518600  0.087870  1.0  -0.1603
  C  C457  1  0.797600  0.552100  0.114600  1.0  0.0021
  C  C458  1  0.779100  0.528200  0.054790  1.0  0.6852
  C  C459  1  0.607200  0.577500  0.220370  1.0  0.6836
  C  C460  1  0.273700  0.996600  0.178560  1.0  0.6739
  C  C461  1  0.280400  0.957300  0.147890  1.0  -0.1814
  C  C462  1  0.245200  0.966900  0.119350  1.0  -0.0329
  C  C463  1  0.254900  0.935000  0.092220  1.0  -0.1478
  C  C464  1  0.218900  0.949100  0.061310  1.0  0.7232
  C  C465  1  0.551700  0.551200  0.998980  1.0  0.7095
  C  C466  1  0.295300  0.887700  0.091350  1.0  -0.1407
  C  C467  1  0.328400  0.872800  0.119780  1.0  0.2742
  C  C468  1  0.322900  0.909800  0.148040  1.0  -0.1078
  C  C469  1  0.385400  0.793200  0.095320  1.0  0.0695
  C  C470  1  0.442600  0.756800  0.104800  1.0  0.0057
  C  C471  1  0.427400  0.715300  0.132810  1.0  0.0614
  C  C472  1  0.479500  0.649500  0.170210  1.0  0.2351
  C  C473  1  0.427800  0.628500  0.186570  1.0  -0.2039
  C  C474  1  0.433600  0.593800  0.213850  1.0  -0.1281
  C  C475  1  0.490200  0.576000  0.226410  1.0  0.0015
  C  C476  1  0.544000  0.596100  0.209320  1.0  -0.1577
  C  C477  1  0.537800  0.632100  0.181270  1.0  -0.0754
  C  C478  1  0.492900  0.798300  0.115950  1.0  0.0628
  C  C479  1  0.554800  0.879100  0.094480  1.0  0.2972
  C  C480  1  0.575600  0.896100  0.125800  1.0  -0.1539
  C  C481  1  0.617800  0.941200  0.129380  1.0  -0.1101
  C  C482  1  0.637700  0.959500  0.163240  1.0  0.683
  C  C483  1  0.644400  0.966100  0.102340  1.0  -0.0456
  C  C484  1  0.628100  0.945600  0.069710  1.0  -0.1169
  C  C485  1  0.582100  0.904400  0.066750  1.0  -0.1232
  C  C486  1  0.657400  0.972500  0.040770  1.0  0.7126
  C  C487  1  0.191800  0.382800  0.019320  1.0  0.7145
  C  C488  1  0.803600  0.124400  0.084300  1.0  0.5726
  C  C489  1  0.323800  0.520900  0.002800  1.0  0.7235
  C  C490  1  0.380300  0.554700  0.011340  1.0  -0.1607
  C  C491  1  0.376100  0.605300  0.033060  1.0  -0.1183
  C  C492  1  0.426900  0.637700  0.041360  1.0  0.2817
  C  C493  1  0.466500  0.719800  0.074430  1.0  0.0656
  C  C494  1  0.484800  0.621900  0.029640  1.0  -0.1882
  C  C495  1  0.490600  0.571400  0.008970  1.0  -0.1291
  C  C496  1  0.440800  0.538100  0.000630  1.0  -0.0464
  O  O497  1  0.882380  0.958030  0.742470  1.0  -0.6222
  O  O498  1  0.827090  0.909090  0.780110  1.0  -0.6522
  O  O499  1  0.713100  0.997160  0.771390  1.0  -0.6402
  O  O500  1  0.768540  0.051940  0.735600  1.0  -0.6101
  O  O501  1  0.238500  0.420000  0.792030  1.0  -0.6766
  O  O502  1  0.293700  0.363780  0.760900  1.0  -0.6301
  O  O503  1  0.404370  0.229440  0.841020  1.0  -0.2885
  O  O504  1  0.561770  0.135510  0.819110  1.0  -0.2971
  O  O505  1  0.559980  0.208390  0.893880  1.0  -0.2747
  O  O506  1  0.645190  0.309570  0.752070  1.0  -0.6325
  O  O507  1  0.725410  0.270590  0.724470  1.0  -0.6478
  O  O508  1  0.629170  0.382430  0.957690  1.0  -0.6075
  O  O509  1  0.703600  0.350610  0.990270  1.0  -0.624
  O  O510  1  0.751330  0.395870  0.751850  1.0  -0.8543
  O  O511  1  0.344880  0.933100  0.798890  1.0  -0.6214
  O  O512  1  0.272320  0.883800  0.825180  1.0  -0.5842
  O  O513  1  0.151050  0.904700  0.797740  1.0  -0.6294
  O  O514  1  0.113060  0.951500  0.753480  1.0  -0.5832
  O  O515  1  0.807500  0.515100  0.796970  1.0  -0.5827
  O  O516  1  0.733500  0.465300  0.822040  1.0  -0.4783
  O  O517  1  0.055410  0.994680  0.019980  1.0  -0.6286
  O  O518  1  0.098700  0.918740  0.990860  1.0  -0.6654
  O  O519  1  0.678120  0.511560  0.934750  1.0  -0.6241
  O  O520  1  0.729220  0.578440  0.965500  1.0  -0.6288
  O  O521  1  0.179910  0.021580  0.992370  1.0  -0.7998
  O  O522  1  0.297330  0.003860  0.969800  1.0  -0.6068
  O  O523  1  0.236150  0.934130  0.946670  1.0  -0.6073
  O  O524  1  0.870130  0.671600  0.877450  1.0  -0.2797
  O  O525  1  0.420170  0.089590  0.880560  1.0  -0.2847
  O  O526  1  0.979580  0.816410  0.858450  1.0  -0.2908
  O  O527  1  0.118600  0.567800  0.811210  1.0  -0.6248
  O  O528  1  0.171180  0.495630  0.833780  1.0  -0.5661
  O  O529  1  0.143980  0.547750  0.987520  1.0  -0.6256
  O  O530  1  0.194300  0.486700  0.954960  1.0  -0.6589
  O  O531  1  0.677240  0.066570  0.968490  1.0  -0.6301
  O  O532  1  0.726630  0.127390  0.003960  1.0  -0.5885
  O  O533  1  0.777210  0.961700  0.984390  1.0  -0.6301
  O  O534  1  0.830430  0.024010  0.016060  1.0  -0.6026
  O  O535  1  0.267600  0.419800  0.916210  1.0  -0.59
  O  O536  1  0.325800  0.358000  0.938650  1.0  -0.5307
  O  O537  1  0.914930  0.815730  0.937070  1.0  -0.2873
  O  O538  1  0.011070  0.664910  0.911240  1.0  -0.2765
  O  O539  1  0.617620  0.041970  0.242470  1.0  -0.6219
  O  O540  1  0.672910  0.090910  0.280110  1.0  -0.6511
  O  O541  1  0.786900  0.002840  0.271390  1.0  -0.64
  O  O542  1  0.731460  0.948060  0.235600  1.0  -0.6102
  O  O543  1  0.261500  0.580000  0.292030  1.0  -0.6772
  O  O544  1  0.206300  0.636220  0.260900  1.0  -0.6309
  O  O545  1  0.095630  0.770560  0.341020  1.0  -0.2887
  O  O546  1  0.938230  0.864490  0.319110  1.0  -0.2964
  O  O547  1  0.940020  0.791610  0.393880  1.0  -0.2769
  O  O548  1  0.854810  0.690430  0.252070  1.0  -0.6305
  O  O549  1  0.774590  0.729410  0.224470  1.0  -0.6483
  O  O550  1  0.870830  0.617570  0.457690  1.0  -0.6079
  O  O551  1  0.796400  0.649390  0.490270  1.0  -0.6251
  O  O552  1  0.748670  0.604130  0.251850  1.0  -0.8543
  O  O553  1  0.155120  0.066900  0.298890  1.0  -0.6212
  O  O554  1  0.227680  0.116200  0.325180  1.0  -0.5843
  O  O555  1  0.348950  0.095300  0.297740  1.0  -0.6302
  O  O556  1  0.386940  0.048500  0.253480  1.0  -0.5853
  O  O557  1  0.692500  0.484900  0.296970  1.0  -0.5824
  O  O558  1  0.766500  0.534700  0.322040  1.0  -0.4797
  O  O559  1  0.444590  0.005320  0.519980  1.0  -0.6278
  O  O560  1  0.401300  0.081260  0.490860  1.0  -0.6671
  O  O561  1  0.821880  0.488440  0.434750  1.0  -0.6257
  O  O562  1  0.770780  0.421560  0.465500  1.0  -0.6292
  O  O563  1  0.320090  0.978420  0.492370  1.0  -0.7998
  O  O564  1  0.202670  0.996140  0.469800  1.0  -0.6067
  O  O565  1  0.263850  0.065870  0.446670  1.0  -0.6061
  O  O566  1  0.629870  0.328400  0.377450  1.0  -0.2798
  O  O567  1  0.079830  0.910410  0.380560  1.0  -0.2839
  O  O568  1  0.520420  0.183590  0.358450  1.0  -0.2938
  O  O569  1  0.381400  0.432200  0.311210  1.0  -0.6229
  O  O570  1  0.328820  0.504370  0.333780  1.0  -0.5677
  O  O571  1  0.356020  0.452250  0.487520  1.0  -0.6248
  O  O572  1  0.305700  0.513300  0.454960  1.0  -0.6605
  O  O573  1  0.822760  0.933430  0.468490  1.0  -0.6323
  O  O574  1  0.773370  0.872610  0.503960  1.0  -0.5889
  O  O575  1  0.722790  0.038300  0.484390  1.0  -0.6315
  O  O576  1  0.669570  0.975990  0.516060  1.0  -0.6029
  O  O577  1  0.232400  0.580200  0.416210  1.0  -0.5903
  O  O578  1  0.174200  0.642000  0.438650  1.0  -0.5303
  O  O579  1  0.585070  0.184270  0.437070  1.0  -0.2887
  O  O580  1  0.488930  0.335090  0.411240  1.0  -0.2774
  O  O581  1  0.117620  0.458030  0.757530  1.0  -0.6207
  O  O582  1  0.172910  0.409090  0.719890  1.0  -0.652
  O  O583  1  0.286900  0.497160  0.728610  1.0  -0.6378
  O  O584  1  0.231460  0.551940  0.764400  1.0  -0.6103
  O  O585  1  0.761500  0.920000  0.707970  1.0  -0.6767
  O  O586  1  0.706300  0.863780  0.739100  1.0  -0.63
  O  O587  1  0.595630  0.729440  0.658980  1.0  -0.2882
  O  O588  1  0.438230  0.635510  0.680890  1.0  -0.2982
  O  O589  1  0.440020  0.708390  0.606120  1.0  -0.2753
  O  O590  1  0.354810  0.809570  0.747930  1.0  -0.6305
  O  O591  1  0.274590  0.770590  0.775530  1.0  -0.6475
  O  O592  1  0.370830  0.882430  0.542310  1.0  -0.607
  O  O593  1  0.296400  0.850610  0.509730  1.0  -0.6258
  O  O594  1  0.248670  0.895870  0.748150  1.0  -0.8545
  O  O595  1  0.655120  0.433100  0.701110  1.0  -0.6213
  O  O596  1  0.727680  0.383800  0.674820  1.0  -0.5838
  O  O597  1  0.848950  0.404700  0.702260  1.0  -0.6307
  O  O598  1  0.886940  0.451500  0.746520  1.0  -0.5858
  O  O599  1  0.192500  0.015100  0.703030  1.0  -0.5793
  O  O600  1  0.266500  0.965300  0.677960  1.0  -0.479
  O  O601  1  0.944590  0.494680  0.480020  1.0  -0.6296
  O  O602  1  0.901300  0.418740  0.509140  1.0  -0.6664
  O  O603  1  0.321880  0.011560  0.565250  1.0  -0.6248
  O  O604  1  0.270780  0.078440  0.534500  1.0  -0.6296
  O  O605  1  0.820090  0.521580  0.507630  1.0  -0.8009
  O  O606  1  0.702670  0.503860  0.530200  1.0  -0.6091
  O  O607  1  0.763850  0.434130  0.553330  1.0  -0.6065
  O  O608  1  0.129870  0.171600  0.622550  1.0  -0.279
  O  O609  1  0.579830  0.589590  0.619440  1.0  -0.2839
  O  O610  1  0.020420  0.316410  0.641550  1.0  -0.2924
  O  O611  1  0.881400  0.067800  0.688790  1.0  -0.6238
  O  O612  1  0.828820  0.995630  0.666220  1.0  -0.5666
  O  O613  1  0.856020  0.047750  0.512480  1.0  -0.6266
  O  O614  1  0.805700  0.986700  0.545040  1.0  -0.6593
  O  O615  1  0.322760  0.566570  0.531510  1.0  -0.6316
  O  O616  1  0.273370  0.627390  0.496040  1.0  -0.5896
  O  O617  1  0.222790  0.461700  0.515610  1.0  -0.6331
  O  O618  1  0.169570  0.524010  0.483940  1.0  -0.6031
  O  O619  1  0.732400  0.919800  0.583790  1.0  -0.5902
  O  O620  1  0.674200  0.858000  0.561350  1.0  -0.5288
  O  O621  1  0.085070  0.315730  0.562930  1.0  -0.2883
  O  O622  1  0.988930  0.164910  0.588760  1.0  -0.2784
  O  O623  1  0.382380  0.541970  0.257530  1.0  -0.6196
  O  O624  1  0.327090  0.590910  0.219890  1.0  -0.6523
  O  O625  1  0.213100  0.502840  0.228610  1.0  -0.6403
  O  O626  1  0.268540  0.448060  0.264400  1.0  -0.6095
  O  O627  1  0.738500  0.080000  0.207970  1.0  -0.677
  O  O628  1  0.793700  0.136220  0.239100  1.0  -0.6257
  O  O629  1  0.904370  0.270560  0.158980  1.0  -0.2875
  O  O630  1  0.061770  0.364490  0.180890  1.0  -0.2973
  O  O631  1  0.059980  0.291610  0.106120  1.0  -0.2758
  O  O632  1  0.145190  0.190430  0.247930  1.0  -0.6318
  O  O633  1  0.225410  0.229410  0.275530  1.0  -0.6473
  O  O634  1  0.129170  0.117570  0.042310  1.0  -0.606
  O  O635  1  0.203600  0.149390  0.009730  1.0  -0.6327
  O  O636  1  0.251330  0.104130  0.248150  1.0  -0.8543
  O  O637  1  0.844880  0.566900  0.201110  1.0  -0.6218
  O  O638  1  0.772320  0.616200  0.174820  1.0  -0.5841
  O  O639  1  0.651050  0.595300  0.202260  1.0  -0.6299
  O  O640  1  0.613060  0.548500  0.246520  1.0  -0.5863
  O  O641  1  0.307500  0.984900  0.203030  1.0  -0.5793
  O  O642  1  0.233500  0.034700  0.177960  1.0  -0.4791
  O  O643  1  0.555410  0.505320  0.980020  1.0  -0.6294
  O  O644  1  0.598700  0.581260  0.009140  1.0  -0.6659
  O  O645  1  0.178120  0.988440  0.065250  1.0  -0.6253
  O  O646  1  0.229220  0.921560  0.034500  1.0  -0.6297
  O  O647  1  0.679910  0.478420  0.007630  1.0  -0.8003
  O  O648  1  0.797330  0.496140  0.030200  1.0  -0.6094
  O  O649  1  0.736150  0.565870  0.053330  1.0  -0.6085
  O  O650  1  0.370130  0.828400  0.122550  1.0  -0.279
  O  O651  1  0.920170  0.410410  0.119440  1.0  -0.2848
  O  O652  1  0.479580  0.683590  0.141550  1.0  -0.291
  O  O653  1  0.618600  0.932200  0.188790  1.0  -0.6247
  O  O654  1  0.671180  0.004370  0.166220  1.0  -0.567
  O  O655  1  0.643980  0.952250  0.012480  1.0  -0.6243
  O  O656  1  0.694300  0.013300  0.045040  1.0  -0.6601
  O  O657  1  0.177240  0.433430  0.031510  1.0  -0.633
  O  O658  1  0.226630  0.372610  0.996040  1.0  -0.5888
  O  O659  1  0.277210  0.538300  0.015610  1.0  -0.6308
  O  O660  1  0.330430  0.475990  0.983940  1.0  -0.6031
  O  O661  1  0.767600  0.080200  0.083790  1.0  -0.5904
  O  O662  1  0.825800  0.142000  0.061350  1.0  -0.5303
  O  O663  1  0.414930  0.684270  0.062930  1.0  -0.2879
  O  O664  1  0.511070  0.835090  0.088760  1.0  -0.2768
