# generated using pymatgen
data_Zn9H40C74O41
_symmetry_space_group_name_H-M   'P 1'
_cell_length_a   18.90200000
_cell_length_b   30.46400000
_cell_length_c   31.00400000
_cell_angle_alpha   90.00000000
_cell_angle_beta   90.00000000
_cell_angle_gamma   90.00000000
_symmetry_Int_Tables_number   1
_chemical_formula_structural   Zn9H40C74O41
_chemical_formula_sum   'Zn36 H160 C296 O164'
_cell_volume   17853.04969011
_cell_formula_units_Z   4
loop_
 _symmetry_equiv_pos_site_id
 _symmetry_equiv_pos_as_xyz
  1  'x, y, z'
loop_
 _atom_site_type_symbol
 _atom_site_label
 _atom_site_symmetry_multiplicity
 _atom_site_fract_x
 _atom_site_fract_y
 _atom_site_fract_z
 _atom_site_occupancy
 _atom_site_charge
  Zn  Zn1  1  0.771720  0.031150  0.522800  1.0  1.1592
  Zn  Zn2  1  0.849440  0.945880  0.506610  1.0  1.1104
  Zn  Zn3  1  0.244790  0.000160  0.960210  1.0  1.0648
  Zn  Zn4  1  0.347390  0.799330  0.737120  1.0  1.0099
  Zn  Zn5  1  0.325120  0.003880  0.044680  1.0  1.0932
  Zn  Zn6  1  0.253180  0.794230  0.642940  1.0  1.0826
  Zn  Zn7  1  0.300680  0.708560  0.285000  1.0  1.0195
  Zn  Zn8  1  0.328700  0.744060  0.180450  1.0  1.0444
  Zn  Zn9  1  0.333590  0.705700  0.678470  1.0  0.8364
  Zn  Zn10  1  0.271720  0.968850  0.477200  1.0  1.1599
  Zn  Zn11  1  0.349440  0.054120  0.493390  1.0  1.1086
  Zn  Zn12  1  0.744790  0.999840  0.039790  1.0  1.0662
  Zn  Zn13  1  0.847390  0.200670  0.262880  1.0  1.0088
  Zn  Zn14  1  0.825120  0.996120  0.955320  1.0  1.0927
  Zn  Zn15  1  0.753180  0.205770  0.357060  1.0  1.0839
  Zn  Zn16  1  0.800680  0.291440  0.715000  1.0  1.0216
  Zn  Zn17  1  0.828700  0.255940  0.819550  1.0  1.0451
  Zn  Zn18  1  0.833590  0.294300  0.321530  1.0  0.8324
  Zn  Zn19  1  0.771720  0.531150  0.977200  1.0  1.1585
  Zn  Zn20  1  0.849440  0.445880  0.993390  1.0  1.1079
  Zn  Zn21  1  0.244790  0.500160  0.539790  1.0  1.0665
  Zn  Zn22  1  0.347390  0.299330  0.762880  1.0  1.0097
  Zn  Zn23  1  0.325120  0.503880  0.455320  1.0  1.0928
  Zn  Zn24  1  0.253180  0.294230  0.857060  1.0  1.0845
  Zn  Zn25  1  0.300680  0.208560  0.215000  1.0  1.0208
  Zn  Zn26  1  0.328700  0.244060  0.319550  1.0  1.0452
  Zn  Zn27  1  0.333590  0.205700  0.821530  1.0  0.8363
  Zn  Zn28  1  0.271720  0.468850  0.022800  1.0  1.1607
  Zn  Zn29  1  0.349440  0.554120  0.006610  1.0  1.1083
  Zn  Zn30  1  0.744790  0.499840  0.460210  1.0  1.0673
  Zn  Zn31  1  0.847390  0.700670  0.237120  1.0  1.0058
  Zn  Zn32  1  0.825120  0.496120  0.544680  1.0  1.093
  Zn  Zn33  1  0.753180  0.705770  0.142940  1.0  1.0839
  Zn  Zn34  1  0.800680  0.791440  0.785000  1.0  1.02
  Zn  Zn35  1  0.828700  0.755940  0.680450  1.0  1.0443
  Zn  Zn36  1  0.833590  0.794300  0.178470  1.0  0.8325
  H  H37  1  0.423800  0.999500  0.878600  1.0  0.1227
  H  H38  1  0.638300  0.001300  0.873700  1.0  0.1169
  H  H39  1  0.537000  0.987300  0.988300  1.0  0.1085
  H  H40  1  0.622500  0.027700  0.810200  1.0  0.0768
  H  H41  1  0.607300  0.978400  0.798200  1.0  0.0748
  H  H42  1  0.662400  0.042500  0.732800  1.0  0.0754
  H  H43  1  0.616400  0.023500  0.694700  1.0  0.0683
  H  H44  1  0.466100  0.988700  0.755700  1.0  0.0659
  H  H45  1  0.525100  0.959700  0.733800  1.0  0.0668
  H  H46  1  0.431700  0.024600  0.623100  1.0  0.1198
  H  H47  1  0.308600  0.919400  0.603900  1.0  0.1027
  H  H48  1  0.420900  0.927700  0.713200  1.0  0.1155
  H  H49  1  0.724200  0.909600  0.747300  1.0  0.1164
  H  H50  1  0.821400  0.892800  0.635700  1.0  0.1034
  H  H51  1  0.709500  0.001400  0.656300  1.0  0.1145
  H  H52  1  0.564900  0.992800  0.485100  1.0  0.1067
  H  H53  1  0.447600  0.888800  0.444500  1.0  0.1205
  H  H54  1  0.653100  0.872900  0.468100  1.0  0.1037
  H  H55  1  0.631400  0.801000  0.434000  1.0  0.0769
  H  H56  1  0.605200  0.800800  0.482200  1.0  0.0644
  H  H57  1  0.649800  0.716100  0.433900  1.0  0.0662
  H  H58  1  0.590000  0.687500  0.455600  1.0  0.054
  H  H59  1  0.459000  0.771600  0.469900  1.0  0.0692
  H  H60  1  0.509500  0.751900  0.505300  1.0  0.0747
  H  H61  1  0.399000  0.634900  0.468400  1.0  0.11
  H  H62  1  0.264100  0.646500  0.566100  1.0  0.1049
  H  H63  1  0.384800  0.750400  0.527700  1.0  0.1141
  H  H64  1  0.470900  0.145700  0.760600  1.0  0.1003
  H  H65  1  0.568800  0.261700  0.743900  1.0  0.1147
  H  H66  1  0.684400  0.150700  0.771600  1.0  0.1223
  H  H67  1  0.523700  0.075500  0.721900  1.0  0.0613
  H  H68  1  0.490000  0.068000  0.767800  1.0  0.065
  H  H69  1  0.676900  0.643600  0.476900  1.0  0.1214
  H  H70  1  0.815500  0.628200  0.576400  1.0  0.1091
  H  H71  1  0.710100  0.741900  0.560200  1.0  0.1169
  H  H72  1  0.559700  0.735000  0.208300  1.0  0.1117
  H  H73  1  0.680500  0.739100  0.313700  1.0  0.1219
  H  H74  1  0.468700  0.754400  0.324800  1.0  0.1182
  H  H75  1  0.496500  0.773200  0.393300  1.0  0.0613
  H  H76  1  0.504200  0.721800  0.396300  1.0  0.0674
  H  H77  1  0.923800  0.000500  0.121400  1.0  0.1228
  H  H78  1  0.138300  0.998700  0.126300  1.0  0.1173
  H  H79  1  0.037000  0.012700  0.011700  1.0  0.108
  H  H80  1  0.122500  0.972300  0.189800  1.0  0.0758
  H  H81  1  0.107300  0.021600  0.201800  1.0  0.0762
  H  H82  1  0.162400  0.957500  0.267200  1.0  0.0744
  H  H83  1  0.116400  0.976500  0.305300  1.0  0.0674
  H  H84  1  0.966100  0.011300  0.244300  1.0  0.0652
  H  H85  1  0.025100  0.040300  0.266200  1.0  0.0681
  H  H86  1  0.931700  0.975400  0.376900  1.0  0.1198
  H  H87  1  0.808600  0.080600  0.396100  1.0  0.103
  H  H88  1  0.920900  0.072300  0.286800  1.0  0.1146
  H  H89  1  0.224200  0.090400  0.252700  1.0  0.1163
  H  H90  1  0.321400  0.107200  0.364300  1.0  0.1035
  H  H91  1  0.209500  0.998600  0.343700  1.0  0.1137
  H  H92  1  0.064900  0.007200  0.514900  1.0  0.1073
  H  H93  1  0.947600  0.111200  0.555500  1.0  0.1204
  H  H94  1  0.153100  0.127100  0.531900  1.0  0.1032
  H  H95  1  0.131400  0.199000  0.566000  1.0  0.0763
  H  H96  1  0.105200  0.199200  0.517800  1.0  0.0644
  H  H97  1  0.149800  0.283900  0.566100  1.0  0.0659
  H  H98  1  0.090000  0.312500  0.544400  1.0  0.0569
  H  H99  1  0.959000  0.228400  0.530100  1.0  0.0689
  H  H100  1  0.009500  0.248100  0.494700  1.0  0.0753
  H  H101  1  0.899000  0.365100  0.531600  1.0  0.1106
  H  H102  1  0.764100  0.353500  0.433900  1.0  0.1042
  H  H103  1  0.884800  0.249600  0.472300  1.0  0.1136
  H  H104  1  0.970900  0.854300  0.239400  1.0  0.1
  H  H105  1  0.068800  0.738300  0.256100  1.0  0.1151
  H  H106  1  0.184400  0.849300  0.228400  1.0  0.1224
  H  H107  1  0.023700  0.924500  0.278100  1.0  0.0616
  H  H108  1  0.990000  0.932000  0.232200  1.0  0.0648
  H  H109  1  0.176900  0.356400  0.523100  1.0  0.1204
  H  H110  1  0.315500  0.371800  0.423600  1.0  0.1095
  H  H111  1  0.210100  0.258100  0.439800  1.0  0.1172
  H  H112  1  0.059700  0.265000  0.791700  1.0  0.1113
  H  H113  1  0.180500  0.260900  0.686300  1.0  0.1228
  H  H114  1  0.968700  0.245600  0.675200  1.0  0.1181
  H  H115  1  0.996500  0.226800  0.606700  1.0  0.0617
  H  H116  1  0.004200  0.278200  0.603700  1.0  0.0676
  H  H117  1  0.423800  0.499500  0.621400  1.0  0.1229
  H  H118  1  0.638300  0.501300  0.626300  1.0  0.1174
  H  H119  1  0.537000  0.487300  0.511700  1.0  0.1082
  H  H120  1  0.622500  0.527700  0.689800  1.0  0.0759
  H  H121  1  0.607300  0.478400  0.701800  1.0  0.0753
  H  H122  1  0.662400  0.542500  0.767200  1.0  0.0754
  H  H123  1  0.616400  0.523500  0.805300  1.0  0.067
  H  H124  1  0.466100  0.488700  0.744300  1.0  0.0654
  H  H125  1  0.525100  0.459700  0.766200  1.0  0.0668
  H  H126  1  0.431700  0.524600  0.876900  1.0  0.1199
  H  H127  1  0.308600  0.419400  0.896100  1.0  0.1031
  H  H128  1  0.420900  0.427700  0.786800  1.0  0.115
  H  H129  1  0.724200  0.409600  0.752700  1.0  0.1164
  H  H130  1  0.821400  0.392800  0.864300  1.0  0.1038
  H  H131  1  0.709500  0.501400  0.843700  1.0  0.1143
  H  H132  1  0.564900  0.492800  0.014900  1.0  0.1067
  H  H133  1  0.447600  0.388800  0.055500  1.0  0.1204
  H  H134  1  0.653100  0.372900  0.031900  1.0  0.1037
  H  H135  1  0.631400  0.301000  0.066000  1.0  0.0766
  H  H136  1  0.605200  0.300800  0.017800  1.0  0.065
  H  H137  1  0.649800  0.216100  0.066100  1.0  0.0664
  H  H138  1  0.590000  0.187500  0.044400  1.0  0.0543
  H  H139  1  0.459000  0.271600  0.030100  1.0  0.0694
  H  H140  1  0.509500  0.251900  0.994700  1.0  0.0751
  H  H141  1  0.399000  0.134900  0.031600  1.0  0.1102
  H  H142  1  0.264100  0.146500  0.933900  1.0  0.1044
  H  H143  1  0.384800  0.250400  0.972300  1.0  0.1141
  H  H144  1  0.470900  0.645700  0.739400  1.0  0.1003
  H  H145  1  0.568800  0.761700  0.756100  1.0  0.115
  H  H146  1  0.684400  0.650700  0.728400  1.0  0.1222
  H  H147  1  0.523700  0.575500  0.778100  1.0  0.0615
  H  H148  1  0.490000  0.568000  0.732200  1.0  0.0652
  H  H149  1  0.676900  0.143600  0.023100  1.0  0.1207
  H  H150  1  0.815500  0.128200  0.923600  1.0  0.109
  H  H151  1  0.710100  0.241900  0.939800  1.0  0.1169
  H  H152  1  0.559700  0.235000  0.291700  1.0  0.1114
  H  H153  1  0.680500  0.239100  0.186300  1.0  0.1227
  H  H154  1  0.468700  0.254400  0.175200  1.0  0.1187
  H  H155  1  0.496500  0.273200  0.106700  1.0  0.0608
  H  H156  1  0.504200  0.221800  0.103700  1.0  0.0677
  H  H157  1  0.923800  0.500500  0.378600  1.0  0.1227
  H  H158  1  0.138300  0.498700  0.373700  1.0  0.117
  H  H159  1  0.037000  0.512700  0.488300  1.0  0.1079
  H  H160  1  0.122500  0.472300  0.310200  1.0  0.0774
  H  H161  1  0.107300  0.521600  0.298200  1.0  0.0747
  H  H162  1  0.162400  0.457500  0.232800  1.0  0.0742
  H  H163  1  0.116400  0.476500  0.194700  1.0  0.068
  H  H164  1  0.966100  0.511300  0.255700  1.0  0.0656
  H  H165  1  0.025100  0.540300  0.233800  1.0  0.0681
  H  H166  1  0.931700  0.475400  0.123100  1.0  0.1211
  H  H167  1  0.808600  0.580600  0.103900  1.0  0.1028
  H  H168  1  0.920900  0.572300  0.213200  1.0  0.1151
  H  H169  1  0.224200  0.590400  0.247300  1.0  0.1163
  H  H170  1  0.321400  0.607200  0.135700  1.0  0.1033
  H  H171  1  0.209500  0.498600  0.156300  1.0  0.1138
  H  H172  1  0.064900  0.507200  0.985100  1.0  0.107
  H  H173  1  0.947600  0.611200  0.944500  1.0  0.1206
  H  H174  1  0.153100  0.627100  0.968100  1.0  0.1031
  H  H175  1  0.131400  0.699000  0.934000  1.0  0.0762
  H  H176  1  0.105200  0.699200  0.982200  1.0  0.0642
  H  H177  1  0.149800  0.783900  0.933900  1.0  0.0659
  H  H178  1  0.090000  0.812500  0.955600  1.0  0.0563
  H  H179  1  0.959000  0.728400  0.969900  1.0  0.0686
  H  H180  1  0.009500  0.748100  0.005300  1.0  0.0754
  H  H181  1  0.899000  0.865100  0.968400  1.0  0.1102
  H  H182  1  0.764100  0.853500  0.066100  1.0  0.1046
  H  H183  1  0.884800  0.749600  0.027700  1.0  0.1141
  H  H184  1  0.970900  0.354300  0.260600  1.0  0.0999
  H  H185  1  0.068800  0.238300  0.243900  1.0  0.115
  H  H186  1  0.184400  0.349300  0.271600  1.0  0.1221
  H  H187  1  0.023700  0.424500  0.221900  1.0  0.0615
  H  H188  1  0.990000  0.432000  0.267800  1.0  0.0651
  H  H189  1  0.176900  0.856400  0.976900  1.0  0.1207
  H  H190  1  0.315500  0.871800  0.076400  1.0  0.1093
  H  H191  1  0.210100  0.758100  0.060200  1.0  0.117
  H  H192  1  0.059700  0.765000  0.708300  1.0  0.1117
  H  H193  1  0.180500  0.760900  0.813700  1.0  0.1219
  H  H194  1  0.968700  0.745600  0.824800  1.0  0.118
  H  H195  1  0.996500  0.726800  0.893300  1.0  0.0604
  H  H196  1  0.004200  0.778200  0.896300  1.0  0.0683
  C  C197  1  0.402400  0.992200  0.961800  1.0  0.7286
  C  C198  1  0.764900  0.582800  0.511400  1.0  0.6997
  C  C199  1  0.670000  0.987400  0.956100  1.0  0.6692
  C  C200  1  0.469800  0.993000  0.936700  1.0  -0.1423
  C  C201  1  0.467100  0.997300  0.892700  1.0  -0.0936
  C  C202  1  0.529900  0.998500  0.869800  1.0  0.238
  C  C203  1  0.597100  0.997100  0.889600  1.0  -0.175
  C  C204  1  0.599500  0.989200  0.933700  1.0  -0.1426
  C  C205  1  0.535500  0.989400  0.958400  1.0  0.0115
  C  C206  1  0.587300  0.007700  0.798800  1.0  -0.0366
  C  C207  1  0.564400  0.022000  0.752600  1.0  -0.0187
  C  C208  1  0.628800  0.019900  0.724800  1.0  0.0459
  C  C209  1  0.506100  0.989200  0.736100  1.0  0.0456
  C  C210  1  0.435000  0.980600  0.672700  1.0  0.2381
  C  C211  1  0.414300  0.997600  0.632300  1.0  -0.0839
  C  C212  1  0.367400  0.973900  0.605700  1.0  -0.1727
  C  C213  1  0.340900  0.934800  0.620700  1.0  0.0374
  C  C214  1  0.361400  0.917800  0.660700  1.0  -0.1063
  C  C215  1  0.407500  0.939500  0.686700  1.0  -0.1533
  C  C216  1  0.334100  0.875200  0.675300  1.0  0.7385
  C  C217  1  0.707100  0.956200  0.703200  1.0  0.2787
  C  C218  1  0.734300  0.918600  0.719300  1.0  -0.0487
  C  C219  1  0.776000  0.895000  0.693700  1.0  -0.0033
  C  C220  1  0.792200  0.909600  0.653300  1.0  -0.0182
  C  C221  1  0.766200  0.948800  0.638200  1.0  -0.1452
  C  C222  1  0.724900  0.973700  0.664500  1.0  -0.0646
  C  C223  1  0.801800  0.850300  0.708500  1.0  0.6486
  C  C224  1  0.785200  0.965200  0.592900  1.0  0.7053
  C  C225  1  0.428600  0.972900  0.468400  1.0  0.692
  C  C226  1  0.344800  0.994400  0.563800  1.0  0.671
  C  C227  1  0.690900  0.955700  0.491400  1.0  0.7249
  C  C228  1  0.620500  0.936300  0.478600  1.0  -0.1601
  C  C229  1  0.561200  0.963300  0.478000  1.0  0.0088
  C  C230  1  0.494300  0.944800  0.466100  1.0  -0.1704
  C  C231  1  0.490400  0.900600  0.453700  1.0  -0.064
  C  C232  1  0.550000  0.874600  0.455200  1.0  0.2873
  C  C233  1  0.613700  0.891100  0.467300  1.0  -0.1214
  C  C234  1  0.590200  0.797900  0.452400  1.0  0.0551
  C  C235  1  0.555800  0.753800  0.445400  1.0  -0.0221
  C  C236  1  0.612600  0.716100  0.455500  1.0  0.0586
  C  C237  1  0.493600  0.748900  0.475700  1.0  0.0432
  C  C238  1  0.404300  0.693400  0.495500  1.0  0.2869
  C  C239  1  0.379500  0.651900  0.490300  1.0  -0.0959
  C  C240  1  0.327000  0.633200  0.515500  1.0  -0.1485
  C  C241  1  0.297900  0.658500  0.547700  1.0  -0.042
  C  C242  1  0.319900  0.703600  0.552800  1.0  -0.0627
  C  C243  1  0.371900  0.721000  0.525700  1.0  -0.0589
  C  C244  1  0.302900  0.587400  0.510000  1.0  0.7022
  C  C245  1  0.291500  0.731300  0.589200  1.0  0.6719
  C  C246  1  0.437400  0.227900  0.752400  1.0  0.7239
  C  C247  1  0.512600  0.161700  0.759200  1.0  -0.074
  C  C248  1  0.509800  0.206000  0.753100  1.0  -0.1314
  C  C249  1  0.571400  0.232000  0.750600  1.0  -0.1037
  C  C250  1  0.637700  0.211300  0.758400  1.0  -0.1151
  C  C251  1  0.705100  0.237100  0.760100  1.0  0.7342
  C  C252  1  0.641400  0.164300  0.765600  1.0  -0.054
  C  C253  1  0.579000  0.139800  0.763500  1.0  0.1689
  C  C254  1  0.533600  0.066800  0.751400  1.0  0.0296
  C  C255  1  0.690000  0.697800  0.513600  1.0  0.2894
  C  C256  1  0.701300  0.655400  0.500200  1.0  -0.146
  C  C257  1  0.753100  0.629800  0.524000  1.0  -0.1429
  C  C258  1  0.785300  0.646100  0.560400  1.0  0.0027
  C  C259  1  0.772600  0.690700  0.574100  1.0  -0.0694
  C  C260  1  0.722600  0.714000  0.550700  1.0  -0.1313
  C  C261  1  0.806200  0.707700  0.612200  1.0  0.6197
  C  C262  1  0.431800  0.745400  0.243300  1.0  0.7062
  C  C263  1  0.564200  0.738700  0.237900  1.0  0.0051
  C  C264  1  0.629800  0.738700  0.256700  1.0  -0.1338
  C  C265  1  0.693500  0.728800  0.230700  1.0  0.6973
  C  C266  1  0.636200  0.741200  0.300700  1.0  -0.0476
  C  C267  1  0.574600  0.747100  0.326300  1.0  0.2665
  C  C268  1  0.508800  0.749500  0.308100  1.0  -0.1244
  C  C269  1  0.529100  0.749500  0.399700  1.0  0.0552
  C  C270  1  0.504500  0.744400  0.263400  1.0  -0.1494
  C  C271  1  0.902400  0.007800  0.038200  1.0  0.7279
  C  C272  1  0.264900  0.417200  0.488600  1.0  0.7004
  C  C273  1  0.170000  0.012600  0.043900  1.0  0.6689
  C  C274  1  0.969800  0.007000  0.063300  1.0  -0.1418
  C  C275  1  0.967100  0.002700  0.107300  1.0  -0.0937
  C  C276  1  0.029900  0.001500  0.130200  1.0  0.2376
  C  C277  1  0.097100  0.002900  0.110400  1.0  -0.1747
  C  C278  1  0.099500  0.010800  0.066300  1.0  -0.1423
  C  C279  1  0.035500  0.010600  0.041600  1.0  0.0109
  C  C280  1  0.087300  0.992300  0.201200  1.0  -0.0354
  C  C281  1  0.064400  0.978000  0.247400  1.0  -0.0183
  C  C282  1  0.128800  0.980100  0.275200  1.0  0.0446
  C  C283  1  0.006100  0.010800  0.263900  1.0  0.0458
  C  C284  1  0.935000  0.019400  0.327300  1.0  0.2379
  C  C285  1  0.914300  0.002400  0.367700  1.0  -0.0829
  C  C286  1  0.867400  0.026100  0.394300  1.0  -0.1733
  C  C287  1  0.840900  0.065200  0.379300  1.0  0.0378
  C  C288  1  0.861400  0.082200  0.339300  1.0  -0.105
  C  C289  1  0.907500  0.060500  0.313300  1.0  -0.1526
  C  C290  1  0.834100  0.124800  0.324700  1.0  0.7375
  C  C291  1  0.207100  0.043800  0.296800  1.0  0.2785
  C  C292  1  0.234300  0.081400  0.280700  1.0  -0.0491
  C  C293  1  0.276000  0.105000  0.306300  1.0  -0.0025
  C  C294  1  0.292200  0.090400  0.346700  1.0  -0.0183
  C  C295  1  0.266200  0.051200  0.361800  1.0  -0.149
  C  C296  1  0.224900  0.026300  0.335500  1.0  -0.0672
  C  C297  1  0.301800  0.149700  0.291500  1.0  0.6492
  C  C298  1  0.285200  0.034800  0.407100  1.0  0.705
  C  C299  1  0.928600  0.027100  0.531600  1.0  0.6918
  C  C300  1  0.844800  0.005600  0.436200  1.0  0.6714
  C  C301  1  0.190900  0.044300  0.508600  1.0  0.7247
  C  C302  1  0.120500  0.063700  0.521400  1.0  -0.1601
  C  C303  1  0.061200  0.036700  0.522000  1.0  0.0096
  C  C304  1  0.994300  0.055200  0.533900  1.0  -0.1707
  C  C305  1  0.990400  0.099400  0.546300  1.0  -0.0638
  C  C306  1  0.050000  0.125400  0.544800  1.0  0.2863
  C  C307  1  0.113700  0.108900  0.532700  1.0  -0.122
  C  C308  1  0.090200  0.202100  0.547600  1.0  0.0551
  C  C309  1  0.055800  0.246200  0.554600  1.0  -0.0218
  C  C310  1  0.112600  0.283900  0.544500  1.0  0.0595
  C  C311  1  0.993600  0.251100  0.524300  1.0  0.0427
  C  C312  1  0.904300  0.306600  0.504500  1.0  0.2877
  C  C313  1  0.879500  0.348100  0.509700  1.0  -0.095
  C  C314  1  0.827000  0.366800  0.484500  1.0  -0.1482
  C  C315  1  0.797900  0.341500  0.452300  1.0  -0.042
  C  C316  1  0.819900  0.296400  0.447200  1.0  -0.0633
  C  C317  1  0.871900  0.279000  0.474300  1.0  -0.0588
  C  C318  1  0.802900  0.412600  0.490000  1.0  0.7026
  C  C319  1  0.791500  0.268700  0.410800  1.0  0.6718
  C  C320  1  0.937400  0.772100  0.247600  1.0  0.7241
  C  C321  1  0.012600  0.838300  0.240800  1.0  -0.0742
  C  C322  1  0.009800  0.794000  0.246900  1.0  -0.1318
  C  C323  1  0.071400  0.768000  0.249400  1.0  -0.1025
  C  C324  1  0.137700  0.788700  0.241600  1.0  -0.116
  C  C325  1  0.205100  0.762900  0.239900  1.0  0.7336
  C  C326  1  0.141400  0.835700  0.234400  1.0  -0.0541
  C  C327  1  0.079000  0.860200  0.236500  1.0  0.1673
  C  C328  1  0.033600  0.933200  0.248600  1.0  0.0302
  C  C329  1  0.190000  0.302200  0.486400  1.0  0.2896
  C  C330  1  0.201300  0.344600  0.499800  1.0  -0.1474
  C  C331  1  0.253100  0.370200  0.476000  1.0  -0.1431
  C  C332  1  0.285300  0.353900  0.439600  1.0  0.0024
  C  C333  1  0.272600  0.309300  0.425900  1.0  -0.0696
  C  C334  1  0.222600  0.286000  0.449300  1.0  -0.1316
  C  C335  1  0.306200  0.292300  0.387800  1.0  0.619
  C  C336  1  0.931800  0.254600  0.756700  1.0  0.7062
  C  C337  1  0.064200  0.261300  0.762100  1.0  0.0071
  C  C338  1  0.129800  0.261300  0.743300  1.0  -0.1335
  C  C339  1  0.193500  0.271200  0.769300  1.0  0.6967
  C  C340  1  0.136200  0.258800  0.699300  1.0  -0.0477
  C  C341  1  0.074600  0.252900  0.673700  1.0  0.2665
  C  C342  1  0.008800  0.250500  0.691900  1.0  -0.1244
  C  C343  1  0.029100  0.250500  0.600300  1.0  0.054
  C  C344  1  0.004500  0.255600  0.736600  1.0  -0.1492
  C  C345  1  0.402400  0.492200  0.538200  1.0  0.7286
  C  C346  1  0.764900  0.082800  0.988600  1.0  0.6999
  C  C347  1  0.670000  0.487400  0.543900  1.0  0.6693
  C  C348  1  0.469800  0.493000  0.563300  1.0  -0.1421
  C  C349  1  0.467100  0.497300  0.607300  1.0  -0.0935
  C  C350  1  0.529900  0.498500  0.630200  1.0  0.2378
  C  C351  1  0.597100  0.497100  0.610400  1.0  -0.1749
  C  C352  1  0.599500  0.489200  0.566300  1.0  -0.1425
  C  C353  1  0.535500  0.489400  0.541600  1.0  0.0112
  C  C354  1  0.587300  0.507700  0.701200  1.0  -0.0362
  C  C355  1  0.564400  0.522000  0.747400  1.0  -0.0184
  C  C356  1  0.628800  0.519900  0.775200  1.0  0.0452
  C  C357  1  0.506100  0.489200  0.763900  1.0  0.0452
  C  C358  1  0.435000  0.480600  0.827300  1.0  0.236
  C  C359  1  0.414300  0.497600  0.867700  1.0  -0.0839
  C  C360  1  0.367400  0.473900  0.894300  1.0  -0.1734
  C  C361  1  0.340900  0.434800  0.879300  1.0  0.0383
  C  C362  1  0.361400  0.417800  0.839300  1.0  -0.1055
  C  C363  1  0.407500  0.439500  0.813300  1.0  -0.1553
  C  C364  1  0.334100  0.375200  0.824700  1.0  0.7378
  C  C365  1  0.707100  0.456200  0.796800  1.0  0.2788
  C  C366  1  0.734300  0.418600  0.780700  1.0  -0.049
  C  C367  1  0.776000  0.395000  0.806300  1.0  -0.0016
  C  C368  1  0.792200  0.409600  0.846700  1.0  -0.0172
  C  C369  1  0.766200  0.448800  0.861800  1.0  -0.1491
  C  C370  1  0.724900  0.473700  0.835500  1.0  -0.0656
  C  C371  1  0.801800  0.350300  0.791500  1.0  0.6486
  C  C372  1  0.785200  0.465200  0.907100  1.0  0.7052
  C  C373  1  0.428600  0.472900  0.031600  1.0  0.6921
  C  C374  1  0.344800  0.494400  0.936200  1.0  0.6709
  C  C375  1  0.690900  0.455700  0.008600  1.0  0.7247
  C  C376  1  0.620500  0.436300  0.021400  1.0  -0.1602
  C  C377  1  0.561200  0.463300  0.022000  1.0  0.0084
  C  C378  1  0.494300  0.444800  0.033900  1.0  -0.1701
  C  C379  1  0.490400  0.400600  0.046300  1.0  -0.0637
  C  C380  1  0.550000  0.374600  0.044800  1.0  0.287
  C  C381  1  0.613700  0.391100  0.032700  1.0  -0.1215
  C  C382  1  0.590200  0.297900  0.047600  1.0  0.0554
  C  C383  1  0.555800  0.253800  0.054600  1.0  -0.0219
  C  C384  1  0.612600  0.216100  0.044500  1.0  0.0591
  C  C385  1  0.493600  0.248900  0.024300  1.0  0.0428
  C  C386  1  0.404300  0.193400  0.004500  1.0  0.2871
  C  C387  1  0.379500  0.151900  0.009700  1.0  -0.0947
  C  C388  1  0.327000  0.133200  0.984500  1.0  -0.1485
  C  C389  1  0.297900  0.158500  0.952300  1.0  -0.0421
  C  C390  1  0.319900  0.203600  0.947200  1.0  -0.0628
  C  C391  1  0.371900  0.221000  0.974300  1.0  -0.0591
  C  C392  1  0.302900  0.087400  0.990000  1.0  0.702
  C  C393  1  0.291500  0.231300  0.910800  1.0  0.672
  C  C394  1  0.437400  0.727900  0.747600  1.0  0.724
  C  C395  1  0.512600  0.661700  0.740800  1.0  -0.0741
  C  C396  1  0.509800  0.706000  0.746900  1.0  -0.1309
  C  C397  1  0.571400  0.732000  0.749400  1.0  -0.1031
  C  C398  1  0.637700  0.711300  0.741600  1.0  -0.1152
  C  C399  1  0.705100  0.737100  0.739900  1.0  0.7341
  C  C400  1  0.641400  0.664300  0.734400  1.0  -0.0544
  C  C401  1  0.579000  0.639800  0.736500  1.0  0.1688
  C  C402  1  0.533600  0.566800  0.748600  1.0  0.0293
  C  C403  1  0.690000  0.197800  0.986400  1.0  0.2896
  C  C404  1  0.701300  0.155400  0.999800  1.0  -0.1469
  C  C405  1  0.753100  0.129800  0.976000  1.0  -0.1453
  C  C406  1  0.785300  0.146100  0.939600  1.0  0.003
  C  C407  1  0.772600  0.190700  0.925900  1.0  -0.0708
  C  C408  1  0.722600  0.214000  0.949300  1.0  -0.1328
  C  C409  1  0.806200  0.207700  0.887800  1.0  0.6191
  C  C410  1  0.431800  0.245400  0.256700  1.0  0.7059
  C  C411  1  0.564200  0.238700  0.262100  1.0  0.0074
  C  C412  1  0.629800  0.238700  0.243300  1.0  -0.1339
  C  C413  1  0.693500  0.228800  0.269300  1.0  0.6966
  C  C414  1  0.636200  0.241200  0.199300  1.0  -0.0477
  C  C415  1  0.574600  0.247100  0.173700  1.0  0.2664
  C  C416  1  0.508800  0.249500  0.191900  1.0  -0.1242
  C  C417  1  0.529100  0.249500  0.100300  1.0  0.0541
  C  C418  1  0.504500  0.244400  0.236600  1.0  -0.1492
  C  C419  1  0.902400  0.507800  0.461800  1.0  0.7279
  C  C420  1  0.264900  0.917200  0.011400  1.0  0.7001
  C  C421  1  0.170000  0.512600  0.456100  1.0  0.6689
  C  C422  1  0.969800  0.507000  0.436700  1.0  -0.1421
  C  C423  1  0.967100  0.502700  0.392700  1.0  -0.0935
  C  C424  1  0.029900  0.501500  0.369800  1.0  0.238
  C  C425  1  0.097100  0.502900  0.389600  1.0  -0.1746
  C  C426  1  0.099500  0.510800  0.433700  1.0  -0.1424
  C  C427  1  0.035500  0.510600  0.458400  1.0  0.0109
  C  C428  1  0.087300  0.492300  0.298800  1.0  -0.0365
  C  C429  1  0.064400  0.478000  0.252600  1.0  -0.0185
  C  C430  1  0.128800  0.480100  0.224800  1.0  0.046
  C  C431  1  0.006100  0.510800  0.236100  1.0  0.0464
  C  C432  1  0.935000  0.519400  0.172700  1.0  0.2367
  C  C433  1  0.914300  0.502400  0.132300  1.0  -0.0823
  C  C434  1  0.867400  0.526100  0.105700  1.0  -0.1732
  C  C435  1  0.840900  0.565200  0.120700  1.0  0.0386
  C  C436  1  0.861400  0.582200  0.160700  1.0  -0.105
  C  C437  1  0.907500  0.560500  0.186700  1.0  -0.1561
  C  C438  1  0.834100  0.624800  0.175300  1.0  0.738
  C  C439  1  0.207100  0.543800  0.203200  1.0  0.2785
  C  C440  1  0.234300  0.581400  0.219300  1.0  -0.0491
  C  C441  1  0.276000  0.605000  0.193700  1.0  -0.0012
  C  C442  1  0.292200  0.590400  0.153300  1.0  -0.0177
  C  C443  1  0.266200  0.551200  0.138200  1.0  -0.1453
  C  C444  1  0.224900  0.526300  0.164500  1.0  -0.0664
  C  C445  1  0.301800  0.649700  0.208500  1.0  0.6493
  C  C446  1  0.285200  0.534800  0.092900  1.0  0.705
  C  C447  1  0.928600  0.527100  0.968400  1.0  0.6919
  C  C448  1  0.844800  0.505600  0.063800  1.0  0.6713
  C  C449  1  0.190900  0.544300  0.991400  1.0  0.7249
  C  C450  1  0.120500  0.563700  0.978600  1.0  -0.1601
  C  C451  1  0.061200  0.536700  0.978000  1.0  0.0099
  C  C452  1  0.994300  0.555200  0.966100  1.0  -0.171
  C  C453  1  0.990400  0.599400  0.953700  1.0  -0.0644
  C  C454  1  0.050000  0.625400  0.955200  1.0  0.2867
  C  C455  1  0.113700  0.608900  0.967300  1.0  -0.122
  C  C456  1  0.090200  0.702100  0.952400  1.0  0.0555
  C  C457  1  0.055800  0.746200  0.945400  1.0  -0.022
  C  C458  1  0.112600  0.783900  0.955500  1.0  0.0595
  C  C459  1  0.993600  0.751100  0.975700  1.0  0.0416
  C  C460  1  0.904300  0.806600  0.995500  1.0  0.2874
  C  C461  1  0.879500  0.848100  0.990300  1.0  -0.096
  C  C462  1  0.827000  0.866800  0.015500  1.0  -0.1479
  C  C463  1  0.797900  0.841500  0.047700  1.0  -0.042
  C  C464  1  0.819900  0.796400  0.052800  1.0  -0.0631
  C  C465  1  0.871900  0.779000  0.025700  1.0  -0.0591
  C  C466  1  0.802900  0.912600  0.010000  1.0  0.7027
  C  C467  1  0.791500  0.768700  0.089200  1.0  0.6719
  C  C468  1  0.937400  0.272100  0.252400  1.0  0.7239
  C  C469  1  0.012600  0.338300  0.259200  1.0  -0.0742
  C  C470  1  0.009800  0.294000  0.253100  1.0  -0.132
  C  C471  1  0.071400  0.268000  0.250600  1.0  -0.1028
  C  C472  1  0.137700  0.288700  0.258400  1.0  -0.1158
  C  C473  1  0.205100  0.262900  0.260100  1.0  0.7337
  C  C474  1  0.141400  0.335700  0.265600  1.0  -0.054
  C  C475  1  0.079000  0.360200  0.263500  1.0  0.1672
  C  C476  1  0.033600  0.433200  0.251400  1.0  0.03
  C  C477  1  0.190000  0.802200  0.013600  1.0  0.2894
  C  C478  1  0.201300  0.844600  0.000200  1.0  -0.1461
  C  C479  1  0.253100  0.870200  0.024000  1.0  -0.1428
  C  C480  1  0.285300  0.853900  0.060400  1.0  0.0018
  C  C481  1  0.272600  0.809300  0.074100  1.0  -0.0691
  C  C482  1  0.222600  0.786000  0.050700  1.0  -0.1313
  C  C483  1  0.306200  0.792300  0.112200  1.0  0.6197
  C  C484  1  0.931800  0.754600  0.743300  1.0  0.7064
  C  C485  1  0.064200  0.761300  0.737900  1.0  0.0046
  C  C486  1  0.129800  0.761300  0.756700  1.0  -0.1337
  C  C487  1  0.193500  0.771200  0.730700  1.0  0.6975
  C  C488  1  0.136200  0.758800  0.800700  1.0  -0.0477
  C  C489  1  0.074600  0.752900  0.826300  1.0  0.2665
  C  C490  1  0.008800  0.750500  0.808100  1.0  -0.1244
  C  C491  1  0.029100  0.750500  0.899700  1.0  0.0548
  C  C492  1  0.004500  0.755600  0.763400  1.0  -0.1495
  O  O493  1  0.409300  0.994330  0.002640  1.0  -0.6025
  O  O494  1  0.346500  0.991290  0.941010  1.0  -0.6424
  O  O495  1  0.723000  0.989080  0.932890  1.0  -0.5983
  O  O496  1  0.667000  0.987270  0.998250  1.0  -0.6201
  O  O497  1  0.804600  0.561500  0.538190  1.0  -0.6278
  O  O498  1  0.736200  0.566670  0.478830  1.0  -0.6165
  O  O499  1  0.355000  0.859220  0.710950  1.0  -0.6315
  O  O500  1  0.287500  0.856260  0.651940  1.0  -0.6438
  O  O501  1  0.263000  0.712170  0.619830  1.0  -0.6277
  O  O502  1  0.292300  0.771200  0.585150  1.0  -0.5562
  O  O503  1  0.385000  0.205100  0.760110  1.0  -0.6075
  O  O504  1  0.435900  0.268400  0.747160  1.0  -0.6132
  O  O505  1  0.271200  0.567300  0.538680  1.0  -0.5887
  O  O506  1  0.326500  0.568350  0.474400  1.0  -0.6514
  O  O507  1  0.380400  0.745950  0.268480  1.0  -0.6353
  O  O508  1  0.427600  0.747680  0.202320  1.0  -0.5858
  O  O509  1  0.751600  0.722480  0.251620  1.0  -0.6224
  O  O510  1  0.688500  0.724790  0.189800  1.0  -0.6355
  O  O511  1  0.841300  0.684400  0.638100  1.0  -0.6563
  O  O512  1  0.801000  0.749200  0.619890  1.0  -0.5841
  O  O513  1  0.805300  0.844700  0.752100  1.0  -0.6149
  O  O514  1  0.814100  0.819960  0.682270  1.0  -0.6209
  O  O515  1  0.758200  0.001160  0.581390  1.0  -0.6098
  O  O516  1  0.824200  0.940040  0.570990  1.0  -0.6246
  O  O517  1  0.689400  0.996050  0.500410  1.0  -0.6274
  O  O518  1  0.743900  0.930790  0.491930  1.0  -0.647
  O  O519  1  0.371000  0.952370  0.459910  1.0  -0.6243
  O  O520  1  0.435200  0.013170  0.477940  1.0  -0.6004
  O  O521  1  0.310300  0.966080  0.539400  1.0  -0.6611
  O  O522  1  0.362900  0.031590  0.554680  1.0  -0.5634
  O  O523  1  0.587500  0.096000  0.770650  1.0  -0.293
  O  O524  1  0.461700  0.706030  0.469510  1.0  -0.3172
  O  O525  1  0.640200  0.725920  0.496230  1.0  -0.2732
  O  O526  1  0.538100  0.831580  0.442040  1.0  -0.3039
  O  O527  1  0.588200  0.751170  0.370910  1.0  -0.303
  O  O528  1  0.658400  0.975800  0.732600  1.0  -0.3366
  O  O529  1  0.484700  0.005310  0.693920  1.0  -0.2999
  O  O530  1  0.521300  0.008680  0.825790  1.0  -0.3188
  O  O531  1  0.750400  0.227080  0.788170  1.0  -0.612
  O  O532  1  0.713500  0.265400  0.732300  1.0  -0.5919
  O  O533  1  0.343700  0.770210  0.674830  1.0  -0.843
  O  O534  1  0.909300  0.005670  0.997360  1.0  -0.6027
  O  O535  1  0.846500  0.008710  0.058990  1.0  -0.6423
  O  O536  1  0.223000  0.010920  0.067110  1.0  -0.599
  O  O537  1  0.167000  0.012730  0.001750  1.0  -0.6208
  O  O538  1  0.304600  0.438500  0.461810  1.0  -0.6287
  O  O539  1  0.236200  0.433330  0.521170  1.0  -0.6152
  O  O540  1  0.855000  0.140780  0.289050  1.0  -0.6307
  O  O541  1  0.787500  0.143740  0.348060  1.0  -0.6447
  O  O542  1  0.763000  0.287830  0.380170  1.0  -0.626
  O  O543  1  0.792300  0.228800  0.414850  1.0  -0.5558
  O  O544  1  0.885000  0.794900  0.239890  1.0  -0.6055
  O  O545  1  0.935900  0.731600  0.252840  1.0  -0.612
  O  O546  1  0.771200  0.432700  0.461320  1.0  -0.5873
  O  O547  1  0.826500  0.431650  0.525600  1.0  -0.6482
  O  O548  1  0.880400  0.254050  0.731520  1.0  -0.6358
  O  O549  1  0.927600  0.252320  0.797680  1.0  -0.5863
  O  O550  1  0.251600  0.277520  0.748380  1.0  -0.6212
  O  O551  1  0.188500  0.275210  0.810200  1.0  -0.635
  O  O552  1  0.341300  0.315600  0.361900  1.0  -0.6535
  O  O553  1  0.301000  0.250800  0.380110  1.0  -0.5849
  O  O554  1  0.305300  0.155300  0.247900  1.0  -0.619
  O  O555  1  0.314100  0.180040  0.317730  1.0  -0.6231
  O  O556  1  0.258200  0.998840  0.418610  1.0  -0.6082
  O  O557  1  0.324200  0.059960  0.429010  1.0  -0.6242
  O  O558  1  0.189400  0.003950  0.499590  1.0  -0.6276
  O  O559  1  0.243900  0.069210  0.508070  1.0  -0.646
  O  O560  1  0.871000  0.047630  0.540090  1.0  -0.6242
  O  O561  1  0.935200  0.986830  0.522060  1.0  -0.6005
  O  O562  1  0.810300  0.033920  0.460600  1.0  -0.6622
  O  O563  1  0.862900  0.968410  0.445320  1.0  -0.5648
  O  O564  1  0.087500  0.904000  0.229350  1.0  -0.2927
  O  O565  1  0.961700  0.293970  0.530490  1.0  -0.3161
  O  O566  1  0.140200  0.274080  0.503770  1.0  -0.2737
  O  O567  1  0.038100  0.168420  0.557960  1.0  -0.3042
  O  O568  1  0.088200  0.248830  0.629090  1.0  -0.3027
  O  O569  1  0.158400  0.024200  0.267400  1.0  -0.3385
  O  O570  1  0.984700  0.994690  0.306080  1.0  -0.3017
  O  O571  1  0.021300  0.991320  0.174210  1.0  -0.3205
  O  O572  1  0.250400  0.772920  0.211830  1.0  -0.611
  O  O573  1  0.213500  0.734600  0.267700  1.0  -0.5929
  O  O574  1  0.843700  0.229790  0.325170  1.0  -0.8418
  O  O575  1  0.409300  0.494330  0.497360  1.0  -0.6023
  O  O576  1  0.346500  0.491290  0.558990  1.0  -0.6423
  O  O577  1  0.723000  0.489080  0.567110  1.0  -0.5989
  O  O578  1  0.667000  0.487270  0.501750  1.0  -0.621
  O  O579  1  0.804600  0.061500  0.961810  1.0  -0.6289
  O  O580  1  0.736200  0.066670  0.021170  1.0  -0.615
  O  O581  1  0.355000  0.359220  0.789050  1.0  -0.6308
  O  O582  1  0.287500  0.356260  0.848060  1.0  -0.6448
  O  O583  1  0.263000  0.212170  0.880170  1.0  -0.6276
  O  O584  1  0.292300  0.271200  0.914850  1.0  -0.5552
  O  O585  1  0.385000  0.705100  0.739890  1.0  -0.6066
  O  O586  1  0.435900  0.768400  0.752840  1.0  -0.6125
  O  O587  1  0.271200  0.067300  0.961320  1.0  -0.5862
  O  O588  1  0.326500  0.068350  0.025600  1.0  -0.6483
  O  O589  1  0.380400  0.245950  0.231520  1.0  -0.6361
  O  O590  1  0.427600  0.247680  0.297680  1.0  -0.5864
  O  O591  1  0.751600  0.222480  0.248380  1.0  -0.6215
  O  O592  1  0.688500  0.224790  0.310200  1.0  -0.6346
  O  O593  1  0.841300  0.184400  0.861900  1.0  -0.6548
  O  O594  1  0.801000  0.249200  0.880110  1.0  -0.5844
  O  O595  1  0.805300  0.344700  0.747900  1.0  -0.6197
  O  O596  1  0.814100  0.319960  0.817730  1.0  -0.6229
  O  O597  1  0.758200  0.501160  0.918610  1.0  -0.6097
  O  O598  1  0.824200  0.440040  0.929010  1.0  -0.6247
  O  O599  1  0.689400  0.496050  0.999590  1.0  -0.6271
  O  O600  1  0.743900  0.430790  0.008070  1.0  -0.6469
  O  O601  1  0.371000  0.452370  0.040090  1.0  -0.6239
  O  O602  1  0.435200  0.513170  0.022060  1.0  -0.6004
  O  O603  1  0.310300  0.466080  0.960600  1.0  -0.6613
  O  O604  1  0.362900  0.531590  0.945320  1.0  -0.5635
  O  O605  1  0.587500  0.596000  0.729350  1.0  -0.2924
  O  O606  1  0.461700  0.206030  0.030490  1.0  -0.3154
  O  O607  1  0.640200  0.225920  0.003770  1.0  -0.273
  O  O608  1  0.538100  0.331580  0.057960  1.0  -0.3044
  O  O609  1  0.588200  0.251170  0.129090  1.0  -0.3025
  O  O610  1  0.658400  0.475800  0.767400  1.0  -0.3382
  O  O611  1  0.484700  0.505310  0.806080  1.0  -0.3013
  O  O612  1  0.521300  0.508680  0.674210  1.0  -0.3204
  O  O613  1  0.750400  0.727080  0.711830  1.0  -0.6094
  O  O614  1  0.713500  0.765400  0.767700  1.0  -0.5936
  O  O615  1  0.343700  0.270210  0.825170  1.0  -0.842
  O  O616  1  0.909300  0.505670  0.502640  1.0  -0.6027
  O  O617  1  0.846500  0.508710  0.441010  1.0  -0.643
  O  O618  1  0.223000  0.510920  0.432890  1.0  -0.5985
  O  O619  1  0.167000  0.512730  0.498250  1.0  -0.6198
  O  O620  1  0.304600  0.938500  0.038190  1.0  -0.6281
  O  O621  1  0.236200  0.933330  0.978830  1.0  -0.6164
  O  O622  1  0.855000  0.640780  0.210950  1.0  -0.6312
  O  O623  1  0.787500  0.643740  0.151940  1.0  -0.644
  O  O624  1  0.763000  0.787830  0.119830  1.0  -0.6272
  O  O625  1  0.792300  0.728800  0.085150  1.0  -0.5549
  O  O626  1  0.885000  0.294900  0.260110  1.0  -0.6059
  O  O627  1  0.935900  0.231600  0.247160  1.0  -0.6133
  O  O628  1  0.771200  0.932700  0.038680  1.0  -0.5867
  O  O629  1  0.826500  0.931650  0.974400  1.0  -0.6511
  O  O630  1  0.880400  0.754050  0.768480  1.0  -0.6351
  O  O631  1  0.927600  0.752320  0.702320  1.0  -0.5851
  O  O632  1  0.251600  0.777520  0.751620  1.0  -0.6222
  O  O633  1  0.188500  0.775210  0.689800  1.0  -0.6353
  O  O634  1  0.341300  0.815600  0.138100  1.0  -0.6565
  O  O635  1  0.301000  0.750800  0.119890  1.0  -0.586
  O  O636  1  0.305300  0.655300  0.252100  1.0  -0.6155
  O  O637  1  0.314100  0.680040  0.182270  1.0  -0.6211
  O  O638  1  0.258200  0.498840  0.081390  1.0  -0.608
  O  O639  1  0.324200  0.559960  0.070990  1.0  -0.6242
  O  O640  1  0.189400  0.503950  0.000410  1.0  -0.6277
  O  O641  1  0.243900  0.569210  0.991930  1.0  -0.6459
  O  O642  1  0.871000  0.547630  0.959910  1.0  -0.6244
  O  O643  1  0.935200  0.486830  0.977940  1.0  -0.601
  O  O644  1  0.810300  0.533920  0.039400  1.0  -0.6621
  O  O645  1  0.862900  0.468410  0.054680  1.0  -0.5645
  O  O646  1  0.087500  0.404000  0.270650  1.0  -0.2927
  O  O647  1  0.961700  0.793970  0.969510  1.0  -0.3178
  O  O648  1  0.140200  0.774080  0.996230  1.0  -0.2727
  O  O649  1  0.038100  0.668420  0.942040  1.0  -0.3034
  O  O650  1  0.088200  0.748830  0.870910  1.0  -0.3033
  O  O651  1  0.158400  0.524200  0.232600  1.0  -0.3365
  O  O652  1  0.984700  0.494690  0.193920  1.0  -0.3004
  O  O653  1  0.021300  0.491320  0.325790  1.0  -0.3183
  O  O654  1  0.250400  0.272920  0.288170  1.0  -0.6126
  O  O655  1  0.213500  0.234600  0.232300  1.0  -0.5901
  O  O656  1  0.843700  0.729790  0.174830  1.0  -0.8429
