# generated using pymatgen
data_MgP4H24C12(NO6)2
_symmetry_space_group_name_H-M   'P 1'
_cell_length_a   15.39150000
_cell_length_b   15.39150000
_cell_length_c   9.70300000
_cell_angle_alpha   95.22200000
_cell_angle_beta   95.22200000
_cell_angle_gamma   32.51330000
_symmetry_Int_Tables_number   1
_chemical_formula_structural   MgP4H24C12(NO6)2
_chemical_formula_sum   'Mg2 P8 H48 C24 N4 O24'
_cell_volume   1229.93479678
_cell_formula_units_Z   2
loop_
 _symmetry_equiv_pos_site_id
 _symmetry_equiv_pos_as_xyz
  1  'x, y, z'
loop_
 _atom_site_type_symbol
 _atom_site_label
 _atom_site_symmetry_multiplicity
 _atom_site_fract_x
 _atom_site_fract_y
 _atom_site_fract_z
 _atom_site_occupancy
 _atom_site_charge
  Mg  Mg1  1  0.000000  0.500000  0.000000  1.0  1.5631
  Mg  Mg2  1  0.500000  0.000000  0.500000  1.0  1.5631
  P  P3  1  0.276380  0.424580  0.938900  1.0  1.5021
  P  P4  1  0.800740  0.772740  0.759900  1.0  1.4597
  P  P5  1  0.575420  0.723620  0.561100  1.0  1.4959
  P  P6  1  0.227260  0.199260  0.740100  1.0  1.4599
  P  P7  1  0.723620  0.575420  0.061100  1.0  1.502
  P  P8  1  0.199260  0.227260  0.240100  1.0  1.4602
  P  P9  1  0.424580  0.276380  0.438900  1.0  1.4975
  P  P10  1  0.772740  0.800740  0.259900  1.0  1.4582
  H  H11  1  0.944990  0.303160  0.780670  1.0  0.1118
  H  H12  1  0.751510  0.464040  0.679510  1.0  0.0982
  H  H13  1  0.094060  0.149780  0.557360  1.0  0.0824
  H  H14  1  0.896890  0.304780  0.461930  1.0  0.0873
  H  H15  1  0.820370  0.252700  0.606310  1.0  0.0992
  H  H16  1  0.021960  0.087710  0.690480  1.0  0.1125
  H  H17  1  0.153080  0.926970  0.487810  1.0  0.1025
  H  H18  1  0.964900  0.085350  0.382330  1.0  0.096
  H  H19  1  0.102570  0.242900  0.524320  1.0  0.1099
  H  H20  1  0.059130  0.397300  0.558440  1.0  0.1314
  H  H21  1  0.172530  0.517150  0.555170  1.0  0.1612
  H  H22  1  0.184990  0.392720  0.479430  1.0  0.097
  H  H23  1  0.696840  0.055010  0.719330  1.0  0.1129
  H  H24  1  0.535960  0.248490  0.820490  1.0  0.0993
  H  H25  1  0.850220  0.905940  0.942640  1.0  0.0831
  H  H26  1  0.695220  0.103110  0.038070  1.0  0.0829
  H  H27  1  0.747300  0.179630  0.893690  1.0  0.098
  H  H28  1  0.912290  0.978040  0.809520  1.0  0.1139
  H  H29  1  0.073030  0.846920  0.012190  1.0  0.0979
  H  H30  1  0.914650  0.035100  0.117670  1.0  0.0975
  H  H31  1  0.757100  0.897430  0.975680  1.0  0.1114
  H  H32  1  0.602700  0.940870  0.941560  1.0  0.1338
  H  H33  1  0.482850  0.827470  0.944830  1.0  0.1626
  H  H34  1  0.607280  0.815010  0.020570  1.0  0.0978
  H  H35  1  0.055010  0.696840  0.219330  1.0  0.1123
  H  H36  1  0.248490  0.535960  0.320490  1.0  0.0966
  H  H37  1  0.905940  0.850220  0.442640  1.0  0.0828
  H  H38  1  0.103110  0.695220  0.538070  1.0  0.0833
  H  H39  1  0.179630  0.747300  0.393690  1.0  0.0968
  H  H40  1  0.978040  0.912290  0.309520  1.0  0.1137
  H  H41  1  0.846920  0.073030  0.512190  1.0  0.104
  H  H42  1  0.035100  0.914650  0.617670  1.0  0.0978
  H  H43  1  0.897430  0.757100  0.475680  1.0  0.1116
  H  H44  1  0.940870  0.602700  0.441560  1.0  0.1332
  H  H45  1  0.827470  0.482850  0.444830  1.0  0.1631
  H  H46  1  0.815010  0.607280  0.520570  1.0  0.0964
  H  H47  1  0.303160  0.944990  0.280670  1.0  0.1123
  H  H48  1  0.464040  0.751510  0.179510  1.0  0.0986
  H  H49  1  0.149780  0.094060  0.057360  1.0  0.0831
  H  H50  1  0.304780  0.896890  0.961930  1.0  0.0862
  H  H51  1  0.252700  0.820370  0.106310  1.0  0.0967
  H  H52  1  0.087710  0.021960  0.190480  1.0  0.1127
  H  H53  1  0.926970  0.153080  0.987810  1.0  0.1004
  H  H54  1  0.085350  0.964900  0.882330  1.0  0.0959
  H  H55  1  0.242900  0.102570  0.024320  1.0  0.109
  H  H56  1  0.397300  0.059130  0.058440  1.0  0.1324
  H  H57  1  0.517150  0.172530  0.055170  1.0  0.1603
  H  H58  1  0.392720  0.184990  0.979430  1.0  0.0987
  C  C59  1  0.442500  0.209700  0.959700  1.0  -0.0873
  C  C60  1  0.675200  0.931200  0.892300  1.0  -0.0456
  C  C61  1  0.634860  0.113660  0.823300  1.0  -0.0058
  C  C62  1  0.757700  0.038300  0.934800  1.0  0.0101
  C  C63  1  0.843190  0.047190  0.909700  1.0  -0.0472
  C  C64  1  0.966590  0.983590  0.009600  1.0  -0.0831
  C  C65  1  0.790300  0.557500  0.540300  1.0  -0.0863
  C  C66  1  0.068800  0.324800  0.607700  1.0  -0.0464
  C  C67  1  0.886340  0.365140  0.676700  1.0  -0.0064
  C  C68  1  0.961700  0.242300  0.565200  1.0  0.0108
  C  C69  1  0.952810  0.156810  0.590300  1.0  -0.0493
  C  C70  1  0.016410  0.033410  0.490400  1.0  -0.0833
  C  C71  1  0.557500  0.790300  0.040300  1.0  -0.089
  C  C72  1  0.324800  0.068800  0.107700  1.0  -0.0446
  C  C73  1  0.365140  0.886340  0.176700  1.0  -0.0079
  C  C74  1  0.242300  0.961700  0.065200  1.0  0.0098
  C  C75  1  0.156810  0.952810  0.090300  1.0  -0.0495
  C  C76  1  0.033410  0.016410  0.990400  1.0  -0.0876
  C  C77  1  0.209700  0.442500  0.459700  1.0  -0.0901
  C  C78  1  0.931200  0.675200  0.392300  1.0  -0.0473
  C  C79  1  0.113660  0.634860  0.323300  1.0  -0.0045
  C  C80  1  0.038300  0.757700  0.434800  1.0  0.0118
  C  C81  1  0.047190  0.843190  0.409700  1.0  -0.0485
  C  C82  1  0.983590  0.966590  0.509600  1.0  -0.0894
  N  N83  1  0.555250  0.096250  0.843700  1.0  -0.2725
  N  N84  1  0.903750  0.444750  0.656300  1.0  -0.2754
  N  N85  1  0.444750  0.903750  0.156300  1.0  -0.274
  N  N86  1  0.096250  0.555250  0.343700  1.0  -0.2742
  O  O87  1  0.140520  0.498720  0.016900  1.0  -0.8435
  O  O88  1  0.332660  0.467660  0.004900  1.0  -0.6363
  O  O89  1  0.237000  0.467000  0.789100  1.0  -0.7183
  O  O90  1  0.697200  0.839600  0.632400  1.0  -0.8143
  O  O91  1  0.872360  0.629960  0.813600  1.0  -0.8028
  O  O92  1  0.922730  0.735730  0.719500  1.0  -0.6818
  O  O93  1  0.501280  0.859480  0.483100  1.0  -0.8427
  O  O94  1  0.532340  0.667340  0.495100  1.0  -0.6298
  O  O95  1  0.533000  0.763000  0.710900  1.0  -0.7157
  O  O96  1  0.160400  0.302800  0.867600  1.0  -0.8132
  O  O97  1  0.370040  0.127640  0.686400  1.0  -0.8039
  O  O98  1  0.264270  0.077270  0.780500  1.0  -0.6814
  O  O99  1  0.859480  0.501280  0.983100  1.0  -0.8454
  O  O100  1  0.667340  0.532340  0.995100  1.0  -0.6324
  O  O101  1  0.763000  0.533000  0.210900  1.0  -0.7165
  O  O102  1  0.302800  0.160400  0.367600  1.0  -0.8123
  O  O103  1  0.127640  0.370040  0.186400  1.0  -0.8026
  O  O104  1  0.077270  0.264270  0.280500  1.0  -0.68
  O  O105  1  0.498720  0.140520  0.516900  1.0  -0.8447
  O  O106  1  0.467660  0.332660  0.504900  1.0  -0.6355
  O  O107  1  0.467000  0.237000  0.289100  1.0  -0.7178
  O  O108  1  0.839600  0.697200  0.132400  1.0  -0.8136
  O  O109  1  0.629960  0.872360  0.313600  1.0  -0.8025
  O  O110  1  0.735730  0.922730  0.219500  1.0  -0.6803
