# generated using pymatgen
data_AgBH16C32N4OF4
_symmetry_space_group_name_H-M   'P 1'
_cell_length_a   15.62090000
_cell_length_b   15.62090000
_cell_length_c   19.89440000
_cell_angle_alpha   73.10290000
_cell_angle_beta   73.10330000
_cell_angle_gamma   105.05000000
_symmetry_Int_Tables_number   1
_chemical_formula_structural   AgBH16C32N4OF4
_chemical_formula_sum   'Ag4 B4 H64 C128 N16 O4 F16'
_cell_volume   4118.44735408
_cell_formula_units_Z   4
loop_
 _symmetry_equiv_pos_site_id
 _symmetry_equiv_pos_as_xyz
  1  'x, y, z'
loop_
 _atom_site_type_symbol
 _atom_site_label
 _atom_site_symmetry_multiplicity
 _atom_site_fract_x
 _atom_site_fract_y
 _atom_site_fract_z
 _atom_site_occupancy
 _atom_site_charge
  Ag  Ag1  1  0.426490  0.676490  0.147020  1.0  0.5285
  Ag  Ag2  1  0.323520  0.573510  0.352970  1.0  0.529
  Ag  Ag3  1  0.573510  0.323510  0.852980  1.0  0.5294
  Ag  Ag4  1  0.676490  0.426490  0.647020  1.0  0.5289
  B  B5  1  0.231400  0.768600  0.250000  1.0  0.9125
  B  B6  1  0.518600  0.481400  0.250000  1.0  0.9156
  B  B7  1  0.768600  0.231400  0.750000  1.0  0.916
  B  B8  1  0.481400  0.518600  0.750000  1.0  0.9121
  H  H9  1  0.402300  0.536500  0.069800  1.0  0.1237
  H  H10  1  0.424200  0.540200  0.949600  1.0  0.1114
  H  H11  1  0.293700  0.485300  0.920200  1.0  0.1158
  H  H12  1  0.115500  0.423500  0.133000  1.0  0.1247
  H  H13  1  0.011200  0.373000  0.873000  1.0  0.1251
  H  H14  1  0.868900  0.315500  0.858600  1.0  0.1169
  H  H15  1  0.720400  0.284000  0.071000  1.0  0.1358
  H  H16  1  0.862600  0.340400  0.084600  1.0  0.1244
  H  H17  1  0.527900  0.893700  0.069800  1.0  0.1247
  H  H18  1  0.626200  0.010200  0.949600  1.0  0.1116
  H  H19  1  0.786100  0.094500  0.920200  1.0  0.1141
  H  H20  1  0.751500  0.943500  0.133000  1.0  0.1253
  H  H21  1  0.115800  0.254000  0.873000  1.0  0.1242
  H  H22  1  0.272500  0.325900  0.858600  1.0  0.117
  H  H23  1  0.208600  0.145000  0.071000  1.0  0.1355
  H  H24  1  0.052800  0.075000  0.084600  1.0  0.1258
  H  H25  1  0.463500  0.597700  0.430200  1.0  0.1251
  H  H26  1  0.459800  0.575800  0.550400  1.0  0.111
  H  H27  1  0.514700  0.706300  0.579800  1.0  0.1151
  H  H28  1  0.576500  0.884500  0.367000  1.0  0.124
  H  H29  1  0.627000  0.988800  0.627000  1.0  0.1242
  H  H30  1  0.684500  0.131100  0.641400  1.0  0.1171
  H  H31  1  0.716000  0.279600  0.429000  1.0  0.1355
  H  H32  1  0.659600  0.137400  0.415400  1.0  0.1245
  H  H33  1  0.106300  0.472100  0.430200  1.0  0.1251
  H  H34  1  0.989800  0.373800  0.550400  1.0  0.1121
  H  H35  1  0.905500  0.213900  0.579800  1.0  0.1153
  H  H36  1  0.056500  0.248500  0.367000  1.0  0.1253
  H  H37  1  0.746000  0.884200  0.627000  1.0  0.1246
  H  H38  1  0.674100  0.727500  0.641400  1.0  0.1167
  H  H39  1  0.855000  0.791400  0.429000  1.0  0.1371
  H  H40  1  0.925000  0.947200  0.415400  1.0  0.1255
  H  H41  1  0.597700  0.463500  0.930200  1.0  0.1241
  H  H42  1  0.575800  0.459800  0.050400  1.0  0.1137
  H  H43  1  0.706300  0.514700  0.079800  1.0  0.1153
  H  H44  1  0.884500  0.576500  0.867000  1.0  0.1243
  H  H45  1  0.988800  0.627000  0.127000  1.0  0.1242
  H  H46  1  0.131100  0.684500  0.141400  1.0  0.1173
  H  H47  1  0.279600  0.716000  0.929000  1.0  0.1363
  H  H48  1  0.137400  0.659600  0.915400  1.0  0.124
  H  H49  1  0.472100  0.106300  0.930200  1.0  0.1243
  H  H50  1  0.373800  0.989800  0.050400  1.0  0.1142
  H  H51  1  0.213900  0.905500  0.079800  1.0  0.1147
  H  H52  1  0.248500  0.056500  0.867000  1.0  0.1248
  H  H53  1  0.884200  0.746000  0.127000  1.0  0.1245
  H  H54  1  0.727500  0.674100  0.141400  1.0  0.1167
  H  H55  1  0.791400  0.855000  0.929000  1.0  0.1367
  H  H56  1  0.947200  0.925000  0.915400  1.0  0.1254
  H  H57  1  0.536500  0.402300  0.569800  1.0  0.1247
  H  H58  1  0.540200  0.424200  0.449600  1.0  0.1134
  H  H59  1  0.485300  0.293700  0.420200  1.0  0.1156
  H  H60  1  0.423500  0.115500  0.633000  1.0  0.1245
  H  H61  1  0.373000  0.011200  0.373000  1.0  0.1252
  H  H62  1  0.315500  0.868900  0.358600  1.0  0.1174
  H  H63  1  0.284000  0.720400  0.571000  1.0  0.1355
  H  H64  1  0.340400  0.862600  0.584600  1.0  0.1248
  H  H65  1  0.893700  0.527900  0.569800  1.0  0.1248
  H  H66  1  0.010200  0.626200  0.449600  1.0  0.1148
  H  H67  1  0.094500  0.786100  0.420200  1.0  0.1152
  H  H68  1  0.943500  0.751500  0.633000  1.0  0.1251
  H  H69  1  0.254000  0.115800  0.373000  1.0  0.1247
  H  H70  1  0.325900  0.272500  0.358600  1.0  0.1172
  H  H71  1  0.145000  0.208600  0.571000  1.0  0.1364
  H  H72  1  0.075000  0.052800  0.584600  1.0  0.1258
  C  C73  1  0.241180  0.479080  0.189540  1.0  0.3308
  C  C74  1  0.256950  0.479710  0.113340  1.0  -0.0872
  C  C75  1  0.349200  0.514600  0.058400  1.0  -0.0567
  C  C76  1  0.362010  0.516610  0.986780  1.0  -0.0863
  C  C77  1  0.283610  0.484010  0.968980  1.0  -0.1117
  C  C78  1  0.191340  0.449740  0.022720  1.0  -0.0162
  C  C79  1  0.177660  0.447100  0.095840  1.0  -0.1242
  C  C80  1  0.108570  0.419170  0.004860  1.0  0.0203
  C  C81  1  0.038320  0.394320  0.992960  1.0  -0.0478
  C  C82  1  0.950300  0.360300  0.982000  1.0  -0.0202
  C  C83  1  0.952400  0.354200  0.913000  1.0  -0.0904
  C  C84  1  0.867400  0.320400  0.904400  1.0  -0.1496
  C  C85  1  0.780700  0.293900  0.963200  1.0  -0.0716
  C  C86  1  0.692120  0.262320  0.952960  1.0  0.3481
  C  C87  1  0.778900  0.301500  0.031000  1.0  -0.0959
  C  C88  1  0.864200  0.335000  0.039000  1.0  -0.0877
  C  C89  1  0.569280  0.831380  0.189540  1.0  0.331
  C  C90  1  0.629710  0.906950  0.113340  1.0  -0.089
  C  C91  1  0.592400  0.927000  0.058400  1.0  -0.0587
  C  C92  1  0.651210  0.996610  0.986780  1.0  -0.0841
  C  C93  1  0.747410  0.047010  0.968980  1.0  -0.1142
  C  C94  1  0.785940  0.027540  0.022720  1.0  -0.0137
  C  C95  1  0.726500  0.957060  0.095840  1.0  -0.1192
  C  C96  1  0.886570  0.075970  0.004860  1.0  0.0189
  C  C97  1  0.968720  0.112720  0.992960  1.0  -0.0472
  C  C98  1  0.067700  0.157700  0.982000  1.0  -0.0235
  C  C99  1  0.134600  0.232800  0.913000  1.0  -0.0917
  C  C100  1  0.228200  0.275200  0.904400  1.0  -0.1549
  C  C101  1  0.256100  0.242900  0.963200  1.0  -0.0672
  C  C102  1  0.354920  0.284720  0.952960  1.0  0.3469
  C  C103  1  0.190100  0.167500  0.031000  1.0  -0.0911
  C  C104  1  0.096800  0.126000  0.039000  1.0  -0.091
  C  C105  1  0.520920  0.758820  0.310460  1.0  0.3304
  C  C106  1  0.520290  0.743050  0.386660  1.0  -0.0882
  C  C107  1  0.485400  0.650800  0.441600  1.0  -0.0586
  C  C108  1  0.483390  0.637990  0.513220  1.0  -0.0854
  C  C109  1  0.515990  0.716390  0.531020  1.0  -0.1108
  C  C110  1  0.550260  0.808660  0.477280  1.0  -0.0144
  C  C111  1  0.552900  0.822340  0.404160  1.0  -0.1212
  C  C112  1  0.580830  0.891430  0.495140  1.0  0.0178
  C  C113  1  0.605680  0.961680  0.507040  1.0  -0.0479
  C  C114  1  0.639700  0.049700  0.518000  1.0  -0.0171
  C  C115  1  0.645800  0.047600  0.587000  1.0  -0.0939
  C  C116  1  0.679600  0.132600  0.595600  1.0  -0.1505
  C  C117  1  0.706100  0.219300  0.536800  1.0  -0.0689
  C  C118  1  0.737680  0.307880  0.547040  1.0  0.3431
  C  C119  1  0.698500  0.221100  0.469000  1.0  -0.0957
  C  C120  1  0.665000  0.135800  0.461000  1.0  -0.0874
  C  C121  1  0.168620  0.430720  0.310460  1.0  0.33
  C  C122  1  0.093050  0.370290  0.386660  1.0  -0.0887
  C  C123  1  0.073000  0.407600  0.441600  1.0  -0.0629
  C  C124  1  0.003390  0.348790  0.513220  1.0  -0.0847
  C  C125  1  0.952990  0.252590  0.531020  1.0  -0.1139
  C  C126  1  0.972460  0.214060  0.477280  1.0  -0.0204
  C  C127  1  0.042940  0.273500  0.404160  1.0  -0.1175
  C  C128  1  0.924030  0.113430  0.495140  1.0  0.0189
  C  C129  1  0.887280  0.031280  0.507040  1.0  -0.0472
  C  C130  1  0.842300  0.932300  0.518000  1.0  -0.0161
  C  C131  1  0.767200  0.865400  0.587000  1.0  -0.0939
  C  C132  1  0.724800  0.771800  0.595600  1.0  -0.1524
  C  C133  1  0.757100  0.743900  0.536800  1.0  -0.0683
  C  C134  1  0.715280  0.645080  0.547040  1.0  0.3454
  C  C135  1  0.832500  0.809900  0.469000  1.0  -0.0905
  C  C136  1  0.874000  0.903200  0.461000  1.0  -0.0923
  C  C137  1  0.758820  0.520920  0.810460  1.0  0.3304
  C  C138  1  0.743050  0.520290  0.886660  1.0  -0.0864
  C  C139  1  0.650800  0.485400  0.941600  1.0  -0.0566
  C  C140  1  0.637990  0.483390  0.013220  1.0  -0.0871
  C  C141  1  0.716390  0.515990  0.031020  1.0  -0.1113
  C  C142  1  0.808660  0.550260  0.977280  1.0  -0.0135
  C  C143  1  0.822340  0.552900  0.904160  1.0  -0.1218
  C  C144  1  0.891430  0.580830  0.995140  1.0  0.02
  C  C145  1  0.961680  0.605680  0.007040  1.0  -0.0489
  C  C146  1  0.049700  0.639700  0.018000  1.0  -0.0241
  C  C147  1  0.047600  0.645800  0.087000  1.0  -0.0915
  C  C148  1  0.132600  0.679600  0.095600  1.0  -0.1493
  C  C149  1  0.219300  0.706100  0.036800  1.0  -0.0717
  C  C150  1  0.307880  0.737680  0.047040  1.0  0.3468
  C  C151  1  0.221100  0.698500  0.969000  1.0  -0.0967
  C  C152  1  0.135800  0.665000  0.961000  1.0  -0.0873
  C  C153  1  0.430720  0.168620  0.810460  1.0  0.331
  C  C154  1  0.370290  0.093050  0.886660  1.0  -0.0888
  C  C155  1  0.407600  0.073000  0.941600  1.0  -0.0593
  C  C156  1  0.348790  0.003390  0.013220  1.0  -0.0835
  C  C157  1  0.252590  0.952990  0.031020  1.0  -0.1144
  C  C158  1  0.214060  0.972460  0.977280  1.0  -0.0178
  C  C159  1  0.273500  0.042940  0.904160  1.0  -0.1181
  C  C160  1  0.113430  0.924030  0.995140  1.0  0.0188
  C  C161  1  0.031280  0.887280  0.007040  1.0  -0.0465
  C  C162  1  0.932300  0.842300  0.018000  1.0  -0.0207
  C  C163  1  0.865400  0.767200  0.087000  1.0  -0.0938
  C  C164  1  0.771800  0.724800  0.095600  1.0  -0.1549
  C  C165  1  0.743900  0.757100  0.036800  1.0  -0.0686
  C  C166  1  0.645080  0.715280  0.047040  1.0  0.3465
  C  C167  1  0.809900  0.832500  0.969000  1.0  -0.0906
  C  C168  1  0.903200  0.874000  0.961000  1.0  -0.0926
  C  C169  1  0.479080  0.241180  0.689540  1.0  0.3304
  C  C170  1  0.479710  0.256950  0.613340  1.0  -0.0894
  C  C171  1  0.514600  0.349200  0.558400  1.0  -0.0592
  C  C172  1  0.516610  0.362010  0.486780  1.0  -0.0855
  C  C173  1  0.484010  0.283610  0.468980  1.0  -0.1113
  C  C174  1  0.449740  0.191340  0.522720  1.0  -0.0176
  C  C175  1  0.447100  0.177660  0.595840  1.0  -0.1212
  C  C176  1  0.419170  0.108570  0.504860  1.0  0.0186
  C  C177  1  0.394320  0.038320  0.492960  1.0  -0.0474
  C  C178  1  0.360300  0.950300  0.482000  1.0  -0.0181
  C  C179  1  0.354200  0.952400  0.413000  1.0  -0.0924
  C  C180  1  0.320400  0.867400  0.404400  1.0  -0.1502
  C  C181  1  0.293900  0.780700  0.463200  1.0  -0.0702
  C  C182  1  0.262320  0.692120  0.452960  1.0  0.3452
  C  C183  1  0.301500  0.778900  0.531000  1.0  -0.0947
  C  C184  1  0.335000  0.864200  0.539000  1.0  -0.0856
  C  C185  1  0.831380  0.569280  0.689540  1.0  0.331
  C  C186  1  0.906950  0.629710  0.613340  1.0  -0.0884
  C  C187  1  0.927000  0.592400  0.558400  1.0  -0.0619
  C  C188  1  0.996610  0.651210  0.486780  1.0  -0.084
  C  C189  1  0.047010  0.747410  0.468980  1.0  -0.1144
  C  C190  1  0.027540  0.785940  0.522720  1.0  -0.0158
  C  C191  1  0.957060  0.726500  0.595840  1.0  -0.1213
  C  C192  1  0.075970  0.886570  0.504860  1.0  0.0186
  C  C193  1  0.112720  0.968720  0.492960  1.0  -0.0466
  C  C194  1  0.157700  0.067700  0.482000  1.0  -0.0157
  C  C195  1  0.232800  0.134600  0.413000  1.0  -0.0939
  C  C196  1  0.275200  0.228200  0.404400  1.0  -0.1539
  C  C197  1  0.242900  0.256100  0.463200  1.0  -0.0647
  C  C198  1  0.284720  0.354920  0.452960  1.0  0.3453
  C  C199  1  0.167500  0.190100  0.531000  1.0  -0.0915
  C  C200  1  0.126000  0.096800  0.539000  1.0  -0.0915
  N  N201  1  0.293200  0.536040  0.210240  1.0  -0.2253
  N  N202  1  0.622740  0.238740  0.944920  1.0  -0.447
  N  N203  1  0.496560  0.753720  0.210240  1.0  -0.2237
  N  N204  1  0.432340  0.316340  0.944920  1.0  -0.4467
  N  N205  1  0.463960  0.706800  0.289760  1.0  -0.2264
  N  N206  1  0.761260  0.377260  0.555080  1.0  -0.4484
  N  N207  1  0.246280  0.503440  0.289760  1.0  -0.2269
  N  N208  1  0.683660  0.567660  0.555080  1.0  -0.4467
  N  N209  1  0.706800  0.463960  0.789760  1.0  -0.2246
  N  N210  1  0.377260  0.761260  0.055080  1.0  -0.4469
  N  N211  1  0.503440  0.246280  0.789760  1.0  -0.2249
  N  N212  1  0.567660  0.683660  0.055080  1.0  -0.4461
  N  N213  1  0.536040  0.293200  0.710240  1.0  -0.2264
  N  N214  1  0.238740  0.622740  0.444920  1.0  -0.447
  N  N215  1  0.753720  0.496560  0.710240  1.0  -0.2253
  N  N216  1  0.316340  0.432340  0.444920  1.0  -0.4503
  O  O217  1  0.160400  0.410400  0.250000  1.0  -0.2352
  O  O218  1  0.589600  0.839600  0.250000  1.0  -0.2344
  O  O219  1  0.839600  0.589600  0.750000  1.0  -0.2344
  O  O220  1  0.410400  0.160400  0.750000  1.0  -0.2352
  F  F221  1  0.148800  0.666200  0.287800  1.0  -0.3547
  F  F222  1  0.197400  0.794400  0.303600  1.0  -0.2067
  F  F223  1  0.333800  0.851200  0.212200  1.0  -0.3545
  F  F224  1  0.205600  0.802600  0.196400  1.0  -0.2053
  F  F225  1  0.563400  0.546000  0.287800  1.0  -0.3557
  F  F226  1  0.499000  0.402000  0.303600  1.0  -0.2076
  F  F227  1  0.454000  0.436600  0.212200  1.0  -0.3548
  F  F228  1  0.598000  0.501000  0.196400  1.0  -0.207
  F  F229  1  0.851200  0.333800  0.712200  1.0  -0.3536
  F  F230  1  0.802600  0.205600  0.696400  1.0  -0.2071
  F  F231  1  0.666200  0.148800  0.787800  1.0  -0.353
  F  F232  1  0.794400  0.197400  0.803600  1.0  -0.2066
  F  F233  1  0.436600  0.454000  0.712200  1.0  -0.3552
  F  F234  1  0.501000  0.598000  0.696400  1.0  -0.2087
  F  F235  1  0.546000  0.563400  0.787800  1.0  -0.3561
  F  F236  1  0.402000  0.499000  0.803600  1.0  -0.2063
