# generated using pymatgen
data_AgH16C32N4ClO5
_symmetry_space_group_name_H-M   'P 1'
_cell_length_a   15.11850000
_cell_length_b   15.11850000
_cell_length_c   19.73400000
_cell_angle_alpha   107.50700000
_cell_angle_beta   107.50700000
_cell_angle_gamma   100.53300000
_symmetry_Int_Tables_number   1
_chemical_formula_structural   AgH16C32N4ClO5
_chemical_formula_sum   'Ag4 H64 C128 N16 Cl4 O20'
_cell_volume   3912.81025702
_cell_formula_units_Z   4
loop_
 _symmetry_equiv_pos_site_id
 _symmetry_equiv_pos_as_xyz
  1  'x, y, z'
loop_
 _atom_site_type_symbol
 _atom_site_label
 _atom_site_symmetry_multiplicity
 _atom_site_fract_x
 _atom_site_fract_y
 _atom_site_fract_z
 _atom_site_occupancy
 _atom_site_charge
  Ag  Ag1  1  0.567060  0.326840  0.647430  1.0  0.502
  Ag  Ag2  1  0.673160  0.432940  0.852570  1.0  0.5019
  Ag  Ag3  1  0.432940  0.673160  0.352570  1.0  0.5021
  Ag  Ag4  1  0.326840  0.567060  0.147430  1.0  0.502
  H  H5  1  0.885700  0.533700  0.930200  1.0  0.1223
  H  H6  1  0.003900  0.633300  0.049800  1.0  0.12
  H  H7  1  0.086500  0.791500  0.069900  1.0  0.111
  H  H8  1  0.935500  0.743300  0.850100  1.0  0.1263
  H  H9  1  0.231500  0.104300  0.106800  1.0  0.1227
  H  H10  1  0.303200  0.262400  0.125900  1.0  0.132
  H  H11  1  0.154600  0.205600  0.904100  1.0  0.1374
  H  H12  1  0.080700  0.049900  0.887800  1.0  0.1192
  H  H13  1  0.591100  0.450900  0.559700  1.0  0.1327
  H  H14  1  0.570600  0.444200  0.438300  1.0  0.1069
  H  H15  1  0.699500  0.497900  0.406900  1.0  0.1317
  H  H16  1  0.876700  0.572500  0.626500  1.0  0.1187
  H  H17  1  0.137100  0.678500  0.588400  1.0  0.124
  H  H18  1  0.277100  0.742700  0.573900  1.0  0.1321
  H  H19  1  0.128800  0.676600  0.351000  1.0  0.1284
  H  H20  1  0.984200  0.615400  0.364800  1.0  0.1273
  H  H21  1  0.466300  0.114300  0.569800  1.0  0.1213
  H  H22  1  0.366700  0.996100  0.450200  1.0  0.1198
  H  H23  1  0.208500  0.913500  0.430100  1.0  0.1109
  H  H24  1  0.256700  0.064500  0.649900  1.0  0.1264
  H  H25  1  0.895700  0.768500  0.393200  1.0  0.1237
  H  H26  1  0.737600  0.696800  0.374100  1.0  0.1316
  H  H27  1  0.794400  0.845400  0.595900  1.0  0.1364
  H  H28  1  0.950100  0.919300  0.612200  1.0  0.12
  H  H29  1  0.549100  0.408900  0.940300  1.0  0.1324
  H  H30  1  0.555800  0.429400  0.061700  1.0  0.1084
  H  H31  1  0.502100  0.300500  0.093100  1.0  0.1323
  H  H32  1  0.427500  0.123300  0.873500  1.0  0.1176
  H  H33  1  0.321500  0.862900  0.911600  1.0  0.126
  H  H34  1  0.257300  0.722900  0.926100  1.0  0.1311
  H  H35  1  0.323400  0.871200  0.149000  1.0  0.1282
  H  H36  1  0.384600  0.015800  0.135200  1.0  0.1263
  H  H37  1  0.114300  0.466300  0.069800  1.0  0.1224
  H  H38  1  0.996100  0.366700  0.950200  1.0  0.1193
  H  H39  1  0.913500  0.208500  0.930100  1.0  0.1108
  H  H40  1  0.064500  0.256700  0.149900  1.0  0.1262
  H  H41  1  0.768500  0.895700  0.893200  1.0  0.1235
  H  H42  1  0.696800  0.737600  0.874100  1.0  0.1318
  H  H43  1  0.845400  0.794400  0.095900  1.0  0.1369
  H  H44  1  0.919300  0.950100  0.112200  1.0  0.1206
  H  H45  1  0.408900  0.549100  0.440300  1.0  0.1324
  H  H46  1  0.429400  0.555800  0.561700  1.0  0.1073
  H  H47  1  0.300500  0.502100  0.593100  1.0  0.1313
  H  H48  1  0.123300  0.427500  0.373500  1.0  0.1183
  H  H49  1  0.862900  0.321500  0.411600  1.0  0.1253
  H  H50  1  0.722900  0.257300  0.426100  1.0  0.1315
  H  H51  1  0.871200  0.323400  0.649000  1.0  0.1279
  H  H52  1  0.015800  0.384600  0.635200  1.0  0.1275
  H  H53  1  0.533700  0.885700  0.430200  1.0  0.1223
  H  H54  1  0.633300  0.003900  0.549800  1.0  0.1201
  H  H55  1  0.791500  0.086500  0.569900  1.0  0.111
  H  H56  1  0.743300  0.935500  0.350100  1.0  0.1262
  H  H57  1  0.104300  0.231500  0.606800  1.0  0.1227
  H  H58  1  0.262400  0.303200  0.625900  1.0  0.1319
  H  H59  1  0.205600  0.154600  0.404100  1.0  0.1365
  H  H60  1  0.049900  0.080700  0.387800  1.0  0.1195
  H  H61  1  0.450900  0.591100  0.059700  1.0  0.1332
  H  H62  1  0.444200  0.570600  0.938300  1.0  0.1084
  H  H63  1  0.497900  0.699500  0.906900  1.0  0.1321
  H  H64  1  0.572500  0.876700  0.126500  1.0  0.1179
  H  H65  1  0.678500  0.137100  0.088400  1.0  0.1242
  H  H66  1  0.742700  0.277100  0.073900  1.0  0.1321
  H  H67  1  0.676600  0.128800  0.851000  1.0  0.1284
  H  H68  1  0.615400  0.984200  0.864800  1.0  0.1268
  C  C69  1  0.825700  0.564100  0.802300  1.0  0.434
  C  C70  1  0.901400  0.629200  0.880000  1.0  -0.0788
  C  C71  1  0.920000  0.596200  0.938500  1.0  -0.0319
  C  C72  1  0.989700  0.655900  0.010100  1.0  -0.0759
  C  C73  1  0.039000  0.751000  0.022100  1.0  -0.0859
  C  C74  1  0.016800  0.784600  0.963100  1.0  -0.0254
  C  C75  1  0.948900  0.722300  0.890800  1.0  -0.1335
  C  C76  1  0.066200  0.880000  0.975400  1.0  0.027
  C  C77  1  0.103100  0.959900  0.983300  1.0  0.0286
  C  C78  1  0.149500  0.060700  0.994900  1.0  -0.0347
  C  C79  1  0.216000  0.125000  0.066100  1.0  -0.0903
  C  C80  1  0.259200  0.218800  0.077600  1.0  -0.1542
  C  C81  1  0.236300  0.247900  0.016000  1.0  -0.019
  C  C82  1  0.277200  0.348800  0.029400  1.0  0.3278
  C  C83  1  0.170000  0.185400  0.945100  1.0  -0.1333
  C  C84  1  0.126700  0.092500  0.935600  1.0  -0.088
  C  C85  1  0.752000  0.514200  0.682300  1.0  0.3955
  C  C86  1  0.738100  0.511300  0.605500  1.0  -0.0455
  C  C87  1  0.644500  0.473300  0.548600  1.0  -0.1458
  C  C88  1  0.633000  0.469800  0.476100  1.0  -0.1094
  C  C89  1  0.709300  0.502300  0.456800  1.0  -0.1297
  C  C90  1  0.802500  0.542100  0.514600  1.0  -0.0403
  C  C91  1  0.814700  0.545700  0.588100  1.0  -0.1357
  C  C92  1  0.886600  0.575200  0.498900  1.0  0.2177
  C  C93  1  0.955200  0.603600  0.488800  1.0  0.1247
  C  C94  1  0.043900  0.640700  0.477600  1.0  -0.0415
  C  C95  1  0.134600  0.678600  0.540700  1.0  -0.0633
  C  C96  1  0.218400  0.715400  0.531800  1.0  -0.1239
  C  C97  1  0.215900  0.711900  0.460800  1.0  -0.0135
  C  C98  1  0.304900  0.742900  0.450800  1.0  0.3455
  C  C99  1  0.129700  0.676500  0.398400  1.0  -0.1012
  C  C100  1  0.042900  0.640100  0.406900  1.0  -0.0706
  C  C101  1  0.435900  0.174300  0.697700  1.0  0.4372
  C  C102  1  0.370800  0.098600  0.620000  1.0  -0.0801
  C  C103  1  0.403800  0.080000  0.561500  1.0  -0.0289
  C  C104  1  0.344100  0.010300  0.489900  1.0  -0.0782
  C  C105  1  0.249000  0.961000  0.477900  1.0  -0.0882
  C  C106  1  0.215400  0.983200  0.536900  1.0  -0.0283
  C  C107  1  0.277700  0.051100  0.609200  1.0  -0.1339
  C  C108  1  0.120000  0.933800  0.524600  1.0  0.0267
  C  C109  1  0.040100  0.896900  0.516700  1.0  0.0293
  C  C110  1  0.939300  0.850500  0.505100  1.0  -0.0391
  C  C111  1  0.875000  0.784000  0.433900  1.0  -0.0915
  C  C112  1  0.781200  0.740800  0.422400  1.0  -0.1565
  C  C113  1  0.752100  0.763700  0.484000  1.0  -0.0213
  C  C114  1  0.651200  0.722800  0.470600  1.0  0.3281
  C  C115  1  0.814600  0.830000  0.554900  1.0  -0.1373
  C  C116  1  0.907500  0.873300  0.564400  1.0  -0.0877
  C  C117  1  0.485800  0.248000  0.817700  1.0  0.3952
  C  C118  1  0.488700  0.261900  0.894500  1.0  -0.0456
  C  C119  1  0.526700  0.355500  0.951400  1.0  -0.1467
  C  C120  1  0.530200  0.367000  0.023900  1.0  -0.1053
  C  C121  1  0.497700  0.290700  0.043200  1.0  -0.1305
  C  C122  1  0.457900  0.197500  0.985400  1.0  -0.0414
  C  C123  1  0.454300  0.185300  0.911900  1.0  -0.1333
  C  C124  1  0.424800  0.113400  0.001100  1.0  0.2188
  C  C125  1  0.396400  0.044800  0.011200  1.0  0.1286
  C  C126  1  0.359300  0.956100  0.022400  1.0  -0.0349
  C  C127  1  0.321400  0.865400  0.959300  1.0  -0.0597
  C  C128  1  0.284600  0.781600  0.968200  1.0  -0.1224
  C  C129  1  0.288100  0.784100  0.039200  1.0  -0.0149
  C  C130  1  0.257100  0.695100  0.049200  1.0  0.3442
  C  C131  1  0.323500  0.870300  0.101600  1.0  -0.1055
  C  C132  1  0.359900  0.957100  0.093100  1.0  -0.0705
  C  C133  1  0.174300  0.435900  0.197700  1.0  0.435
  C  C134  1  0.098600  0.370800  0.120000  1.0  -0.0797
  C  C135  1  0.080000  0.403800  0.061500  1.0  -0.0305
  C  C136  1  0.010300  0.344100  0.989900  1.0  -0.0775
  C  C137  1  0.961000  0.249000  0.977900  1.0  -0.0876
  C  C138  1  0.983200  0.215400  0.036900  1.0  -0.0277
  C  C139  1  0.051100  0.277700  0.109200  1.0  -0.1325
  C  C140  1  0.933800  0.120000  0.024600  1.0  0.0286
  C  C141  1  0.896900  0.040100  0.016700  1.0  0.0286
  C  C142  1  0.850500  0.939300  0.005100  1.0  -0.0347
  C  C143  1  0.784000  0.875000  0.933900  1.0  -0.0896
  C  C144  1  0.740800  0.781200  0.922400  1.0  -0.1543
  C  C145  1  0.763700  0.752100  0.984000  1.0  -0.0218
  C  C146  1  0.722800  0.651200  0.970600  1.0  0.3285
  C  C147  1  0.830000  0.814600  0.054900  1.0  -0.1354
  C  C148  1  0.873300  0.907500  0.064400  1.0  -0.0888
  C  C149  1  0.248000  0.485800  0.317700  1.0  0.3938
  C  C150  1  0.261900  0.488700  0.394500  1.0  -0.044
  C  C151  1  0.355500  0.526700  0.451400  1.0  -0.1473
  C  C152  1  0.367000  0.530200  0.523900  1.0  -0.108
  C  C153  1  0.290700  0.497700  0.543200  1.0  -0.1307
  C  C154  1  0.197500  0.457900  0.485400  1.0  -0.0419
  C  C155  1  0.185300  0.454300  0.411900  1.0  -0.134
  C  C156  1  0.113400  0.424800  0.501100  1.0  0.2186
  C  C157  1  0.044800  0.396400  0.511200  1.0  0.13
  C  C158  1  0.956100  0.359300  0.522400  1.0  -0.0416
  C  C159  1  0.865400  0.321400  0.459300  1.0  -0.06
  C  C160  1  0.781600  0.284600  0.468200  1.0  -0.1219
  C  C161  1  0.784100  0.288100  0.539200  1.0  -0.0139
  C  C162  1  0.695100  0.257100  0.549200  1.0  0.3459
  C  C163  1  0.870300  0.323500  0.601600  1.0  -0.1044
  C  C164  1  0.957100  0.359900  0.593100  1.0  -0.0683
  C  C165  1  0.564100  0.825700  0.302300  1.0  0.4366
  C  C166  1  0.629200  0.901400  0.380000  1.0  -0.081
  C  C167  1  0.596200  0.920000  0.438500  1.0  -0.0285
  C  C168  1  0.655900  0.989700  0.510100  1.0  -0.078
  C  C169  1  0.751000  0.039000  0.522100  1.0  -0.0869
  C  C170  1  0.784600  0.016800  0.463100  1.0  -0.028
  C  C171  1  0.722300  0.948900  0.390800  1.0  -0.1312
  C  C172  1  0.880000  0.066200  0.475400  1.0  0.0267
  C  C173  1  0.959900  0.103100  0.483300  1.0  0.0289
  C  C174  1  0.060700  0.149500  0.494900  1.0  -0.0429
  C  C175  1  0.125000  0.216000  0.566100  1.0  -0.0915
  C  C176  1  0.218800  0.259200  0.577600  1.0  -0.1562
  C  C177  1  0.247900  0.236300  0.516000  1.0  -0.0206
  C  C178  1  0.348800  0.277200  0.529400  1.0  0.328
  C  C179  1  0.185400  0.170000  0.445100  1.0  -0.1317
  C  C180  1  0.092500  0.126700  0.435600  1.0  -0.0851
  C  C181  1  0.514200  0.752000  0.182300  1.0  0.3958
  C  C182  1  0.511300  0.738100  0.105500  1.0  -0.0477
  C  C183  1  0.473300  0.644500  0.048600  1.0  -0.1476
  C  C184  1  0.469800  0.633000  0.976100  1.0  -0.1085
  C  C185  1  0.502300  0.709300  0.956800  1.0  -0.1293
  C  C186  1  0.542100  0.802500  0.014600  1.0  -0.0389
  C  C187  1  0.545700  0.814700  0.088100  1.0  -0.1339
  C  C188  1  0.575200  0.886600  0.998900  1.0  0.2178
  C  C189  1  0.603600  0.955200  0.988800  1.0  0.1276
  C  C190  1  0.640700  0.043900  0.977600  1.0  -0.0371
  C  C191  1  0.678600  0.134600  0.040700  1.0  -0.0638
  C  C192  1  0.715400  0.218400  0.031800  1.0  -0.125
  C  C193  1  0.711900  0.215900  0.960800  1.0  -0.0132
  C  C194  1  0.742900  0.304900  0.950800  1.0  0.3423
  C  C195  1  0.676500  0.129700  0.898400  1.0  -0.1031
  C  C196  1  0.640100  0.042900  0.906900  1.0  -0.073
  N  N197  1  0.699900  0.463300  0.705100  1.0  -0.2525
  N  N198  1  0.749700  0.498300  0.786200  1.0  -0.2262
  N  N199  1  0.309500  0.427900  0.039600  1.0  -0.485
  N  N200  1  0.374300  0.767100  0.443800  1.0  -0.4734
  N  N201  1  0.536700  0.300100  0.794900  1.0  -0.2515
  N  N202  1  0.501700  0.250300  0.713800  1.0  -0.2242
  N  N203  1  0.572100  0.690500  0.460400  1.0  -0.4822
  N  N204  1  0.232900  0.625700  0.056200  1.0  -0.473
  N  N205  1  0.300100  0.536700  0.294900  1.0  -0.2529
  N  N206  1  0.250300  0.501700  0.213800  1.0  -0.2254
  N  N207  1  0.690500  0.572100  0.960400  1.0  -0.4831
  N  N208  1  0.625700  0.232900  0.556200  1.0  -0.4729
  N  N209  1  0.463300  0.699900  0.205100  1.0  -0.2517
  N  N210  1  0.498300  0.749700  0.286200  1.0  -0.2261
  N  N211  1  0.427900  0.309500  0.539600  1.0  -0.4822
  N  N212  1  0.767100  0.374300  0.943800  1.0  -0.4745
  Cl  Cl213  1  0.525800  0.474200  0.250000  1.0  1.6205
  Cl  Cl214  1  0.474200  0.525800  0.750000  1.0  1.6181
  Cl  Cl215  1  0.775800  0.224200  0.750000  1.0  1.6807
  Cl  Cl216  1  0.224200  0.775800  0.250000  1.0  1.6795
  O  O217  1  0.833600  0.580800  0.740800  1.0  -0.2465
  O  O218  1  0.419200  0.166400  0.759200  1.0  -0.2482
  O  O219  1  0.166400  0.419200  0.259200  1.0  -0.2485
  O  O220  1  0.580800  0.833600  0.240800  1.0  -0.2467
  O  O221  1  0.618100  0.478900  0.259000  1.0  -0.5512
  O  O222  1  0.521500  0.527300  0.314500  1.0  -0.6789
  O  O223  1  0.521100  0.381900  0.241000  1.0  -0.5551
  O  O224  1  0.472700  0.478500  0.185500  1.0  -0.6787
  O  O225  1  0.381900  0.521100  0.741000  1.0  -0.5527
  O  O226  1  0.478500  0.472700  0.685500  1.0  -0.6796
  O  O227  1  0.478900  0.618100  0.759000  1.0  -0.5547
  O  O228  1  0.527300  0.521500  0.814500  1.0  -0.6769
  O  O229  1  0.823900  0.207100  0.811800  1.0  -0.5835
  O  O230  1  0.681500  0.195500  0.741400  1.0  -0.5746
  O  O231  1  0.792900  0.176100  0.688200  1.0  -0.582
  O  O232  1  0.804500  0.318500  0.758600  1.0  -0.576
  O  O233  1  0.176100  0.792900  0.188200  1.0  -0.5823
  O  O234  1  0.318500  0.804500  0.258600  1.0  -0.5754
  O  O235  1  0.207100  0.823900  0.311800  1.0  -0.5836
  O  O236  1  0.195500  0.681500  0.241400  1.0  -0.5761
