# generated using pymatgen
data_CuH12C11N2O3
_symmetry_space_group_name_H-M   'P 1'
_cell_length_a   14.52620000
_cell_length_b   14.52620000
_cell_length_c   14.52620000
_cell_angle_alpha   63.07670000
_cell_angle_beta   74.12130000
_cell_angle_gamma   105.87900000
_symmetry_Int_Tables_number   1
_chemical_formula_structural   CuH12C11N2O3
_chemical_formula_sum   'Cu8 H96 C88 N16 O24'
_cell_volume   2329.26280696
_cell_formula_units_Z   8
loop_
 _symmetry_equiv_pos_site_id
 _symmetry_equiv_pos_as_xyz
  1  'x, y, z'
loop_
 _atom_site_type_symbol
 _atom_site_label
 _atom_site_symmetry_multiplicity
 _atom_site_fract_x
 _atom_site_fract_y
 _atom_site_fract_z
 _atom_site_occupancy
 _atom_site_charge
  Cu  Cu1  1  0.587800  0.092320  0.490850  1.0  0.8303
  Cu  Cu2  1  0.912200  0.421350  0.495480  1.0  0.8287
  Cu  Cu3  1  0.412200  0.907680  0.509150  1.0  0.8316
  Cu  Cu4  1  0.087800  0.578650  0.504520  1.0  0.8284
  Cu  Cu5  1  0.416830  0.509150  0.578650  1.0  0.8302
  Cu  Cu6  1  0.083170  0.504520  0.907680  1.0  0.8283
  Cu  Cu7  1  0.583170  0.490850  0.421350  1.0  0.83
  Cu  Cu8  1  0.916830  0.495480  0.092320  1.0  0.8284
  H  H9  1  0.358900  0.119000  0.485100  1.0  0.0872
  H  H10  1  0.322900  0.255700  0.340600  1.0  0.1024
  H  H11  1  0.346200  0.356600  0.153000  1.0  0.0916
  H  H12  1  0.487500  0.388300  0.006000  1.0  0.084
  H  H13  1  0.610100  0.326500  0.041000  1.0  0.1024
  H  H14  1  0.587900  0.222100  0.230600  1.0  0.1093
  H  H15  1  0.702700  0.266200  0.525900  1.0  0.0895
  H  H16  1  0.807300  0.094300  0.476400  1.0  0.0691
  H  H17  1  0.718300  0.973400  0.591300  1.0  0.0626
  H  H18  1  0.569800  0.964800  0.731400  1.0  0.0659
  H  H19  1  0.564800  0.080200  0.705200  1.0  0.0684
  H  H20  1  0.792000  0.016500  0.780900  1.0  0.0676
  H  H21  1  0.141100  0.656000  0.239900  1.0  0.0878
  H  H22  1  0.177100  0.836500  0.067200  1.0  0.1033
  H  H23  1  0.153800  0.000800  0.989600  1.0  0.0897
  H  H24  1  0.012500  0.006500  0.099200  1.0  0.0848
  H  H25  1  0.889900  0.848900  0.283600  1.0  0.1016
  H  H26  1  0.912100  0.681500  0.365800  1.0  0.1071
  H  H27  1  0.797300  0.271400  0.436500  1.0  0.0901
  H  H28  1  0.692700  0.216300  0.713000  1.0  0.0671
  H  H29  1  0.781700  0.190400  0.744900  1.0  0.0656
  H  H30  1  0.930200  0.198800  0.605000  1.0  0.0654
  H  H31  1  0.935200  0.230000  0.484600  1.0  0.0654
  H  H32  1  0.708000  0.927100  0.775500  1.0  0.0655
  H  H33  1  0.641100  0.881000  0.514900  1.0  0.088
  H  H34  1  0.677100  0.744300  0.659400  1.0  0.1032
  H  H35  1  0.653800  0.643400  0.847000  1.0  0.0914
  H  H36  1  0.512500  0.611700  0.994000  1.0  0.0848
  H  H37  1  0.389900  0.673500  0.959000  1.0  0.1023
  H  H38  1  0.412100  0.777900  0.769400  1.0  0.11
  H  H39  1  0.297300  0.733800  0.474100  1.0  0.0911
  H  H40  1  0.192700  0.905700  0.523600  1.0  0.0692
  H  H41  1  0.281700  0.026600  0.408700  1.0  0.0625
  H  H42  1  0.430200  0.035200  0.268600  1.0  0.0659
  H  H43  1  0.435200  0.919800  0.294800  1.0  0.0694
  H  H44  1  0.208000  0.983500  0.219100  1.0  0.068
  H  H45  1  0.858900  0.344000  0.760100  1.0  0.0871
  H  H46  1  0.822900  0.163500  0.932800  1.0  0.1027
  H  H47  1  0.846200  0.999200  0.010400  1.0  0.0895
  H  H48  1  0.987500  0.993500  0.900800  1.0  0.085
  H  H49  1  0.110100  0.151100  0.716400  1.0  0.1023
  H  H50  1  0.087900  0.318500  0.634200  1.0  0.1067
  H  H51  1  0.202700  0.728600  0.563500  1.0  0.0903
  H  H52  1  0.307300  0.783700  0.287000  1.0  0.0679
  H  H53  1  0.218300  0.809600  0.255100  1.0  0.0652
  H  H54  1  0.069800  0.801200  0.395000  1.0  0.0653
  H  H55  1  0.064800  0.770000  0.515400  1.0  0.0659
  H  H56  1  0.292000  0.072900  0.224500  1.0  0.0665
  H  H57  1  0.395900  0.514900  0.344000  1.0  0.0889
  H  H58  1  0.403700  0.659400  0.163500  1.0  0.1024
  H  H59  1  0.490400  0.847000  0.999200  1.0  0.0919
  H  H60  1  0.605700  0.994000  0.993500  1.0  0.0861
  H  H61  1  0.632500  0.959000  0.151100  1.0  0.1025
  H  H62  1  0.547300  0.769400  0.318500  1.0  0.108
  H  H63  1  0.207900  0.474100  0.728600  1.0  0.091
  H  H64  1  0.429300  0.523600  0.783700  1.0  0.0693
  H  H65  1  0.435300  0.408700  0.809600  1.0  0.0662
  H  H66  1  0.303800  0.268600  0.801200  1.0  0.065
  H  H67  1  0.214600  0.294800  0.770000  1.0  0.0647
  H  H68  1  0.202600  0.219100  0.072900  1.0  0.0672
  H  H69  1  0.104100  0.760100  0.881000  1.0  0.0881
  H  H70  1  0.096300  0.932800  0.744300  1.0  0.1034
  H  H71  1  0.009600  0.010400  0.643400  1.0  0.0902
  H  H72  1  0.894300  0.900800  0.611700  1.0  0.0846
  H  H73  1  0.867500  0.716400  0.673500  1.0  0.1031
  H  H74  1  0.952700  0.634200  0.777900  1.0  0.1069
  H  H75  1  0.292100  0.563500  0.733800  1.0  0.0902
  H  H76  1  0.070700  0.287000  0.905700  1.0  0.0685
  H  H77  1  0.064700  0.255100  0.026600  1.0  0.0636
  H  H78  1  0.196200  0.395000  0.035200  1.0  0.0663
  H  H79  1  0.285400  0.515400  0.919800  1.0  0.0636
  H  H80  1  0.297400  0.224500  0.983500  1.0  0.0664
  H  H81  1  0.604100  0.485100  0.656000  1.0  0.0885
  H  H82  1  0.596300  0.340600  0.836500  1.0  0.1026
  H  H83  1  0.509600  0.153000  0.000800  1.0  0.0907
  H  H84  1  0.394300  0.006000  0.006500  1.0  0.0863
  H  H85  1  0.367500  0.041000  0.848900  1.0  0.1028
  H  H86  1  0.452700  0.230600  0.681500  1.0  0.1086
  H  H87  1  0.792100  0.525900  0.271400  1.0  0.0903
  H  H88  1  0.570700  0.476400  0.216300  1.0  0.0704
  H  H89  1  0.564700  0.591300  0.190400  1.0  0.0646
  H  H90  1  0.696200  0.731400  0.198800  1.0  0.0646
  H  H91  1  0.785400  0.705200  0.230000  1.0  0.0665
  H  H92  1  0.797400  0.780900  0.927100  1.0  0.0674
  H  H93  1  0.895900  0.239900  0.119000  1.0  0.0892
  H  H94  1  0.903700  0.067200  0.255700  1.0  0.1025
  H  H95  1  0.990400  0.989600  0.356600  1.0  0.09
  H  H96  1  0.105700  0.099200  0.388300  1.0  0.0846
  H  H97  1  0.132500  0.283600  0.326500  1.0  0.1032
  H  H98  1  0.047300  0.365800  0.222100  1.0  0.1075
  H  H99  1  0.707900  0.436500  0.266200  1.0  0.09
  H  H100  1  0.929300  0.713000  0.094300  1.0  0.069
  H  H101  1  0.935300  0.744900  0.973400  1.0  0.0638
  H  H102  1  0.803800  0.605000  0.964800  1.0  0.0637
  H  H103  1  0.714600  0.484600  0.080200  1.0  0.0648
  H  H104  1  0.702600  0.775500  0.016500  1.0  0.0659
  C  C105  1  0.500330  0.243320  0.451870  1.0  0.6305
  C  C106  1  0.435860  0.157470  0.430590  1.0  0.0659
  C  C107  1  0.451900  0.226480  0.306220  1.0  0.0247
  C  C108  1  0.380800  0.268600  0.280800  1.0  -0.1339
  C  C109  1  0.394600  0.329100  0.168700  1.0  -0.0743
  C  C110  1  0.479000  0.348500  0.081500  1.0  -0.086
  C  C111  1  0.551600  0.310900  0.102300  1.0  -0.086
  C  C112  1  0.538510  0.248410  0.216100  1.0  -0.1224
  C  C113  1  0.759420  0.055400  0.558260  1.0  0.1299
  C  C114  1  0.613370  0.046970  0.696020  1.0  0.1222
  C  C115  1  0.999670  0.547800  0.257010  1.0  0.6318
  C  C116  1  0.064140  0.633550  0.278390  1.0  0.0682
  C  C117  1  0.048100  0.741880  0.225420  1.0  0.0248
  C  C118  1  0.119200  0.838400  0.112200  1.0  -0.1371
  C  C119  1  0.105400  0.936700  0.065500  1.0  -0.0755
  C  C120  1  0.021000  0.939500  0.130500  1.0  -0.0822
  C  C121  1  0.948400  0.846100  0.240700  1.0  -0.0847
  C  C122  1  0.961490  0.745390  0.290100  1.0  -0.1213
  C  C123  1  0.740580  0.182320  0.704020  1.0  0.1343
  C  C124  1  0.886630  0.190610  0.566400  1.0  0.1215
  C  C125  1  0.499670  0.756680  0.548130  1.0  0.6325
  C  C126  1  0.564140  0.842530  0.569410  1.0  0.0665
  C  C127  1  0.548100  0.773520  0.693780  1.0  0.0251
  C  C128  1  0.619200  0.731400  0.719200  1.0  -0.135
  C  C129  1  0.605400  0.670900  0.831300  1.0  -0.0757
  C  C130  1  0.521000  0.651500  0.918500  1.0  -0.0843
  C  C131  1  0.448400  0.689100  0.897700  1.0  -0.0866
  C  C132  1  0.461490  0.751590  0.783900  1.0  -0.1197
  C  C133  1  0.240580  0.944600  0.441740  1.0  0.1319
  C  C134  1  0.386630  0.953030  0.303980  1.0  0.1222
  C  C135  1  0.000330  0.452200  0.742990  1.0  0.632
  C  C136  1  0.935860  0.366450  0.721610  1.0  0.07
  C  C137  1  0.951900  0.258120  0.774580  1.0  0.0246
  C  C138  1  0.880800  0.161600  0.887800  1.0  -0.1349
  C  C139  1  0.894600  0.063300  0.934500  1.0  -0.0748
  C  C140  1  0.979000  0.060500  0.869500  1.0  -0.0839
  C  C141  1  0.051600  0.153900  0.759300  1.0  -0.0856
  C  C142  1  0.038510  0.254610  0.709900  1.0  -0.1227
  C  C143  1  0.259420  0.817680  0.295980  1.0  0.1317
  C  C144  1  0.113370  0.809390  0.433600  1.0  0.1223
  C  C145  1  0.750000  0.231200  0.518800  1.0  0.097
  C  C146  1  0.750000  0.009300  0.740700  1.0  0.1445
  C  C147  1  0.250000  0.768800  0.481200  1.0  0.0968
  C  C148  1  0.250000  0.990700  0.259300  1.0  0.1474
  C  C149  1  0.304810  0.548130  0.452200  1.0  0.6267
  C  C150  1  0.411940  0.569410  0.366450  1.0  0.0658
  C  C151  1  0.467300  0.693780  0.258120  1.0  0.0245
  C  C152  1  0.450600  0.719200  0.161600  1.0  -0.1341
  C  C153  1  0.502200  0.831300  0.063300  1.0  -0.0732
  C  C154  1  0.570000  0.918500  0.060500  1.0  -0.0798
  C  C155  1  0.586800  0.897700  0.153900  1.0  -0.0849
  C  C156  1  0.535490  0.783900  0.254610  1.0  -0.1204
  C  C157  1  0.386340  0.441740  0.817680  1.0  0.1341
  C  C158  1  0.257010  0.303980  0.809390  1.0  0.1204
  C  C159  1  0.195190  0.742990  0.756680  1.0  0.6279
  C  C160  1  0.088060  0.721610  0.842530  1.0  0.0673
  C  C161  1  0.032700  0.774580  0.773520  1.0  0.0238
  C  C162  1  0.049400  0.887800  0.731400  1.0  -0.14
  C  C163  1  0.997800  0.934500  0.670900  1.0  -0.0736
  C  C164  1  0.930000  0.869500  0.651500  1.0  -0.0845
  C  C165  1  0.913200  0.759300  0.689100  1.0  -0.0834
  C  C166  1  0.964510  0.709900  0.751590  1.0  -0.1208
  C  C167  1  0.113660  0.295980  0.944600  1.0  0.1346
  C  C168  1  0.242990  0.433600  0.953030  1.0  0.122
  C  C169  1  0.695190  0.451870  0.547800  1.0  0.6276
  C  C170  1  0.588060  0.430590  0.633550  1.0  0.0656
  C  C171  1  0.532700  0.306220  0.741880  1.0  0.0245
  C  C172  1  0.549400  0.280800  0.838400  1.0  -0.1358
  C  C173  1  0.497800  0.168700  0.936700  1.0  -0.0752
  C  C174  1  0.430000  0.081500  0.939500  1.0  -0.082
  C  C175  1  0.413200  0.102300  0.846100  1.0  -0.0852
  C  C176  1  0.464510  0.216100  0.745390  1.0  -0.1206
  C  C177  1  0.613660  0.558260  0.182320  1.0  0.1328
  C  C178  1  0.742990  0.696020  0.190610  1.0  0.1213
  C  C179  1  0.804810  0.257010  0.243320  1.0  0.6286
  C  C180  1  0.911940  0.278390  0.157470  1.0  0.0699
  C  C181  1  0.967300  0.225420  0.226480  1.0  0.0243
  C  C182  1  0.950600  0.112200  0.268600  1.0  -0.1366
  C  C183  1  0.002200  0.065500  0.329100  1.0  -0.0741
  C  C184  1  0.070000  0.130500  0.348500  1.0  -0.0834
  C  C185  1  0.086800  0.240700  0.310900  1.0  -0.0849
  C  C186  1  0.035490  0.290100  0.248410  1.0  -0.1229
  C  C187  1  0.886340  0.704020  0.055400  1.0  0.1342
  C  C188  1  0.757010  0.566400  0.046970  1.0  0.1191
  C  C189  1  0.250000  0.481200  0.768800  1.0  0.097
  C  C190  1  0.250000  0.259300  0.990700  1.0  0.1446
  C  C191  1  0.750000  0.518800  0.231200  1.0  0.0968
  C  C192  1  0.750000  0.740700  0.009300  1.0  0.1475
  N  N193  1  0.683790  0.106100  0.569350  1.0  -0.3074
  N  N194  1  0.823400  0.067630  0.617310  1.0  -0.3499
  N  N195  1  0.816210  0.246860  0.577690  1.0  -0.3073
  N  N196  1  0.676600  0.059290  0.755770  1.0  -0.3527
  N  N197  1  0.316210  0.893900  0.430650  1.0  -0.3067
  N  N198  1  0.176600  0.932370  0.382690  1.0  -0.3492
  N  N199  1  0.183790  0.753140  0.422310  1.0  -0.3071
  N  N200  1  0.323400  0.940710  0.244230  1.0  -0.3513
  N  N201  1  0.324550  0.430650  0.753140  1.0  -0.3066
  N  N202  1  0.315060  0.382690  0.940710  1.0  -0.3509
  N  N203  1  0.175450  0.422310  0.893900  1.0  -0.3075
  N  N204  1  0.184940  0.244230  0.932370  1.0  -0.3511
  N  N205  1  0.675450  0.569350  0.246860  1.0  -0.3072
  N  N206  1  0.684940  0.617310  0.059290  1.0  -0.3514
  N  N207  1  0.824550  0.577690  0.106100  1.0  -0.3065
  N  N208  1  0.815060  0.755770  0.067630  1.0  -0.3515
  O  O209  1  0.572630  0.226510  0.477540  1.0  -0.5578
  O  O210  1  0.479970  0.324370  0.440460  1.0  -0.5912
  O  O211  1  0.471130  0.073120  0.449970  1.0  -0.6183
  O  O212  1  0.927370  0.449830  0.346120  1.0  -0.5588
  O  O213  1  0.020030  0.579570  0.155600  1.0  -0.5919
  O  O214  1  0.028870  0.578900  0.398010  1.0  -0.6207
  O  O215  1  0.427370  0.773490  0.522460  1.0  -0.5577
  O  O216  1  0.520030  0.675630  0.559540  1.0  -0.5899
  O  O217  1  0.528870  0.926880  0.550030  1.0  -0.6196
  O  O218  1  0.072630  0.550170  0.653880  1.0  -0.5582
  O  O219  1  0.979970  0.420430  0.844400  1.0  -0.5914
  O  O220  1  0.971130  0.421100  0.601990  1.0  -0.6195
  O  O221  1  0.295950  0.522460  0.550170  1.0  -0.5574
  O  O222  1  0.235170  0.559540  0.420430  1.0  -0.5905
  O  O223  1  0.476910  0.550030  0.421100  1.0  -0.6188
  O  O224  1  0.204050  0.653880  0.773490  1.0  -0.5555
  O  O225  1  0.264830  0.844400  0.675630  1.0  -0.5898
  O  O226  1  0.023090  0.601990  0.926880  1.0  -0.6199
  O  O227  1  0.704050  0.477540  0.449830  1.0  -0.5558
  O  O228  1  0.764830  0.440460  0.579570  1.0  -0.5908
  O  O229  1  0.523090  0.449970  0.578900  1.0  -0.6201
  O  O230  1  0.795950  0.346120  0.226510  1.0  -0.5566
  O  O231  1  0.735170  0.155600  0.324370  1.0  -0.5888
  O  O232  1  0.976910  0.398010  0.073120  1.0  -0.619
