# generated using pymatgen
data_AgH18(C7N3)2
_symmetry_space_group_name_H-M   'P 1'
_cell_length_a   6.67370000
_cell_length_b   18.87690000
_cell_length_c   13.55250000
_cell_angle_alpha   90.00000000
_cell_angle_beta   95.26600000
_cell_angle_gamma   90.00000000
_symmetry_Int_Tables_number   1
_chemical_formula_structural   AgH18(C7N3)2
_chemical_formula_sum   'Ag4 H72 C56 N24'
_cell_volume   1700.12119346
_cell_formula_units_Z   4
loop_
 _symmetry_equiv_pos_site_id
 _symmetry_equiv_pos_as_xyz
  1  'x, y, z'
loop_
 _atom_site_type_symbol
 _atom_site_label
 _atom_site_symmetry_multiplicity
 _atom_site_fract_x
 _atom_site_fract_y
 _atom_site_fract_z
 _atom_site_occupancy
 _atom_site_charge
  Ag  Ag1  1  0.270940  0.008530  0.945940  1.0  0.3442
  Ag  Ag2  1  0.729060  0.508530  0.554060  1.0  0.3449
  Ag  Ag3  1  0.729060  0.991470  0.054060  1.0  0.3441
  Ag  Ag4  1  0.270940  0.491470  0.445940  1.0  0.3434
  H  H5  1  0.673100  0.015700  0.794600  1.0  0.0885
  H  H6  1  0.637600  0.219400  0.839500  1.0  0.0834
  H  H7  1  0.248100  0.315700  0.510000  1.0  0.0907
  H  H8  1  0.760700  0.346100  0.644700  1.0  0.0942
  H  H9  1  0.722700  0.231700  0.668800  1.0  0.0502
  H  H10  1  0.907900  0.237700  0.748900  1.0  0.0576
  H  H11  1  0.000000  0.196500  0.461000  1.0  0.0812
  H  H12  1  0.779800  0.206700  0.491100  1.0  0.077
  H  H13  1  0.845300  0.084000  0.472500  1.0  0.0623
  H  H14  1  0.623200  0.113700  0.593900  1.0  0.0647
  H  H15  1  0.744900  0.045000  0.627100  1.0  0.0729
  H  H16  1  0.107100  0.129600  0.803400  1.0  0.0695
  H  H17  1  0.047200  0.054900  0.758300  1.0  0.0789
  H  H18  1  0.324800  0.099000  0.681200  1.0  0.0538
  H  H19  1  0.295900  0.205500  0.588400  1.0  0.0651
  H  H20  1  0.262000  0.221800  0.699600  1.0  0.0668
  H  H21  1  0.101000  0.029200  0.578900  1.0  0.061
  H  H22  1  0.197000  0.087300  0.514800  1.0  0.0679
  H  H23  1  0.326900  0.515700  0.705400  1.0  0.0886
  H  H24  1  0.362400  0.719400  0.660500  1.0  0.0835
  H  H25  1  0.751900  0.815700  0.990000  1.0  0.0903
  H  H26  1  0.239300  0.846100  0.855300  1.0  0.0944
  H  H27  1  0.277300  0.731700  0.831200  1.0  0.0509
  H  H28  1  0.092100  0.737700  0.751100  1.0  0.0608
  H  H29  1  0.000000  0.696500  0.039000  1.0  0.0825
  H  H30  1  0.220200  0.706700  0.008900  1.0  0.0794
  H  H31  1  0.154700  0.584000  0.027500  1.0  0.0619
  H  H32  1  0.376800  0.613700  0.906100  1.0  0.0678
  H  H33  1  0.255100  0.545000  0.872900  1.0  0.0745
  H  H34  1  0.892900  0.629600  0.696600  1.0  0.0698
  H  H35  1  0.952800  0.554900  0.741700  1.0  0.0796
  H  H36  1  0.675200  0.599000  0.818800  1.0  0.0516
  H  H37  1  0.704100  0.705500  0.911600  1.0  0.0638
  H  H38  1  0.738000  0.721800  0.800400  1.0  0.0702
  H  H39  1  0.899000  0.529200  0.921100  1.0  0.0589
  H  H40  1  0.803000  0.587300  0.985200  1.0  0.0688
  H  H41  1  0.326900  0.984300  0.205400  1.0  0.0881
  H  H42  1  0.362400  0.780600  0.160500  1.0  0.0828
  H  H43  1  0.751900  0.684300  0.490000  1.0  0.0905
  H  H44  1  0.239300  0.653900  0.355300  1.0  0.0943
  H  H45  1  0.277300  0.768300  0.331200  1.0  0.0502
  H  H46  1  0.092100  0.762300  0.251100  1.0  0.0596
  H  H47  1  0.000000  0.803500  0.539000  1.0  0.0828
  H  H48  1  0.220200  0.793300  0.508900  1.0  0.0798
  H  H49  1  0.154700  0.916000  0.527500  1.0  0.0616
  H  H50  1  0.376800  0.886300  0.406100  1.0  0.0668
  H  H51  1  0.255100  0.955000  0.372900  1.0  0.0722
  H  H52  1  0.892900  0.870400  0.196600  1.0  0.0692
  H  H53  1  0.952800  0.945100  0.241700  1.0  0.0771
  H  H54  1  0.675200  0.901000  0.318800  1.0  0.0527
  H  H55  1  0.704100  0.794500  0.411600  1.0  0.0635
  H  H56  1  0.738000  0.778200  0.300400  1.0  0.069
  H  H57  1  0.899000  0.970800  0.421100  1.0  0.0561
  H  H58  1  0.803000  0.912700  0.485200  1.0  0.0686
  H  H59  1  0.673100  0.484300  0.294600  1.0  0.0883
  H  H60  1  0.637600  0.280600  0.339500  1.0  0.0822
  H  H61  1  0.248100  0.184300  0.010000  1.0  0.0906
  H  H62  1  0.760700  0.153900  0.144700  1.0  0.094
  H  H63  1  0.722700  0.268300  0.168800  1.0  0.0497
  H  H64  1  0.907900  0.262300  0.248900  1.0  0.0603
  H  H65  1  0.000000  0.303500  0.961000  1.0  0.0813
  H  H66  1  0.779800  0.293300  0.991100  1.0  0.0769
  H  H67  1  0.845300  0.416000  0.972500  1.0  0.0627
  H  H68  1  0.623200  0.386300  0.093900  1.0  0.0642
  H  H69  1  0.744900  0.455000  0.127100  1.0  0.0726
  H  H70  1  0.107100  0.370400  0.303400  1.0  0.0693
  H  H71  1  0.047200  0.445100  0.258300  1.0  0.0761
  H  H72  1  0.324800  0.401000  0.181200  1.0  0.0544
  H  H73  1  0.295900  0.294500  0.088400  1.0  0.0644
  H  H74  1  0.262000  0.278200  0.199600  1.0  0.0689
  H  H75  1  0.101000  0.470800  0.078900  1.0  0.0559
  H  H76  1  0.197000  0.412700  0.014800  1.0  0.068
  C  C77  1  0.640500  0.059500  0.820100  1.0  0.1357
  C  C78  1  0.620300  0.170700  0.845200  1.0  0.1341
  C  C79  1  0.138000  0.337100  0.535100  1.0  0.1378
  C  C80  1  0.871500  0.353600  0.609100  1.0  0.1186
  C  C81  1  0.843100  0.133300  0.709200  1.0  0.2557
  C  C82  1  0.855700  0.213200  0.689100  1.0  -0.2467
  C  C83  1  0.994500  0.225400  0.607300  1.0  0.2341
  C  C84  1  0.912100  0.188200  0.512900  1.0  -0.2737
  C  C85  1  0.898100  0.108300  0.533300  1.0  0.034
  C  C86  1  0.756200  0.095400  0.614800  1.0  -0.2605
  C  C87  1  0.053900  0.105100  0.743700  1.0  -0.2606
  C  C88  1  0.190400  0.117600  0.660400  1.0  0.04
  C  C89  1  0.207200  0.197400  0.640100  1.0  -0.2426
  C  C90  1  0.108200  0.079700  0.566600  1.0  -0.2266
  C  C91  1  0.359500  0.559500  0.679900  1.0  0.1346
  C  C92  1  0.379700  0.670700  0.654800  1.0  0.1345
  C  C93  1  0.862000  0.837100  0.964900  1.0  0.1375
  C  C94  1  0.128500  0.853600  0.890900  1.0  0.1186
  C  C95  1  0.156900  0.633300  0.790800  1.0  0.2535
  C  C96  1  0.144300  0.713200  0.810900  1.0  -0.2469
  C  C97  1  0.005500  0.725400  0.892700  1.0  0.2351
  C  C98  1  0.087900  0.688200  0.987100  1.0  -0.2692
  C  C99  1  0.101900  0.608300  0.966700  1.0  0.037
  C  C100  1  0.243800  0.595400  0.885200  1.0  -0.2569
  C  C101  1  0.946100  0.605100  0.756300  1.0  -0.2629
  C  C102  1  0.809600  0.617600  0.839600  1.0  0.0393
  C  C103  1  0.792800  0.697400  0.859900  1.0  -0.2439
  C  C104  1  0.891800  0.579700  0.933400  1.0  -0.2261
  C  C105  1  0.359500  0.940500  0.179900  1.0  0.1343
  C  C106  1  0.379700  0.829300  0.154800  1.0  0.1343
  C  C107  1  0.862000  0.662900  0.464900  1.0  0.1387
  C  C108  1  0.128500  0.646400  0.390900  1.0  0.1177
  C  C109  1  0.156900  0.866700  0.290800  1.0  0.2537
  C  C110  1  0.144300  0.786800  0.310900  1.0  -0.2463
  C  C111  1  0.005500  0.774600  0.392700  1.0  0.2348
  C  C112  1  0.087900  0.811800  0.487100  1.0  -0.2688
  C  C113  1  0.101900  0.891700  0.466700  1.0  0.0381
  C  C114  1  0.243800  0.904600  0.385200  1.0  -0.258
  C  C115  1  0.946100  0.894900  0.256300  1.0  -0.2648
  C  C116  1  0.809600  0.882400  0.339600  1.0  0.0392
  C  C117  1  0.792800  0.802600  0.359900  1.0  -0.2427
  C  C118  1  0.891800  0.920300  0.433400  1.0  -0.2274
  C  C119  1  0.640500  0.440500  0.320100  1.0  0.1357
  C  C120  1  0.620300  0.329300  0.345200  1.0  0.1347
  C  C121  1  0.138000  0.162900  0.035100  1.0  0.138
  C  C122  1  0.871500  0.146400  0.109100  1.0  0.1188
  C  C123  1  0.843100  0.366700  0.209200  1.0  0.2565
  C  C124  1  0.855700  0.286800  0.189100  1.0  -0.2448
  C  C125  1  0.994500  0.274600  0.107300  1.0  0.2339
  C  C126  1  0.912100  0.311800  0.012900  1.0  -0.2719
  C  C127  1  0.898100  0.391700  0.033300  1.0  0.0352
  C  C128  1  0.756200  0.404600  0.114800  1.0  -0.2616
  C  C129  1  0.053900  0.394900  0.243700  1.0  -0.2625
  C  C130  1  0.190400  0.382400  0.160400  1.0  0.0407
  C  C131  1  0.207200  0.302600  0.140100  1.0  -0.2421
  C  C132  1  0.108200  0.420300  0.066600  1.0  -0.226
  N  N133  1  0.522200  0.069000  0.891100  1.0  -0.265
  N  N134  1  0.508700  0.141300  0.907800  1.0  -0.3307
  N  N135  1  0.708100  0.122300  0.789500  1.0  -0.0895
  N  N136  1  0.091600  0.404100  0.524200  1.0  -0.2514
  N  N137  1  0.921700  0.414600  0.572000  1.0  -0.2236
  N  N138  1  0.005200  0.303000  0.587700  1.0  -0.0541
  N  N139  1  0.477800  0.569000  0.608900  1.0  -0.2668
  N  N140  1  0.491300  0.641300  0.592200  1.0  -0.3309
  N  N141  1  0.291900  0.622300  0.710500  1.0  -0.0903
  N  N142  1  0.908400  0.904100  0.975800  1.0  -0.2507
  N  N143  1  0.078300  0.914600  0.928000  1.0  -0.2233
  N  N144  1  0.994800  0.803000  0.912300  1.0  -0.0543
  N  N145  1  0.477800  0.931000  0.108900  1.0  -0.2675
  N  N146  1  0.491300  0.858700  0.092200  1.0  -0.3313
  N  N147  1  0.291900  0.877700  0.210500  1.0  -0.09
  N  N148  1  0.908400  0.595900  0.475800  1.0  -0.2502
  N  N149  1  0.078300  0.585400  0.428000  1.0  -0.2242
  N  N150  1  0.994800  0.697000  0.412300  1.0  -0.0518
  N  N151  1  0.522200  0.431000  0.391100  1.0  -0.2642
  N  N152  1  0.508700  0.358700  0.407800  1.0  -0.3304
  N  N153  1  0.708100  0.377700  0.289500  1.0  -0.0892
  N  N154  1  0.091600  0.095900  0.024200  1.0  -0.2502
  N  N155  1  0.921700  0.085400  0.072000  1.0  -0.2249
  N  N156  1  0.005200  0.197000  0.087700  1.0  -0.0509
