# generated using pymatgen
data_Cu3H15C14N21Cl5O
_symmetry_space_group_name_H-M   'P 1'
_cell_length_a   12.01950000
_cell_length_b   12.25430000
_cell_length_c   28.95400000
_cell_angle_alpha   96.87600000
_cell_angle_beta   90.00000000
_cell_angle_gamma   119.36800000
_symmetry_Int_Tables_number   1
_chemical_formula_structural   Cu3H15C14N21Cl5O
_chemical_formula_sum   'Cu12 H60 C56 N84 Cl20 O4'
_cell_volume   3681.35459092
_cell_formula_units_Z   4
loop_
 _symmetry_equiv_pos_site_id
 _symmetry_equiv_pos_as_xyz
  1  'x, y, z'
loop_
 _atom_site_type_symbol
 _atom_site_label
 _atom_site_symmetry_multiplicity
 _atom_site_fract_x
 _atom_site_fract_y
 _atom_site_fract_z
 _atom_site_occupancy
 _atom_site_charge
  Cu  Cu1  1  0.979520  0.978200  0.043980  1.0  0.845
  Cu  Cu2  1  0.139450  0.808580  0.032150  1.0  0.7275
  Cu  Cu3  1  0.307880  0.147580  0.047380  1.0  0.7346
  Cu  Cu4  1  0.203990  0.277760  0.367810  1.0  0.6573
  Cu  Cu5  1  0.368950  0.115440  0.376360  1.0  0.8632
  Cu  Cu6  1  0.907010  0.949300  0.879680  1.0  0.8515
  Cu  Cu7  1  0.998680  0.978200  0.543980  1.0  0.845
  Cu  Cu8  1  0.669130  0.808580  0.532150  1.0  0.7269
  Cu  Cu9  1  0.839700  0.147580  0.547380  1.0  0.7339
  Cu  Cu10  1  0.073770  0.277760  0.867810  1.0  0.6568
  Cu  Cu11  1  0.746490  0.115440  0.876360  1.0  0.8636
  Cu  Cu12  1  0.042290  0.949300  0.379680  1.0  0.8508
  H  H13  1  0.121300  0.955800  0.993100  1.0  0.46
  H  H14  1  0.215500  0.123600  0.424000  1.0  0.4583
  H  H15  1  0.948500  0.236600  0.043900  1.0  0.1191
  H  H16  1  0.328100  0.419400  0.052600  1.0  0.1141
  H  H17  1  0.156800  0.515600  0.128700  1.0  0.0981
  H  H18  1  0.137700  0.543000  0.994600  1.0  0.1111
  H  H19  1  0.710200  0.741200  0.068300  1.0  0.1131
  H  H20  1  0.908800  0.560000  0.074300  1.0  0.1202
  H  H21  1  0.670000  0.526400  0.157700  1.0  0.1147
  H  H22  1  0.578800  0.409200  0.024300  1.0  0.115
  H  H23  1  0.401500  0.805800  0.065900  1.0  0.1124
  H  H24  1  0.588500  0.175000  0.065200  1.0  0.0964
  H  H25  1  0.677600  0.023400  0.148600  1.0  0.088
  H  H26  1  0.714200  0.963400  0.011800  1.0  0.0961
  H  H27  1  0.454600  0.554600  0.364500  1.0  0.1057
  H  H28  1  0.650900  0.369000  0.366800  1.0  0.1163
  H  H29  1  0.690800  0.590000  0.280500  1.0  0.1246
  H  H30  1  0.799500  0.706800  0.416000  1.0  0.1064
  H  H31  1  0.944000  0.283200  0.348500  1.0  0.1016
  H  H32  1  0.761900  0.920400  0.363800  1.0  0.1092
  H  H33  1  0.670500  0.066600  0.274000  1.0  0.1003
  H  H34  1  0.648500  0.148600  0.409500  1.0  0.1114
  H  H35  1  0.014100  0.675800  0.336700  1.0  0.112
  H  H36  1  0.392500  0.857000  0.348700  1.0  0.1055
  H  H37  1  0.189200  0.582800  0.253800  1.0  0.109
  H  H38  1  0.203400  0.552200  0.387900  1.0  0.0971
  H  H39  1  0.002100  0.996200  0.172500  1.0  0.115
  H  H40  1  0.376800  0.193200  0.162400  1.0  0.1188
  H  H41  1  0.143500  0.235000  0.253400  1.0  0.1011
  H  H42  1  0.316100  0.031400  0.246200  1.0  0.1067
  H  H43  1  0.834500  0.955800  0.493100  1.0  0.46
  H  H44  1  0.908100  0.123600  0.924000  1.0  0.4578
  H  H45  1  0.288100  0.236600  0.543900  1.0  0.1192
  H  H46  1  0.091300  0.419400  0.552600  1.0  0.1141
  H  H47  1  0.358800  0.515600  0.628700  1.0  0.0981
  H  H48  1  0.405300  0.543000  0.494600  1.0  0.111
  H  H49  1  0.031000  0.741200  0.568300  1.0  0.1113
  H  H50  1  0.651200  0.560000  0.574300  1.0  0.1196
  H  H51  1  0.856400  0.526400  0.657700  1.0  0.1143
  H  H52  1  0.830400  0.409200  0.524300  1.0  0.1152
  H  H53  1  0.404300  0.805800  0.565900  1.0  0.1125
  H  H54  1  0.586500  0.175000  0.565200  1.0  0.0961
  H  H55  1  0.345800  0.023400  0.648600  1.0  0.0879
  H  H56  1  0.249200  0.963400  0.511800  1.0  0.0959
  H  H57  1  0.100000  0.554600  0.864500  1.0  0.1063
  H  H58  1  0.718100  0.369000  0.866800  1.0  0.1173
  H  H59  1  0.899200  0.590000  0.780500  1.0  0.1249
  H  H60  1  0.907300  0.706800  0.916000  1.0  0.1062
  H  H61  1  0.339200  0.283200  0.848500  1.0  0.1019
  H  H62  1  0.158500  0.920400  0.863800  1.0  0.1091
  H  H63  1  0.396100  0.066600  0.774000  1.0  0.1004
  H  H64  1  0.500100  0.148600  0.909500  1.0  0.1114
  H  H65  1  0.661700  0.675800  0.836700  1.0  0.1125
  H  H66  1  0.464500  0.857000  0.848700  1.0  0.1051
  H  H67  1  0.393600  0.582800  0.753800  1.0  0.1085
  H  H68  1  0.348800  0.552200  0.887900  1.0  0.097
  H  H69  1  0.994100  0.996200  0.672500  1.0  0.1152
  H  H70  1  0.816400  0.193200  0.662400  1.0  0.1196
  H  H71  1  0.091500  0.235000  0.753400  1.0  0.1017
  H  H72  1  0.715300  0.031400  0.746200  1.0  0.1072
  C  C73  1  0.033600  0.253200  0.044300  1.0  0.1441
  C  C74  1  0.242600  0.354000  0.049000  1.0  0.1384
  C  C75  1  0.152400  0.546400  0.101000  1.0  0.1456
  C  C76  1  0.142100  0.561000  0.027200  1.0  0.1346
  C  C77  1  0.777600  0.723000  0.067600  1.0  0.1325
  C  C78  1  0.888000  0.623200  0.070700  1.0  0.1035
  C  C79  1  0.625000  0.478000  0.129500  1.0  0.1647
  C  C80  1  0.575100  0.414200  0.056900  1.0  0.1188
  C  C81  1  0.420400  0.888800  0.063400  1.0  0.1239
  C  C82  1  0.522200  0.090600  0.062600  1.0  0.1556
  C  C83  1  0.709600  0.011200  0.120000  1.0  0.1353
  C  C84  1  0.730300  0.979400  0.044400  1.0  0.1401
  C  C85  1  0.474900  0.490000  0.365700  1.0  0.1226
  C  C86  1  0.584700  0.389000  0.367700  1.0  0.1499
  C  C87  1  0.736500  0.638600  0.308700  1.0  0.1014
  C  C88  1  0.795300  0.703000  0.383400  1.0  0.1472
  C  C89  1  0.926700  0.202400  0.354100  1.0  0.1431
  C  C90  1  0.826800  0.004000  0.362600  1.0  0.1417
  C  C91  1  0.640500  0.083400  0.302500  1.0  0.1672
  C  C92  1  0.627600  0.126000  0.377200  1.0  0.1476
  C  C93  1  0.100000  0.739800  0.342700  1.0  0.1057
  C  C94  1  0.307300  0.840000  0.348800  1.0  0.1167
  C  C95  1  0.190400  0.552000  0.281900  1.0  0.1776
  C  C96  1  0.199300  0.534600  0.355300  1.0  0.1727
  C  C97  1  0.082300  0.037000  0.159900  1.0  0.1516
  C  C98  1  0.288300  0.145000  0.154500  1.0  0.1273
  C  C99  1  0.182700  0.189600  0.262000  1.0  0.1436
  C  C100  1  0.277900  0.078800  0.258300  1.0  0.1503
  C  C101  1  0.219600  0.253200  0.544300  1.0  0.1437
  C  C102  1  0.111400  0.354000  0.549000  1.0  0.1376
  C  C103  1  0.394000  0.546400  0.601000  1.0  0.1446
  C  C104  1  0.418900  0.561000  0.527200  1.0  0.135
  C  C105  1  0.945400  0.723000  0.567600  1.0  0.1326
  C  C106  1  0.735200  0.623200  0.570700  1.0  0.1026
  C  C107  1  0.853000  0.478000  0.629500  1.0  0.1624
  C  C108  1  0.839100  0.414200  0.556900  1.0  0.119
  C  C109  1  0.468400  0.888800  0.563400  1.0  0.1239
  C  C110  1  0.568400  0.090600  0.562600  1.0  0.1562
  C  C111  1  0.301600  0.011200  0.620000  1.0  0.1365
  C  C112  1  0.249100  0.979400  0.544400  1.0  0.1398
  C  C113  1  0.015100  0.490000  0.865700  1.0  0.1226
  C  C114  1  0.804300  0.389000  0.867700  1.0  0.1494
  C  C115  1  0.902100  0.638600  0.808700  1.0  0.1014
  C  C116  1  0.907700  0.703000  0.883400  1.0  0.1473
  C  C117  1  0.275700  0.202400  0.854100  1.0  0.1426
  C  C118  1  0.177200  0.004000  0.862600  1.0  0.1429
  C  C119  1  0.442900  0.083400  0.802500  1.0  0.1672
  C  C120  1  0.498400  0.126000  0.877200  1.0  0.1476
  C  C121  1  0.639800  0.739800  0.842700  1.0  0.1063
  C  C122  1  0.532700  0.840000  0.848800  1.0  0.1173
  C  C123  1  0.361600  0.552000  0.781900  1.0  0.1774
  C  C124  1  0.335300  0.534600  0.855300  1.0  0.1733
  C  C125  1  0.954700  0.037000  0.659900  1.0  0.1509
  C  C126  1  0.856700  0.145000  0.654500  1.0  0.1267
  C  C127  1  0.006900  0.189600  0.762000  1.0  0.1445
  C  C128  1  0.800900  0.078800  0.758300  1.0  0.1507
  N  N129  1  0.072700  0.168000  0.039800  1.0  -0.2788
  N  N130  1  0.206300  0.237200  0.043000  1.0  -0.1913
  N  N131  1  0.141500  0.369400  0.049600  1.0  0.0686
  N  N132  1  0.157000  0.651800  0.098600  1.0  -0.2853
  N  N133  1  0.151100  0.662000  0.050200  1.0  -0.1854
  N  N134  1  0.140300  0.485800  0.057700  1.0  0.0741
  N  N135  1  0.894600  0.799000  0.058400  1.0  -0.2308
  N  N136  1  0.964800  0.735800  0.059800  1.0  -0.255
  N  N137  1  0.769900  0.615600  0.075900  1.0  0.058
  N  N138  1  0.483200  0.331000  0.079600  1.0  -0.25
  N  N139  1  0.518700  0.375600  0.125600  1.0  -0.186
  N  N140  1  0.661100  0.505800  0.087800  1.0  0.0674
  N  N141  1  0.336800  0.923800  0.055300  1.0  -0.2365
  N  N142  1  0.402500  0.053600  0.053800  1.0  -0.26
  N  N143  1  0.538700  0.991400  0.067600  1.0  0.0758
  N  N144  1  0.830000  0.991800  0.066700  1.0  -0.1963
  N  N145  1  0.814500  0.008400  0.115000  1.0  -0.2795
  N  N146  1  0.651400  0.993400  0.076400  1.0  0.0603
  N  N147  1  0.396400  0.376200  0.370500  1.0  -0.1948
  N  N148  1  0.464100  0.311800  0.374200  1.0  -0.2727
  N  N149  1  0.596300  0.503000  0.362400  1.0  0.0541
  N  N150  1  0.843300  0.747400  0.313100  1.0  -0.2662
  N  N151  1  0.876200  0.787000  0.360100  1.0  -0.1813
  N  N152  1  0.703300  0.608400  0.353500  1.0  0.0687
  N  N153  1  0.009500  0.171800  0.362100  1.0  -0.196
  N  N154  1  0.946900  0.045200  0.368100  1.0  -0.191
  N  N155  1  0.808500  0.101200  0.354600  1.0  0.0721
  N  N156  1  0.533900  0.092400  0.307000  1.0  -0.3251
  N  N157  1  0.526000  0.111800  0.354300  1.0  -0.1875
  N  N158  1  0.696600  0.101400  0.344300  1.0  0.0925
  N  N159  1  0.138900  0.857600  0.356700  1.0  -0.2299
  N  N160  1  0.270700  0.924000  0.358900  1.0  -0.2594
  N  N161  1  0.200700  0.723600  0.338300  1.0  0.078
  N  N162  1  0.182800  0.441400  0.285500  1.0  -0.2997
  N  N163  1  0.192500  0.434800  0.333200  1.0  -0.2315
  N  N164  1  0.199900  0.612600  0.325000  1.0  0.0714
  N  N165  1  0.101900  0.039800  0.114700  1.0  -0.309
  N  N166  1  0.232700  0.107600  0.112900  1.0  -0.1921
  N  N167  1  0.195000  0.101600  0.184400  1.0  0.0817
  N  N168  1  0.214700  0.186000  0.305200  1.0  -0.2882
  N  N169  1  0.277200  0.116000  0.302200  1.0  -0.226
  N  N170  1  0.214100  0.119800  0.232700  1.0  0.0602
  N  N171  1  0.095300  0.168000  0.539800  1.0  -0.2774
  N  N172  1  0.030900  0.237200  0.543000  1.0  -0.193
  N  N173  1  0.227900  0.369400  0.549600  1.0  0.0685
  N  N174  1  0.494800  0.651800  0.598600  1.0  -0.2846
  N  N175  1  0.510900  0.662000  0.550200  1.0  -0.1845
  N  N176  1  0.345500  0.485800  0.557700  1.0  0.0741
  N  N177  1  0.904400  0.799000  0.558400  1.0  -0.231
  N  N178  1  0.771000  0.735800  0.559800  1.0  -0.2548
  N  N179  1  0.845700  0.615600  0.575900  1.0  0.0583
  N  N180  1  0.847800  0.331000  0.579600  1.0  -0.2496
  N  N181  1  0.856900  0.375600  0.625600  1.0  -0.1851
  N  N182  1  0.844700  0.505800  0.587800  1.0  0.0676
  N  N183  1  0.587000  0.923800  0.555300  1.0  -0.2366
  N  N184  1  0.651100  0.053600  0.553800  1.0  -0.2595
  N  N185  1  0.452700  0.991400  0.567600  1.0  0.0762
  N  N186  1  0.161800  0.991800  0.566700  1.0  -0.1957
  N  N187  1  0.193900  0.008400  0.615000  1.0  -0.2775
  N  N188  1  0.342000  0.993400  0.576400  1.0  0.0604
  N  N189  1  0.979800  0.376200  0.870500  1.0  -0.1954
  N  N190  1  0.847700  0.311800  0.874200  1.0  -0.2732
  N  N191  1  0.906700  0.503000  0.862400  1.0  0.0538
  N  N192  1  0.904100  0.747400  0.813100  1.0  -0.2666
  N  N193  1  0.910800  0.787000  0.860100  1.0  -0.1811
  N  N194  1  0.905100  0.608400  0.853500  1.0  0.0689
  N  N195  1  0.162300  0.171800  0.862100  1.0  -0.1952
  N  N196  1  0.098300  0.045200  0.868100  1.0  -0.1911
  N  N197  1  0.292700  0.101200  0.854600  1.0  0.0718
  N  N198  1  0.558500  0.092400  0.807000  1.0  -0.3247
  N  N199  1  0.585800  0.111800  0.854300  1.0  -0.1872
  N  N200  1  0.404800  0.101400  0.844300  1.0  0.0921
  N  N201  1  0.718700  0.857600  0.856700  1.0  -0.2286
  N  N202  1  0.653300  0.924000  0.858900  1.0  -0.2608
  N  N203  1  0.522900  0.723600  0.838300  1.0  0.0774
  N  N204  1  0.258600  0.441400  0.785500  1.0  -0.3
  N  N205  1  0.242300  0.434800  0.833200  1.0  -0.2318
  N  N206  1  0.412700  0.612600  0.825000  1.0  0.0716
  N  N207  1  0.937900  0.039800  0.614700  1.0  -0.3078
  N  N208  1  0.874900  0.107600  0.612900  1.0  -0.1931
  N  N209  1  0.906600  0.101600  0.684400  1.0  0.0817
  N  N210  1  0.971300  0.186000  0.805200  1.0  -0.2869
  N  N211  1  0.838800  0.116000  0.802200  1.0  -0.2264
  N  N212  1  0.905700  0.119800  0.732700  1.0  0.0604
  Cl  Cl213  1  0.873230  0.905260  0.959560  1.0  -0.5596
  Cl  Cl214  1  0.152800  0.756200  0.952010  1.0  -0.538
  Cl  Cl215  1  0.363300  0.170200  0.972100  1.0  -0.5479
  Cl  Cl216  1  0.198710  0.370420  0.440260  1.0  -0.5244
  Cl  Cl217  1  0.439200  0.138600  0.461350  1.0  -0.5491
  Cl  Cl218  1  0.032030  0.905260  0.459560  1.0  -0.5598
  Cl  Cl219  1  0.603400  0.756200  0.452010  1.0  -0.5382
  Cl  Cl220  1  0.806900  0.170200  0.472100  1.0  -0.5473
  Cl  Cl221  1  0.171710  0.370420  0.940260  1.0  -0.5246
  Cl  Cl222  1  0.699400  0.138600  0.961350  1.0  -0.5493
  Cl  Cl223  1  0.534000  0.760600  0.317000  1.0  -0.4995
  Cl  Cl224  1  0.477000  0.650400  0.064400  1.0  -0.3141
  Cl  Cl225  1  0.874400  0.444400  0.354500  1.0  -0.3527
  Cl  Cl226  1  0.453200  0.983400  0.179600  1.0  -0.5615
  Cl  Cl227  1  0.826500  0.334200  0.101500  1.0  -0.4873
  Cl  Cl228  1  0.226600  0.760600  0.817000  1.0  -0.4995
  Cl  Cl229  1  0.173400  0.650400  0.564400  1.0  -0.3144
  Cl  Cl230  1  0.570000  0.444400  0.854500  1.0  -0.3532
  Cl  Cl231  1  0.530200  0.983400  0.679600  1.0  -0.5621
  Cl  Cl232  1  0.507700  0.334200  0.601500  1.0  -0.4873
  O  O233  1  0.126600  0.958800  0.022500  1.0  -0.9437
  O  O234  1  0.207800  0.107000  0.394400  1.0  -0.9595
  O  O235  1  0.832200  0.958800  0.522500  1.0  -0.9441
  O  O236  1  0.899200  0.107000  0.894400  1.0  -0.9592
