# generated using pymatgen
data_Cu6H26C30Br9(N23O)2
_symmetry_space_group_name_H-M   'P 1'
_cell_length_a   11.99960000
_cell_length_b   21.06650000
_cell_length_c   15.64770000
_cell_angle_alpha   90.00000000
_cell_angle_beta   109.55500000
_cell_angle_gamma   90.00000000
_symmetry_Int_Tables_number   1
_chemical_formula_structural   Cu6H26C30Br9(N23O)2
_chemical_formula_sum   'Cu12 H52 C60 Br18 N92 O4'
_cell_volume   3727.42029141
_cell_formula_units_Z   2
loop_
 _symmetry_equiv_pos_site_id
 _symmetry_equiv_pos_as_xyz
  1  'x, y, z'
loop_
 _atom_site_type_symbol
 _atom_site_label
 _atom_site_symmetry_multiplicity
 _atom_site_fract_x
 _atom_site_fract_y
 _atom_site_fract_z
 _atom_site_occupancy
 _atom_site_charge
  Cu  Cu1  1  0.757650  0.081810  0.164130  1.0  0.8687
  Cu  Cu2  1  0.257650  0.581810  0.164130  1.0  0.8687
  Cu  Cu3  1  0.242350  0.081810  0.835870  1.0  0.8659
  Cu  Cu4  1  0.742350  0.581810  0.835870  1.0  0.8659
  Cu  Cu5  1  0.242350  0.918190  0.835870  1.0  0.8666
  Cu  Cu6  1  0.742350  0.418190  0.835870  1.0  0.8666
  Cu  Cu7  1  0.757650  0.918190  0.164130  1.0  0.8691
  Cu  Cu8  1  0.257650  0.418190  0.164130  1.0  0.8691
  Cu  Cu9  1  0.009360  0.000000  0.179870  1.0  0.7677
  Cu  Cu10  1  0.509360  0.500000  0.179870  1.0  0.7677
  Cu  Cu11  1  0.990640  0.000000  0.820130  1.0  0.7647
  Cu  Cu12  1  0.490640  0.500000  0.820130  1.0  0.7647
  H  H13  1  0.514200  0.094100  0.211200  1.0  0.0949
  H  H14  1  0.885300  0.220300  0.198200  1.0  0.0934
  H  H15  1  0.174200  0.127200  0.204800  1.0  0.0985
  H  H16  1  0.686700  0.244000  0.362200  1.0  0.0877
  H  H17  1  0.594900  0.211900  0.100200  1.0  0.0855
  H  H18  1  0.014200  0.594100  0.211200  1.0  0.0949
  H  H19  1  0.385300  0.720300  0.198200  1.0  0.0934
  H  H20  1  0.674200  0.627200  0.204800  1.0  0.0985
  H  H21  1  0.186700  0.744000  0.362200  1.0  0.0877
  H  H22  1  0.094900  0.711900  0.100200  1.0  0.0855
  H  H23  1  0.485800  0.094100  0.788800  1.0  0.095
  H  H24  1  0.114700  0.220300  0.801800  1.0  0.0936
  H  H25  1  0.825800  0.127200  0.795200  1.0  0.099
  H  H26  1  0.313300  0.244000  0.637800  1.0  0.0877
  H  H27  1  0.405100  0.211900  0.899800  1.0  0.0849
  H  H28  1  0.985800  0.594100  0.788800  1.0  0.095
  H  H29  1  0.614700  0.720300  0.801800  1.0  0.0936
  H  H30  1  0.325800  0.627200  0.795200  1.0  0.099
  H  H31  1  0.813300  0.744000  0.637800  1.0  0.0877
  H  H32  1  0.905100  0.711900  0.899800  1.0  0.0849
  H  H33  1  0.485800  0.905900  0.788800  1.0  0.095
  H  H34  1  0.114700  0.779700  0.801800  1.0  0.0937
  H  H35  1  0.825800  0.872800  0.795200  1.0  0.0986
  H  H36  1  0.313300  0.756000  0.637800  1.0  0.0858
  H  H37  1  0.405100  0.788100  0.899800  1.0  0.0849
  H  H38  1  0.985800  0.405900  0.788800  1.0  0.095
  H  H39  1  0.614700  0.279700  0.801800  1.0  0.0937
  H  H40  1  0.325800  0.372800  0.795200  1.0  0.0986
  H  H41  1  0.813300  0.256000  0.637800  1.0  0.0858
  H  H42  1  0.905100  0.288100  0.899800  1.0  0.0849
  H  H43  1  0.514200  0.905900  0.211200  1.0  0.0951
  H  H44  1  0.885300  0.779700  0.198200  1.0  0.0932
  H  H45  1  0.174200  0.872800  0.204800  1.0  0.0985
  H  H46  1  0.686700  0.756000  0.362200  1.0  0.0857
  H  H47  1  0.594900  0.788100  0.100200  1.0  0.0855
  H  H48  1  0.014200  0.405900  0.211200  1.0  0.0951
  H  H49  1  0.385300  0.279700  0.198200  1.0  0.0932
  H  H50  1  0.674200  0.372800  0.204800  1.0  0.0985
  H  H51  1  0.186700  0.256000  0.362200  1.0  0.0857
  H  H52  1  0.094900  0.288100  0.100200  1.0  0.0855
  H  H53  1  0.810200  0.000000  0.078600  1.0  0.4206
  H  H54  1  0.423500  0.000000  0.377800  1.0  0.0904
  H  H55  1  0.242500  0.000000  0.113900  1.0  0.1073
  H  H56  1  0.310200  0.500000  0.078600  1.0  0.4206
  H  H57  1  0.923500  0.500000  0.377800  1.0  0.0904
  H  H58  1  0.742500  0.500000  0.113900  1.0  0.1073
  H  H59  1  0.189800  0.000000  0.921400  1.0  0.4182
  H  H60  1  0.576500  0.000000  0.622200  1.0  0.0895
  H  H61  1  0.757500  0.000000  0.886100  1.0  0.1072
  H  H62  1  0.689800  0.500000  0.921400  1.0  0.4182
  H  H63  1  0.076500  0.500000  0.622200  1.0  0.0895
  H  H64  1  0.257500  0.500000  0.886100  1.0  0.1072
  C  C65  1  0.535800  0.052100  0.207000  1.0  0.1399
  C  C66  1  0.937000  0.187900  0.196200  1.0  0.1218
  C  C67  1  0.096500  0.136300  0.200100  1.0  0.139
  C  C68  1  0.679300  0.225000  0.306900  1.0  0.1221
  C  C69  1  0.628500  0.207600  0.162800  1.0  0.1188
  C  C70  1  0.884700  0.055700  0.396400  1.0  0.116
  C  C71  1  0.035800  0.552100  0.207000  1.0  0.1399
  C  C72  1  0.437000  0.687900  0.196200  1.0  0.1218
  C  C73  1  0.596500  0.636300  0.200100  1.0  0.139
  C  C74  1  0.179300  0.725000  0.306900  1.0  0.1221
  C  C75  1  0.128500  0.707600  0.162800  1.0  0.1188
  C  C76  1  0.384700  0.555700  0.396400  1.0  0.116
  C  C77  1  0.464200  0.052100  0.793000  1.0  0.1408
  C  C78  1  0.063000  0.187900  0.803800  1.0  0.1236
  C  C79  1  0.903500  0.136300  0.799900  1.0  0.1389
  C  C80  1  0.320700  0.225000  0.693100  1.0  0.1222
  C  C81  1  0.371500  0.207600  0.837200  1.0  0.1189
  C  C82  1  0.115300  0.055700  0.603600  1.0  0.1161
  C  C83  1  0.964200  0.552100  0.793000  1.0  0.1408
  C  C84  1  0.563000  0.687900  0.803800  1.0  0.1236
  C  C85  1  0.403500  0.636300  0.799900  1.0  0.1389
  C  C86  1  0.820700  0.725000  0.693100  1.0  0.1222
  C  C87  1  0.871500  0.707600  0.837200  1.0  0.1189
  C  C88  1  0.615300  0.555700  0.603600  1.0  0.1161
  C  C89  1  0.464200  0.947900  0.793000  1.0  0.1416
  C  C90  1  0.063000  0.812100  0.803800  1.0  0.1236
  C  C91  1  0.903500  0.863700  0.799900  1.0  0.1384
  C  C92  1  0.320700  0.775000  0.693100  1.0  0.1222
  C  C93  1  0.371500  0.792400  0.837200  1.0  0.1161
  C  C94  1  0.115300  0.944300  0.603600  1.0  0.1146
  C  C95  1  0.964200  0.447900  0.793000  1.0  0.1416
  C  C96  1  0.563000  0.312100  0.803800  1.0  0.1236
  C  C97  1  0.403500  0.363700  0.799900  1.0  0.1384
  C  C98  1  0.820700  0.275000  0.693100  1.0  0.1222
  C  C99  1  0.871500  0.292400  0.837200  1.0  0.1161
  C  C100  1  0.615300  0.444300  0.603600  1.0  0.1146
  C  C101  1  0.535800  0.947900  0.207000  1.0  0.1407
  C  C102  1  0.937000  0.812100  0.196200  1.0  0.1221
  C  C103  1  0.096500  0.863700  0.200100  1.0  0.1389
  C  C104  1  0.679300  0.775000  0.306900  1.0  0.1227
  C  C105  1  0.628500  0.792400  0.162800  1.0  0.1158
  C  C106  1  0.884700  0.944300  0.396400  1.0  0.1148
  C  C107  1  0.035800  0.447900  0.207000  1.0  0.1407
  C  C108  1  0.437000  0.312100  0.196200  1.0  0.1221
  C  C109  1  0.596500  0.363700  0.200100  1.0  0.1389
  C  C110  1  0.179300  0.275000  0.306900  1.0  0.1227
  C  C111  1  0.128500  0.292400  0.162800  1.0  0.1158
  C  C112  1  0.384700  0.444300  0.396400  1.0  0.1148
  C  C113  1  0.361000  0.000000  0.323100  1.0  0.1906
  C  C114  1  0.261700  0.000000  0.176600  1.0  0.1237
  C  C115  1  0.040900  0.000000  0.402600  1.0  0.2783
  C  C116  1  0.861000  0.500000  0.323100  1.0  0.1906
  C  C117  1  0.761700  0.500000  0.176600  1.0  0.1237
  C  C118  1  0.540900  0.500000  0.402600  1.0  0.2783
  C  C119  1  0.639000  0.000000  0.676900  1.0  0.1918
  C  C120  1  0.738300  0.000000  0.823400  1.0  0.126
  C  C121  1  0.959100  0.000000  0.597400  1.0  0.2715
  C  C122  1  0.139000  0.500000  0.676900  1.0  0.1918
  C  C123  1  0.238300  0.500000  0.823400  1.0  0.126
  C  C124  1  0.459100  0.500000  0.597400  1.0  0.2715
  Br  Br125  1  0.668920  0.108280  0.987130  1.0  -0.3841
  Br  Br126  1  0.727800  0.178000  0.924900  1.0  -0.2323
  Br  Br127  1  0.168920  0.608280  0.987130  1.0  -0.3841
  Br  Br128  1  0.227800  0.678000  0.924900  1.0  -0.2323
  Br  Br129  1  0.331080  0.108280  0.012870  1.0  -0.3845
  Br  Br130  1  0.272200  0.178000  0.075100  1.0  -0.2326
  Br  Br131  1  0.831080  0.608280  0.012870  1.0  -0.3845
  Br  Br132  1  0.772200  0.678000  0.075100  1.0  -0.2326
  Br  Br133  1  0.331080  0.891720  0.012870  1.0  -0.3844
  Br  Br134  1  0.272200  0.822000  0.075100  1.0  -0.2323
  Br  Br135  1  0.831080  0.391720  0.012870  1.0  -0.3844
  Br  Br136  1  0.772200  0.322000  0.075100  1.0  -0.2323
  Br  Br137  1  0.668920  0.891720  0.987130  1.0  -0.3845
  Br  Br138  1  0.727800  0.822000  0.924900  1.0  -0.232
  Br  Br139  1  0.168920  0.391720  0.987130  1.0  -0.3845
  Br  Br140  1  0.227800  0.322000  0.924900  1.0  -0.232
  Br  Br141  1  0.000000  0.000000  0.000000  1.0  -0.359
  Br  Br142  1  0.500000  0.500000  0.000000  1.0  -0.359
  N  N143  1  0.628600  0.033140  0.188900  1.0  -0.2536
  N  N144  1  0.910500  0.128300  0.183000  1.0  -0.2233
  N  N145  1  0.010500  0.095400  0.185900  1.0  -0.252
  N  N146  1  0.051800  0.194800  0.206700  1.0  0.0337
  N  N147  1  0.694500  0.161100  0.204500  1.0  -0.2051
  N  N148  1  0.726900  0.172000  0.297000  1.0  -0.2714
  N  N149  1  0.116300  0.251100  0.224700  1.0  0.0589
  N  N150  1  0.881100  0.044700  0.313500  1.0  -0.251
  N  N151  1  0.983200  0.025500  0.453500  1.0  -0.2095
  N  N152  1  0.128600  0.533140  0.188900  1.0  -0.2536
  N  N153  1  0.410500  0.628300  0.183000  1.0  -0.2233
  N  N154  1  0.510500  0.595400  0.185900  1.0  -0.252
  N  N155  1  0.551800  0.694800  0.206700  1.0  0.0337
  N  N156  1  0.194500  0.661100  0.204500  1.0  -0.2051
  N  N157  1  0.226900  0.672000  0.297000  1.0  -0.2714
  N  N158  1  0.616300  0.751100  0.224700  1.0  0.0589
  N  N159  1  0.381100  0.544700  0.313500  1.0  -0.251
  N  N160  1  0.483200  0.525500  0.453500  1.0  -0.2095
  N  N161  1  0.371400  0.033140  0.811100  1.0  -0.2535
  N  N162  1  0.089500  0.128300  0.817000  1.0  -0.221
  N  N163  1  0.989500  0.095400  0.814100  1.0  -0.252
  N  N164  1  0.948200  0.194800  0.793300  1.0  0.0337
  N  N165  1  0.305500  0.161100  0.795500  1.0  -0.2057
  N  N166  1  0.273100  0.172000  0.703000  1.0  -0.2711
  N  N167  1  0.883700  0.251100  0.775300  1.0  0.0591
  N  N168  1  0.118900  0.044700  0.686500  1.0  -0.2492
  N  N169  1  0.016800  0.025500  0.546500  1.0  -0.2093
  N  N170  1  0.871400  0.533140  0.811100  1.0  -0.2535
  N  N171  1  0.589500  0.628300  0.817000  1.0  -0.221
  N  N172  1  0.489500  0.595400  0.814100  1.0  -0.252
  N  N173  1  0.448200  0.694800  0.793300  1.0  0.0337
  N  N174  1  0.805500  0.661100  0.795500  1.0  -0.2057
  N  N175  1  0.773100  0.672000  0.703000  1.0  -0.2711
  N  N176  1  0.383700  0.751100  0.775300  1.0  0.0591
  N  N177  1  0.618900  0.544700  0.686500  1.0  -0.2492
  N  N178  1  0.516800  0.525500  0.546500  1.0  -0.2093
  N  N179  1  0.371400  0.966860  0.811100  1.0  -0.253
  N  N180  1  0.089500  0.871700  0.817000  1.0  -0.2207
  N  N181  1  0.989500  0.904600  0.814100  1.0  -0.2531
  N  N182  1  0.948200  0.805200  0.793300  1.0  0.0334
  N  N183  1  0.305500  0.838900  0.795500  1.0  -0.2064
  N  N184  1  0.273100  0.828000  0.703000  1.0  -0.2712
  N  N185  1  0.883700  0.748900  0.775300  1.0  0.0592
  N  N186  1  0.118900  0.955300  0.686500  1.0  -0.2483
  N  N187  1  0.016800  0.974500  0.546500  1.0  -0.2066
  N  N188  1  0.871400  0.466860  0.811100  1.0  -0.253
  N  N189  1  0.589500  0.371700  0.817000  1.0  -0.2207
  N  N190  1  0.489500  0.404600  0.814100  1.0  -0.2531
  N  N191  1  0.448200  0.305200  0.793300  1.0  0.0334
  N  N192  1  0.805500  0.338900  0.795500  1.0  -0.2064
  N  N193  1  0.773100  0.328000  0.703000  1.0  -0.2712
  N  N194  1  0.383700  0.248900  0.775300  1.0  0.0592
  N  N195  1  0.618900  0.455300  0.686500  1.0  -0.2483
  N  N196  1  0.516800  0.474500  0.546500  1.0  -0.2066
  N  N197  1  0.628600  0.966860  0.188900  1.0  -0.2542
  N  N198  1  0.910500  0.871700  0.183000  1.0  -0.2238
  N  N199  1  0.010500  0.904600  0.185900  1.0  -0.2521
  N  N200  1  0.051800  0.805200  0.206700  1.0  0.0338
  N  N201  1  0.694500  0.838900  0.204500  1.0  -0.2057
  N  N202  1  0.726900  0.828000  0.297000  1.0  -0.2724
  N  N203  1  0.116300  0.748900  0.224700  1.0  0.0592
  N  N204  1  0.881100  0.955300  0.313500  1.0  -0.25
  N  N205  1  0.983200  0.974500  0.453500  1.0  -0.2069
  N  N206  1  0.128600  0.466860  0.188900  1.0  -0.2542
  N  N207  1  0.410500  0.371700  0.183000  1.0  -0.2238
  N  N208  1  0.510500  0.404600  0.185900  1.0  -0.2521
  N  N209  1  0.551800  0.305200  0.206700  1.0  0.0338
  N  N210  1  0.194500  0.338900  0.204500  1.0  -0.2057
  N  N211  1  0.226900  0.328000  0.297000  1.0  -0.2724
  N  N212  1  0.616300  0.248900  0.224700  1.0  0.0592
  N  N213  1  0.381100  0.455300  0.313500  1.0  -0.25
  N  N214  1  0.483200  0.474500  0.453500  1.0  -0.2069
  N  N215  1  0.476200  0.000000  0.218800  1.0  0.0341
  N  N216  1  0.188400  0.000000  0.222400  1.0  -0.1864
  N  N217  1  0.249300  0.000000  0.315100  1.0  -0.3168
  N  N218  1  0.372400  0.000000  0.239700  1.0  0.0641
  N  N219  1  0.978200  0.000000  0.316100  1.0  -0.2646
  N  N220  1  0.976200  0.500000  0.218800  1.0  0.0341
  N  N221  1  0.688400  0.500000  0.222400  1.0  -0.1864
  N  N222  1  0.749300  0.500000  0.315100  1.0  -0.3168
  N  N223  1  0.872400  0.500000  0.239700  1.0  0.0641
  N  N224  1  0.478200  0.500000  0.316100  1.0  -0.2646
  N  N225  1  0.523800  0.000000  0.781200  1.0  0.0339
  N  N226  1  0.811600  0.000000  0.777600  1.0  -0.1857
  N  N227  1  0.750700  0.000000  0.684900  1.0  -0.3169
  N  N228  1  0.627600  0.000000  0.760300  1.0  0.0647
  N  N229  1  0.021800  0.000000  0.683900  1.0  -0.2668
  N  N230  1  0.023800  0.500000  0.781200  1.0  0.0339
  N  N231  1  0.311600  0.500000  0.777600  1.0  -0.1857
  N  N232  1  0.250700  0.500000  0.684900  1.0  -0.3169
  N  N233  1  0.127600  0.500000  0.760300  1.0  0.0647
  N  N234  1  0.521800  0.500000  0.683900  1.0  -0.2668
  O  O235  1  0.829600  0.000000  0.136100  1.0  -0.9185
  O  O236  1  0.329600  0.500000  0.136100  1.0  -0.9185
  O  O237  1  0.170400  0.000000  0.863900  1.0  -0.9182
  O  O238  1  0.670400  0.500000  0.863900  1.0  -0.9182
