# generated using pymatgen
data_GdHC5(NO2)2
_symmetry_space_group_name_H-M   'P 1'
_cell_length_a   16.15700000
_cell_length_b   16.47080000
_cell_length_c   16.47080000
_cell_angle_alpha   76.08010000
_cell_angle_beta   60.62830000
_cell_angle_gamma   60.62830000
_symmetry_Int_Tables_number   1
_chemical_formula_structural   GdHC5(NO2)2
_chemical_formula_sum   'Gd16 H16 C80 N32 O64'
_cell_volume   3328.75028491
_cell_formula_units_Z   16
loop_
 _symmetry_equiv_pos_site_id
 _symmetry_equiv_pos_as_xyz
  1  'x, y, z'
loop_
 _atom_site_type_symbol
 _atom_site_label
 _atom_site_symmetry_multiplicity
 _atom_site_fract_x
 _atom_site_fract_y
 _atom_site_fract_z
 _atom_site_occupancy
 _atom_site_charge
  Gd  Gd1  1  0.205160  0.532270  0.379140  1.0  2.1705
  Gd  Gd2  1  0.012190  0.523710  0.113510  1.0  2.1775
  Gd  Gd3  1  0.616570  0.967730  0.120860  1.0  2.1702
  Gd  Gd4  1  0.149410  0.976290  0.386490  1.0  2.1781
  Gd  Gd5  1  0.584300  0.620860  0.032270  1.0  2.1668
  Gd  Gd6  1  0.125700  0.886490  0.023710  1.0  2.1786
  Gd  Gd7  1  0.737430  0.879140  0.467730  1.0  2.1656
  Gd  Gd8  1  0.535900  0.613510  0.476290  1.0  2.1769
  Gd  Gd9  1  0.794840  0.467730  0.620860  1.0  2.1699
  Gd  Gd10  1  0.987810  0.476290  0.886490  1.0  2.1775
  Gd  Gd11  1  0.383430  0.032270  0.879140  1.0  2.1698
  Gd  Gd12  1  0.850590  0.023710  0.613510  1.0  2.1778
  Gd  Gd13  1  0.415700  0.379140  0.967730  1.0  2.167
  Gd  Gd14  1  0.874300  0.113510  0.976290  1.0  2.1774
  Gd  Gd15  1  0.262570  0.120860  0.532270  1.0  2.1636
  Gd  Gd16  1  0.464100  0.386490  0.523710  1.0  2.1768
  H  H17  1  0.806400  0.752100  0.250700  1.0  0.035
  H  H18  1  0.082100  0.782700  0.399700  1.0  0.0421
  H  H19  1  0.309200  0.747900  0.249300  1.0  0.0358
  H  H20  1  0.764500  0.717300  0.100300  1.0  0.0403
  H  H21  1  0.057100  0.749300  0.252100  1.0  0.0359
  H  H22  1  0.481800  0.600300  0.282700  1.0  0.0386
  H  H23  1  0.558500  0.750700  0.247900  1.0  0.0353
  H  H24  1  0.864800  0.899700  0.217300  1.0  0.0407
  H  H25  1  0.193600  0.247900  0.749300  1.0  0.0356
  H  H26  1  0.917900  0.217300  0.600300  1.0  0.0415
  H  H27  1  0.690800  0.252100  0.750700  1.0  0.0358
  H  H28  1  0.235500  0.282700  0.899700  1.0  0.0401
  H  H29  1  0.942900  0.250700  0.747900  1.0  0.036
  H  H30  1  0.518200  0.399700  0.717300  1.0  0.0401
  H  H31  1  0.441500  0.249300  0.752100  1.0  0.0358
  H  H32  1  0.135200  0.100300  0.782700  1.0  0.0414
  C  C33  1  0.853300  0.716300  0.276700  1.0  0.4013
  C  C34  1  0.985700  0.605500  0.297300  1.0  0.0084
  C  C35  1  0.926700  0.670500  0.368500  1.0  -0.0257
  C  C36  1  0.079300  0.514700  0.276300  1.0  0.7675
  C  C37  1  0.938300  0.678600  0.449000  1.0  0.7586
  C  C38  1  0.138700  0.759500  0.414100  1.0  0.426
  C  C39  1  0.272000  0.662600  0.442600  1.0  0.0323
  C  C40  1  0.251000  0.754000  0.451400  1.0  0.0325
  C  C41  1  0.348700  0.569600  0.453400  1.0  0.7259
  C  C42  1  0.305100  0.794500  0.469300  1.0  0.7503
  C  C43  1  0.346300  0.783700  0.223300  1.0  0.4005
  C  C44  1  0.388500  0.894500  0.202700  1.0  0.0063
  C  C45  1  0.465700  0.829500  0.131500  1.0  -0.025
  C  C46  1  0.370300  0.985300  0.223700  1.0  0.7698
  C  C47  1  0.565900  0.821400  0.051000  1.0  0.7484
  C  C48  1  0.812300  0.740500  0.085900  1.0  0.4254
  C  C49  1  0.877200  0.837400  0.057400  1.0  0.0324
  C  C50  1  0.956400  0.746000  0.048600  1.0  0.0314
  C  C51  1  0.871700  0.930400  0.046600  1.0  0.7259
  C  C52  1  0.068900  0.705500  0.030700  1.0  0.7488
  C  C53  1  0.130000  0.723300  0.216300  1.0  0.3998
  C  C54  1  0.283000  0.702700  0.105500  1.0  0.0077
  C  C55  1  0.295200  0.631500  0.170500  1.0  -0.0256
  C  C56  1  0.355600  0.723700  0.014700  1.0  0.7682
  C  C57  1  0.387300  0.551000  0.178600  1.0  0.7526
  C  C58  1  0.552800  0.585900  0.259500  1.0  0.4243
  C  C59  1  0.714600  0.557400  0.162600  1.0  0.0333
  C  C60  1  0.702400  0.548600  0.254000  1.0  0.0308
  C  C61  1  0.802100  0.546600  0.069600  1.0  0.7261
  C  C62  1  0.774400  0.530700  0.294500  1.0  0.7449
  C  C63  1  0.569600  0.776700  0.283700  1.0  0.4014
  C  C64  1  0.591200  0.797300  0.394500  1.0  0.0075
  C  C65  1  0.597200  0.868500  0.329500  1.0  -0.0239
  C  C66  1  0.594000  0.776300  0.485300  1.0  0.7721
  C  C67  1  0.616900  0.949000  0.321400  1.0  0.7518
  C  C68  1  0.898200  0.914100  0.240500  1.0  0.4249
  C  C69  1  0.934600  0.942600  0.337400  1.0  0.0317
  C  C70  1  0.005000  0.951400  0.246000  1.0  0.0312
  C  C71  1  0.918300  0.953400  0.430400  1.0  0.7253
  C  C72  1  0.099600  0.969300  0.205500  1.0  0.7465
  C  C73  1  0.146700  0.283700  0.723300  1.0  0.3985
  C  C74  1  0.014300  0.394500  0.702700  1.0  0.0075
  C  C75  1  0.073300  0.329500  0.631500  1.0  -0.0263
  C  C76  1  0.920700  0.485300  0.723700  1.0  0.769
  C  C77  1  0.061700  0.321400  0.551000  1.0  0.7573
  C  C78  1  0.861300  0.240500  0.585900  1.0  0.4249
  C  C79  1  0.728000  0.337400  0.557400  1.0  0.0319
  C  C80  1  0.749000  0.246000  0.548600  1.0  0.0317
  C  C81  1  0.651300  0.430400  0.546600  1.0  0.7245
  C  C82  1  0.694900  0.205500  0.530700  1.0  0.75
  C  C83  1  0.653700  0.216300  0.776700  1.0  0.4009
  C  C84  1  0.611500  0.105500  0.797300  1.0  0.0075
  C  C85  1  0.534300  0.170500  0.868500  1.0  -0.0255
  C  C86  1  0.629700  0.014700  0.776300  1.0  0.7686
  C  C87  1  0.434100  0.178600  0.949000  1.0  0.7506
  C  C88  1  0.187700  0.259500  0.914100  1.0  0.4269
  C  C89  1  0.122800  0.162600  0.942600  1.0  0.0318
  C  C90  1  0.043600  0.254000  0.951400  1.0  0.0322
  C  C91  1  0.128300  0.069600  0.953400  1.0  0.7259
  C  C92  1  0.931100  0.294500  0.969300  1.0  0.749
  C  C93  1  0.870000  0.276700  0.783700  1.0  0.4
  C  C94  1  0.717000  0.297300  0.894500  1.0  0.0074
  C  C95  1  0.704800  0.368500  0.829500  1.0  -0.0249
  C  C96  1  0.644400  0.276300  0.985300  1.0  0.7666
  C  C97  1  0.612700  0.449000  0.821400  1.0  0.7517
  C  C98  1  0.447200  0.414100  0.740500  1.0  0.425
  C  C99  1  0.285400  0.442600  0.837400  1.0  0.0327
  C  C100  1  0.297600  0.451400  0.746000  1.0  0.03
  C  C101  1  0.197900  0.453400  0.930400  1.0  0.7251
  C  C102  1  0.225600  0.469300  0.705500  1.0  0.7459
  C  C103  1  0.430400  0.223300  0.716300  1.0  0.3992
  C  C104  1  0.408800  0.202700  0.605500  1.0  0.008
  C  C105  1  0.402800  0.131500  0.670500  1.0  -0.0249
  C  C106  1  0.406000  0.223700  0.514700  1.0  0.7721
  C  C107  1  0.383100  0.051000  0.678600  1.0  0.7525
  C  C108  1  0.101800  0.085900  0.759500  1.0  0.4245
  C  C109  1  0.065400  0.057400  0.662600  1.0  0.0331
  C  C110  1  0.995000  0.048600  0.754000  1.0  0.0303
  C  C111  1  0.081700  0.046600  0.569600  1.0  0.7243
  C  C112  1  0.900400  0.030700  0.794500  1.0  0.7469
  N  N113  1  0.841600  0.741600  0.355000  1.0  -0.6078
  N  N114  1  0.937300  0.635900  0.239100  1.0  -0.5643
  N  N115  1  0.166800  0.814000  0.432200  1.0  -0.5982
  N  N116  1  0.199200  0.668300  0.418300  1.0  -0.6268
  N  N117  1  0.438200  0.758400  0.145000  1.0  -0.6096
  N  N118  1  0.312300  0.864100  0.260900  1.0  -0.5659
  N  N119  1  0.913000  0.686000  0.067800  1.0  -0.5971
  N  N120  1  0.785800  0.831700  0.081700  1.0  -0.6281
  N  N121  1  0.196600  0.645000  0.241600  1.0  -0.6085
  N  N122  1  0.176400  0.760900  0.135900  1.0  -0.5661
  N  N123  1  0.599000  0.567800  0.314000  1.0  -0.5951
  N  N124  1  0.617500  0.581700  0.168300  1.0  -0.626
  N  N125  1  0.583200  0.855000  0.258400  1.0  -0.609
  N  N126  1  0.573200  0.739100  0.364100  1.0  -0.5651
  N  N127  1  0.980800  0.932200  0.186000  1.0  -0.5955
  N  N128  1  0.867500  0.918300  0.331700  1.0  -0.63
  N  N129  1  0.158400  0.258400  0.645000  1.0  -0.6085
  N  N130  1  0.062700  0.364100  0.760900  1.0  -0.564
  N  N131  1  0.833200  0.186000  0.567800  1.0  -0.5976
  N  N132  1  0.800800  0.331700  0.581700  1.0  -0.6285
  N  N133  1  0.561800  0.241600  0.855000  1.0  -0.6081
  N  N134  1  0.687700  0.135900  0.739100  1.0  -0.5661
  N  N135  1  0.087000  0.314000  0.932200  1.0  -0.5972
  N  N136  1  0.214200  0.168300  0.918300  1.0  -0.6251
  N  N137  1  0.803400  0.355000  0.758400  1.0  -0.6085
  N  N138  1  0.823600  0.239100  0.864100  1.0  -0.5663
  N  N139  1  0.401000  0.432200  0.686000  1.0  -0.5947
  N  N140  1  0.382500  0.418300  0.831700  1.0  -0.6278
  N  N141  1  0.416800  0.145000  0.741600  1.0  -0.609
  N  N142  1  0.426800  0.260900  0.635900  1.0  -0.5641
  N  N143  1  0.019200  0.067800  0.814000  1.0  -0.5951
  N  N144  1  0.132500  0.081700  0.668300  1.0  -0.6265
  O  O145  1  0.132200  0.482100  0.321500  1.0  -0.7591
  O  O146  1  0.104800  0.469700  0.207700  1.0  -0.7061
  O  O147  1  0.022600  0.627900  0.454500  1.0  -0.7335
  O  O148  1  0.859300  0.740600  0.508200  1.0  -0.6996
  O  O149  1  0.348200  0.501200  0.431200  1.0  -0.7384
  O  O150  1  0.412800  0.555400  0.485600  1.0  -0.8368
  O  O151  1  0.375700  0.744000  0.495000  1.0  -0.7366
  O  O152  1  0.272300  0.882100  0.457300  1.0  -0.6832
  O  O153  1  0.435800  0.017900  0.178500  1.0  -0.762
  O  O154  1  0.282200  0.030300  0.292300  1.0  -0.7048
  O  O155  1  0.605000  0.872100  0.045500  1.0  -0.7327
  O  O156  1  0.608100  0.759400  0.991800  1.0  -0.6999
  O  O157  1  0.780600  0.998800  0.068800  1.0  -0.7374
  O  O158  1  0.953800  0.944600  0.014400  1.0  -0.8343
  O  O159  1  0.114700  0.756000  0.005000  1.0  -0.7345
  O  O160  1  0.111700  0.617900  0.042700  1.0  -0.6811
  O  O161  1  0.453700  0.678500  0.982100  1.0  -0.7608
  O  O162  1  0.312500  0.792300  0.969700  1.0  -0.7082
  O  O163  1  0.477100  0.545500  0.127900  1.0  -0.732
  O  O164  1  0.367500  0.491800  0.240600  1.0  -0.6977
  O  O165  1  0.779400  0.568800  0.001200  1.0  -0.7415
  O  O166  1  0.898400  0.514400  0.055400  1.0  -0.8339
  O  O167  1  0.870700  0.505000  0.244000  1.0  -0.7338
  O  O168  1  0.729600  0.542700  0.382100  1.0  -0.6828
  O  O169  1  0.614300  0.821500  0.517900  1.0  -0.765
  O  O170  1  0.574500  0.707700  0.530300  1.0  -0.7066
  O  O171  1  0.650500  0.954500  0.372100  1.0  -0.7329
  O  O172  1  0.599900  0.008200  0.259400  1.0  -0.6995
  O  O173  1  0.849400  0.931200  0.498800  1.0  -0.7384
  O  O174  1  0.968200  0.985600  0.444600  1.0  -0.8365
  O  O175  1  0.119700  0.995000  0.256000  1.0  -0.735
  O  O176  1  0.154400  0.957300  0.117900  1.0  -0.6802
  O  O177  1  0.867800  0.517900  0.678500  1.0  -0.7609
  O  O178  1  0.895200  0.530300  0.792300  1.0  -0.7063
  O  O179  1  0.977400  0.372100  0.545500  1.0  -0.7341
  O  O180  1  0.140700  0.259400  0.491800  1.0  -0.6988
  O  O181  1  0.651800  0.498800  0.568800  1.0  -0.738
  O  O182  1  0.587200  0.444600  0.514400  1.0  -0.8402
  O  O183  1  0.624300  0.256000  0.505000  1.0  -0.7366
  O  O184  1  0.727700  0.117900  0.542700  1.0  -0.6819
  O  O185  1  0.564200  0.982100  0.821500  1.0  -0.7603
  O  O186  1  0.717800  0.969700  0.707700  1.0  -0.7049
  O  O187  1  0.395000  0.127900  0.954500  1.0  -0.7301
  O  O188  1  0.391900  0.240600  0.008200  1.0  -0.7003
  O  O189  1  0.219400  0.001200  0.931200  1.0  -0.7374
  O  O190  1  0.046200  0.055400  0.985600  1.0  -0.8332
  O  O191  1  0.885300  0.244000  0.995000  1.0  -0.7326
  O  O192  1  0.888300  0.382100  0.957300  1.0  -0.6816
  O  O193  1  0.546300  0.321500  0.017900  1.0  -0.7612
  O  O194  1  0.687500  0.207700  0.030300  1.0  -0.7097
  O  O195  1  0.522900  0.454500  0.872100  1.0  -0.7322
  O  O196  1  0.632500  0.508200  0.759400  1.0  -0.6988
  O  O197  1  0.220600  0.431200  0.998800  1.0  -0.7439
  O  O198  1  0.101600  0.485600  0.944600  1.0  -0.8347
  O  O199  1  0.129300  0.495000  0.756000  1.0  -0.7331
  O  O200  1  0.270400  0.457300  0.617900  1.0  -0.6823
  O  O201  1  0.385700  0.178500  0.482100  1.0  -0.7659
  O  O202  1  0.425500  0.292300  0.469700  1.0  -0.7059
  O  O203  1  0.349500  0.045500  0.627900  1.0  -0.7322
  O  O204  1  0.400100  0.991800  0.740600  1.0  -0.6984
  O  O205  1  0.150600  0.068800  0.501200  1.0  -0.7394
  O  O206  1  0.031800  0.014400  0.555400  1.0  -0.8345
  O  O207  1  0.880300  0.005000  0.744000  1.0  -0.7336
  O  O208  1  0.845600  0.042700  0.882100  1.0  -0.6794
