# generated using pymatgen
data_SmHC5(NO2)2
_symmetry_space_group_name_H-M   'P 1'
_cell_length_a   16.22600000
_cell_length_b   16.56410000
_cell_length_c   16.56410000
_cell_angle_alpha   76.11950000
_cell_angle_beta   60.67300000
_cell_angle_gamma   60.67300000
_symmetry_Int_Tables_number   1
_chemical_formula_structural   SmHC5(NO2)2
_chemical_formula_sum   'Sm16 H16 C80 N32 O64'
_cell_volume   3383.91390639
_cell_formula_units_Z   16
loop_
 _symmetry_equiv_pos_site_id
 _symmetry_equiv_pos_as_xyz
  1  'x, y, z'
loop_
 _atom_site_type_symbol
 _atom_site_label
 _atom_site_symmetry_multiplicity
 _atom_site_fract_x
 _atom_site_fract_y
 _atom_site_fract_z
 _atom_site_occupancy
 _atom_site_charge
  Sm  Sm1  1  0.705110  0.532540  0.379800  1.0  2.2574
  Sm  Sm2  1  0.625950  0.886740  0.023940  1.0  2.266
  Sm  Sm3  1  0.117450  0.967460  0.120210  1.0  2.2552
  Sm  Sm4  1  0.036630  0.613260  0.476060  1.0  2.2648
  Sm  Sm5  1  0.084920  0.620200  0.032530  1.0  2.2513
  Sm  Sm6  1  0.649890  0.976060  0.386740  1.0  2.2669
  Sm  Sm7  1  0.237650  0.879800  0.467460  1.0  2.2483
  Sm  Sm8  1  0.512690  0.523940  0.113260  1.0  2.266
  Sm  Sm9  1  0.294890  0.467460  0.620200  1.0  2.2544
  Sm  Sm10  1  0.374050  0.113260  0.976060  1.0  2.2653
  Sm  Sm11  1  0.882550  0.032540  0.879790  1.0  2.2573
  Sm  Sm12  1  0.963370  0.386740  0.523940  1.0  2.2638
  Sm  Sm13  1  0.915090  0.379790  0.967470  1.0  2.2507
  Sm  Sm14  1  0.350110  0.023940  0.613260  1.0  2.2663
  Sm  Sm15  1  0.762340  0.120210  0.532540  1.0  2.2466
  Sm  Sm16  1  0.487310  0.476060  0.886740  1.0  2.2663
  H  H17  1  0.558600  0.748600  0.253200  1.0  0.0357
  H  H18  1  0.583400  0.782300  0.400300  1.0  0.0416
  H  H19  1  0.060400  0.751400  0.246800  1.0  0.0347
  H  H20  1  0.266000  0.717700  0.099700  1.0  0.0401
  H  H21  1  0.811800  0.746800  0.248600  1.0  0.0355
  H  H22  1  0.983700  0.599700  0.282300  1.0  0.0387
  H  H23  1  0.307200  0.753200  0.251400  1.0  0.0348
  H  H24  1  0.365700  0.900300  0.217700  1.0  0.0407
  H  H25  1  0.441400  0.251400  0.746800  1.0  0.0356
  H  H26  1  0.416600  0.217700  0.599700  1.0  0.0412
  H  H27  1  0.939600  0.248600  0.753200  1.0  0.0356
  H  H28  1  0.734000  0.282300  0.900300  1.0  0.04
  H  H29  1  0.188200  0.253200  0.751400  1.0  0.0356
  H  H30  1  0.016300  0.400300  0.717700  1.0  0.0401
  H  H31  1  0.692800  0.246800  0.748600  1.0  0.0353
  H  H32  1  0.634300  0.099700  0.782300  1.0  0.0411
  C  C33  1  0.631200  0.722600  0.217200  1.0  0.4006
  C  C34  1  0.782600  0.702700  0.106300  1.0  0.017
  C  C35  1  0.794800  0.632500  0.170500  1.0  -0.0289
  C  C36  1  0.855500  0.723900  0.015900  1.0  0.7715
  C  C37  1  0.886800  0.552400  0.179000  1.0  0.7463
  C  C38  1  0.639700  0.759100  0.414700  1.0  0.4282
  C  C39  1  0.772100  0.663700  0.442900  1.0  0.029
  C  C40  1  0.751900  0.753500  0.451700  1.0  0.0434
  C  C41  1  0.848900  0.570500  0.453100  1.0  0.7372
  C  C42  1  0.805400  0.794000  0.469400  1.0  0.7526
  C  C43  1  0.071000  0.777400  0.282800  1.0  0.4017
  C  C44  1  0.091600  0.797300  0.393700  1.0  0.0167
  C  C45  1  0.097800  0.867500  0.329500  1.0  -0.027
  C  C46  1  0.095300  0.776100  0.484100  1.0  0.7777
  C  C47  1  0.118200  0.947600  0.321000  1.0  0.7482
  C  C48  1  0.313500  0.740900  0.085300  1.0  0.4281
  C  C49  1  0.378700  0.836300  0.057100  1.0  0.0286
  C  C50  1  0.457100  0.746500  0.048300  1.0  0.0426
  C  C51  1  0.372500  0.929500  0.046900  1.0  0.7359
  C  C52  1  0.568800  0.706000  0.030600  1.0  0.751
  C  C53  1  0.848400  0.782800  0.222600  1.0  0.4011
  C  C54  1  0.888900  0.893700  0.202700  1.0  0.0152
  C  C55  1  0.965300  0.829500  0.132500  1.0  -0.0279
  C  C56  1  0.871400  0.984100  0.223900  1.0  0.7742
  C  C57  1  0.065800  0.821000  0.052400  1.0  0.7422
  C  C58  1  0.054400  0.585300  0.259100  1.0  0.4285
  C  C59  1  0.215000  0.557100  0.163700  1.0  0.0295
  C  C60  1  0.203600  0.548300  0.253500  1.0  0.0417
  C  C61  1  0.302000  0.546900  0.070500  1.0  0.737
  C  C62  1  0.274800  0.530600  0.294000  1.0  0.7487
  C  C63  1  0.353800  0.717200  0.277400  1.0  0.4013
  C  C64  1  0.485300  0.606300  0.297300  1.0  0.0168
  C  C65  1  0.427300  0.670500  0.367500  1.0  -0.0291
  C  C66  1  0.579400  0.515900  0.276100  1.0  0.7712
  C  C67  1  0.439200  0.679000  0.447600  1.0  0.7533
  C  C68  1  0.398800  0.914700  0.240900  1.0  0.4274
  C  C69  1  0.435800  0.942900  0.336300  1.0  0.0274
  C  C70  1  0.505400  0.951700  0.246500  1.0  0.0422
  C  C71  1  0.419400  0.953100  0.429500  1.0  0.7368
  C  C72  1  0.599400  0.969400  0.206000  1.0  0.749
  C  C73  1  0.368800  0.277400  0.782800  1.0  0.3996
  C  C74  1  0.217400  0.297300  0.893700  1.0  0.0172
  C  C75  1  0.205200  0.367500  0.829500  1.0  -0.0278
  C  C76  1  0.144500  0.276100  0.984100  1.0  0.7722
  C  C77  1  0.113200  0.447600  0.821000  1.0  0.7481
  C  C78  1  0.360300  0.240900  0.585300  1.0  0.4273
  C  C79  1  0.227900  0.336300  0.557100  1.0  0.0292
  C  C80  1  0.248100  0.246500  0.548300  1.0  0.0429
  C  C81  1  0.151100  0.429500  0.546900  1.0  0.7344
  C  C82  1  0.194600  0.206000  0.530600  1.0  0.7524
  C  C83  1  0.929000  0.222600  0.717200  1.0  0.4001
  C  C84  1  0.908400  0.202700  0.606300  1.0  0.0165
  C  C85  1  0.902200  0.132500  0.670500  1.0  -0.0284
  C  C86  1  0.904700  0.223900  0.515900  1.0  0.7738
  C  C87  1  0.881800  0.052400  0.679000  1.0  0.7471
  C  C88  1  0.686500  0.259100  0.914700  1.0  0.429
  C  C89  1  0.621300  0.163700  0.942900  1.0  0.0283
  C  C90  1  0.542900  0.253500  0.951700  1.0  0.0434
  C  C91  1  0.627500  0.070500  0.953100  1.0  0.7372
  C  C92  1  0.431200  0.294000  0.969400  1.0  0.7503
  C  C93  1  0.151600  0.217200  0.777400  1.0  0.4004
  C  C94  1  0.111100  0.106300  0.797300  1.0  0.0159
  C  C95  1  0.034700  0.170500  0.867500  1.0  -0.0287
  C  C96  1  0.128600  0.015900  0.776100  1.0  0.7716
  C  C97  1  0.934200  0.179000  0.947600  1.0  0.7473
  C  C98  1  0.945600  0.414700  0.740900  1.0  0.4283
  C  C99  1  0.785000  0.442900  0.836300  1.0  0.0283
  C  C100  1  0.796400  0.451700  0.746500  1.0  0.0412
  C  C101  1  0.698000  0.453100  0.929500  1.0  0.7365
  C  C102  1  0.725200  0.469400  0.706000  1.0  0.7491
  C  C103  1  0.646200  0.282800  0.722600  1.0  0.3994
  C  C104  1  0.514700  0.393700  0.702700  1.0  0.0161
  C  C105  1  0.572700  0.329500  0.632500  1.0  -0.029
  C  C106  1  0.420600  0.484100  0.723900  1.0  0.7733
  C  C107  1  0.560800  0.321000  0.552400  1.0  0.7507
  C  C108  1  0.601200  0.085300  0.759100  1.0  0.4278
  C  C109  1  0.564200  0.057100  0.663700  1.0  0.0292
  C  C110  1  0.494600  0.048300  0.753500  1.0  0.0418
  C  C111  1  0.580600  0.046900  0.570500  1.0  0.736
  C  C112  1  0.400600  0.030600  0.794000  1.0  0.7496
  N  N113  1  0.697100  0.645300  0.241700  1.0  -0.6086
  N  N114  1  0.677200  0.760300  0.136500  1.0  -0.58
  N  N115  1  0.668100  0.813300  0.432900  1.0  -0.6151
  N  N116  1  0.699500  0.668100  0.418900  1.0  -0.6532
  N  N117  1  0.084100  0.854700  0.258300  1.0  -0.6089
  N  N118  1  0.074000  0.739700  0.363500  1.0  -0.578
  N  N119  1  0.414300  0.686700  0.067100  1.0  -0.6162
  N  N120  1  0.286500  0.831900  0.081100  1.0  -0.655
  N  N121  1  0.938800  0.758300  0.145300  1.0  -0.61
  N  N122  1  0.813700  0.863500  0.260300  1.0  -0.5795
  N  N123  1  0.101000  0.567100  0.313300  1.0  -0.6135
  N  N124  1  0.118400  0.581100  0.168100  1.0  -0.6524
  N  N125  1  0.342400  0.741700  0.354700  1.0  -0.6081
  N  N126  1  0.437500  0.636500  0.239700  1.0  -0.5784
  N  N127  1  0.481400  0.932900  0.186700  1.0  -0.6138
  N  N128  1  0.367600  0.918900  0.331900  1.0  -0.6558
  N  N129  1  0.302900  0.354700  0.758300  1.0  -0.6086
  N  N130  1  0.322800  0.239700  0.863500  1.0  -0.5789
  N  N131  1  0.331900  0.186700  0.567100  1.0  -0.6168
  N  N132  1  0.300500  0.331900  0.581100  1.0  -0.6547
  N  N133  1  0.915900  0.145300  0.741700  1.0  -0.609
  N  N134  1  0.926000  0.260300  0.636500  1.0  -0.579
  N  N135  1  0.585700  0.313300  0.932900  1.0  -0.6143
  N  N136  1  0.713500  0.168100  0.918900  1.0  -0.6517
  N  N137  1  0.061200  0.241700  0.854700  1.0  -0.609
  N  N138  1  0.186300  0.136500  0.739700  1.0  -0.5785
  N  N139  1  0.899000  0.432900  0.686700  1.0  -0.613
  N  N140  1  0.881600  0.418900  0.831900  1.0  -0.6539
  N  N141  1  0.657600  0.258300  0.645300  1.0  -0.6102
  N  N142  1  0.562500  0.363500  0.760300  1.0  -0.5784
  N  N143  1  0.518600  0.067100  0.813300  1.0  -0.6131
  N  N144  1  0.632400  0.081100  0.668100  1.0  -0.6525
  O  O145  1  0.867400  0.492800  0.241200  1.0  -0.7135
  O  O146  1  0.977000  0.545700  0.128900  1.0  -0.7495
  O  O147  1  0.953100  0.678400  0.983400  1.0  -0.7747
  O  O148  1  0.811900  0.792390  0.972010  1.0  -0.7329
  O  O149  1  0.847460  0.502230  0.432450  1.0  -0.7775
  O  O150  1  0.912680  0.555850  0.484990  1.0  -0.8499
  O  O151  1  0.876100  0.743900  0.494500  1.0  -0.7498
  O  O152  1  0.772900  0.880800  0.457600  1.0  -0.689
  O  O153  1  0.101400  0.007200  0.258800  1.0  -0.7153
  O  O154  1  0.151600  0.954300  0.371100  1.0  -0.7499
  O  O155  1  0.114900  0.821600  0.516600  1.0  -0.7788
  O  O156  1  0.076300  0.707610  0.527990  1.0  -0.7329
  O  O157  1  0.282140  0.997770  0.067550  1.0  -0.776
  O  O158  1  0.453520  0.944150  0.015010  1.0  -0.8473
  O  O159  1  0.614500  0.756100  0.005500  1.0  -0.7469
  O  O160  1  0.611300  0.619200  0.042400  1.0  -0.6865
  O  O161  1  0.108600  0.758800  0.992800  1.0  -0.7174
  O  O162  1  0.105900  0.871100  0.045700  1.0  -0.7499
  O  O163  1  0.936500  0.016600  0.178400  1.0  -0.7754
  O  O164  1  0.783910  0.027990  0.292390  1.0  -0.7292
  O  O165  1  0.279910  0.567550  0.002230  1.0  -0.7806
  O  O166  1  0.397670  0.515010  0.055850  1.0  -0.8469
  O  O167  1  0.370600  0.505500  0.243900  1.0  -0.748
  O  O168  1  0.230500  0.542400  0.380800  1.0  -0.6886
  O  O169  1  0.360200  0.741200  0.507200  1.0  -0.7148
  O  O170  1  0.522700  0.628900  0.454300  1.0  -0.751
  O  O171  1  0.631500  0.483400  0.321600  1.0  -0.773
  O  O172  1  0.604290  0.472010  0.207610  1.0  -0.7306
  O  O173  1  0.349690  0.932450  0.497770  1.0  -0.7774
  O  O174  1  0.468530  0.984990  0.444150  1.0  -0.8489
  O  O175  1  0.620000  0.994500  0.256100  1.0  -0.7481
  O  O176  1  0.653700  0.957600  0.119200  1.0  -0.6857
  O  O177  1  0.132600  0.507200  0.758800  1.0  -0.7132
  O  O178  1  0.023000  0.454300  0.871100  1.0  -0.7499
  O  O179  1  0.046900  0.321600  0.016600  1.0  -0.775
  O  O180  1  0.188100  0.207610  0.027990  1.0  -0.735
  O  O181  1  0.152540  0.497770  0.567550  1.0  -0.7771
  O  O182  1  0.087320  0.444150  0.515010  1.0  -0.851
  O  O183  1  0.123900  0.256100  0.505500  1.0  -0.7497
  O  O184  1  0.227100  0.119200  0.542400  1.0  -0.6878
  O  O185  1  0.898600  0.992800  0.741200  1.0  -0.7141
  O  O186  1  0.848400  0.045700  0.628900  1.0  -0.7499
  O  O187  1  0.885100  0.178400  0.483400  1.0  -0.7792
  O  O188  1  0.923700  0.292390  0.472010  1.0  -0.7315
  O  O189  1  0.717860  0.002230  0.932450  1.0  -0.7759
  O  O190  1  0.546480  0.055850  0.984990  1.0  -0.8474
  O  O191  1  0.385500  0.243900  0.994500  1.0  -0.7452
  O  O192  1  0.388700  0.380800  0.957600  1.0  -0.6882
  O  O193  1  0.891400  0.241200  0.007200  1.0  -0.7159
  O  O194  1  0.894100  0.128900  0.954300  1.0  -0.7481
  O  O195  1  0.063500  0.983400  0.821600  1.0  -0.774
  O  O196  1  0.216090  0.972010  0.707610  1.0  -0.7299
  O  O197  1  0.720090  0.432450  0.997770  1.0  -0.7823
  O  O198  1  0.602330  0.484990  0.944150  1.0  -0.8479
  O  O199  1  0.629400  0.494500  0.756100  1.0  -0.7469
  O  O200  1  0.769500  0.457600  0.619200  1.0  -0.6881
  O  O201  1  0.639800  0.258800  0.492800  1.0  -0.7143
  O  O202  1  0.477300  0.371100  0.545700  1.0  -0.7519
  O  O203  1  0.368500  0.516600  0.678400  1.0  -0.7748
  O  O204  1  0.395710  0.527990  0.792390  1.0  -0.7305
  O  O205  1  0.650310  0.067550  0.502230  1.0  -0.778
  O  O206  1  0.531470  0.015010  0.555850  1.0  -0.8485
  O  O207  1  0.380000  0.005500  0.743900  1.0  -0.7473
  O  O208  1  0.346300  0.042400  0.880800  1.0  -0.6847
