# generated using pymatgen
data_Yb(CO2)4
_symmetry_space_group_name_H-M   'P 1'
_cell_length_a   9.59150000
_cell_length_b   11.45200000
_cell_length_c   12.17800000
_cell_angle_alpha   90.00000000
_cell_angle_beta   98.96000000
_cell_angle_gamma   90.00000000
_symmetry_Int_Tables_number   1
_chemical_formula_structural   Yb(CO2)4
_chemical_formula_sum   'Yb4 C16 O32'
_cell_volume   1321.33117019
_cell_formula_units_Z   4
loop_
 _symmetry_equiv_pos_site_id
 _symmetry_equiv_pos_as_xyz
  1  'x, y, z'
loop_
 _atom_site_type_symbol
 _atom_site_label
 _atom_site_symmetry_multiplicity
 _atom_site_fract_x
 _atom_site_fract_y
 _atom_site_fract_z
 _atom_site_occupancy
 _atom_site_charge
  Yb  Yb1  1  0.784260  0.990160  0.166490  1.0  1.322
  Yb  Yb2  1  0.715740  0.490160  0.333510  1.0  1.3218
  Yb  Yb3  1  0.215740  0.009840  0.833510  1.0  1.322
  Yb  Yb4  1  0.284260  0.509840  0.666490  1.0  1.3223
  C  C5  1  0.804900  0.716400  0.208700  1.0  0.5377
  C  C6  1  0.700000  0.760700  0.284000  1.0  0.5489
  C  C7  1  0.935400  0.999300  0.953300  1.0  0.5475
  C  C8  1  0.502900  0.066600  0.998700  1.0  0.5476
  C  C9  1  0.695100  0.216400  0.291300  1.0  0.5367
  C  C10  1  0.800000  0.260700  0.216000  1.0  0.5504
  C  C11  1  0.564600  0.499300  0.546700  1.0  0.5466
  C  C12  1  0.997100  0.566600  0.501300  1.0  0.5476
  C  C13  1  0.195100  0.283600  0.791300  1.0  0.5365
  C  C14  1  0.300000  0.239300  0.716000  1.0  0.5502
  C  C15  1  0.064600  0.000700  0.046700  1.0  0.5472
  C  C16  1  0.497100  0.933400  0.001300  1.0  0.5489
  C  C17  1  0.304900  0.783600  0.708700  1.0  0.5379
  C  C18  1  0.200000  0.739300  0.784000  1.0  0.5494
  C  C19  1  0.435400  0.500700  0.453300  1.0  0.5472
  C  C20  1  0.002900  0.433400  0.498700  1.0  0.5489
  O  O21  1  0.862800  0.793500  0.157800  1.0  -0.4405
  O  O22  1  0.824700  0.608300  0.208000  1.0  -0.4094
  O  O23  1  0.687000  0.868400  0.291000  1.0  -0.4265
  O  O24  1  0.637000  0.684100  0.331200  1.0  -0.4629
  O  O25  1  0.817500  0.990200  0.979100  1.0  -0.449
  O  O26  1  0.967300  0.006000  0.855300  1.0  -0.4131
  O  O27  1  0.602200  0.113700  0.061500  1.0  -0.4548
  O  O28  1  0.410200  0.117800  0.931400  1.0  -0.4504
  O  O29  1  0.637200  0.293500  0.342200  1.0  -0.44
  O  O30  1  0.675300  0.108300  0.292000  1.0  -0.4147
  O  O31  1  0.813000  0.368400  0.209000  1.0  -0.4237
  O  O32  1  0.863000  0.184100  0.168800  1.0  -0.4614
  O  O33  1  0.682500  0.490200  0.520900  1.0  -0.4494
  O  O34  1  0.532700  0.506000  0.644700  1.0  -0.408
  O  O35  1  0.897800  0.613700  0.438500  1.0  -0.4517
  O  O36  1  0.089800  0.617800  0.568600  1.0  -0.4521
  O  O37  1  0.137200  0.206500  0.842200  1.0  -0.4404
  O  O38  1  0.175300  0.391700  0.792000  1.0  -0.4102
  O  O39  1  0.313000  0.131600  0.709000  1.0  -0.4227
  O  O40  1  0.363000  0.315900  0.668800  1.0  -0.4622
  O  O41  1  0.182500  0.009800  0.020900  1.0  -0.4495
  O  O42  1  0.032700  0.994000  0.144700  1.0  -0.4102
  O  O43  1  0.397800  0.886300  0.938500  1.0  -0.4507
  O  O44  1  0.589800  0.882200  0.068600  1.0  -0.4531
  O  O45  1  0.362800  0.706500  0.657800  1.0  -0.4408
  O  O46  1  0.324700  0.891700  0.708000  1.0  -0.4115
  O  O47  1  0.187000  0.631600  0.791000  1.0  -0.428
  O  O48  1  0.137000  0.815900  0.831200  1.0  -0.4624
  O  O49  1  0.317500  0.509800  0.479100  1.0  -0.4491
  O  O50  1  0.467300  0.494000  0.355300  1.0  -0.4132
  O  O51  1  0.102200  0.386300  0.561500  1.0  -0.4532
  O  O52  1  0.910200  0.382200  0.431400  1.0  -0.4525
