# generated using pymatgen
data_TbHC5(NO2)2
_symmetry_space_group_name_H-M   'P 1'
_cell_length_a   16.04700000
_cell_length_b   16.39950000
_cell_length_c   16.39950000
_cell_angle_alpha   76.15070000
_cell_angle_beta   60.70850000
_cell_angle_gamma   60.70840000
_symmetry_Int_Tables_number   1
_chemical_formula_structural   TbHC5(NO2)2
_chemical_formula_sum   'Tb16 H16 C80 N32 O64'
_cell_volume   3282.68272224
_cell_formula_units_Z   16
loop_
 _symmetry_equiv_pos_site_id
 _symmetry_equiv_pos_as_xyz
  1  'x, y, z'
loop_
 _atom_site_type_symbol
 _atom_site_label
 _atom_site_symmetry_multiplicity
 _atom_site_fract_x
 _atom_site_fract_y
 _atom_site_fract_z
 _atom_site_occupancy
 _atom_site_charge
  Tb  Tb1  1  0.203890  0.379370  0.533090  1.0  2.2318
  Tb  Tb2  1  0.011810  0.113280  0.524420  1.0  2.2406
  Tb  Tb3  1  0.616350  0.120630  0.966910  1.0  2.2293
  Tb  Tb4  1  0.149510  0.386720  0.975580  1.0  2.2413
  Tb  Tb5  1  0.736980  0.466910  0.879370  1.0  2.237
  Tb  Tb6  1  0.536230  0.475580  0.613280  1.0  2.2417
  Tb  Tb7  1  0.583260  0.033090  0.620630  1.0  2.2356
  Tb  Tb8  1  0.125090  0.024420  0.886720  1.0  2.2425
  Tb  Tb9  1  0.796110  0.620630  0.466910  1.0  2.2334
  Tb  Tb10  1  0.988190  0.886720  0.475580  1.0  2.2402
  Tb  Tb11  1  0.383650  0.879370  0.033090  1.0  2.2263
  Tb  Tb12  1  0.850490  0.613280  0.024420  1.0  2.2396
  Tb  Tb13  1  0.263020  0.533090  0.120630  1.0  2.2338
  Tb  Tb14  1  0.463770  0.524420  0.386720  1.0  2.2419
  Tb  Tb15  1  0.416740  0.966910  0.379370  1.0  2.2375
  Tb  Tb16  1  0.874910  0.975580  0.113280  1.0  2.2418
  H  H17  1  0.805200  0.250000  0.752200  1.0  0.029
  H  H18  1  0.081500  0.398900  0.782100  1.0  0.0403
  H  H19  1  0.307400  0.250000  0.747800  1.0  0.0278
  H  H20  1  0.762500  0.101100  0.717900  1.0  0.042
  H  H21  1  0.557400  0.247800  0.750000  1.0  0.028
  H  H22  1  0.863600  0.217900  0.898900  1.0  0.0428
  H  H23  1  0.055200  0.252200  0.750000  1.0  0.0287
  H  H24  1  0.480400  0.282100  0.601100  1.0  0.0418
  H  H25  1  0.194800  0.750000  0.247800  1.0  0.0288
  H  H26  1  0.918500  0.601100  0.217900  1.0  0.0416
  H  H27  1  0.692600  0.750000  0.252200  1.0  0.0288
  H  H28  1  0.237500  0.898900  0.282100  1.0  0.0425
  H  H29  1  0.442600  0.752200  0.250000  1.0  0.0284
  H  H30  1  0.136400  0.782100  0.101100  1.0  0.0428
  H  H31  1  0.944800  0.747800  0.250000  1.0  0.0289
  H  H32  1  0.519600  0.717900  0.398900  1.0  0.0411
  C  C33  1  0.852600  0.276000  0.716800  1.0  0.3561
  C  C34  1  0.984400  0.296600  0.606400  1.0  0.023
  C  C35  1  0.924900  0.367700  0.671700  1.0  -0.0006
  C  C36  1  0.078600  0.275300  0.515100  1.0  0.7069
  C  C37  1  0.937000  0.448900  0.678900  1.0  0.7121
  C  C38  1  0.137700  0.414400  0.759000  1.0  0.3756
  C  C39  1  0.270400  0.443400  0.663800  1.0  0.0286
  C  C40  1  0.249800  0.452500  0.754100  1.0  0.0196
  C  C41  1  0.347100  0.454700  0.569500  1.0  0.6873
  C  C42  1  0.305800  0.470000  0.793600  1.0  0.6959
  C  C43  1  0.345400  0.224000  0.783200  1.0  0.3577
  C  C44  1  0.387400  0.203400  0.893600  1.0  0.0232
  C  C45  1  0.464300  0.132300  0.828300  1.0  -0.0018
  C  C46  1  0.369000  0.224700  0.984900  1.0  0.7141
  C  C47  1  0.564800  0.051100  0.821100  1.0  0.7132
  C  C48  1  0.811100  0.085600  0.741000  1.0  0.3772
  C  C49  1  0.877600  0.056600  0.836200  1.0  0.0264
  C  C50  1  0.956400  0.047500  0.745900  1.0  0.0198
  C  C51  1  0.871300  0.045300  0.930500  1.0  0.6883
  C  C52  1  0.069400  0.030000  0.706400  1.0  0.6978
  C  C53  1  0.569400  0.283200  0.776000  1.0  0.3574
  C  C54  1  0.590800  0.393600  0.796600  1.0  0.0241
  C  C55  1  0.596600  0.328300  0.867700  1.0  -0.0032
  C  C56  1  0.593700  0.484900  0.775300  1.0  0.7045
  C  C57  1  0.615900  0.321100  0.948900  1.0  0.7196
  C  C58  1  0.896700  0.241000  0.914400  1.0  0.3783
  C  C59  1  0.934200  0.336200  0.943400  1.0  0.0264
  C  C60  1  0.003900  0.245900  0.952500  1.0  0.0206
  C  C61  1  0.916600  0.430500  0.954700  1.0  0.688
  C  C62  1  0.099400  0.206400  0.970000  1.0  0.7008
  C  C63  1  0.128600  0.216800  0.724000  1.0  0.3562
  C  C64  1  0.281000  0.106400  0.703400  1.0  0.0223
  C  C65  1  0.292600  0.171700  0.632300  1.0  -0.002
  C  C66  1  0.353900  0.015100  0.724700  1.0  0.7031
  C  C67  1  0.385900  0.178900  0.551100  1.0  0.7112
  C  C68  1  0.552100  0.259000  0.585600  1.0  0.3787
  C  C69  1  0.713800  0.163800  0.556600  1.0  0.0256
  C  C70  1  0.702300  0.254100  0.547500  1.0  0.0213
  C  C71  1  0.801800  0.069500  0.545300  1.0  0.6877
  C  C72  1  0.775800  0.293600  0.530000  1.0  0.6994
  C  C73  1  0.147400  0.724000  0.283200  1.0  0.356
  C  C74  1  0.015600  0.703400  0.393600  1.0  0.023
  C  C75  1  0.075100  0.632300  0.328300  1.0  -0.0011
  C  C76  1  0.921400  0.724700  0.484900  1.0  0.7046
  C  C77  1  0.063000  0.551100  0.321100  1.0  0.713
  C  C78  1  0.862300  0.585600  0.241000  1.0  0.376
  C  C79  1  0.729600  0.556600  0.336200  1.0  0.0271
  C  C80  1  0.750200  0.547500  0.245900  1.0  0.0198
  C  C81  1  0.652900  0.545300  0.430500  1.0  0.6896
  C  C82  1  0.694200  0.530000  0.206400  1.0  0.6967
  C  C83  1  0.654600  0.776000  0.216800  1.0  0.356
  C  C84  1  0.612600  0.796600  0.106400  1.0  0.022
  C  C85  1  0.535700  0.867700  0.171700  1.0  -0.0006
  C  C86  1  0.631000  0.775300  0.015100  1.0  0.715
  C  C87  1  0.435200  0.948900  0.178900  1.0  0.7125
  C  C88  1  0.188900  0.914400  0.259000  1.0  0.3764
  C  C89  1  0.122400  0.943400  0.163800  1.0  0.0274
  C  C90  1  0.043600  0.952500  0.254100  1.0  0.0187
  C  C91  1  0.128700  0.954700  0.069500  1.0  0.6879
  C  C92  1  0.930600  0.970000  0.293600  1.0  0.6996
  C  C93  1  0.430600  0.716800  0.224000  1.0  0.3546
  C  C94  1  0.409200  0.606400  0.203400  1.0  0.0231
  C  C95  1  0.403400  0.671700  0.132300  1.0  -0.0033
  C  C96  1  0.406300  0.515100  0.224700  1.0  0.7029
  C  C97  1  0.384100  0.678900  0.051100  1.0  0.7211
  C  C98  1  0.103300  0.759000  0.085600  1.0  0.3773
  C  C99  1  0.065800  0.663800  0.056600  1.0  0.0265
  C  C100  1  0.996100  0.754100  0.047500  1.0  0.021
  C  C101  1  0.083400  0.569500  0.045300  1.0  0.688
  C  C102  1  0.900600  0.793600  0.030000  1.0  0.7003
  C  C103  1  0.871400  0.783200  0.276000  1.0  0.3571
  C  C104  1  0.719000  0.893600  0.296600  1.0  0.0217
  C  C105  1  0.707400  0.828300  0.367700  1.0  -0.0029
  C  C106  1  0.646100  0.984900  0.275300  1.0  0.7046
  C  C107  1  0.614100  0.821100  0.448900  1.0  0.7125
  C  C108  1  0.447900  0.741000  0.414400  1.0  0.379
  C  C109  1  0.286200  0.836200  0.443400  1.0  0.0262
  C  C110  1  0.297700  0.745900  0.452500  1.0  0.0211
  C  C111  1  0.198200  0.930500  0.454700  1.0  0.6893
  C  C112  1  0.224200  0.706400  0.470000  1.0  0.6981
  N  N113  1  0.841500  0.353700  0.742100  1.0  -0.5844
  N  N114  1  0.937100  0.239100  0.636700  1.0  -0.4899
  N  N115  1  0.166000  0.432900  0.813500  1.0  -0.5576
  N  N116  1  0.197100  0.420100  0.668500  1.0  -0.5645
  N  N117  1  0.437300  0.146300  0.757900  1.0  -0.5824
  N  N118  1  0.312900  0.260900  0.863300  1.0  -0.4896
  N  N119  1  0.912400  0.067100  0.686500  1.0  -0.5568
  N  N120  1  0.785700  0.079900  0.831500  1.0  -0.5652
  N  N121  1  0.583600  0.257900  0.853700  1.0  -0.5821
  N  N122  1  0.573800  0.363300  0.739100  1.0  -0.4881
  N  N123  1  0.979500  0.186500  0.932900  1.0  -0.5592
  N  N124  1  0.865600  0.331500  0.920100  1.0  -0.5649
  N  N125  1  0.195200  0.242100  0.646300  1.0  -0.5838
  N  N126  1  0.176200  0.136700  0.760900  1.0  -0.4886
  N  N127  1  0.598900  0.313500  0.567100  1.0  -0.5595
  N  N128  1  0.617200  0.168500  0.579900  1.0  -0.566
  N  N129  1  0.158500  0.646300  0.257900  1.0  -0.5822
  N  N130  1  0.062900  0.760900  0.363300  1.0  -0.4902
  N  N131  1  0.834000  0.567100  0.186500  1.0  -0.5565
  N  N132  1  0.802900  0.579900  0.331500  1.0  -0.5622
  N  N133  1  0.562700  0.853700  0.242100  1.0  -0.5845
  N  N134  1  0.687100  0.739100  0.136700  1.0  -0.4887
  N  N135  1  0.087600  0.932900  0.313500  1.0  -0.5579
  N  N136  1  0.214300  0.920100  0.168500  1.0  -0.5652
  N  N137  1  0.416400  0.742100  0.146300  1.0  -0.5827
  N  N138  1  0.426200  0.636700  0.260900  1.0  -0.487
  N  N139  1  0.020500  0.813500  0.067100  1.0  -0.5596
  N  N140  1  0.134400  0.668500  0.079900  1.0  -0.5642
  N  N141  1  0.804800  0.757900  0.353700  1.0  -0.5836
  N  N142  1  0.823800  0.863300  0.239100  1.0  -0.4905
  N  N143  1  0.401100  0.686500  0.432900  1.0  -0.5586
  N  N144  1  0.382800  0.831500  0.420100  1.0  -0.565
  O  O145  1  0.132500  0.321600  0.482400  1.0  -0.7758
  O  O146  1  0.103600  0.206300  0.470300  1.0  -0.7237
  O  O147  1  0.858700  0.507500  0.741900  1.0  -0.694
  O  O148  1  0.022200  0.455500  0.627500  1.0  -0.7685
  O  O149  1  0.348100  0.431700  0.501500  1.0  -0.7727
  O  O150  1  0.412000  0.486600  0.555200  1.0  -0.8023
  O  O151  1  0.376100  0.495000  0.744600  1.0  -0.7249
  O  O152  1  0.272900  0.456200  0.881400  1.0  -0.6996
  O  O153  1  0.436500  0.178400  0.017600  1.0  -0.7815
  O  O154  1  0.280200  0.293700  0.029700  1.0  -0.7214
  O  O155  1  0.608100  0.992500  0.758100  1.0  -0.6943
  O  O156  1  0.605200  0.044500  0.872500  1.0  -0.7679
  O  O157  1  0.781300  0.068300  0.998500  1.0  -0.7694
  O  O158  1  0.953800  0.013400  0.944800  1.0  -0.8018
  O  O159  1  0.115700  0.005000  0.755400  1.0  -0.7244
  O  O160  1  0.110500  0.043800  0.618600  1.0  -0.6972
  O  O161  1  0.614900  0.517600  0.821600  1.0  -0.7756
  O  O162  1  0.573900  0.529700  0.706300  1.0  -0.7224
  O  O163  1  0.600600  0.258100  0.007500  1.0  -0.6941
  O  O164  1  0.649700  0.372500  0.955500  1.0  -0.7711
  O  O165  1  0.849600  0.498500  0.931700  1.0  -0.771
  O  O166  1  0.967200  0.444800  0.986600  1.0  -0.8024
  O  O167  1  0.120700  0.255400  0.995000  1.0  -0.7287
  O  O168  1  0.154300  0.118600  0.956200  1.0  -0.6999
  O  O169  1  0.454100  0.982400  0.678400  1.0  -0.7747
  O  O170  1  0.309900  0.970300  0.793700  1.0  -0.7218
  O  O171  1  0.366200  0.241900  0.492500  1.0  -0.6947
  O  O172  1  0.477700  0.127500  0.544500  1.0  -0.7667
  O  O173  1  0.779800  0.001500  0.568300  1.0  -0.7684
  O  O174  1  0.898600  0.055200  0.513400  1.0  -0.8017
  O  O175  1  0.871100  0.244600  0.505000  1.0  -0.7253
  O  O176  1  0.729100  0.381400  0.543800  1.0  -0.6984
  O  O177  1  0.867500  0.678400  0.517600  1.0  -0.7748
  O  O178  1  0.896400  0.793700  0.529700  1.0  -0.7268
  O  O179  1  0.141300  0.492500  0.258100  1.0  -0.6933
  O  O180  1  0.977800  0.544500  0.372500  1.0  -0.7678
  O  O181  1  0.651900  0.568300  0.498500  1.0  -0.7749
  O  O182  1  0.588000  0.513400  0.444800  1.0  -0.8006
  O  O183  1  0.623900  0.505000  0.255400  1.0  -0.7239
  O  O184  1  0.727100  0.543800  0.118600  1.0  -0.6978
  O  O185  1  0.563500  0.821600  0.982400  1.0  -0.7807
  O  O186  1  0.719800  0.706300  0.970300  1.0  -0.7227
  O  O187  1  0.391900  0.007500  0.241900  1.0  -0.695
  O  O188  1  0.394800  0.955500  0.127500  1.0  -0.7672
  O  O189  1  0.218700  0.931700  0.001500  1.0  -0.7706
  O  O190  1  0.046200  0.986600  0.055200  1.0  -0.8024
  O  O191  1  0.884300  0.995000  0.244600  1.0  -0.7251
  O  O192  1  0.889500  0.956200  0.381400  1.0  -0.6966
  O  O193  1  0.385100  0.482400  0.178400  1.0  -0.7774
  O  O194  1  0.426100  0.470300  0.293700  1.0  -0.7225
  O  O195  1  0.399400  0.741900  0.992500  1.0  -0.6943
  O  O196  1  0.350300  0.627500  0.044500  1.0  -0.7696
  O  O197  1  0.150400  0.501500  0.068300  1.0  -0.7694
  O  O198  1  0.032800  0.555200  0.013400  1.0  -0.8053
  O  O199  1  0.879300  0.744600  0.005000  1.0  -0.7281
  O  O200  1  0.845700  0.881400  0.043800  1.0  -0.7007
  O  O201  1  0.545900  0.017600  0.321600  1.0  -0.7743
  O  O202  1  0.690100  0.029700  0.206300  1.0  -0.7234
  O  O203  1  0.633800  0.758100  0.507500  1.0  -0.695
  O  O204  1  0.522300  0.872500  0.455500  1.0  -0.7662
  O  O205  1  0.220200  0.998500  0.431700  1.0  -0.7703
  O  O206  1  0.101400  0.944800  0.486600  1.0  -0.8002
  O  O207  1  0.128900  0.755400  0.495000  1.0  -0.7246
  O  O208  1  0.270900  0.618600  0.456200  1.0  -0.6971
