# generated using pymatgen
data_EuHC5(NO2)2
_symmetry_space_group_name_H-M   'P 1'
_cell_length_a   16.19000000
_cell_length_b   16.48760000
_cell_length_c   16.48760000
_cell_angle_alpha   76.05110000
_cell_angle_beta   60.59530000
_cell_angle_gamma   60.59530000
_symmetry_Int_Tables_number   1
_chemical_formula_structural   EuHC5(NO2)2
_chemical_formula_sum   'Eu16 H16 C80 N32 O64'
_cell_volume   3340.18933895
_cell_formula_units_Z   16
loop_
 _symmetry_equiv_pos_site_id
 _symmetry_equiv_pos_as_xyz
  1  'x, y, z'
loop_
 _atom_site_type_symbol
 _atom_site_label
 _atom_site_symmetry_multiplicity
 _atom_site_fract_x
 _atom_site_fract_y
 _atom_site_fract_z
 _atom_site_occupancy
 _atom_site_charge
  Eu  Eu1  1  0.616600  0.121560  0.968420  1.0  2.1296
  Eu  Eu2  1  0.149290  0.386270  0.976710  1.0  2.1431
  Eu  Eu3  1  0.206580  0.378440  0.531570  1.0  2.1309
  Eu  Eu4  1  0.012270  0.113730  0.523290  1.0  2.144
  Eu  Eu5  1  0.585020  0.031570  0.621570  1.0  2.1363
  Eu  Eu6  1  0.126000  0.023290  0.886270  1.0  2.1444
  Eu  Eu7  1  0.738150  0.468430  0.878440  1.0  2.1363
  Eu  Eu8  1  0.535560  0.476710  0.613730  1.0  2.1439
  Eu  Eu9  1  0.383400  0.878440  0.031580  1.0  2.1258
  Eu  Eu10  1  0.850710  0.613730  0.023290  1.0  2.1428
  Eu  Eu11  1  0.793420  0.621560  0.468430  1.0  2.1321
  Eu  Eu12  1  0.987730  0.886270  0.476710  1.0  2.1437
  Eu  Eu13  1  0.414980  0.968430  0.378430  1.0  2.136
  Eu  Eu14  1  0.874000  0.976710  0.113730  1.0  2.1441
  Eu  Eu15  1  0.261850  0.531570  0.121560  1.0  2.1347
  Eu  Eu16  1  0.464440  0.523290  0.386270  1.0  2.144
  H  H17  1  0.309500  0.249200  0.748400  1.0  0.0393
  H  H18  1  0.765300  0.099300  0.718300  1.0  0.0468
  H  H19  1  0.807100  0.250800  0.751600  1.0  0.0402
  H  H20  1  0.082900  0.400700  0.781700  1.0  0.0445
  H  H21  1  0.057900  0.251600  0.749200  1.0  0.0402
  H  H22  1  0.483600  0.281700  0.599300  1.0  0.0457
  H  H23  1  0.558700  0.248400  0.750800  1.0  0.0393
  H  H24  1  0.864600  0.218300  0.900700  1.0  0.0473
  H  H25  1  0.690500  0.750800  0.251600  1.0  0.04
  H  H26  1  0.234700  0.900700  0.281700  1.0  0.0469
  H  H27  1  0.192900  0.749200  0.248400  1.0  0.0406
  H  H28  1  0.917100  0.599300  0.218300  1.0  0.0465
  H  H29  1  0.942100  0.748400  0.250800  1.0  0.0404
  H  H30  1  0.516400  0.718300  0.400700  1.0  0.0454
  H  H31  1  0.441300  0.751600  0.249200  1.0  0.0397
  H  H32  1  0.135400  0.781700  0.099300  1.0  0.047
  C  C33  1  0.346400  0.223100  0.784300  1.0  0.4101
  C  C34  1  0.388500  0.202800  0.894800  1.0  0.0241
  C  C35  1  0.466100  0.130700  0.830700  1.0  -0.0132
  C  C36  1  0.370300  0.224200  0.985200  1.0  0.7638
  C  C37  1  0.565800  0.051700  0.822500  1.0  0.7357
  C  C38  1  0.812900  0.085700  0.741300  1.0  0.4057
  C  C39  1  0.956000  0.049500  0.746300  1.0  0.0429
  C  C40  1  0.878100  0.057700  0.836500  1.0  0.031
  C  C41  1  0.068300  0.030900  0.706300  1.0  0.7184
  C  C42  1  0.872000  0.047100  0.930500  1.0  0.7388
  C  C43  1  0.853800  0.276900  0.715700  1.0  0.4091
  C  C44  1  0.986100  0.297200  0.605200  1.0  0.024
  C  C45  1  0.927500  0.369300  0.669300  1.0  -0.0124
  C  C46  1  0.079700  0.275800  0.514800  1.0  0.7549
  C  C47  1  0.940000  0.448300  0.677500  1.0  0.7356
  C  C48  1  0.139900  0.414300  0.758700  1.0  0.4038
  C  C49  1  0.251800  0.450500  0.753700  1.0  0.0426
  C  C50  1  0.272300  0.442300  0.663500  1.0  0.0332
  C  C51  1  0.305500  0.469100  0.793700  1.0  0.7158
  C  C52  1  0.349600  0.452900  0.569500  1.0  0.7383
  C  C53  1  0.130700  0.215700  0.723100  1.0  0.4091
  C  C54  1  0.283300  0.105200  0.702800  1.0  0.022
  C  C55  1  0.296800  0.169300  0.630700  1.0  -0.0138
  C  C56  1  0.355500  0.014800  0.724200  1.0  0.755
  C  C57  1  0.388300  0.177500  0.551700  1.0  0.7327
  C  C58  1  0.554200  0.258700  0.585700  1.0  0.4059
  C  C59  1  0.702300  0.253700  0.549500  1.0  0.044
  C  C60  1  0.714600  0.163500  0.557700  1.0  0.0314
  C  C61  1  0.774600  0.293700  0.530900  1.0  0.7203
  C  C62  1  0.802500  0.069500  0.547100  1.0  0.7382
  C  C63  1  0.569500  0.284300  0.776900  1.0  0.4097
  C  C64  1  0.591300  0.394800  0.797200  1.0  0.0234
  C  C65  1  0.596800  0.330700  0.869300  1.0  -0.0144
  C  C66  1  0.594500  0.485200  0.775800  1.0  0.7561
  C  C67  1  0.617500  0.322500  0.948300  1.0  0.7438
  C  C68  1  0.898600  0.241300  0.914300  1.0  0.4072
  C  C69  1  0.005500  0.246300  0.950500  1.0  0.0438
  C  C70  1  0.935800  0.336500  0.942300  1.0  0.0317
  C  C71  1  0.099200  0.206300  0.969100  1.0  0.7226
  C  C72  1  0.919100  0.430500  0.952900  1.0  0.7379
  C  C73  1  0.653600  0.776900  0.215700  1.0  0.4088
  C  C74  1  0.611500  0.797200  0.105200  1.0  0.0237
  C  C75  1  0.533900  0.869300  0.169300  1.0  -0.0122
  C  C76  1  0.629700  0.775800  0.014800  1.0  0.7666
  C  C77  1  0.434200  0.948300  0.177500  1.0  0.7364
  C  C78  1  0.187100  0.914300  0.258700  1.0  0.4042
  C  C79  1  0.044000  0.950500  0.253700  1.0  0.0411
  C  C80  1  0.121900  0.942300  0.163500  1.0  0.0323
  C  C81  1  0.931700  0.969100  0.293700  1.0  0.7196
  C  C82  1  0.128000  0.952900  0.069500  1.0  0.7355
  C  C83  1  0.146200  0.723100  0.284300  1.0  0.4084
  C  C84  1  0.013900  0.702800  0.394800  1.0  0.024
  C  C85  1  0.072500  0.630700  0.330700  1.0  -0.0141
  C  C86  1  0.920300  0.724200  0.485200  1.0  0.7527
  C  C87  1  0.060000  0.551700  0.322500  1.0  0.7367
  C  C88  1  0.860100  0.585700  0.241300  1.0  0.4045
  C  C89  1  0.748200  0.549500  0.246300  1.0  0.0429
  C  C90  1  0.727700  0.557700  0.336500  1.0  0.0327
  C  C91  1  0.694500  0.530900  0.206300  1.0  0.716
  C  C92  1  0.650400  0.547100  0.430500  1.0  0.7369
  C  C93  1  0.869300  0.784300  0.276900  1.0  0.4098
  C  C94  1  0.716700  0.894800  0.297200  1.0  0.0215
  C  C95  1  0.703200  0.830700  0.369300  1.0  -0.014
  C  C96  1  0.644500  0.985200  0.275800  1.0  0.7562
  C  C97  1  0.611700  0.822500  0.448300  1.0  0.7353
  C  C98  1  0.445800  0.741300  0.414300  1.0  0.4073
  C  C99  1  0.297700  0.746300  0.450500  1.0  0.0439
  C  C100  1  0.285400  0.836500  0.442300  1.0  0.0307
  C  C101  1  0.225400  0.706300  0.469100  1.0  0.721
  C  C102  1  0.197500  0.930500  0.452900  1.0  0.7361
  C  C103  1  0.430500  0.715700  0.223100  1.0  0.4073
  C  C104  1  0.408700  0.605200  0.202800  1.0  0.0222
  C  C105  1  0.403200  0.669300  0.130700  1.0  -0.015
  C  C106  1  0.405500  0.514800  0.224200  1.0  0.7557
  C  C107  1  0.382500  0.677500  0.051700  1.0  0.7435
  C  C108  1  0.101400  0.758700  0.085700  1.0  0.4048
  C  C109  1  0.994500  0.753700  0.049500  1.0  0.0442
  C  C110  1  0.064200  0.663500  0.057700  1.0  0.0326
  C  C111  1  0.900800  0.793700  0.030900  1.0  0.7209
  C  C112  1  0.080900  0.569500  0.047100  1.0  0.7353
  N  N113  1  0.437500  0.145000  0.759600  1.0  -0.5874
  N  N114  1  0.313200  0.260100  0.864500  1.0  -0.5543
  N  N115  1  0.785500  0.082500  0.832100  1.0  -0.639
  N  N116  1  0.913200  0.067900  0.686500  1.0  -0.5867
  N  N117  1  0.842100  0.355000  0.740400  1.0  -0.5876
  N  N118  1  0.937800  0.239900  0.635500  1.0  -0.5563
  N  N119  1  0.200100  0.417500  0.667900  1.0  -0.6385
  N  N120  1  0.167600  0.432100  0.813500  1.0  -0.5885
  N  N121  1  0.197100  0.240400  0.645000  1.0  -0.5891
  N  N122  1  0.177700  0.135500  0.760100  1.0  -0.5548
  N  N123  1  0.617600  0.167900  0.582500  1.0  -0.6391
  N  N124  1  0.599700  0.313500  0.567900  1.0  -0.5894
  N  N125  1  0.582500  0.259600  0.855000  1.0  -0.5878
  N  N126  1  0.573300  0.364500  0.739900  1.0  -0.555
  N  N127  1  0.868000  0.332100  0.917500  1.0  -0.6384
  N  N128  1  0.981100  0.186500  0.932100  1.0  -0.5887
  N  N129  1  0.562500  0.855000  0.240400  1.0  -0.5888
  N  N130  1  0.686800  0.739900  0.135500  1.0  -0.5538
  N  N131  1  0.214500  0.917500  0.167900  1.0  -0.6402
  N  N132  1  0.086800  0.932100  0.313500  1.0  -0.5885
  N  N133  1  0.157900  0.645000  0.259600  1.0  -0.5868
  N  N134  1  0.062200  0.760100  0.364500  1.0  -0.5554
  N  N135  1  0.799900  0.582500  0.332100  1.0  -0.6376
  N  N136  1  0.832400  0.567900  0.186500  1.0  -0.5859
  N  N137  1  0.802900  0.759600  0.355000  1.0  -0.5884
  N  N138  1  0.822300  0.864500  0.239900  1.0  -0.557
  N  N139  1  0.382400  0.832100  0.417500  1.0  -0.6376
  N  N140  1  0.400300  0.686500  0.432100  1.0  -0.5881
  N  N141  1  0.417500  0.740400  0.145000  1.0  -0.5896
  N  N142  1  0.426700  0.635500  0.260100  1.0  -0.5534
  N  N143  1  0.132000  0.667900  0.082500  1.0  -0.6385
  N  N144  1  0.018900  0.813500  0.067900  1.0  -0.59
  O  O145  1  0.605700  0.045800  0.872800  1.0  -0.7324
  O  O146  1  0.608800  0.990800  0.760800  1.0  -0.6905
  O  O147  1  0.435900  0.179200  0.018600  1.0  -0.7735
  O  O148  1  0.282200  0.292000  0.029800  1.0  -0.7268
  O  O149  1  0.111100  0.042500  0.617700  1.0  -0.6678
  O  O150  1  0.114200  0.005600  0.755800  1.0  -0.7117
  O  O151  1  0.781200  0.068900  0.998900  1.0  -0.7388
  O  O152  1  0.954200  0.014600  0.944000  1.0  -0.7999
  O  O153  1  0.024300  0.454200  0.627200  1.0  -0.7339
  O  O154  1  0.860400  0.509200  0.739200  1.0  -0.6887
  O  O155  1  0.133700  0.320800  0.481400  1.0  -0.7683
  O  O156  1  0.104000  0.208000  0.470200  1.0  -0.7292
  O  O157  1  0.271300  0.457500  0.882300  1.0  -0.6709
  O  O158  1  0.375600  0.494400  0.744200  1.0  -0.7136
  O  O159  1  0.349000  0.431100  0.501100  1.0  -0.7432
  O  O160  1  0.412800  0.485400  0.556000  1.0  -0.8015
  O  O161  1  0.478500  0.127200  0.545800  1.0  -0.7331
  O  O162  1  0.369600  0.239200  0.490800  1.0  -0.692
  O  O163  1  0.454500  0.981400  0.679200  1.0  -0.7677
  O  O164  1  0.312000  0.970200  0.792000  1.0  -0.7247
  O  O165  1  0.728800  0.382300  0.542500  1.0  -0.6661
  O  O166  1  0.870000  0.244200  0.505600  1.0  -0.7137
  O  O167  1  0.780100  0.001100  0.568900  1.0  -0.7367
  O  O168  1  0.898200  0.056000  0.514600  1.0  -0.8005
  O  O169  1  0.651500  0.372800  0.954200  1.0  -0.736
  O  O170  1  0.599600  0.260800  0.009200  1.0  -0.6915
  O  O171  1  0.615100  0.518600  0.820800  1.0  -0.7672
  O  O172  1  0.574200  0.529800  0.708000  1.0  -0.7248
  O  O173  1  0.153600  0.117700  0.957500  1.0  -0.6707
  O  O174  1  0.119800  0.255800  0.994400  1.0  -0.7149
  O  O175  1  0.850100  0.498900  0.931100  1.0  -0.739
  O  O176  1  0.968800  0.444000  0.985400  1.0  -0.8034
  O  O177  1  0.394300  0.954200  0.127200  1.0  -0.7341
  O  O178  1  0.391200  0.009200  0.239200  1.0  -0.6903
  O  O179  1  0.564100  0.820800  0.981400  1.0  -0.773
  O  O180  1  0.717800  0.708000  0.970200  1.0  -0.7269
  O  O181  1  0.888900  0.957500  0.382300  1.0  -0.6664
  O  O182  1  0.885800  0.994400  0.244200  1.0  -0.7134
  O  O183  1  0.218800  0.931100  0.001100  1.0  -0.7398
  O  O184  1  0.045800  0.985400  0.056000  1.0  -0.8023
  O  O185  1  0.975700  0.545800  0.372800  1.0  -0.7339
  O  O186  1  0.139600  0.490800  0.260800  1.0  -0.6897
  O  O187  1  0.866300  0.679200  0.518600  1.0  -0.7681
  O  O188  1  0.896000  0.792000  0.529800  1.0  -0.731
  O  O189  1  0.728700  0.542500  0.117700  1.0  -0.6697
  O  O190  1  0.624400  0.505600  0.255800  1.0  -0.7106
  O  O191  1  0.651000  0.568900  0.498900  1.0  -0.7446
  O  O192  1  0.587200  0.514600  0.444000  1.0  -0.7988
  O  O193  1  0.521500  0.872800  0.454200  1.0  -0.733
  O  O194  1  0.630400  0.760800  0.509200  1.0  -0.6917
  O  O195  1  0.545500  0.018600  0.320800  1.0  -0.7676
  O  O196  1  0.688000  0.029800  0.208000  1.0  -0.7243
  O  O197  1  0.271200  0.617700  0.457500  1.0  -0.6669
  O  O198  1  0.130000  0.755800  0.494400  1.0  -0.7115
  O  O199  1  0.219900  0.998900  0.431100  1.0  -0.7376
  O  O200  1  0.101800  0.944000  0.485400  1.0  -0.7997
  O  O201  1  0.348500  0.627200  0.045800  1.0  -0.7351
  O  O202  1  0.400400  0.739200  0.990800  1.0  -0.6919
  O  O203  1  0.384900  0.481400  0.179200  1.0  -0.7672
  O  O204  1  0.425800  0.470200  0.292000  1.0  -0.7251
  O  O205  1  0.846400  0.882300  0.042500  1.0  -0.669
  O  O206  1  0.880200  0.744200  0.005600  1.0  -0.7157
  O  O207  1  0.149900  0.501100  0.068900  1.0  -0.7379
  O  O208  1  0.031200  0.556000  0.014600  1.0  -0.8065
