# generated using pymatgen
data_Sm(CO2)4
_symmetry_space_group_name_H-M   'P 1'
_cell_length_a   9.68850000
_cell_length_b   11.81700000
_cell_length_c   12.32600000
_cell_angle_alpha   90.00000000
_cell_angle_beta   99.26000000
_cell_angle_gamma   90.00000000
_symmetry_Int_Tables_number   1
_chemical_formula_structural   Sm(CO2)4
_chemical_formula_sum   'Sm4 C16 O32'
_cell_volume   1392.80124088
_cell_formula_units_Z   4
loop_
 _symmetry_equiv_pos_site_id
 _symmetry_equiv_pos_as_xyz
  1  'x, y, z'
loop_
 _atom_site_type_symbol
 _atom_site_label
 _atom_site_symmetry_multiplicity
 _atom_site_fract_x
 _atom_site_fract_y
 _atom_site_fract_z
 _atom_site_occupancy
 _atom_site_charge
  Sm  Sm1  1  0.786380  0.516450  0.669520  1.0  2.158
  Sm  Sm2  1  0.713620  0.016450  0.830480  1.0  2.1577
  Sm  Sm3  1  0.213620  0.483550  0.330480  1.0  2.1576
  Sm  Sm4  1  0.286380  0.983550  0.169520  1.0  2.1581
  C  C5  1  0.495000  0.565200  0.499200  1.0  0.5686
  C  C6  1  0.799900  0.246900  0.717400  1.0  0.5721
  C  C7  1  0.699700  0.290500  0.794800  1.0  0.5589
  C  C8  1  0.063200  0.500900  0.547600  1.0  0.5886
  C  C9  1  0.005000  0.065200  0.000800  1.0  0.5687
  C  C10  1  0.700100  0.746900  0.782600  1.0  0.5729
  C  C11  1  0.800300  0.790500  0.705200  1.0  0.5593
  C  C12  1  0.436800  0.000900  0.952400  1.0  0.5886
  C  C13  1  0.505000  0.434800  0.500800  1.0  0.5695
  C  C14  1  0.200100  0.753100  0.282600  1.0  0.572
  C  C15  1  0.300300  0.709500  0.205200  1.0  0.5592
  C  C16  1  0.936800  0.499100  0.452400  1.0  0.5878
  C  C17  1  0.995000  0.934800  0.999200  1.0  0.5693
  C  C18  1  0.299900  0.253100  0.217400  1.0  0.5722
  C  C19  1  0.199700  0.209500  0.294800  1.0  0.5593
  C  C20  1  0.563200  0.999100  0.047600  1.0  0.5878
  O  O21  1  0.583000  0.618200  0.565800  1.0  -0.5664
  O  O22  1  0.398900  0.607900  0.432200  1.0  -0.5544
  O  O23  1  0.866600  0.320310  0.673000  1.0  -0.5597
  O  O24  1  0.807000  0.142300  0.705000  1.0  -0.5582
  O  O25  1  0.640000  0.216600  0.843800  1.0  -0.5453
  O  O26  1  0.686200  0.395500  0.801100  1.0  -0.5442
  O  O27  1  0.033600  0.515100  0.642400  1.0  -0.5543
  O  O28  1  0.181400  0.487500  0.522500  1.0  -0.5605
  O  O29  1  0.917000  0.118200  0.934200  1.0  -0.5659
  O  O30  1  0.101100  0.107900  0.067800  1.0  -0.5557
  O  O31  1  0.633400  0.820310  0.827000  1.0  -0.5596
  O  O32  1  0.693000  0.642300  0.795000  1.0  -0.5596
  O  O33  1  0.860000  0.716600  0.656200  1.0  -0.5451
  O  O34  1  0.813800  0.895500  0.698900  1.0  -0.5433
  O  O35  1  0.466400  0.015100  0.857600  1.0  -0.5559
  O  O36  1  0.318600  0.987500  0.977500  1.0  -0.56
  O  O37  1  0.417000  0.381800  0.434200  1.0  -0.5669
  O  O38  1  0.601100  0.392100  0.567800  1.0  -0.5538
  O  O39  1  0.133400  0.679690  0.327000  1.0  -0.5597
  O  O40  1  0.193000  0.857700  0.295000  1.0  -0.5598
  O  O41  1  0.360000  0.783400  0.156200  1.0  -0.5451
  O  O42  1  0.313800  0.604500  0.198900  1.0  -0.5428
  O  O43  1  0.966400  0.484900  0.357600  1.0  -0.5605
  O  O44  1  0.818600  0.512500  0.477500  1.0  -0.56
  O  O45  1  0.083000  0.881800  0.065800  1.0  -0.5669
  O  O46  1  0.898900  0.892100  0.932200  1.0  -0.5529
  O  O47  1  0.366600  0.179690  0.173000  1.0  -0.5593
  O  O48  1  0.307000  0.357700  0.205000  1.0  -0.5595
  O  O49  1  0.140000  0.283400  0.343800  1.0  -0.5451
  O  O50  1  0.186200  0.104500  0.301100  1.0  -0.545
  O  O51  1  0.533600  0.984900  0.142400  1.0  -0.5597
  O  O52  1  0.681400  0.012500  0.022500  1.0  -0.5608
