# generated using pymatgen
data_Eu(CO2)4
_symmetry_space_group_name_H-M   'P 1'
_cell_length_a   9.66610000
_cell_length_b   11.73700000
_cell_length_c   12.31500000
_cell_angle_alpha   90.00000000
_cell_angle_beta   99.24000000
_cell_angle_gamma   90.00000000
_symmetry_Int_Tables_number   1
_chemical_formula_structural   Eu(CO2)4
_chemical_formula_sum   'Eu4 C16 O32'
_cell_volume   1379.02041737
_cell_formula_units_Z   4
loop_
 _symmetry_equiv_pos_site_id
 _symmetry_equiv_pos_as_xyz
  1  'x, y, z'
loop_
 _atom_site_type_symbol
 _atom_site_label
 _atom_site_symmetry_multiplicity
 _atom_site_fract_x
 _atom_site_fract_y
 _atom_site_fract_z
 _atom_site_occupancy
 _atom_site_charge
  Eu  Eu1  1  0.786150  0.015580  0.669070  1.0  2.0166
  Eu  Eu2  1  0.713850  0.515580  0.830930  1.0  2.0166
  Eu  Eu3  1  0.213850  0.984420  0.330930  1.0  2.0163
  Eu  Eu4  1  0.286150  0.484420  0.169070  1.0  2.0165
  C  C5  1  0.699000  0.790000  0.794600  1.0  0.5717
  C  C6  1  0.800200  0.746100  0.717200  1.0  0.5735
  C  C7  1  0.062900  0.000400  0.547100  1.0  0.5823
  C  C8  1  0.505000  0.934600  0.500100  1.0  0.5681
  C  C9  1  0.801000  0.290000  0.705400  1.0  0.5716
  C  C10  1  0.699800  0.246100  0.782800  1.0  0.5744
  C  C11  1  0.437100  0.500400  0.952900  1.0  0.5827
  C  C12  1  0.995000  0.434600  0.999900  1.0  0.568
  C  C13  1  0.301000  0.210000  0.205400  1.0  0.5712
  C  C14  1  0.199800  0.253900  0.282800  1.0  0.5739
  C  C15  1  0.937100  0.999600  0.452900  1.0  0.5826
  C  C16  1  0.495000  0.065400  0.499900  1.0  0.5676
  C  C17  1  0.199000  0.710000  0.294600  1.0  0.5719
  C  C18  1  0.300200  0.753900  0.217200  1.0  0.5738
  C  C19  1  0.562900  0.499600  0.047100  1.0  0.5822
  C  C20  1  0.005000  0.565400  0.000100  1.0  0.5676
  O  O21  1  0.684100  0.895100  0.800000  1.0  -0.5196
  O  O22  1  0.640300  0.715500  0.844200  1.0  -0.5262
  O  O23  1  0.865500  0.819700  0.672200  1.0  -0.5672
  O  O24  1  0.807700  0.641000  0.705600  1.0  -0.5418
  O  O25  1  0.034100  0.014000  0.642800  1.0  -0.5335
  O  O26  1  0.181700  0.987400  0.522300  1.0  -0.5432
  O  O27  1  0.601600  0.890900  0.567100  1.0  -0.5465
  O  O28  1  0.416000  0.882000  0.433800  1.0  -0.5273
  O  O29  1  0.815900  0.395100  0.700000  1.0  -0.5198
  O  O30  1  0.859700  0.215500  0.655800  1.0  -0.5261
  O  O31  1  0.634500  0.319700  0.827800  1.0  -0.567
  O  O32  1  0.692300  0.141000  0.794400  1.0  -0.5437
  O  O33  1  0.465900  0.514000  0.857200  1.0  -0.5343
  O  O34  1  0.318300  0.487400  0.977700  1.0  -0.5426
  O  O35  1  0.898400  0.390900  0.932900  1.0  -0.5463
  O  O36  1  0.084000  0.382000  0.066200  1.0  -0.5297
  O  O37  1  0.315900  0.104900  0.200000  1.0  -0.5202
  O  O38  1  0.359700  0.284500  0.155800  1.0  -0.5261
  O  O39  1  0.134500  0.180300  0.327800  1.0  -0.569
  O  O40  1  0.192300  0.359000  0.294400  1.0  -0.5431
  O  O41  1  0.965900  0.986000  0.357200  1.0  -0.5398
  O  O42  1  0.818300  0.012600  0.477700  1.0  -0.5424
  O  O43  1  0.398400  0.109100  0.432900  1.0  -0.5468
  O  O44  1  0.584000  0.118000  0.566200  1.0  -0.5292
  O  O45  1  0.184100  0.604900  0.300000  1.0  -0.5211
  O  O46  1  0.140300  0.784500  0.344200  1.0  -0.526
  O  O47  1  0.365500  0.680300  0.172200  1.0  -0.5684
  O  O48  1  0.307700  0.859000  0.205600  1.0  -0.5434
  O  O49  1  0.534100  0.486000  0.142800  1.0  -0.5391
  O  O50  1  0.681700  0.512600  0.022300  1.0  -0.5434
  O  O51  1  0.101600  0.609100  0.067100  1.0  -0.5477
  O  O52  1  0.916000  0.618000  0.933800  1.0  -0.5286
