# generated using pymatgen
data_DyHC5(NO2)2
_symmetry_space_group_name_H-M   'P 1'
_cell_length_a   16.00100000
_cell_length_b   16.37960000
_cell_length_c   16.37960000
_cell_angle_alpha   76.19740000
_cell_angle_beta   60.76170000
_cell_angle_gamma   60.76170000
_symmetry_Int_Tables_number   1
_chemical_formula_structural   DyHC5(NO2)2
_chemical_formula_sum   'Dy16 H16 C80 N32 O64'
_cell_volume   3268.73650063
_cell_formula_units_Z   16
loop_
 _symmetry_equiv_pos_site_id
 _symmetry_equiv_pos_as_xyz
  1  'x, y, z'
loop_
 _atom_site_type_symbol
 _atom_site_label
 _atom_site_symmetry_multiplicity
 _atom_site_fract_x
 _atom_site_fract_y
 _atom_site_fract_z
 _atom_site_occupancy
 _atom_site_charge
  Dy  Dy1  1  0.417650  0.379610  0.966190  1.0  2.2534
  Dy  Dy2  1  0.875370  0.113090  0.975010  1.0  2.2651
  Dy  Dy3  1  0.263450  0.120390  0.533810  1.0  2.2484
  Dy  Dy4  1  0.463470  0.386910  0.524990  1.0  2.265
  Dy  Dy5  1  0.383840  0.033810  0.879610  1.0  2.257
  Dy  Dy6  1  0.850380  0.024990  0.613090  1.0  2.2666
  Dy  Dy7  1  0.797260  0.466190  0.620390  1.0  2.2549
  Dy  Dy8  1  0.988460  0.475010  0.886910  1.0  2.2664
  Dy  Dy9  1  0.582350  0.620390  0.033810  1.0  2.2527
  Dy  Dy10  1  0.124630  0.886910  0.024990  1.0  2.2656
  Dy  Dy11  1  0.736550  0.879610  0.466190  1.0  2.2503
  Dy  Dy12  1  0.536530  0.613090  0.475010  1.0  2.2658
  Dy  Dy13  1  0.616160  0.966190  0.120390  1.0  2.2562
  Dy  Dy14  1  0.149620  0.975010  0.386910  1.0  2.2669
  Dy  Dy15  1  0.202740  0.533810  0.379610  1.0  2.2567
  Dy  Dy16  1  0.011540  0.524990  0.113090  1.0  2.2664
  H  H17  1  0.946200  0.248600  0.745200  1.0  0.0345
  H  H18  1  0.519400  0.400400  0.716600  1.0  0.0349
  H  H19  1  0.440000  0.251400  0.754800  1.0  0.0338
  H  H20  1  0.136400  0.099600  0.783400  1.0  0.0364
  H  H21  1  0.691400  0.254800  0.748600  1.0  0.0342
  H  H22  1  0.236000  0.283400  0.900400  1.0  0.0359
  H  H23  1  0.194800  0.245200  0.751400  1.0  0.0339
  H  H24  1  0.919800  0.216600  0.599600  1.0  0.0367
  H  H25  1  0.053800  0.751400  0.254800  1.0  0.0342
  H  H26  1  0.480600  0.599600  0.283400  1.0  0.0339
  H  H27  1  0.560000  0.748600  0.245200  1.0  0.0331
  H  H28  1  0.863600  0.900400  0.216600  1.0  0.0356
  H  H29  1  0.308600  0.745200  0.251400  1.0  0.0342
  H  H30  1  0.764000  0.716600  0.099600  1.0  0.0358
  H  H31  1  0.805200  0.754800  0.248600  1.0  0.0329
  H  H32  1  0.080200  0.783400  0.400400  1.0  0.0375
  C  C33  1  0.872800  0.275300  0.781900  1.0  0.4003
  C  C34  1  0.719700  0.295800  0.893800  1.0  0.0119
  C  C35  1  0.707500  0.367100  0.828100  1.0  -0.0313
  C  C36  1  0.645900  0.274800  0.985000  1.0  0.777
  C  C37  1  0.615600  0.447400  0.820000  1.0  0.7451
  C  C38  1  0.447700  0.415100  0.740100  1.0  0.4379
  C  C39  1  0.286100  0.444400  0.837000  1.0  0.0315
  C  C40  1  0.298000  0.452600  0.745400  1.0  0.0214
  C  C41  1  0.197300  0.454700  0.931100  1.0  0.7353
  C  C42  1  0.225300  0.468700  0.706300  1.0  0.753
  C  C43  1  0.430000  0.224700  0.718100  1.0  0.4
  C  C44  1  0.409300  0.204200  0.606200  1.0  0.0105
  C  C45  1  0.402700  0.132900  0.671900  1.0  -0.0321
  C  C46  1  0.405700  0.225200  0.515000  1.0  0.7871
  C  C47  1  0.383000  0.052600  0.680000  1.0  0.7462
  C  C48  1  0.102900  0.084900  0.759900  1.0  0.4367
  C  C49  1  0.067500  0.055600  0.663000  1.0  0.0315
  C  C50  1  0.996000  0.047400  0.754600  1.0  0.022
  C  C51  1  0.083100  0.045300  0.568900  1.0  0.7342
  C  C52  1  0.900300  0.031300  0.793700  1.0  0.752
  C  C53  1  0.654700  0.218100  0.775300  1.0  0.4014
  C  C54  1  0.613500  0.106200  0.795800  1.0  0.0101
  C  C55  1  0.535600  0.171900  0.867100  1.0  -0.031
  C  C56  1  0.630900  0.015000  0.774800  1.0  0.7784
  C  C57  1  0.435600  0.180000  0.947400  1.0  0.7469
  C  C58  1  0.187800  0.259900  0.915100  1.0  0.4389
  C  C59  1  0.123100  0.163000  0.944400  1.0  0.0304
  C  C60  1  0.043400  0.254600  0.952600  1.0  0.025
  C  C61  1  0.128400  0.068900  0.954700  1.0  0.7372
  C  C62  1  0.931600  0.293700  0.968700  1.0  0.7544
  C  C63  1  0.148100  0.281900  0.724700  1.0  0.4003
  C  C64  1  0.015500  0.393800  0.704200  1.0  0.011
  C  C65  1  0.074600  0.328100  0.632900  1.0  -0.032
  C  C66  1  0.920700  0.485000  0.725200  1.0  0.7805
  C  C67  1  0.063000  0.320000  0.552600  1.0  0.7532
  C  C68  1  0.862800  0.240100  0.584900  1.0  0.4387
  C  C69  1  0.730500  0.337000  0.555600  1.0  0.0312
  C  C70  1  0.750600  0.245400  0.547400  1.0  0.0231
  C  C71  1  0.652000  0.431100  0.545300  1.0  0.7348
  C  C72  1  0.694000  0.206300  0.531300  1.0  0.7555
  C  C73  1  0.127200  0.724700  0.218100  1.0  0.4011
  C  C74  1  0.280300  0.704200  0.106200  1.0  0.0108
  C  C75  1  0.292500  0.632900  0.171900  1.0  -0.0323
  C  C76  1  0.354100  0.725200  0.015000  1.0  0.7801
  C  C77  1  0.384400  0.552600  0.180000  1.0  0.7457
  C  C78  1  0.552300  0.584900  0.259900  1.0  0.4379
  C  C79  1  0.713900  0.555600  0.163000  1.0  0.0317
  C  C80  1  0.702000  0.547400  0.254600  1.0  0.0222
  C  C81  1  0.802700  0.545300  0.068900  1.0  0.7345
  C  C82  1  0.774700  0.531300  0.293700  1.0  0.7523
  C  C83  1  0.570000  0.775300  0.281900  1.0  0.4021
  C  C84  1  0.590700  0.795800  0.393800  1.0  0.0114
  C  C85  1  0.597300  0.867100  0.328100  1.0  -0.0307
  C  C86  1  0.594300  0.774800  0.485000  1.0  0.7859
  C  C87  1  0.617000  0.947400  0.320000  1.0  0.7458
  C  C88  1  0.897100  0.915100  0.240100  1.0  0.437
  C  C89  1  0.932500  0.944400  0.337000  1.0  0.0303
  C  C90  1  0.004000  0.952600  0.245400  1.0  0.0227
  C  C91  1  0.916900  0.954700  0.431100  1.0  0.7356
  C  C92  1  0.099700  0.968700  0.206300  1.0  0.7521
  C  C93  1  0.345300  0.781900  0.224700  1.0  0.4017
  C  C94  1  0.386500  0.893800  0.204200  1.0  0.0101
  C  C95  1  0.464400  0.828100  0.132900  1.0  -0.0311
  C  C96  1  0.369100  0.985000  0.225200  1.0  0.7806
  C  C97  1  0.564400  0.820000  0.052600  1.0  0.7435
  C  C98  1  0.812200  0.740100  0.084900  1.0  0.4392
  C  C99  1  0.876900  0.837000  0.055600  1.0  0.0306
  C  C100  1  0.956600  0.745400  0.047400  1.0  0.0244
  C  C101  1  0.871600  0.931100  0.045300  1.0  0.7362
  C  C102  1  0.068400  0.706300  0.031300  1.0  0.7523
  C  C103  1  0.851900  0.718100  0.275300  1.0  0.4018
  C  C104  1  0.984500  0.606200  0.295800  1.0  0.0114
  C  C105  1  0.925400  0.671900  0.367100  1.0  -0.0322
  C  C106  1  0.079300  0.515000  0.274800  1.0  0.7786
  C  C107  1  0.937000  0.680000  0.447400  1.0  0.7539
  C  C108  1  0.137200  0.759900  0.415100  1.0  0.4379
  C  C109  1  0.269500  0.663000  0.444400  1.0  0.0312
  C  C110  1  0.249400  0.754600  0.452600  1.0  0.0246
  C  C111  1  0.348000  0.568900  0.454700  1.0  0.7364
  C  C112  1  0.306000  0.793700  0.468700  1.0  0.7554
  N  N113  1  0.806400  0.353200  0.757200  1.0  -0.6129
  N  N114  1  0.825800  0.237800  0.864000  1.0  -0.578
  N  N115  1  0.401900  0.433000  0.685600  1.0  -0.6097
  N  N116  1  0.383800  0.419600  0.831800  1.0  -0.6565
  N  N117  1  0.416800  0.146800  0.742800  1.0  -0.6118
  N  N118  1  0.427600  0.262200  0.636000  1.0  -0.5783
  N  N119  1  0.020500  0.067000  0.814400  1.0  -0.6097
  N  N120  1  0.135200  0.080400  0.668200  1.0  -0.6586
  N  N121  1  0.563600  0.242800  0.853200  1.0  -0.6114
  N  N122  1  0.689800  0.136000  0.737800  1.0  -0.5787
  N  N123  1  0.087500  0.314400  0.933000  1.0  -0.6112
  N  N124  1  0.215600  0.168200  0.919600  1.0  -0.6582
  N  N125  1  0.159600  0.257200  0.646800  1.0  -0.6119
  N  N126  1  0.063600  0.364000  0.762200  1.0  -0.5774
  N  N127  1  0.834900  0.185600  0.567000  1.0  -0.6116
  N  N128  1  0.803400  0.331800  0.580400  1.0  -0.6583
  N  N129  1  0.193600  0.646800  0.242800  1.0  -0.6112
  N  N130  1  0.174200  0.762200  0.136000  1.0  -0.5785
  N  N131  1  0.598100  0.567000  0.314400  1.0  -0.6094
  N  N132  1  0.616200  0.580400  0.168200  1.0  -0.6554
  N  N133  1  0.583200  0.853200  0.257200  1.0  -0.6131
  N  N134  1  0.572400  0.737800  0.364000  1.0  -0.5785
  N  N135  1  0.979500  0.933000  0.185600  1.0  -0.6102
  N  N136  1  0.864800  0.919600  0.331800  1.0  -0.6599
  N  N137  1  0.436400  0.757200  0.146800  1.0  -0.6121
  N  N138  1  0.310200  0.864000  0.262200  1.0  -0.5803
  N  N139  1  0.912500  0.685600  0.067000  1.0  -0.6117
  N  N140  1  0.784400  0.831800  0.080400  1.0  -0.6587
  N  N141  1  0.840400  0.742800  0.353200  1.0  -0.6101
  N  N142  1  0.936400  0.636000  0.237800  1.0  -0.5771
  N  N143  1  0.165100  0.814400  0.433000  1.0  -0.612
  N  N144  1  0.196600  0.668200  0.419600  1.0  -0.6581
  O  O145  1  0.546800  0.320200  0.017400  1.0  -0.7817
  O  O146  1  0.690300  0.205900  0.028700  1.0  -0.7317
  O  O147  1  0.634200  0.507600  0.757000  1.0  -0.7144
  O  O148  1  0.523300  0.455700  0.871900  1.0  -0.7566
  O  O149  1  0.221600  0.432100  0.998700  1.0  -0.7592
  O  O150  1  0.101200  0.486900  0.945700  1.0  -0.8415
  O  O151  1  0.270600  0.456300  0.618300  1.0  -0.693
  O  O152  1  0.128300  0.494000  0.756600  1.0  -0.7459
  O  O153  1  0.384400  0.179800  0.482600  1.0  -0.787
  O  O154  1  0.424900  0.294100  0.471300  1.0  -0.727
  O  O155  1  0.398800  0.992400  0.743000  1.0  -0.7134
  O  O156  1  0.350900  0.044300  0.628100  1.0  -0.7573
  O  O157  1  0.152400  0.067900  0.501300  1.0  -0.7559
  O  O158  1  0.033800  0.013100  0.554300  1.0  -0.8429
  O  O159  1  0.845200  0.043700  0.881700  1.0  -0.6894
  O  O160  1  0.878900  0.006000  0.743400  1.0  -0.7443
  O  O161  1  0.564200  0.982600  0.820200  1.0  -0.7825
  O  O162  1  0.719000  0.971300  0.705900  1.0  -0.728
  O  O163  1  0.391200  0.243000  0.007600  1.0  -0.7151
  O  O164  1  0.395200  0.128100  0.955700  1.0  -0.7539
  O  O165  1  0.220300  0.001300  0.932100  1.0  -0.7552
  O  O166  1  0.046900  0.054300  0.986900  1.0  -0.8413
  O  O167  1  0.888900  0.381700  0.956300  1.0  -0.6922
  O  O168  1  0.884900  0.243400  0.994000  1.0  -0.7454
  O  O169  1  0.867000  0.517400  0.679800  1.0  -0.7837
  O  O170  1  0.896200  0.528700  0.794100  1.0  -0.7265
  O  O171  1  0.141800  0.257000  0.492400  1.0  -0.7142
  O  O172  1  0.979000  0.371900  0.544300  1.0  -0.7579
  O  O173  1  0.653700  0.498700  0.567900  1.0  -0.7554
  O  O174  1  0.588100  0.445700  0.513100  1.0  -0.8446
  O  O175  1  0.726900  0.118300  0.543700  1.0  -0.6921
  O  O176  1  0.622300  0.256600  0.506000  1.0  -0.7491
  O  O177  1  0.453200  0.679800  0.982600  1.0  -0.7831
  O  O178  1  0.309700  0.794100  0.971300  1.0  -0.73
  O  O179  1  0.365800  0.492400  0.243000  1.0  -0.7138
  O  O180  1  0.476700  0.544300  0.128100  1.0  -0.7564
  O  O181  1  0.778400  0.567900  0.001300  1.0  -0.757
  O  O182  1  0.898800  0.513100  0.054300  1.0  -0.8416
  O  O183  1  0.729400  0.543700  0.381700  1.0  -0.6928
  O  O184  1  0.871700  0.506000  0.243400  1.0  -0.7452
  O  O185  1  0.615600  0.820200  0.517400  1.0  -0.7869
  O  O186  1  0.575100  0.705900  0.528700  1.0  -0.7292
  O  O187  1  0.601200  0.007600  0.257000  1.0  -0.7147
  O  O188  1  0.649100  0.955700  0.371900  1.0  -0.7576
  O  O189  1  0.847600  0.932100  0.498700  1.0  -0.7553
  O  O190  1  0.966200  0.986900  0.445700  1.0  -0.8425
  O  O191  1  0.154800  0.956300  0.118300  1.0  -0.6897
  O  O192  1  0.121100  0.994000  0.256600  1.0  -0.747
  O  O193  1  0.435800  0.017400  0.179800  1.0  -0.7839
  O  O194  1  0.281000  0.028700  0.294100  1.0  -0.7273
  O  O195  1  0.608800  0.757000  0.992400  1.0  -0.7147
  O  O196  1  0.604800  0.871900  0.044300  1.0  -0.7553
  O  O197  1  0.779700  0.998700  0.067900  1.0  -0.7544
  O  O198  1  0.953100  0.945700  0.013100  1.0  -0.8414
  O  O199  1  0.111100  0.618300  0.043700  1.0  -0.6923
  O  O200  1  0.115100  0.756600  0.006000  1.0  -0.7465
  O  O201  1  0.133000  0.482600  0.320200  1.0  -0.7827
  O  O202  1  0.103800  0.471300  0.205900  1.0  -0.7291
  O  O203  1  0.858200  0.743000  0.507600  1.0  -0.7147
  O  O204  1  0.021000  0.628100  0.455700  1.0  -0.7585
  O  O205  1  0.346300  0.501300  0.432100  1.0  -0.7557
  O  O206  1  0.411900  0.554300  0.486900  1.0  -0.8448
  O  O207  1  0.273100  0.881700  0.456300  1.0  -0.6926
  O  O208  1  0.377700  0.743400  0.494000  1.0  -0.7501
