# generated using pymatgen
data_Nd(CO2)4
_symmetry_space_group_name_H-M   'P 1'
_cell_length_a   9.71660000
_cell_length_b   11.92600000
_cell_length_c   12.38000000
_cell_angle_alpha   90.00000000
_cell_angle_beta   99.42000000
_cell_angle_gamma   90.00000000
_symmetry_Int_Tables_number   1
_chemical_formula_structural   Nd(CO2)4
_chemical_formula_sum   'Nd4 C16 O32'
_cell_volume   1415.25111937
_cell_formula_units_Z   4
loop_
 _symmetry_equiv_pos_site_id
 _symmetry_equiv_pos_as_xyz
  1  'x, y, z'
loop_
 _atom_site_type_symbol
 _atom_site_label
 _atom_site_symmetry_multiplicity
 _atom_site_fract_x
 _atom_site_fract_y
 _atom_site_fract_z
 _atom_site_occupancy
 _atom_site_charge
  Nd  Nd1  1  0.787120  0.518540  0.670740  1.0  2.1576
  Nd  Nd2  1  0.712880  0.018540  0.829260  1.0  2.1578
  Nd  Nd3  1  0.212880  0.481460  0.329260  1.0  2.1576
  Nd  Nd4  1  0.287120  0.981460  0.170740  1.0  2.1575
  C  C5  1  0.062500  0.501700  0.547200  1.0  0.5799
  C  C6  1  0.494000  0.564200  0.498200  1.0  0.573
  C  C7  1  0.699200  0.749400  0.782200  1.0  0.577
  C  C8  1  0.798500  0.792900  0.704200  1.0  0.5675
  C  C9  1  0.437500  0.001700  0.952800  1.0  0.5821
  C  C10  1  0.006000  0.064200  0.001800  1.0  0.5731
  C  C11  1  0.800800  0.249400  0.717800  1.0  0.576
  C  C12  1  0.701500  0.292900  0.795800  1.0  0.5674
  C  C13  1  0.937500  0.498300  0.452800  1.0  0.5822
  C  C14  1  0.506000  0.435800  0.501800  1.0  0.5734
  C  C15  1  0.300800  0.250600  0.217800  1.0  0.5762
  C  C16  1  0.201500  0.207100  0.295800  1.0  0.5677
  C  C17  1  0.562500  0.998300  0.047200  1.0  0.5824
  C  C18  1  0.994000  0.935800  0.998200  1.0  0.5731
  C  C19  1  0.199200  0.750600  0.282200  1.0  0.5765
  C  C20  1  0.298500  0.707100  0.204200  1.0  0.5673
  O  O21  1  0.181000  0.486800  0.523000  1.0  -0.555
  O  O22  1  0.034600  0.518000  0.641200  1.0  -0.5682
  O  O23  1  0.399600  0.606300  0.429900  1.0  -0.557
  O  O24  1  0.581100  0.618300  0.565300  1.0  -0.5685
  O  O25  1  0.694900  0.645800  0.796600  1.0  -0.5635
  O  O26  1  0.632300  0.822000  0.825700  1.0  -0.5528
  O  O27  1  0.859000  0.719500  0.656100  1.0  -0.5444
  O  O28  1  0.810200  0.896600  0.696300  1.0  -0.546
  O  O29  1  0.319000  0.986800  0.977000  1.0  -0.5553
  O  O30  1  0.465400  0.018000  0.858800  1.0  -0.5676
  O  O31  1  0.100400  0.106300  0.070100  1.0  -0.5592
  O  O32  1  0.918900  0.118300  0.934700  1.0  -0.5674
  O  O33  1  0.805100  0.145800  0.703400  1.0  -0.5625
  O  O34  1  0.867700  0.322000  0.674300  1.0  -0.5531
  O  O35  1  0.641000  0.219500  0.843900  1.0  -0.5437
  O  O36  1  0.689800  0.396600  0.803700  1.0  -0.5475
  O  O37  1  0.819000  0.513200  0.477000  1.0  -0.5553
  O  O38  1  0.965400  0.482000  0.358800  1.0  -0.5692
  O  O39  1  0.600400  0.393700  0.570100  1.0  -0.5579
  O  O40  1  0.418900  0.381700  0.434700  1.0  -0.5672
  O  O41  1  0.305100  0.354200  0.203400  1.0  -0.5631
  O  O42  1  0.367700  0.178000  0.174300  1.0  -0.5529
  O  O43  1  0.141000  0.280500  0.343900  1.0  -0.5434
  O  O44  1  0.189800  0.103400  0.303700  1.0  -0.548
  O  O45  1  0.681000  0.013200  0.023000  1.0  -0.5551
  O  O46  1  0.534600  0.982000  0.141200  1.0  -0.5709
  O  O47  1  0.899600  0.893700  0.929900  1.0  -0.5559
  O  O48  1  0.081100  0.881700  0.065300  1.0  -0.5676
  O  O49  1  0.194900  0.854200  0.296600  1.0  -0.5637
  O  O50  1  0.132300  0.678000  0.325700  1.0  -0.5533
  O  O51  1  0.359000  0.780500  0.156100  1.0  -0.5441
  O  O52  1  0.310200  0.603400  0.196300  1.0  -0.5462
