# generated using pymatgen
data_Dy(CO2)4
_symmetry_space_group_name_H-M   'P 1'
_cell_length_a   9.63150000
_cell_length_b   11.61300000
_cell_length_c   12.21700000
_cell_angle_alpha   90.00000000
_cell_angle_beta   99.13000000
_cell_angle_gamma   90.00000000
_symmetry_Int_Tables_number   1
_chemical_formula_structural   Dy(CO2)4
_chemical_formula_sum   'Dy4 C16 O32'
_cell_volume   1349.16678386
_cell_formula_units_Z   4
loop_
 _symmetry_equiv_pos_site_id
 _symmetry_equiv_pos_as_xyz
  1  'x, y, z'
loop_
 _atom_site_type_symbol
 _atom_site_label
 _atom_site_symmetry_multiplicity
 _atom_site_fract_x
 _atom_site_fract_y
 _atom_site_fract_z
 _atom_site_occupancy
 _atom_site_charge
  Dy  Dy1  1  0.785300  0.486890  0.167600  1.0  2.1519
  Dy  Dy2  1  0.714700  0.986890  0.332400  1.0  2.1514
  Dy  Dy3  1  0.214700  0.513110  0.832400  1.0  2.1515
  Dy  Dy4  1  0.285300  0.013120  0.667600  1.0  2.1519
  C  C5  1  0.700400  0.257000  0.283000  1.0  0.5648
  C  C6  1  0.802900  0.212900  0.206900  1.0  0.5513
  C  C7  1  0.504400  0.566400  0.998900  1.0  0.5639
  C  C8  1  0.063000  0.499900  0.047800  1.0  0.5777
  C  C9  1  0.799600  0.757000  0.217000  1.0  0.5651
  C  C10  1  0.697100  0.712900  0.293100  1.0  0.5513
  C  C11  1  0.995600  0.066400  0.501100  1.0  0.5639
  C  C12  1  0.437000  0.999900  0.452200  1.0  0.5799
  C  C13  1  0.299600  0.743000  0.717000  1.0  0.5649
  C  C14  1  0.197100  0.787100  0.793100  1.0  0.551
  C  C15  1  0.495600  0.433600  0.001100  1.0  0.565
  C  C16  1  0.937000  0.500100  0.952200  1.0  0.5799
  C  C17  1  0.200400  0.243000  0.783000  1.0  0.5654
  C  C18  1  0.302900  0.287100  0.706900  1.0  0.5515
  C  C19  1  0.004400  0.933600  0.498900  1.0  0.565
  C  C20  1  0.563000  0.000100  0.547800  1.0  0.5797
  O  O21  1  0.690100  0.363200  0.292800  1.0  -0.5529
  O  O22  1  0.635200  0.181800  0.328800  1.0  -0.5586
  O  O23  1  0.861300  0.287800  0.156000  1.0  -0.5405
  O  O24  1  0.820300  0.106200  0.203600  1.0  -0.5435
  O  O25  1  0.602700  0.611500  0.064000  1.0  -0.5518
  O  O26  1  0.413200  0.618000  0.932800  1.0  -0.556
  O  O27  1  0.032800  0.489700  0.143400  1.0  -0.5554
  O  O28  1  0.182200  0.511600  0.022300  1.0  -0.5467
  O  O29  1  0.809900  0.863200  0.207200  1.0  -0.5526
  O  O30  1  0.864800  0.681800  0.171200  1.0  -0.5581
  O  O31  1  0.638700  0.787800  0.344000  1.0  -0.5403
  O  O32  1  0.679700  0.606200  0.296400  1.0  -0.5496
  O  O33  1  0.897300  0.111500  0.436000  1.0  -0.5512
  O  O34  1  0.086800  0.118000  0.567200  1.0  -0.5589
  O  O35  1  0.467200  0.989700  0.356600  1.0  -0.5556
  O  O36  1  0.317800  0.011600  0.477700  1.0  -0.5477
  O  O37  1  0.309900  0.636800  0.707200  1.0  -0.5516
  O  O38  1  0.364800  0.818200  0.671200  1.0  -0.5587
  O  O39  1  0.138700  0.712200  0.844000  1.0  -0.5403
  O  O40  1  0.179700  0.893800  0.796400  1.0  -0.5463
  O  O41  1  0.397300  0.388500  0.936000  1.0  -0.5507
  O  O42  1  0.586800  0.382000  0.067200  1.0  -0.5602
  O  O43  1  0.967200  0.510300  0.856600  1.0  -0.558
  O  O44  1  0.817800  0.488400  0.977700  1.0  -0.5478
  O  O45  1  0.190100  0.136800  0.792800  1.0  -0.5526
  O  O46  1  0.135200  0.318200  0.828800  1.0  -0.5582
  O  O47  1  0.361300  0.212200  0.656000  1.0  -0.54
  O  O48  1  0.320300  0.393800  0.703600  1.0  -0.548
  O  O49  1  0.102700  0.888500  0.564000  1.0  -0.5507
  O  O50  1  0.913200  0.882000  0.432800  1.0  -0.5583
  O  O51  1  0.532800  0.010300  0.643400  1.0  -0.5593
  O  O52  1  0.682200  0.988400  0.522300  1.0  -0.5466
