# generated using pymatgen
data_Tb(CO2)4
_symmetry_space_group_name_H-M   'P 1'
_cell_length_a   9.65150000
_cell_length_b   11.65500000
_cell_length_c   12.26400000
_cell_angle_alpha   90.00000000
_cell_angle_beta   99.14000000
_cell_angle_gamma   90.00000000
_symmetry_Int_Tables_number   1
_chemical_formula_structural   Tb(CO2)4
_chemical_formula_sum   'Tb4 C16 O32'
_cell_volume   1362.03967314
_cell_formula_units_Z   4
loop_
 _symmetry_equiv_pos_site_id
 _symmetry_equiv_pos_as_xyz
  1  'x, y, z'
loop_
 _atom_site_type_symbol
 _atom_site_label
 _atom_site_symmetry_multiplicity
 _atom_site_fract_x
 _atom_site_fract_y
 _atom_site_fract_z
 _atom_site_occupancy
 _atom_site_charge
  Tb  Tb1  1  0.714370  0.486140  0.331960  1.0  2.1343
  Tb  Tb2  1  0.785630  0.986140  0.168040  1.0  2.1349
  Tb  Tb3  1  0.285630  0.513860  0.668040  1.0  2.135
  Tb  Tb4  1  0.214370  0.013860  0.831960  1.0  2.1343
  C  C5  1  0.697900  0.212500  0.293700  1.0  0.5563
  C  C6  1  0.995500  0.565700  0.500400  1.0  0.5551
  C  C7  1  0.562500  0.500100  0.548100  1.0  0.5626
  C  C8  1  0.799300  0.256300  0.216500  1.0  0.5778
  C  C9  1  0.802100  0.712500  0.206300  1.0  0.5547
  C  C10  1  0.504500  0.065700  0.999600  1.0  0.5552
  C  C11  1  0.937500  0.000100  0.951900  1.0  0.5602
  C  C12  1  0.700700  0.756300  0.283500  1.0  0.5777
  C  C13  1  0.302100  0.787500  0.706300  1.0  0.555
  C  C14  1  0.004500  0.434300  0.499600  1.0  0.5563
  C  C15  1  0.437500  0.499900  0.451900  1.0  0.5621
  C  C16  1  0.200700  0.743700  0.783500  1.0  0.5784
  C  C17  1  0.197900  0.287500  0.793700  1.0  0.5559
  C  C18  1  0.495500  0.934300  0.000400  1.0  0.5563
  C  C19  1  0.062500  0.999900  0.048100  1.0  0.5607
  C  C20  1  0.299300  0.243700  0.716500  1.0  0.5775
  O  O21  1  0.638600  0.286900  0.343700  1.0  -0.5418
  O  O22  1  0.681200  0.105700  0.297900  1.0  -0.521
  O  O23  1  0.897800  0.610800  0.435100  1.0  -0.536
  O  O24  1  0.086100  0.618200  0.566800  1.0  -0.5517
  O  O25  1  0.682400  0.488600  0.522000  1.0  -0.5416
  O  O26  1  0.532900  0.511500  0.643100  1.0  -0.5496
  O  O27  1  0.865200  0.181800  0.171500  1.0  -0.5855
  O  O28  1  0.808900  0.361800  0.206300  1.0  -0.5543
  O  O29  1  0.861400  0.786900  0.156300  1.0  -0.5412
  O  O30  1  0.818800  0.605700  0.202100  1.0  -0.5189
  O  O31  1  0.602200  0.110800  0.064900  1.0  -0.5371
  O  O32  1  0.413900  0.118200  0.933200  1.0  -0.5504
  O  O33  1  0.817600  0.988600  0.978000  1.0  -0.5427
  O  O34  1  0.967100  0.011500  0.856900  1.0  -0.5521
  O  O35  1  0.634800  0.681800  0.328500  1.0  -0.5853
  O  O36  1  0.691100  0.861800  0.293700  1.0  -0.5551
  O  O37  1  0.361400  0.713100  0.656300  1.0  -0.541
  O  O38  1  0.318800  0.894300  0.702100  1.0  -0.5181
  O  O39  1  0.102200  0.389200  0.564900  1.0  -0.5369
  O  O40  1  0.913900  0.381800  0.433200  1.0  -0.5527
  O  O41  1  0.317600  0.511400  0.478000  1.0  -0.5425
  O  O42  1  0.467100  0.488500  0.356900  1.0  -0.5586
  O  O43  1  0.134800  0.818200  0.828500  1.0  -0.5853
  O  O44  1  0.191100  0.638200  0.793700  1.0  -0.5548
  O  O45  1  0.138600  0.213100  0.843700  1.0  -0.5421
  O  O46  1  0.181200  0.394300  0.797900  1.0  -0.5197
  O  O47  1  0.397800  0.889200  0.935100  1.0  -0.5361
  O  O48  1  0.586100  0.881800  0.066800  1.0  -0.5531
  O  O49  1  0.182400  0.011400  0.022000  1.0  -0.5416
  O  O50  1  0.032900  0.988500  0.143100  1.0  -0.5549
  O  O51  1  0.365200  0.318200  0.671500  1.0  -0.5863
  O  O52  1  0.308900  0.138200  0.706300  1.0  -0.5523
