# generated using pymatgen
data_Ho(CO2)4
_symmetry_space_group_name_H-M   'P 1'
_cell_length_a   9.62050000
_cell_length_b   11.56400000
_cell_length_c   12.22900000
_cell_angle_alpha   90.00000000
_cell_angle_beta   99.04000000
_cell_angle_gamma   90.00000000
_symmetry_Int_Tables_number   1
_chemical_formula_structural   Ho(CO2)4
_chemical_formula_sum   'Ho4 C16 O32'
_cell_volume   1343.59527892
_cell_formula_units_Z   4
loop_
 _symmetry_equiv_pos_site_id
 _symmetry_equiv_pos_as_xyz
  1  'x, y, z'
loop_
 _atom_site_type_symbol
 _atom_site_label
 _atom_site_symmetry_multiplicity
 _atom_site_fract_x
 _atom_site_fract_y
 _atom_site_fract_z
 _atom_site_occupancy
 _atom_site_charge
  Ho  Ho1  1  0.784980  0.512380  0.167150  1.0  2.1199
  Ho  Ho2  1  0.715020  0.012380  0.332850  1.0  2.1194
  Ho  Ho3  1  0.215020  0.487620  0.832850  1.0  2.1192
  Ho  Ho4  1  0.284980  0.987620  0.667150  1.0  2.1198
  C  C5  1  0.701000  0.742900  0.283000  1.0  0.5611
  C  C6  1  0.504200  0.433800  0.998600  1.0  0.5666
  C  C7  1  0.803300  0.786000  0.207700  1.0  0.5454
  C  C8  1  0.062700  0.499900  0.047700  1.0  0.5704
  C  C9  1  0.799000  0.242900  0.217000  1.0  0.5603
  C  C10  1  0.995800  0.933800  0.501400  1.0  0.5665
  C  C11  1  0.696700  0.286000  0.292300  1.0  0.5447
  C  C12  1  0.437300  0.999900  0.452300  1.0  0.5729
  C  C13  1  0.299000  0.257100  0.717000  1.0  0.5605
  C  C14  1  0.495800  0.566200  0.001400  1.0  0.5655
  C  C15  1  0.196700  0.214000  0.792300  1.0  0.545
  C  C16  1  0.937300  0.500100  0.952300  1.0  0.5714
  C  C17  1  0.201000  0.757100  0.783000  1.0  0.5602
  C  C18  1  0.004200  0.066200  0.498600  1.0  0.5655
  C  C19  1  0.303300  0.714000  0.707700  1.0  0.5451
  C  C20  1  0.562700  0.000100  0.547700  1.0  0.5725
  O  O21  1  0.688700  0.635400  0.292500  1.0  -0.5362
  O  O22  1  0.635600  0.817900  0.329300  1.0  -0.5536
  O  O23  1  0.603000  0.387800  0.062700  1.0  -0.546
  O  O24  1  0.412200  0.382100  0.932900  1.0  -0.5534
  O  O25  1  0.821300  0.893400  0.204500  1.0  -0.5378
  O  O26  1  0.861800  0.710800  0.156300  1.0  -0.5408
  O  O27  1  0.182100  0.488700  0.022100  1.0  -0.5437
  O  O28  1  0.032600  0.509300  0.143500  1.0  -0.5521
  O  O29  1  0.811300  0.135400  0.207500  1.0  -0.5308
  O  O30  1  0.864400  0.317900  0.170700  1.0  -0.5534
  O  O31  1  0.897000  0.887800  0.437300  1.0  -0.5469
  O  O32  1  0.087800  0.882100  0.567100  1.0  -0.5541
  O  O33  1  0.678700  0.393400  0.295500  1.0  -0.5408
  O  O34  1  0.638200  0.210800  0.343700  1.0  -0.5406
  O  O35  1  0.317900  0.988700  0.477900  1.0  -0.5445
  O  O36  1  0.467400  0.009300  0.356500  1.0  -0.5508
  O  O37  1  0.311300  0.364600  0.707500  1.0  -0.5294
  O  O38  1  0.364400  0.182100  0.670700  1.0  -0.5531
  O  O39  1  0.397000  0.612200  0.937300  1.0  -0.5458
  O  O40  1  0.587800  0.617900  0.067100  1.0  -0.5548
  O  O41  1  0.178700  0.106600  0.795500  1.0  -0.5403
  O  O42  1  0.138200  0.289200  0.843700  1.0  -0.5402
  O  O43  1  0.817900  0.511300  0.977900  1.0  -0.5446
  O  O44  1  0.967400  0.490700  0.856500  1.0  -0.5515
  O  O45  1  0.188700  0.864600  0.792500  1.0  -0.5355
  O  O46  1  0.135600  0.682100  0.829300  1.0  -0.5542
  O  O47  1  0.103000  0.112200  0.562700  1.0  -0.5462
  O  O48  1  0.912200  0.117900  0.432900  1.0  -0.5536
  O  O49  1  0.321300  0.606600  0.704500  1.0  -0.5395
  O  O50  1  0.361800  0.789200  0.656300  1.0  -0.541
  O  O51  1  0.682100  0.011300  0.522100  1.0  -0.544
  O  O52  1  0.532600  0.990700  0.643500  1.0  -0.5529
