# generated using pymatgen
data_Gd(CO2)4
_symmetry_space_group_name_H-M   'P 1'
_cell_length_a   9.65900000
_cell_length_b   11.71800000
_cell_length_c   12.28100000
_cell_angle_alpha   90.00000000
_cell_angle_beta   99.20000000
_cell_angle_gamma   90.00000000
_symmetry_Int_Tables_number   1
_chemical_formula_structural   Gd(CO2)4
_chemical_formula_sum   'Gd4 C16 O32'
_cell_volume   1372.13391296
_cell_formula_units_Z   4
loop_
 _symmetry_equiv_pos_site_id
 _symmetry_equiv_pos_as_xyz
  1  'x, y, z'
loop_
 _atom_site_type_symbol
 _atom_site_label
 _atom_site_symmetry_multiplicity
 _atom_site_fract_x
 _atom_site_fract_y
 _atom_site_fract_z
 _atom_site_occupancy
 _atom_site_charge
  Gd  Gd1  1  0.785950  0.485200  0.668650  1.0  2.0693
  Gd  Gd2  1  0.714050  0.985200  0.831350  1.0  2.069
  Gd  Gd3  1  0.214050  0.514800  0.331350  1.0  2.069
  Gd  Gd4  1  0.285950  0.014800  0.168650  1.0  2.0693
  C  C5  1  0.801400  0.210800  0.706200  1.0  0.5581
  C  C6  1  0.700600  0.254600  0.783200  1.0  0.5683
  C  C7  1  0.062900  0.499500  0.547500  1.0  0.5829
  C  C8  1  0.494700  0.434000  0.500100  1.0  0.5695
  C  C9  1  0.698600  0.710800  0.793800  1.0  0.559
  C  C10  1  0.799400  0.754600  0.716800  1.0  0.5674
  C  C11  1  0.437100  0.999500  0.952500  1.0  0.584
  C  C12  1  0.005300  0.934000  0.999900  1.0  0.5696
  C  C13  1  0.198600  0.789200  0.293800  1.0  0.5586
  C  C14  1  0.299400  0.745400  0.216800  1.0  0.5675
  C  C15  1  0.937100  0.500500  0.452500  1.0  0.584
  C  C16  1  0.505300  0.566000  0.499900  1.0  0.5682
  C  C17  1  0.301400  0.289200  0.206200  1.0  0.5583
  C  C18  1  0.200600  0.245400  0.283200  1.0  0.569
  C  C19  1  0.562900  0.000500  0.047500  1.0  0.5843
  C  C20  1  0.994700  0.066000  0.000100  1.0  0.5681
  O  O21  1  0.860300  0.285700  0.656100  1.0  -0.5344
  O  O22  1  0.817300  0.105300  0.701000  1.0  -0.5299
  O  O23  1  0.691600  0.360500  0.794000  1.0  -0.5428
  O  O24  1  0.634500  0.180900  0.827700  1.0  -0.5381
  O  O25  1  0.033400  0.487500  0.642900  1.0  -0.5446
  O  O26  1  0.181400  0.511800  0.522500  1.0  -0.547
  O  O27  1  0.584500  0.382000  0.566300  1.0  -0.5552
  O  O28  1  0.398000  0.390000  0.434200  1.0  -0.5519
  O  O29  1  0.639700  0.785700  0.843900  1.0  -0.535
  O  O30  1  0.682700  0.605300  0.799000  1.0  -0.5315
  O  O31  1  0.808400  0.860500  0.706000  1.0  -0.5427
  O  O32  1  0.865500  0.680900  0.672300  1.0  -0.5374
  O  O33  1  0.466600  0.987500  0.857100  1.0  -0.5443
  O  O34  1  0.318600  0.011800  0.977500  1.0  -0.5467
  O  O35  1  0.915500  0.882000  0.933700  1.0  -0.5548
  O  O36  1  0.102000  0.890000  0.065800  1.0  -0.5528
  O  O37  1  0.139700  0.714300  0.343900  1.0  -0.5352
  O  O38  1  0.182700  0.894700  0.299000  1.0  -0.5306
  O  O39  1  0.308400  0.639500  0.206000  1.0  -0.5423
  O  O40  1  0.365500  0.819100  0.172300  1.0  -0.538
  O  O41  1  0.966600  0.512500  0.357100  1.0  -0.5493
  O  O42  1  0.818600  0.488200  0.477500  1.0  -0.5468
  O  O43  1  0.415500  0.618000  0.433700  1.0  -0.5543
  O  O44  1  0.602000  0.610000  0.565800  1.0  -0.5551
  O  O45  1  0.360300  0.214300  0.156100  1.0  -0.5344
  O  O46  1  0.317300  0.394700  0.201000  1.0  -0.5311
  O  O47  1  0.191600  0.139500  0.294000  1.0  -0.5432
  O  O48  1  0.134500  0.319100  0.327700  1.0  -0.5381
  O  O49  1  0.533400  0.012500  0.142900  1.0  -0.5501
  O  O50  1  0.681400  0.988200  0.022500  1.0  -0.5473
  O  O51  1  0.084500  0.118000  0.066300  1.0  -0.5552
  O  O52  1  0.898000  0.110000  0.934200  1.0  -0.5538
