# generated using pymatgen
data_CdH25C26N9O4
_symmetry_space_group_name_H-M   'P 1'
_cell_length_a   12.25380000
_cell_length_b   12.25380000
_cell_length_c   23.07750000
_cell_angle_alpha   86.89910000
_cell_angle_beta   86.89910000
_cell_angle_gamma   66.51150000
_symmetry_Int_Tables_number   1
_chemical_formula_structural   CdH25C26N9O4
_chemical_formula_sum   'Cd4 H100 C104 N36 O16'
_cell_volume   3171.43221085
_cell_formula_units_Z   4
loop_
 _symmetry_equiv_pos_site_id
 _symmetry_equiv_pos_as_xyz
  1  'x, y, z'
loop_
 _atom_site_type_symbol
 _atom_site_label
 _atom_site_symmetry_multiplicity
 _atom_site_fract_x
 _atom_site_fract_y
 _atom_site_fract_z
 _atom_site_occupancy
 _atom_site_charge
  Cd  Cd1  1  0.475310  0.946750  0.267830  1.0  0.9603
  Cd  Cd2  1  0.053250  0.524690  0.232170  1.0  0.9624
  Cd  Cd3  1  0.524690  0.053250  0.732170  1.0  0.9645
  Cd  Cd4  1  0.946750  0.475310  0.767830  1.0  0.9608
  H  H5  1  0.460600  0.643600  0.141100  1.0  0.1027
  H  H6  1  0.500400  0.545400  0.055600  1.0  0.0926
  H  H7  1  0.693700  0.455700  0.018300  1.0  0.1061
  H  H8  1  0.848400  0.467000  0.067500  1.0  0.0959
  H  H9  1  0.345300  0.864700  0.157800  1.0  0.0763
  H  H10  1  0.244100  0.184100  0.208000  1.0  0.1052
  H  H11  1  0.062900  0.286500  0.139500  1.0  0.1027
  H  H12  1  0.141800  0.249600  0.082400  1.0  0.0996
  H  H13  1  0.876900  0.302900  0.190500  1.0  0.124
  H  H14  1  0.843300  0.192900  0.202600  1.0  0.107
  H  H15  1  0.977400  0.175200  0.198800  1.0  0.1157
  H  H16  1  0.108100  0.251100  0.978500  1.0  0.1287
  H  H17  1  0.188400  0.134400  0.012200  1.0  0.116
  H  H18  1  0.125500  0.126500  0.956100  1.0  0.1141
  H  H19  1  0.651700  0.236500  0.998200  1.0  0.1251
  H  H20  1  0.735800  0.113200  0.973500  1.0  0.1184
  H  H21  1  0.674200  0.119000  0.035300  1.0  0.1138
  H  H22  1  0.626100  0.257900  0.101800  1.0  0.106
  H  H23  1  0.684000  0.278400  0.156800  1.0  0.111
  H  H24  1  0.733900  0.857500  0.181500  1.0  0.083
  H  H25  1  0.537900  0.185700  0.210600  1.0  0.0993
  H  H26  1  0.882700  0.075700  0.934400  1.0  0.0819
  H  H27  1  0.011700  0.073300  0.929900  1.0  0.0796
  H  H28  1  0.034200  0.228000  0.854400  1.0  0.0985
  H  H29  1  0.706700  0.438100  0.839800  1.0  0.089
  H  H30  1  0.356400  0.539400  0.358900  1.0  0.1028
  H  H31  1  0.454600  0.499600  0.444400  1.0  0.0929
  H  H32  1  0.544300  0.306300  0.481700  1.0  0.1074
  H  H33  1  0.533000  0.151600  0.432500  1.0  0.0972
  H  H34  1  0.135300  0.654700  0.342200  1.0  0.0755
  H  H35  1  0.815900  0.755900  0.292000  1.0  0.1041
  H  H36  1  0.713500  0.937100  0.360500  1.0  0.1022
  H  H37  1  0.750400  0.858200  0.417600  1.0  0.0987
  H  H38  1  0.697100  0.123100  0.309500  1.0  0.1233
  H  H39  1  0.807100  0.156700  0.297400  1.0  0.1087
  H  H40  1  0.824800  0.022600  0.301200  1.0  0.1158
  H  H41  1  0.748900  0.891900  0.521500  1.0  0.1306
  H  H42  1  0.865600  0.811600  0.487800  1.0  0.1177
  H  H43  1  0.873500  0.874500  0.543900  1.0  0.1149
  H  H44  1  0.763500  0.348300  0.501800  1.0  0.1223
  H  H45  1  0.886800  0.264200  0.526500  1.0  0.117
  H  H46  1  0.881000  0.325800  0.464700  1.0  0.1155
  H  H47  1  0.742100  0.373900  0.398200  1.0  0.1045
  H  H48  1  0.721600  0.316000  0.343200  1.0  0.1116
  H  H49  1  0.142500  0.266100  0.318500  1.0  0.085
  H  H50  1  0.814300  0.462100  0.289400  1.0  0.1002
  H  H51  1  0.924300  0.117300  0.565600  1.0  0.0831
  H  H52  1  0.926700  0.988300  0.570100  1.0  0.0815
  H  H53  1  0.772000  0.965800  0.645600  1.0  0.0985
  H  H54  1  0.561900  0.293300  0.660200  1.0  0.0881
  H  H55  1  0.539400  0.356400  0.858900  1.0  0.1027
  H  H56  1  0.499600  0.454600  0.944400  1.0  0.0928
  H  H57  1  0.306300  0.544300  0.981700  1.0  0.1052
  H  H58  1  0.151600  0.533000  0.932500  1.0  0.0951
  H  H59  1  0.654700  0.135300  0.842200  1.0  0.0759
  H  H60  1  0.755900  0.815900  0.792000  1.0  0.1052
  H  H61  1  0.937100  0.713500  0.860500  1.0  0.1034
  H  H62  1  0.858200  0.750400  0.917600  1.0  0.0988
  H  H63  1  0.123100  0.697100  0.809500  1.0  0.1238
  H  H64  1  0.156700  0.807100  0.797400  1.0  0.1089
  H  H65  1  0.022600  0.824800  0.801200  1.0  0.1153
  H  H66  1  0.891900  0.748900  0.021500  1.0  0.1282
  H  H67  1  0.811600  0.865600  0.987800  1.0  0.1164
  H  H68  1  0.874500  0.873500  0.043900  1.0  0.1139
  H  H69  1  0.348300  0.763500  0.001800  1.0  0.1249
  H  H70  1  0.264200  0.886800  0.026500  1.0  0.1173
  H  H71  1  0.325800  0.881000  0.964700  1.0  0.1141
  H  H72  1  0.373900  0.742100  0.898200  1.0  0.1059
  H  H73  1  0.316000  0.721600  0.843200  1.0  0.1117
  H  H74  1  0.266100  0.142500  0.818500  1.0  0.0833
  H  H75  1  0.462100  0.814300  0.789400  1.0  0.0994
  H  H76  1  0.117300  0.924300  0.065600  1.0  0.0846
  H  H77  1  0.988300  0.926700  0.070100  1.0  0.0819
  H  H78  1  0.965800  0.772000  0.145600  1.0  0.0983
  H  H79  1  0.293300  0.561900  0.160200  1.0  0.0889
  H  H80  1  0.643600  0.460600  0.641100  1.0  0.1032
  H  H81  1  0.545400  0.500400  0.555600  1.0  0.0927
  H  H82  1  0.455700  0.693700  0.518300  1.0  0.1083
  H  H83  1  0.467000  0.848400  0.567500  1.0  0.0981
  H  H84  1  0.864700  0.345300  0.657800  1.0  0.0757
  H  H85  1  0.184100  0.244100  0.708000  1.0  0.105
  H  H86  1  0.286500  0.062900  0.639500  1.0  0.1011
  H  H87  1  0.249600  0.141800  0.582400  1.0  0.0991
  H  H88  1  0.302900  0.876900  0.690500  1.0  0.1236
  H  H89  1  0.192900  0.843300  0.702600  1.0  0.1075
  H  H90  1  0.175200  0.977400  0.698800  1.0  0.1159
  H  H91  1  0.251100  0.108100  0.478500  1.0  0.1307
  H  H92  1  0.134400  0.188400  0.512200  1.0  0.1183
  H  H93  1  0.126500  0.125500  0.456100  1.0  0.1157
  H  H94  1  0.236500  0.651700  0.498200  1.0  0.1219
  H  H95  1  0.113200  0.735800  0.473500  1.0  0.1174
  H  H96  1  0.119000  0.674200  0.535300  1.0  0.1155
  H  H97  1  0.257900  0.626100  0.601800  1.0  0.1049
  H  H98  1  0.278400  0.684000  0.656800  1.0  0.1108
  H  H99  1  0.857500  0.733900  0.681500  1.0  0.0847
  H  H100  1  0.185700  0.537900  0.710600  1.0  0.0992
  H  H101  1  0.075700  0.882700  0.434400  1.0  0.0819
  H  H102  1  0.073300  0.011700  0.429900  1.0  0.0825
  H  H103  1  0.228000  0.034200  0.354400  1.0  0.0987
  H  H104  1  0.438100  0.706700  0.339800  1.0  0.0877
  C  C105  1  0.600500  0.675500  0.214400  1.0  0.6879
  C  C106  1  0.632100  0.613100  0.157600  1.0  -0.0296
  C  C107  1  0.538700  0.607700  0.126700  1.0  -0.103
  C  C108  1  0.562600  0.549200  0.075500  1.0  -0.0798
  C  C109  1  0.678400  0.495600  0.052900  1.0  -0.1258
  C  C110  1  0.770900  0.502500  0.082600  1.0  -0.041
  C  C111  1  0.750000  0.561600  0.134800  1.0  -0.1507
  C  C112  1  0.852700  0.564700  0.166600  1.0  0.6688
  C  C113  1  0.304200  0.946600  0.160300  1.0  0.2748
  C  C114  1  0.251300  0.117100  0.188400  1.0  0.1512
  C  C115  1  0.099700  0.222500  0.112700  1.0  -0.065
  C  C116  1  0.002700  0.196900  0.085600  1.0  -0.0964
  C  C117  1  0.904100  0.202900  0.119800  1.0  0.1009
  C  C118  1  0.900000  0.220000  0.183600  1.0  -0.3585
  C  C119  1  0.807700  0.193500  0.093400  1.0  -0.1104
  C  C120  1  0.814600  0.168800  0.034800  1.0  0.1047
  C  C121  1  0.917600  0.156600  0.001200  1.0  -0.1053
  C  C122  1  0.010300  0.174500  0.027000  1.0  0.0915
  C  C123  1  0.117900  0.171300  0.990100  1.0  -0.352
  C  C124  1  0.709500  0.158500  0.008000  1.0  -0.359
  C  C125  1  0.691300  0.220900  0.128000  1.0  -0.0672
  C  C126  1  0.703300  0.940300  0.179900  1.0  0.2873
  C  C127  1  0.596500  0.116900  0.195800  1.0  0.1561
  C  C128  1  0.929000  0.122800  0.939100  1.0  -0.0505
  C  C129  1  0.951900  0.263300  0.859500  1.0  0.1522
  C  C130  1  0.775100  0.375300  0.852300  1.0  0.2674
  C  C131  1  0.324500  0.399500  0.285600  1.0  0.6877
  C  C132  1  0.386900  0.367900  0.342400  1.0  -0.0294
  C  C133  1  0.392300  0.461300  0.373300  1.0  -0.1027
  C  C134  1  0.450800  0.437400  0.424500  1.0  -0.0784
  C  C135  1  0.504400  0.321600  0.447100  1.0  -0.1277
  C  C136  1  0.497500  0.229100  0.417400  1.0  -0.0396
  C  C137  1  0.438400  0.250000  0.365200  1.0  -0.1527
  C  C138  1  0.435300  0.147300  0.333400  1.0  0.6711
  C  C139  1  0.053400  0.695800  0.339700  1.0  0.2764
  C  C140  1  0.882900  0.748700  0.311600  1.0  0.1507
  C  C141  1  0.777500  0.900300  0.387300  1.0  -0.0635
  C  C142  1  0.803100  0.997300  0.414400  1.0  -0.0972
  C  C143  1  0.797100  0.095900  0.380200  1.0  0.0987
  C  C144  1  0.780000  0.100000  0.316400  1.0  -0.3589
  C  C145  1  0.806500  0.192300  0.406600  1.0  -0.1107
  C  C146  1  0.831200  0.185400  0.465200  1.0  0.1051
  C  C147  1  0.843400  0.082400  0.498800  1.0  -0.1035
  C  C148  1  0.825500  0.989700  0.473000  1.0  0.0912
  C  C149  1  0.828700  0.882100  0.509900  1.0  -0.3531
  C  C150  1  0.841500  0.290500  0.492000  1.0  -0.3565
  C  C151  1  0.779100  0.308700  0.372000  1.0  -0.0694
  C  C152  1  0.059700  0.296700  0.320100  1.0  0.2891
  C  C153  1  0.883100  0.403500  0.304200  1.0  0.1573
  C  C154  1  0.877200  0.071000  0.560900  1.0  -0.0503
  C  C155  1  0.736700  0.048100  0.640500  1.0  0.149
  C  C156  1  0.624700  0.224900  0.647700  1.0  0.269
  C  C157  1  0.399500  0.324500  0.785600  1.0  0.6879
  C  C158  1  0.367900  0.386900  0.842400  1.0  -0.0284
  C  C159  1  0.461300  0.392300  0.873300  1.0  -0.1038
  C  C160  1  0.437400  0.450800  0.924500  1.0  -0.0791
  C  C161  1  0.321600  0.504400  0.947100  1.0  -0.1275
  C  C162  1  0.229100  0.497500  0.917400  1.0  -0.0403
  C  C163  1  0.250000  0.438400  0.865200  1.0  -0.151
  C  C164  1  0.147300  0.435300  0.833400  1.0  0.6682
  C  C165  1  0.695800  0.053400  0.839700  1.0  0.2742
  C  C166  1  0.748700  0.882900  0.811600  1.0  0.1497
  C  C167  1  0.900300  0.777500  0.887300  1.0  -0.0657
  C  C168  1  0.997300  0.803100  0.914400  1.0  -0.0971
  C  C169  1  0.095900  0.797100  0.880200  1.0  0.0993
  C  C170  1  0.100000  0.780000  0.816400  1.0  -0.3585
  C  C171  1  0.192300  0.806500  0.906600  1.0  -0.1086
  C  C172  1  0.185400  0.831200  0.965200  1.0  0.1049
  C  C173  1  0.082400  0.843400  0.998800  1.0  -0.1037
  C  C174  1  0.989700  0.825500  0.973000  1.0  0.0894
  C  C175  1  0.882100  0.828700  0.009900  1.0  -0.3528
  C  C176  1  0.290500  0.841500  0.992000  1.0  -0.3588
  C  C177  1  0.308700  0.779100  0.872000  1.0  -0.068
  C  C178  1  0.296700  0.059700  0.820100  1.0  0.287
  C  C179  1  0.403500  0.883100  0.804200  1.0  0.1558
  C  C180  1  0.071000  0.877200  0.060900  1.0  -0.0497
  C  C181  1  0.048100  0.736700  0.140500  1.0  0.15
  C  C182  1  0.224900  0.624700  0.147700  1.0  0.2657
  C  C183  1  0.675500  0.600500  0.714400  1.0  0.6892
  C  C184  1  0.613100  0.632100  0.657600  1.0  -0.0294
  C  C185  1  0.607700  0.538700  0.626700  1.0  -0.1023
  C  C186  1  0.549200  0.562600  0.575500  1.0  -0.08
  C  C187  1  0.495600  0.678400  0.552900  1.0  -0.1268
  C  C188  1  0.502500  0.770900  0.582600  1.0  -0.0393
  C  C189  1  0.561600  0.750000  0.634800  1.0  -0.1526
  C  C190  1  0.564700  0.852700  0.666667  1.0  0.6731
  C  C191  1  0.946600  0.304200  0.660300  1.0  0.2762
  C  C192  1  0.117100  0.251300  0.688400  1.0  0.1517
  C  C193  1  0.222500  0.099700  0.612700  1.0  -0.0619
  C  C194  1  0.196900  0.002700  0.585600  1.0  -0.0969
  C  C195  1  0.202900  0.904100  0.619800  1.0  0.1004
  C  C196  1  0.220000  0.900000  0.683600  1.0  -0.3592
  C  C197  1  0.193500  0.807700  0.593400  1.0  -0.1107
  C  C198  1  0.168800  0.814600  0.534800  1.0  0.105
  C  C199  1  0.156600  0.917600  0.501200  1.0  -0.1047
  C  C200  1  0.174500  0.010300  0.527000  1.0  0.091
  C  C201  1  0.171300  0.117900  0.490100  1.0  -0.352
  C  C202  1  0.158500  0.709500  0.508000  1.0  -0.3566
  C  C203  1  0.220900  0.691300  0.628000  1.0  -0.0721
  C  C204  1  0.940300  0.703300  0.679900  1.0  0.289
  C  C205  1  0.116900  0.596500  0.695800  1.0  0.1567
  C  C206  1  0.122800  0.929000  0.439100  1.0  -0.0495
  C  C207  1  0.263300  0.951900  0.359500  1.0  0.1502
  C  C208  1  0.375300  0.775100  0.352300  1.0  0.2681
  N  N209  1  0.327100  0.009300  0.201200  1.0  -0.4081
  N  N210  1  0.220800  0.008600  0.124800  1.0  -0.3534
  N  N211  1  0.186000  0.119600  0.144000  1.0  0.1523
  N  N212  1  0.606100  0.008500  0.211100  1.0  -0.4285
  N  N213  1  0.751100  0.002500  0.146900  1.0  -0.397
  N  N214  1  0.678000  0.116600  0.157900  1.0  0.1699
  N  N215  1  0.889500  0.224300  0.898000  1.0  0.1685
  N  N216  1  0.772300  0.296500  0.894000  1.0  -0.3643
  N  N217  1  0.883500  0.356900  0.830000  1.0  -0.4097
  N  N218  1  0.990700  0.672900  0.298800  1.0  -0.4091
  N  N219  1  0.991400  0.779200  0.375200  1.0  -0.3535
  N  N220  1  0.880400  0.814000  0.356000  1.0  0.1496
  N  N221  1  0.991500  0.393900  0.288900  1.0  -0.4297
  N  N222  1  0.997500  0.248900  0.353100  1.0  -0.3981
  N  N223  1  0.883400  0.322000  0.342100  1.0  0.169
  N  N224  1  0.775700  0.110500  0.602000  1.0  0.1693
  N  N225  1  0.703500  0.227700  0.606000  1.0  -0.3645
  N  N226  1  0.643100  0.116500  0.670000  1.0  -0.4096
  N  N227  1  0.672900  0.990700  0.798800  1.0  -0.4069
  N  N228  1  0.779200  0.991400  0.875200  1.0  -0.3534
  N  N229  1  0.814000  0.880400  0.856000  1.0  0.1507
  N  N230  1  0.393900  0.991500  0.788900  1.0  -0.428
  N  N231  1  0.248900  0.997500  0.853100  1.0  -0.3976
  N  N232  1  0.322000  0.883400  0.842100  1.0  0.1695
  N  N233  1  0.110500  0.775700  0.102000  1.0  0.1702
  N  N234  1  0.227700  0.703500  0.106000  1.0  -0.3672
  N  N235  1  0.116500  0.643100  0.170000  1.0  -0.4097
  N  N236  1  0.009300  0.327100  0.701200  1.0  -0.4088
  N  N237  1  0.008600  0.220800  0.624800  1.0  -0.352
  N  N238  1  0.119600  0.186000  0.644000  1.0  0.1499
  N  N239  1  0.008500  0.606100  0.711100  1.0  -0.429
  N  N240  1  0.002500  0.751100  0.646900  1.0  -0.399
  N  N241  1  0.116600  0.678000  0.657900  1.0  0.1688
  N  N242  1  0.224300  0.889500  0.398000  1.0  0.1694
  N  N243  1  0.296500  0.772300  0.394000  1.0  -0.3662
  N  N244  1  0.356900  0.883500  0.330000  1.0  -0.411
  O  O245  1  0.553900  0.786900  0.209600  1.0  -0.6448
  O  O246  1  0.616400  0.613000  0.260800  1.0  -0.6413
  O  O247  1  0.834700  0.637100  0.205100  1.0  -0.604
  O  O248  1  0.955900  0.490100  0.153700  1.0  -0.6446
  O  O249  1  0.213100  0.446100  0.290400  1.0  -0.6445
  O  O250  1  0.387000  0.383600  0.239200  1.0  -0.64
  O  O251  1  0.362900  0.165300  0.294900  1.0  -0.604
  O  O252  1  0.509900  0.044100  0.346300  1.0  -0.6447
  O  O253  1  0.446100  0.213100  0.790400  1.0  -0.6439
  O  O254  1  0.383600  0.387000  0.739200  1.0  -0.6418
  O  O255  1  0.165300  0.362900  0.794900  1.0  -0.6048
  O  O256  1  0.044100  0.509900  0.846300  1.0  -0.643
  O  O257  1  0.786900  0.553900  0.709600  1.0  -0.6434
  O  O258  1  0.613000  0.616400  0.760800  1.0  -0.6381
  O  O259  1  0.637100  0.834700  0.705100  1.0  -0.6057
  O  O260  1  0.490100  0.955900  0.653700  1.0  -0.6449
