# generated using pymatgen
data_Ca2H25C21Br2(N3O7)2
_symmetry_space_group_name_H-M   'P 1'
_cell_length_a   9.52760000
_cell_length_b   11.65700000
_cell_length_c   28.68200000
_cell_angle_alpha   90.00000000
_cell_angle_beta   90.00000000
_cell_angle_gamma   90.00000000
_symmetry_Int_Tables_number   1
_chemical_formula_structural   Ca2H25C21Br2(N3O7)2
_chemical_formula_sum   'Ca8 H100 C84 Br8 N24 O56'
_cell_volume   3185.51565464
_cell_formula_units_Z   4
loop_
 _symmetry_equiv_pos_site_id
 _symmetry_equiv_pos_as_xyz
  1  'x, y, z'
loop_
 _atom_site_type_symbol
 _atom_site_label
 _atom_site_symmetry_multiplicity
 _atom_site_fract_x
 _atom_site_fract_y
 _atom_site_fract_z
 _atom_site_occupancy
 _atom_site_charge
  Ca  Ca1  1  0.341440  0.812540  0.536150  1.0  1.5036
  Ca  Ca2  1  0.158560  0.312540  0.463850  1.0  1.505
  Ca  Ca3  1  0.658560  0.187460  0.036150  1.0  1.5049
  Ca  Ca4  1  0.841440  0.687460  0.963850  1.0  1.504
  Ca  Ca5  1  0.658560  0.187460  0.463850  1.0  1.5051
  Ca  Ca6  1  0.841440  0.687460  0.536150  1.0  1.5038
  Ca  Ca7  1  0.341440  0.812540  0.963850  1.0  1.5039
  Ca  Ca8  1  0.158560  0.312540  0.036150  1.0  1.5047
  H  H9  1  0.499100  0.940800  0.368800  1.0  0.121
  H  H10  1  0.631500  0.915400  0.401500  1.0  0.117
  H  H11  1  0.641300  0.710500  0.439100  1.0  0.1099
  H  H12  1  0.344300  0.765400  0.343100  1.0  0.1247
  H  H13  1  0.354000  0.556100  0.358600  1.0  0.1118
  H  H14  1  0.636300  0.500900  0.447100  1.0  0.0873
  H  H15  1  0.598900  0.441600  0.398400  1.0  0.1139
  H  H16  1  0.027500  0.706900  0.644500  1.0  0.117
  H  H17  1  0.149600  0.625000  0.663400  1.0  0.1183
  H  H18  1  0.942800  0.875200  0.706800  1.0  0.1167
  H  H19  1  0.289000  0.594000  0.486000  1.0  0.2914
  H  H20  1  0.157000  0.623000  0.518000  1.0  0.2934
  H  H21  1  0.000900  0.440800  0.631200  1.0  0.1199
  H  H22  1  0.868500  0.415400  0.598500  1.0  0.1162
  H  H23  1  0.858700  0.210500  0.560900  1.0  0.11
  H  H24  1  0.155700  0.265400  0.656900  1.0  0.1237
  H  H25  1  0.146000  0.056100  0.641400  1.0  0.1125
  H  H26  1  0.863700  0.000900  0.552900  1.0  0.0872
  H  H27  1  0.901100  0.941600  0.601600  1.0  0.1146
  H  H28  1  0.472500  0.206900  0.355500  1.0  0.117
  H  H29  1  0.350400  0.125000  0.336600  1.0  0.1178
  H  H30  1  0.557200  0.375200  0.293200  1.0  0.116
  H  H31  1  0.211000  0.094000  0.514000  1.0  0.2914
  H  H32  1  0.343000  0.123000  0.482000  1.0  0.2929
  H  H33  1  0.500900  0.059200  0.868800  1.0  0.1215
  H  H34  1  0.368500  0.084600  0.901500  1.0  0.1163
  H  H35  1  0.358700  0.289500  0.939100  1.0  0.1102
  H  H36  1  0.655700  0.234600  0.843100  1.0  0.1241
  H  H37  1  0.646000  0.443900  0.858600  1.0  0.1109
  H  H38  1  0.363700  0.499100  0.947100  1.0  0.0872
  H  H39  1  0.401100  0.558400  0.898400  1.0  0.1138
  H  H40  1  0.972500  0.293100  0.144500  1.0  0.1163
  H  H41  1  0.850400  0.375000  0.163400  1.0  0.1182
  H  H42  1  0.057200  0.124800  0.206800  1.0  0.1155
  H  H43  1  0.711000  0.406000  0.986000  1.0  0.2903
  H  H44  1  0.843000  0.377000  0.018000  1.0  0.2935
  H  H45  1  0.999100  0.559200  0.131200  1.0  0.1197
  H  H46  1  0.131500  0.584600  0.098500  1.0  0.1171
  H  H47  1  0.141300  0.789500  0.060900  1.0  0.1096
  H  H48  1  0.844300  0.734600  0.156900  1.0  0.1236
  H  H49  1  0.854000  0.943900  0.141400  1.0  0.1132
  H  H50  1  0.136300  0.999100  0.052900  1.0  0.0868
  H  H51  1  0.098900  0.058400  0.101600  1.0  0.1149
  H  H52  1  0.527500  0.793100  0.855500  1.0  0.1169
  H  H53  1  0.649600  0.875000  0.836600  1.0  0.1179
  H  H54  1  0.442800  0.624800  0.793200  1.0  0.1162
  H  H55  1  0.789000  0.906000  0.014000  1.0  0.2904
  H  H56  1  0.657000  0.877000  0.982000  1.0  0.2924
  H  H57  1  0.500900  0.059200  0.631200  1.0  0.1206
  H  H58  1  0.368500  0.084600  0.598500  1.0  0.1166
  H  H59  1  0.358700  0.289500  0.560900  1.0  0.1099
  H  H60  1  0.655700  0.234600  0.656900  1.0  0.1238
  H  H61  1  0.646000  0.443900  0.641400  1.0  0.1125
  H  H62  1  0.363700  0.499100  0.552900  1.0  0.0861
  H  H63  1  0.401100  0.558400  0.601600  1.0  0.1144
  H  H64  1  0.972500  0.293100  0.355500  1.0  0.1147
  H  H65  1  0.850400  0.375000  0.336600  1.0  0.1178
  H  H66  1  0.057200  0.124800  0.293200  1.0  0.1162
  H  H67  1  0.711000  0.406000  0.514000  1.0  0.2905
  H  H68  1  0.843000  0.377000  0.482000  1.0  0.2933
  H  H69  1  0.999100  0.559200  0.368800  1.0  0.1207
  H  H70  1  0.131500  0.584600  0.401500  1.0  0.1174
  H  H71  1  0.141300  0.789500  0.439100  1.0  0.1099
  H  H72  1  0.844300  0.734600  0.343100  1.0  0.1243
  H  H73  1  0.854000  0.943900  0.358600  1.0  0.1113
  H  H74  1  0.136300  0.999100  0.447100  1.0  0.0865
  H  H75  1  0.098900  0.058400  0.398400  1.0  0.1137
  H  H76  1  0.527500  0.793100  0.644500  1.0  0.1156
  H  H77  1  0.649600  0.875000  0.663400  1.0  0.1183
  H  H78  1  0.442800  0.624800  0.706800  1.0  0.1161
  H  H79  1  0.789000  0.906000  0.486000  1.0  0.2899
  H  H80  1  0.657000  0.877000  0.518000  1.0  0.2925
  H  H81  1  0.499100  0.940800  0.131200  1.0  0.12
  H  H82  1  0.631500  0.915400  0.098500  1.0  0.1163
  H  H83  1  0.641300  0.710500  0.060900  1.0  0.1097
  H  H84  1  0.344300  0.765400  0.156900  1.0  0.1238
  H  H85  1  0.354000  0.556100  0.141400  1.0  0.1137
  H  H86  1  0.636300  0.500900  0.052900  1.0  0.086
  H  H87  1  0.598900  0.441600  0.101600  1.0  0.1149
  H  H88  1  0.027500  0.706900  0.855500  1.0  0.1152
  H  H89  1  0.149600  0.625000  0.836600  1.0  0.1179
  H  H90  1  0.942800  0.875200  0.793200  1.0  0.1168
  H  H91  1  0.289000  0.594000  0.014000  1.0  0.2915
  H  H92  1  0.157000  0.623000  0.982000  1.0  0.2929
  H  H93  1  0.000900  0.440800  0.868800  1.0  0.121
  H  H94  1  0.868500  0.415400  0.901500  1.0  0.1164
  H  H95  1  0.858700  0.210500  0.939100  1.0  0.1101
  H  H96  1  0.155700  0.265400  0.843100  1.0  0.1241
  H  H97  1  0.146000  0.056100  0.858600  1.0  0.1113
  H  H98  1  0.863700  0.000900  0.947100  1.0  0.0864
  H  H99  1  0.901100  0.941600  0.898400  1.0  0.1139
  H  H100  1  0.472500  0.206900  0.144500  1.0  0.1143
  H  H101  1  0.350400  0.125000  0.163400  1.0  0.1183
  H  H102  1  0.557200  0.375200  0.206800  1.0  0.1163
  H  H103  1  0.211000  0.094000  0.986000  1.0  0.2916
  H  H104  1  0.343000  0.123000  0.018000  1.0  0.2935
  H  H105  1  0.179400  0.613400  0.750000  1.0  0.1113
  H  H106  1  0.320600  0.113400  0.250000  1.0  0.1111
  H  H107  1  0.820600  0.386600  0.250000  1.0  0.1107
  H  H108  1  0.679400  0.886600  0.750000  1.0  0.1107
  C  C109  1  0.451600  0.953400  0.439200  1.0  0.71
  C  C110  1  0.529600  0.901600  0.397600  1.0  -0.148
  C  C111  1  0.568300  0.697900  0.417100  1.0  0.0757
  C  C112  1  0.405000  0.727500  0.364300  1.0  -0.1029
  C  C113  1  0.410300  0.613600  0.372800  1.0  -0.1048
  C  C114  1  0.559900  0.487700  0.424300  1.0  -0.1627
  C  C115  1  0.443200  0.419400  0.447900  1.0  0.7147
  C  C116  1  0.222100  0.786100  0.644800  1.0  0.7364
  C  C117  1  0.112300  0.704200  0.664300  1.0  -0.1694
  C  C118  1  0.990800  0.822900  0.726600  1.0  -0.1202
  C  C119  1  0.048400  0.453400  0.560800  1.0  0.7105
  C  C120  1  0.970400  0.401600  0.602400  1.0  -0.1499
  C  C121  1  0.931700  0.197900  0.582900  1.0  0.0716
  C  C122  1  0.095000  0.227500  0.635700  1.0  -0.1018
  C  C123  1  0.089700  0.113600  0.627200  1.0  -0.1043
  C  C124  1  0.940100  0.987700  0.575700  1.0  -0.1629
  C  C125  1  0.056800  0.919400  0.552100  1.0  0.7151
  C  C126  1  0.277900  0.286100  0.355200  1.0  0.7359
  C  C127  1  0.387700  0.204200  0.335700  1.0  -0.1687
  C  C128  1  0.509200  0.322900  0.273400  1.0  -0.12
  C  C129  1  0.548400  0.046600  0.939200  1.0  0.7105
  C  C130  1  0.470400  0.098400  0.897600  1.0  -0.1476
  C  C131  1  0.431700  0.302100  0.917100  1.0  0.0715
  C  C132  1  0.595000  0.272500  0.864300  1.0  -0.1041
  C  C133  1  0.589700  0.386400  0.872800  1.0  -0.1054
  C  C134  1  0.440100  0.512300  0.924300  1.0  -0.1636
  C  C135  1  0.556800  0.580600  0.947900  1.0  0.7148
  C  C136  1  0.777900  0.213900  0.144800  1.0  0.736
  C  C137  1  0.887700  0.295800  0.164300  1.0  -0.1692
  C  C138  1  0.009200  0.177100  0.226600  1.0  -0.12
  C  C139  1  0.951600  0.546600  0.060800  1.0  0.7093
  C  C140  1  0.029600  0.598400  0.102400  1.0  -0.1505
  C  C141  1  0.068300  0.802100  0.082900  1.0  0.0757
  C  C142  1  0.905000  0.772500  0.135700  1.0  -0.1036
  C  C143  1  0.910300  0.886400  0.127200  1.0  -0.1059
  C  C144  1  0.059900  0.012300  0.075700  1.0  -0.1623
  C  C145  1  0.943200  0.080600  0.052100  1.0  0.7142
  C  C146  1  0.722100  0.713900  0.855200  1.0  0.7374
  C  C147  1  0.612300  0.795800  0.835700  1.0  -0.17
  C  C148  1  0.490800  0.677100  0.773400  1.0  -0.1205
  C  C149  1  0.548400  0.046600  0.560800  1.0  0.7101
  C  C150  1  0.470400  0.098400  0.602400  1.0  -0.1506
  C  C151  1  0.431700  0.302100  0.582900  1.0  0.0716
  C  C152  1  0.595000  0.272500  0.635700  1.0  -0.1017
  C  C153  1  0.589700  0.386400  0.627200  1.0  -0.1046
  C  C154  1  0.440100  0.512300  0.575700  1.0  -0.1631
  C  C155  1  0.556800  0.580600  0.552100  1.0  0.715
  C  C156  1  0.777900  0.213900  0.355200  1.0  0.7365
  C  C157  1  0.887700  0.295800  0.335700  1.0  -0.1691
  C  C158  1  0.009200  0.177100  0.273400  1.0  -0.12
  C  C159  1  0.951600  0.546600  0.439200  1.0  0.7102
  C  C160  1  0.029600  0.598400  0.397600  1.0  -0.148
  C  C161  1  0.068300  0.802100  0.417100  1.0  0.0758
  C  C162  1  0.905000  0.772500  0.364300  1.0  -0.1032
  C  C163  1  0.910300  0.886400  0.372800  1.0  -0.1047
  C  C164  1  0.059900  0.012300  0.424300  1.0  -0.1625
  C  C165  1  0.943200  0.080600  0.447900  1.0  0.7139
  C  C166  1  0.722100  0.713900  0.644800  1.0  0.7367
  C  C167  1  0.612300  0.795800  0.664300  1.0  -0.17
  C  C168  1  0.490800  0.677100  0.726600  1.0  -0.1204
  C  C169  1  0.451600  0.953400  0.060800  1.0  0.7101
  C  C170  1  0.529600  0.901600  0.102400  1.0  -0.1502
  C  C171  1  0.568300  0.697900  0.082900  1.0  0.0759
  C  C172  1  0.405000  0.727500  0.135700  1.0  -0.1035
  C  C173  1  0.410300  0.613600  0.127200  1.0  -0.105
  C  C174  1  0.559900  0.487700  0.075700  1.0  -0.1622
  C  C175  1  0.443200  0.419400  0.052100  1.0  0.7145
  C  C176  1  0.222100  0.786100  0.855200  1.0  0.7365
  C  C177  1  0.112300  0.704200  0.835700  1.0  -0.1695
  C  C178  1  0.990800  0.822900  0.773400  1.0  -0.1208
  C  C179  1  0.048400  0.453400  0.939200  1.0  0.7111
  C  C180  1  0.970400  0.401600  0.897600  1.0  -0.1474
  C  C181  1  0.931700  0.197900  0.917100  1.0  0.0714
  C  C182  1  0.095000  0.227500  0.864300  1.0  -0.1039
  C  C183  1  0.089700  0.113600  0.872800  1.0  -0.1058
  C  C184  1  0.940100  0.987700  0.924300  1.0  -0.1635
  C  C185  1  0.056800  0.919400  0.947900  1.0  0.7153
  C  C186  1  0.277900  0.286100  0.144800  1.0  0.7358
  C  C187  1  0.387700  0.204200  0.164300  1.0  -0.1685
  C  C188  1  0.509200  0.322900  0.226600  1.0  -0.1196
  C  C189  1  0.120900  0.679400  0.750000  1.0  0.091
  C  C190  1  0.379100  0.179400  0.250000  1.0  0.0905
  C  C191  1  0.879100  0.320600  0.250000  1.0  0.0904
  C  C192  1  0.620900  0.820600  0.750000  1.0  0.0912
  Br  Br193  1  0.217550  0.945270  0.312990  1.0  -0.4367
  Br  Br194  1  0.282450  0.445270  0.687010  1.0  -0.4393
  Br  Br195  1  0.782450  0.054730  0.812990  1.0  -0.436
  Br  Br196  1  0.717550  0.554730  0.187010  1.0  -0.437
  Br  Br197  1  0.782450  0.054730  0.687010  1.0  -0.4367
  Br  Br198  1  0.717550  0.554730  0.312990  1.0  -0.4361
  Br  Br199  1  0.217550  0.945270  0.187010  1.0  -0.4394
  Br  Br200  1  0.282450  0.445270  0.812990  1.0  -0.4369
  N  N201  1  0.513700  0.596500  0.406340  1.0  0.0345
  N  N202  1  0.505300  0.778200  0.392670  1.0  0.0537
  N  N203  1  0.073300  0.733000  0.712800  1.0  0.0575
  N  N204  1  0.986300  0.096500  0.593660  1.0  0.0324
  N  N205  1  0.994700  0.278200  0.607330  1.0  0.0565
  N  N206  1  0.426700  0.233000  0.287200  1.0  0.0578
  N  N207  1  0.486300  0.403500  0.906340  1.0  0.0347
  N  N208  1  0.494700  0.221800  0.892670  1.0  0.0531
  N  N209  1  0.926700  0.267000  0.212800  1.0  0.0579
  N  N210  1  0.013700  0.903500  0.093660  1.0  0.0324
  N  N211  1  0.005300  0.721800  0.107330  1.0  0.0567
  N  N212  1  0.573300  0.767000  0.787200  1.0  0.0578
  N  N213  1  0.486300  0.403500  0.593660  1.0  0.0325
  N  N214  1  0.494700  0.221800  0.607330  1.0  0.0567
  N  N215  1  0.926700  0.267000  0.287200  1.0  0.058
  N  N216  1  0.013700  0.903500  0.406340  1.0  0.0347
  N  N217  1  0.005300  0.721800  0.392670  1.0  0.053
  N  N218  1  0.573300  0.767000  0.712800  1.0  0.0576
  N  N219  1  0.513700  0.596500  0.093660  1.0  0.0323
  N  N220  1  0.505300  0.778200  0.107330  1.0  0.0565
  N  N221  1  0.073300  0.733000  0.787200  1.0  0.0576
  N  N222  1  0.986300  0.096500  0.906340  1.0  0.0344
  N  N223  1  0.994700  0.278200  0.892670  1.0  0.0538
  N  N224  1  0.426700  0.233000  0.212800  1.0  0.0578
  O  O225  1  0.369100  0.890300  0.461430  1.0  -0.6632
  O  O226  1  0.477700  0.056900  0.447110  1.0  -0.6171
  O  O227  1  0.474800  0.320600  0.461850  1.0  -0.6818
  O  O228  1  0.325400  0.464900  0.453070  1.0  -0.6261
  O  O229  1  0.280000  0.751000  0.608290  1.0  -0.6365
  O  O230  1  0.247100  0.876700  0.665050  1.0  -0.5708
  O  O231  1  0.227800  0.657100  0.497080  1.0  -0.6608
  O  O232  1  0.130900  0.390300  0.538570  1.0  -0.663
  O  O233  1  0.022300  0.556900  0.552890  1.0  -0.6178
  O  O234  1  0.025200  0.820600  0.538150  1.0  -0.682
  O  O235  1  0.174600  0.964900  0.546930  1.0  -0.6269
  O  O236  1  0.220000  0.251000  0.391710  1.0  -0.6362
  O  O237  1  0.252900  0.376700  0.334950  1.0  -0.5721
  O  O238  1  0.272200  0.157100  0.502920  1.0  -0.6614
  O  O239  1  0.630900  0.109700  0.961430  1.0  -0.663
  O  O240  1  0.522300  0.943100  0.947110  1.0  -0.6157
  O  O241  1  0.525200  0.679400  0.961850  1.0  -0.6813
  O  O242  1  0.674600  0.535100  0.953070  1.0  -0.6265
  O  O243  1  0.720000  0.249000  0.108290  1.0  -0.6368
  O  O244  1  0.752900  0.123300  0.165050  1.0  -0.5722
  O  O245  1  0.772200  0.342900  0.997080  1.0  -0.6634
  O  O246  1  0.869100  0.609700  0.038570  1.0  -0.6632
  O  O247  1  0.977700  0.443100  0.052890  1.0  -0.6154
  O  O248  1  0.974800  0.179400  0.038150  1.0  -0.6821
  O  O249  1  0.825400  0.035100  0.046930  1.0  -0.6263
  O  O250  1  0.780000  0.749000  0.891710  1.0  -0.6359
  O  O251  1  0.747100  0.623300  0.834950  1.0  -0.5714
  O  O252  1  0.727800  0.842900  0.002920  1.0  -0.6633
  O  O253  1  0.630900  0.109700  0.538570  1.0  -0.663
  O  O254  1  0.522300  0.943100  0.552890  1.0  -0.6156
  O  O255  1  0.525200  0.679400  0.538150  1.0  -0.6813
  O  O256  1  0.674600  0.535100  0.546930  1.0  -0.6269
  O  O257  1  0.720000  0.249000  0.391710  1.0  -0.6367
  O  O258  1  0.752900  0.123300  0.334950  1.0  -0.5729
  O  O259  1  0.772200  0.342900  0.502920  1.0  -0.6635
  O  O260  1  0.869100  0.609700  0.461430  1.0  -0.6632
  O  O261  1  0.977700  0.443100  0.447110  1.0  -0.6155
  O  O262  1  0.974800  0.179400  0.461850  1.0  -0.6814
  O  O263  1  0.825400  0.035100  0.453070  1.0  -0.626
  O  O264  1  0.780000  0.749000  0.608290  1.0  -0.6364
  O  O265  1  0.747100  0.623300  0.665050  1.0  -0.5708
  O  O266  1  0.727800  0.842900  0.497080  1.0  -0.6634
  O  O267  1  0.369100  0.890300  0.038570  1.0  -0.6631
  O  O268  1  0.477700  0.056900  0.052890  1.0  -0.6172
  O  O269  1  0.474800  0.320600  0.038150  1.0  -0.6819
  O  O270  1  0.325400  0.464900  0.046930  1.0  -0.6265
  O  O271  1  0.280000  0.751000  0.891710  1.0  -0.6362
  O  O272  1  0.247100  0.876700  0.834950  1.0  -0.5701
  O  O273  1  0.227800  0.657100  0.002920  1.0  -0.6613
  O  O274  1  0.130900  0.390300  0.961430  1.0  -0.6631
  O  O275  1  0.022300  0.556900  0.947110  1.0  -0.6175
  O  O276  1  0.025200  0.820600  0.961850  1.0  -0.6811
  O  O277  1  0.174600  0.964900  0.953070  1.0  -0.6265
  O  O278  1  0.220000  0.251000  0.108290  1.0  -0.637
  O  O279  1  0.252900  0.376700  0.165050  1.0  -0.5728
  O  O280  1  0.272200  0.157100  0.997080  1.0  -0.6607
