# generated using pymatgen
data_Zn3H26C28S2(N3O2)6
_symmetry_space_group_name_H-M   'P 1'
_cell_length_a   8.91000000
_cell_length_b   12.00700000
_cell_length_c   12.52600000
_cell_angle_alpha   77.70800000
_cell_angle_beta   76.62900000
_cell_angle_gamma   76.37800000
_symmetry_Int_Tables_number   1
_chemical_formula_structural   Zn3H26C28S2(N3O2)6
_chemical_formula_sum   'Zn3 H26 C28 S2 N18 O12'
_cell_volume   1249.14964235
_cell_formula_units_Z   1
loop_
 _symmetry_equiv_pos_site_id
 _symmetry_equiv_pos_as_xyz
  1  'x, y, z'
loop_
 _atom_site_type_symbol
 _atom_site_label
 _atom_site_symmetry_multiplicity
 _atom_site_fract_x
 _atom_site_fract_y
 _atom_site_fract_z
 _atom_site_occupancy
 _atom_site_charge
  Zn  Zn1  1  0.286380  0.746750  0.903930  1.0  0.9159
  Zn  Zn2  1  0.713620  0.253250  0.096070  1.0  0.9179
  Zn  Zn3  1  0.000000  0.000000  0.000000  1.0  0.9809
  H  H4  1  0.020400  0.400100  0.264100  1.0  0.1186
  H  H5  1  0.894700  0.516000  0.254900  1.0  0.1236
  H  H6  1  0.023200  0.604700  0.055100  1.0  0.1079
  H  H7  1  0.427200  0.611200  0.117800  1.0  0.0928
  H  H8  1  0.766300  0.649300  0.321700  1.0  0.1226
  H  H9  1  0.728400  0.726400  0.414800  1.0  0.1053
  H  H10  1  0.801100  0.823500  0.159400  1.0  0.1159
  H  H11  1  0.157200  0.907400  0.224500  1.0  0.0882
  H  H12  1  0.109900  0.270900  0.365200  1.0  0.1139
  H  H13  1  0.176500  0.224600  0.475300  1.0  0.1097
  H  H14  1  0.344400  0.254200  0.200900  1.0  0.1139
  H  H15  1  0.652900  0.338500  0.326600  1.0  0.088
  H  H16  1  0.350400  0.065200  0.007500  1.0  0.1072
  H  H17  1  0.979600  0.599900  0.735900  1.0  0.1178
  H  H18  1  0.105300  0.484000  0.745100  1.0  0.1266
  H  H19  1  0.976800  0.395300  0.944900  1.0  0.1095
  H  H20  1  0.572800  0.388800  0.882200  1.0  0.0938
  H  H21  1  0.233700  0.350700  0.678300  1.0  0.1243
  H  H22  1  0.271600  0.273600  0.585200  1.0  0.1065
  H  H23  1  0.198900  0.176500  0.840600  1.0  0.117
  H  H24  1  0.842800  0.092600  0.775500  1.0  0.0872
  H  H25  1  0.890100  0.729100  0.634800  1.0  0.1116
  H  H26  1  0.823500  0.775400  0.524700  1.0  0.1094
  H  H27  1  0.655600  0.745800  0.799100  1.0  0.1144
  H  H28  1  0.347100  0.661500  0.673400  1.0  0.0882
  H  H29  1  0.649600  0.934800  0.992500  1.0  0.1082
  C  C30  1  0.998300  0.490100  0.390800  1.0  -0.0094
  C  C31  1  0.913000  0.589700  0.434600  1.0  1e-04
  C  C32  1  0.083100  0.399500  0.456900  1.0  0.0133
  C  C33  1  0.998200  0.481300  0.271900  1.0  -0.0811
  C  C34  1  0.108300  0.594600  0.089800  1.0  0.1731
  C  C35  1  0.326900  0.596700  0.125500  1.0  0.2776
  C  C36  1  0.813000  0.684500  0.365500  1.0  -0.0883
  C  C37  1  0.880700  0.827800  0.194200  1.0  0.1359
  C  C38  1  0.072300  0.872400  0.230600  1.0  0.2973
  C  C39  1  0.169800  0.288300  0.413100  1.0  -0.0807
  C  C40  1  0.394200  0.275800  0.248700  1.0  0.1723
  C  C41  1  0.559500  0.321800  0.318800  1.0  0.2926
  C  C42  1  0.385300  0.897400  0.971800  1.0  0.6705
  C  C43  1  0.428100  0.999600  0.996500  1.0  -0.1811
  C  C44  1  0.001700  0.509900  0.609200  1.0  -0.0102
  C  C45  1  0.087000  0.410300  0.565400  1.0  0.0002
  C  C46  1  0.916900  0.600500  0.543100  1.0  0.0122
  C  C47  1  0.001800  0.518700  0.728100  1.0  -0.081
  C  C48  1  0.891700  0.405400  0.910200  1.0  0.1735
  C  C49  1  0.673100  0.403300  0.874500  1.0  0.2772
  C  C50  1  0.187000  0.315500  0.634500  1.0  -0.0873
  C  C51  1  0.119300  0.172200  0.805800  1.0  0.1366
  C  C52  1  0.927700  0.127600  0.769400  1.0  0.2974
  C  C53  1  0.830200  0.711700  0.586900  1.0  -0.0808
  C  C54  1  0.605800  0.724200  0.751300  1.0  0.1718
  C  C55  1  0.440500  0.678200  0.681200  1.0  0.2928
  C  C56  1  0.614700  0.102600  0.028200  1.0  0.6698
  C  C57  1  0.571900  0.000400  0.003500  1.0  -0.1807
  S  S58  1  0.946770  0.799800  0.859990  1.0  1.681
  S  S59  1  0.053230  0.200200  0.140010  1.0  1.6827
  N  N60  1  0.242000  0.632800  0.043600  1.0  -0.4302
  N  N61  1  0.116100  0.540300  0.192300  1.0  0.1695
  N  N62  1  0.256400  0.539800  0.216200  1.0  -0.3646
  N  N63  1  0.984100  0.896300  0.153000  1.0  -0.3949
  N  N64  1  0.905600  0.766600  0.290800  1.0  0.1735
  N  N65  1  0.028400  0.794300  0.317300  1.0  -0.3869
  N  N66  1  0.541800  0.290700  0.225300  1.0  -0.4279
  N  N67  1  0.328600  0.296200  0.350500  1.0  0.175
  N  N68  1  0.433700  0.326200  0.397200  1.0  -0.3717
  N  N69  1  0.758000  0.367200  0.956400  1.0  -0.4305
  N  N70  1  0.883900  0.459700  0.807700  1.0  0.1698
  N  N71  1  0.743600  0.460200  0.783800  1.0  -0.3629
  N  N72  1  0.015900  0.103700  0.847000  1.0  -0.3954
  N  N73  1  0.094400  0.233400  0.709200  1.0  0.1747
  N  N74  1  0.971600  0.205700  0.682700  1.0  -0.386
  N  N75  1  0.458200  0.709300  0.774700  1.0  -0.4287
  N  N76  1  0.671400  0.703800  0.649500  1.0  0.1759
  N  N77  1  0.566300  0.673800  0.602800  1.0  -0.3681
  O  O78  1  0.118300  0.760700  0.820300  1.0  -0.7851
  O  O79  1  0.926800  0.868600  0.947400  1.0  -0.786
  O  O80  1  0.874900  0.698900  0.904500  1.0  -0.7161
  O  O81  1  0.878300  0.868600  0.766300  1.0  -0.719
  O  O82  1  0.248600  0.908600  0.947400  1.0  -0.6324
  O  O83  1  0.478600  0.802800  0.971300  1.0  -0.595
  O  O84  1  0.881700  0.239300  0.179700  1.0  -0.7854
  O  O85  1  0.073200  0.131400  0.052600  1.0  -0.7864
  O  O86  1  0.125100  0.301100  0.095500  1.0  -0.7154
  O  O87  1  0.121700  0.131400  0.233700  1.0  -0.7196
  O  O88  1  0.751400  0.091400  0.052600  1.0  -0.6346
  O  O89  1  0.521400  0.197200  0.028700  1.0  -0.5998
