# generated using pymatgen
data_Zn3H25C25SN19O4
_symmetry_space_group_name_H-M   'P 1'
_cell_length_a   16.30800000
_cell_length_b   10.51700000
_cell_length_c   22.98600000
_cell_angle_alpha   90.00000000
_cell_angle_beta   104.44400000
_cell_angle_gamma   90.00000000
_symmetry_Int_Tables_number   1
_chemical_formula_structural   Zn3H25C25SN19O4
_chemical_formula_sum   'Zn12 H100 C100 S4 N76 O16'
_cell_volume   3817.74682979
_cell_formula_units_Z   4
loop_
 _symmetry_equiv_pos_site_id
 _symmetry_equiv_pos_as_xyz
  1  'x, y, z'
loop_
 _atom_site_type_symbol
 _atom_site_label
 _atom_site_symmetry_multiplicity
 _atom_site_fract_x
 _atom_site_fract_y
 _atom_site_fract_z
 _atom_site_occupancy
 _atom_site_charge
  Zn  Zn1  1  0.785950  0.175710  0.748100  1.0  0.6618
  Zn  Zn2  1  0.880920  0.672510  0.751140  1.0  0.7292
  Zn  Zn3  1  0.449810  0.168570  0.755360  1.0  0.7068
  Zn  Zn4  1  0.214050  0.675710  0.751900  1.0  0.6618
  Zn  Zn5  1  0.119080  0.172510  0.748860  1.0  0.7288
  Zn  Zn6  1  0.550190  0.668570  0.744640  1.0  0.706
  Zn  Zn7  1  0.214050  0.824290  0.251900  1.0  0.6613
  Zn  Zn8  1  0.119080  0.327490  0.248860  1.0  0.7282
  Zn  Zn9  1  0.550190  0.831430  0.244640  1.0  0.7054
  Zn  Zn10  1  0.785950  0.324290  0.248100  1.0  0.6614
  Zn  Zn11  1  0.880920  0.827490  0.251140  1.0  0.7289
  Zn  Zn12  1  0.449810  0.331430  0.255360  1.0  0.7062
  H  H13  1  0.691700  0.050400  0.477400  1.0  0.065
  H  H14  1  0.657500  0.188400  0.482300  1.0  0.0679
  H  H15  1  0.649500  0.129700  0.621300  1.0  0.0887
  H  H16  1  0.890300  0.161600  0.647300  1.0  0.0644
  H  H17  1  0.692800  0.871400  0.516900  1.0  0.0702
  H  H18  1  0.633700  0.751900  0.511300  1.0  0.0873
  H  H19  1  0.529400  0.845800  0.379600  1.0  0.0644
  H  H20  1  0.416200  0.707200  0.470300  1.0  0.0752
  H  H21  1  0.513300  0.685500  0.476700  1.0  0.0804
  H  H22  1  0.531000  0.807200  0.615500  1.0  0.0929
  H  H23  1  0.463900  0.466400  0.638400  1.0  0.0586
  H  H24  1  0.973400  0.812300  0.527100  1.0  0.0773
  H  H25  1  0.062100  0.809800  0.512000  1.0  0.1096
  H  H26  1  0.965000  0.693600  0.380000  1.0  0.0816
  H  H27  1  0.894200  0.041100  0.357400  1.0  0.0552
  H  H28  1  0.843600  0.718400  0.477800  1.0  0.0713
  H  H29  1  0.800200  0.593600  0.492700  1.0  0.0856
  H  H30  1  0.851600  0.543600  0.617600  1.0  0.0856
  H  H31  1  0.871200  0.900300  0.656000  1.0  0.0731
  H  H32  1  0.851400  0.291400  0.517600  1.0  0.0855
  H  H33  1  0.804100  0.423000  0.511000  1.0  0.0822
  H  H34  1  0.883800  0.395200  0.383600  1.0  0.0899
  H  H35  1  0.663500  0.242800  0.334900  1.0  0.0619
  H  H36  1  0.740700  0.849300  0.337600  1.0  0.0943
  H  H37  1  0.692000  0.646300  0.338200  1.0  0.1082
  H  H38  1  0.308300  0.550400  0.022600  1.0  0.0643
  H  H39  1  0.342500  0.688400  0.017700  1.0  0.0668
  H  H40  1  0.350500  0.629700  0.878700  1.0  0.0884
  H  H41  1  0.109700  0.661600  0.852700  1.0  0.0653
  H  H42  1  0.307200  0.371400  0.983100  1.0  0.0685
  H  H43  1  0.366300  0.251900  0.988700  1.0  0.0872
  H  H44  1  0.470600  0.345800  0.120400  1.0  0.0652
  H  H45  1  0.583800  0.207200  0.029700  1.0  0.0757
  H  H46  1  0.486700  0.185500  0.023300  1.0  0.0806
  H  H47  1  0.469000  0.307200  0.884500  1.0  0.0931
  H  H48  1  0.536100  0.966400  0.861600  1.0  0.0584
  H  H49  1  0.026600  0.312300  0.972900  1.0  0.077
  H  H50  1  0.937900  0.309800  0.988000  1.0  0.1076
  H  H51  1  0.035000  0.193600  0.120000  1.0  0.0834
  H  H52  1  0.105800  0.541100  0.142600  1.0  0.056
  H  H53  1  0.156400  0.218400  0.022200  1.0  0.0708
  H  H54  1  0.199800  0.093600  0.007300  1.0  0.089
  H  H55  1  0.148400  0.043600  0.882400  1.0  0.0857
  H  H56  1  0.128800  0.400300  0.844000  1.0  0.0732
  H  H57  1  0.148600  0.791400  0.982400  1.0  0.085
  H  H58  1  0.195900  0.923000  0.989000  1.0  0.0823
  H  H59  1  0.116200  0.895200  0.116400  1.0  0.0884
  H  H60  1  0.336500  0.742800  0.165100  1.0  0.063
  H  H61  1  0.259300  0.349300  0.162400  1.0  0.0941
  H  H62  1  0.308000  0.146300  0.161800  1.0  0.1096
  H  H63  1  0.308300  0.949600  0.522600  1.0  0.064
  H  H64  1  0.342500  0.811600  0.517700  1.0  0.068
  H  H65  1  0.350500  0.870300  0.378700  1.0  0.0888
  H  H66  1  0.109700  0.838400  0.352700  1.0  0.0647
  H  H67  1  0.307200  0.128600  0.483100  1.0  0.0682
  H  H68  1  0.366300  0.248100  0.488700  1.0  0.0871
  H  H69  1  0.470600  0.154200  0.620400  1.0  0.0651
  H  H70  1  0.583800  0.292800  0.529700  1.0  0.0761
  H  H71  1  0.486700  0.314500  0.523300  1.0  0.0799
  H  H72  1  0.469000  0.192800  0.384500  1.0  0.0934
  H  H73  1  0.536100  0.533600  0.361600  1.0  0.0582
  H  H74  1  0.026600  0.187700  0.472900  1.0  0.0765
  H  H75  1  0.937900  0.190200  0.488000  1.0  0.1077
  H  H76  1  0.035000  0.306400  0.620000  1.0  0.082
  H  H77  1  0.105800  0.958900  0.642600  1.0  0.0562
  H  H78  1  0.156400  0.281600  0.522200  1.0  0.0715
  H  H79  1  0.199800  0.406400  0.507300  1.0  0.0887
  H  H80  1  0.148400  0.456400  0.382400  1.0  0.0848
  H  H81  1  0.128800  0.099700  0.344000  1.0  0.0734
  H  H82  1  0.148600  0.708600  0.482400  1.0  0.0854
  H  H83  1  0.195900  0.577000  0.489000  1.0  0.0822
  H  H84  1  0.116200  0.604800  0.616400  1.0  0.0859
  H  H85  1  0.336500  0.757200  0.665100  1.0  0.0627
  H  H86  1  0.259300  0.150700  0.662400  1.0  0.0938
  H  H87  1  0.308000  0.353700  0.661800  1.0  0.1093
  H  H88  1  0.691700  0.449600  0.977400  1.0  0.0648
  H  H89  1  0.657500  0.311600  0.982300  1.0  0.0677
  H  H90  1  0.649500  0.370300  0.121300  1.0  0.0889
  H  H91  1  0.890300  0.338400  0.147300  1.0  0.0638
  H  H92  1  0.692800  0.628600  0.016900  1.0  0.0699
  H  H93  1  0.633700  0.748100  0.011300  1.0  0.0862
  H  H94  1  0.529400  0.654200  0.879600  1.0  0.0641
  H  H95  1  0.416200  0.792800  0.970300  1.0  0.0758
  H  H96  1  0.513300  0.814500  0.976700  1.0  0.0806
  H  H97  1  0.531000  0.692800  0.115500  1.0  0.0933
  H  H98  1  0.463900  0.033600  0.138400  1.0  0.0585
  H  H99  1  0.973400  0.687700  0.027100  1.0  0.0774
  H  H100  1  0.062100  0.690200  0.012000  1.0  0.1095
  H  H101  1  0.965000  0.806400  0.880000  1.0  0.0817
  H  H102  1  0.894200  0.458900  0.857400  1.0  0.0555
  H  H103  1  0.843600  0.781600  0.977800  1.0  0.0712
  H  H104  1  0.800200  0.906400  0.992700  1.0  0.0854
  H  H105  1  0.851600  0.956400  0.117600  1.0  0.0855
  H  H106  1  0.871200  0.599700  0.156000  1.0  0.0728
  H  H107  1  0.851400  0.208600  0.017600  1.0  0.084
  H  H108  1  0.804100  0.077000  0.011000  1.0  0.0819
  H  H109  1  0.883800  0.104800  0.883600  1.0  0.0878
  H  H110  1  0.663500  0.257200  0.834900  1.0  0.0618
  H  H111  1  0.740700  0.650700  0.837600  1.0  0.0941
  H  H112  1  0.692000  0.853700  0.838200  1.0  0.1078
  C  C113  1  0.579600  0.051500  0.502200  1.0  -0.0708
  C  C114  1  0.567300  0.919000  0.498300  1.0  -0.0647
  C  C115  1  0.486700  0.870200  0.497100  1.0  -0.1021
  C  C116  1  0.665000  0.105300  0.501300  1.0  -0.0863
  C  C117  1  0.703900  0.131800  0.615300  1.0  0.1686
  C  C118  1  0.833500  0.148900  0.628200  1.0  0.2331
  C  C119  1  0.640100  0.834400  0.494100  1.0  -0.0296
  C  C120  1  0.586000  0.829400  0.381400  1.0  0.2256
  C  C121  1  0.472400  0.725900  0.495000  1.0  -0.0861
  C  C122  1  0.509900  0.724800  0.609000  1.0  0.1792
  C  C123  1  0.473800  0.541500  0.619900  1.0  0.2679
  C  C124  1  0.002900  0.632600  0.499800  1.0  -0.1094
  C  C125  1  0.927100  0.571200  0.500900  1.0  -0.0613
  C  C126  1  0.923900  0.436900  0.500600  1.0  -0.124
  C  C127  1  0.004100  0.780000  0.499100  1.0  -0.0849
  C  C128  1  0.952300  0.777700  0.386700  1.0  0.1733
  C  C129  1  0.914100  0.964200  0.375500  1.0  0.2245
  C  C130  1  0.850200  0.646700  0.505100  1.0  -0.0548
  C  C131  1  0.856800  0.631400  0.615200  1.0  0.1607
  C  C132  1  0.866800  0.824100  0.634900  1.0  0.2607
  C  C133  1  0.842100  0.370200  0.494900  1.0  -0.0611
  C  C134  1  0.831800  0.359100  0.383700  1.0  0.1366
  C  C135  1  0.713000  0.278000  0.358500  1.0  0.2639
  C  C136  1  0.700800  0.840000  0.360000  1.0  -0.0261
  C  C137  1  0.671200  0.706000  0.360600  1.0  -0.0247
  C  C138  1  0.420400  0.551500  0.997800  1.0  -0.0706
  C  C139  1  0.432700  0.419000  0.001700  1.0  -0.0638
  C  C140  1  0.513300  0.370200  0.002900  1.0  -0.1022
  C  C141  1  0.335000  0.605300  0.998700  1.0  -0.0891
  C  C142  1  0.296100  0.631800  0.884700  1.0  0.1697
  C  C143  1  0.166500  0.648900  0.871800  1.0  0.2344
  C  C144  1  0.359900  0.334400  0.005900  1.0  -0.0294
  C  C145  1  0.414000  0.329400  0.118600  1.0  0.2325
  C  C146  1  0.527600  0.225900  0.005000  1.0  -0.0867
  C  C147  1  0.490100  0.224800  0.891000  1.0  0.1769
  C  C148  1  0.526200  0.041500  0.880100  1.0  0.2684
  C  C149  1  0.997100  0.132600  0.000200  1.0  -0.1091
  C  C150  1  0.072900  0.071200  0.999100  1.0  -0.06
  C  C151  1  0.076100  0.936900  0.999400  1.0  -0.1241
  C  C152  1  0.995900  0.280000  0.000900  1.0  -0.0854
  C  C153  1  0.047700  0.277700  0.113300  1.0  0.1742
  C  C154  1  0.085900  0.464200  0.124500  1.0  0.2247
  C  C155  1  0.149800  0.146700  0.994900  1.0  -0.0568
  C  C156  1  0.143200  0.131400  0.884800  1.0  0.1611
  C  C157  1  0.133200  0.324100  0.865100  1.0  0.2614
  C  C158  1  0.157900  0.870200  0.005100  1.0  -0.0593
  C  C159  1  0.168200  0.859100  0.116300  1.0  0.135
  C  C160  1  0.287000  0.778000  0.141500  1.0  0.2635
  C  C161  1  0.299200  0.340000  0.140000  1.0  -0.0286
  C  C162  1  0.328800  0.206000  0.139400  1.0  -0.0215
  C  C163  1  0.420400  0.948500  0.497800  1.0  -0.0707
  C  C164  1  0.432700  0.081000  0.501700  1.0  -0.0641
  C  C165  1  0.513300  0.129800  0.502900  1.0  -0.1021
  C  C166  1  0.335000  0.894700  0.498700  1.0  -0.089
  C  C167  1  0.296100  0.868200  0.384700  1.0  0.1699
  C  C168  1  0.166500  0.851100  0.371800  1.0  0.2342
  C  C169  1  0.359900  0.165600  0.505900  1.0  -0.0295
  C  C170  1  0.414000  0.170600  0.618600  1.0  0.2315
  C  C171  1  0.527600  0.274100  0.505000  1.0  -0.0865
  C  C172  1  0.490100  0.275200  0.391000  1.0  0.1769
  C  C173  1  0.526200  0.458500  0.380100  1.0  0.2663
  C  C174  1  0.997100  0.367400  0.500200  1.0  -0.1085
  C  C175  1  0.072900  0.428800  0.499100  1.0  -0.0597
  C  C176  1  0.076100  0.563100  0.499400  1.0  -0.124
  C  C177  1  0.995900  0.220000  0.500900  1.0  -0.0852
  C  C178  1  0.047700  0.222300  0.613300  1.0  0.1749
  C  C179  1  0.085900  0.035800  0.624500  1.0  0.2244
  C  C180  1  0.149800  0.353300  0.494900  1.0  -0.0566
  C  C181  1  0.143200  0.368600  0.384800  1.0  0.1613
  C  C182  1  0.133200  0.175900  0.365100  1.0  0.2605
  C  C183  1  0.157900  0.629800  0.505100  1.0  -0.0597
  C  C184  1  0.168200  0.640900  0.616300  1.0  0.1354
  C  C185  1  0.287000  0.722000  0.641500  1.0  0.2643
  C  C186  1  0.299200  0.160000  0.640000  1.0  -0.0316
  C  C187  1  0.328800  0.294000  0.639400  1.0  -0.0209
  C  C188  1  0.579600  0.448500  0.002200  1.0  -0.071
  C  C189  1  0.567300  0.581000  0.998300  1.0  -0.0647
  C  C190  1  0.486700  0.629800  0.997100  1.0  -0.1021
  C  C191  1  0.665000  0.394700  0.001300  1.0  -0.0859
  C  C192  1  0.703900  0.368200  0.115300  1.0  0.1685
  C  C193  1  0.833500  0.351100  0.128200  1.0  0.2326
  C  C194  1  0.640100  0.665600  0.994100  1.0  -0.0294
  C  C195  1  0.586000  0.670600  0.881400  1.0  0.2258
  C  C196  1  0.472400  0.774100  0.995000  1.0  -0.087
  C  C197  1  0.509900  0.775200  0.109000  1.0  0.1781
  C  C198  1  0.473800  0.958500  0.119900  1.0  0.2657
  C  C199  1  0.002900  0.867400  0.999800  1.0  -0.1089
  C  C200  1  0.927100  0.928800  0.000900  1.0  -0.0608
  C  C201  1  0.923900  0.063100  0.000600  1.0  -0.1242
  C  C202  1  0.004100  0.720000  0.999100  1.0  -0.0845
  C  C203  1  0.952300  0.722300  0.886700  1.0  0.1743
  C  C204  1  0.914100  0.535800  0.875500  1.0  0.2239
  C  C205  1  0.850200  0.853300  0.005100  1.0  -0.0548
  C  C206  1  0.856800  0.868600  0.115200  1.0  0.161
  C  C207  1  0.866800  0.675900  0.134900  1.0  0.2602
  C  C208  1  0.842100  0.129800  0.994900  1.0  -0.0611
  C  C209  1  0.831800  0.140900  0.883700  1.0  0.1368
  C  C210  1  0.713000  0.222000  0.858500  1.0  0.264
  C  C211  1  0.700800  0.660000  0.860000  1.0  -0.031
  C  C212  1  0.671200  0.794000  0.860600  1.0  -0.0208
  S  S213  1  0.711380  0.474450  0.712310  1.0  1.6438
  S  S214  1  0.288620  0.974450  0.787690  1.0  1.6449
  S  S215  1  0.288620  0.525550  0.287690  1.0  1.6447
  S  S216  1  0.711380  0.025550  0.212310  1.0  1.6437
  N  N217  1  0.771700  0.149500  0.657500  1.0  -0.4025
  N  N218  1  0.721400  0.117200  0.562900  1.0  0.0981
  N  N219  1  0.806700  0.128800  0.570400  1.0  -0.3779
  N  N220  1  0.505400  0.646500  0.651300  1.0  -0.4026
  N  N221  1  0.481100  0.674200  0.555400  1.0  0.1343
  N  N222  1  0.458100  0.552900  0.561900  1.0  -0.3775
  N  N223  1  0.918900  0.858200  0.344000  1.0  -0.413
  N  N224  1  0.965500  0.828800  0.439000  1.0  0.1047
  N  N225  1  0.939200  0.950800  0.433100  1.0  -0.3913
  N  N226  1  0.865100  0.708900  0.660900  1.0  -0.4287
  N  N227  1  0.856600  0.693000  0.565900  1.0  0.1631
  N  N228  1  0.861800  0.818200  0.577700  1.0  -0.3752
  N  N229  1  0.777500  0.318300  0.335800  1.0  -0.4011
  N  N230  1  0.804300  0.343100  0.431600  1.0  0.1341
  N  N231  1  0.726400  0.293000  0.415800  1.0  -0.3697
  N  N232  1  0.643000  0.818800  0.431700  1.0  -0.0817
  N  N233  1  0.717900  0.849000  0.418200  1.0  -0.2127
  N  N234  1  0.613500  0.815800  0.335000  1.0  -0.147
  N  N235  1  0.687800  0.708000  0.420000  1.0  -0.2548
  N  N236  1  0.228300  0.649500  0.842500  1.0  -0.4042
  N  N237  1  0.278600  0.617200  0.937100  1.0  0.0977
  N  N238  1  0.193300  0.628800  0.929600  1.0  -0.3788
  N  N239  1  0.494600  0.146500  0.848700  1.0  -0.402
  N  N240  1  0.518900  0.174200  0.944600  1.0  0.1342
  N  N241  1  0.541900  0.052900  0.938100  1.0  -0.3761
  N  N242  1  0.081100  0.358200  0.156000  1.0  -0.4149
  N  N243  1  0.034500  0.328800  0.061000  1.0  0.105
  N  N244  1  0.060800  0.450800  0.066900  1.0  -0.3921
  N  N245  1  0.134900  0.208900  0.839100  1.0  -0.4307
  N  N246  1  0.143400  0.193000  0.934100  1.0  0.1616
  N  N247  1  0.138200  0.318200  0.922300  1.0  -0.375
  N  N248  1  0.222500  0.818300  0.164200  1.0  -0.3967
  N  N249  1  0.195700  0.843100  0.068400  1.0  0.1342
  N  N250  1  0.273600  0.793000  0.084200  1.0  -0.3712
  N  N251  1  0.357000  0.318800  0.068300  1.0  -0.08
  N  N252  1  0.282100  0.349000  0.081800  1.0  -0.2151
  N  N253  1  0.386500  0.315800  0.165000  1.0  -0.1427
  N  N254  1  0.312200  0.208000  0.080000  1.0  -0.2541
  N  N255  1  0.228300  0.850500  0.342500  1.0  -0.4055
  N  N256  1  0.278600  0.882800  0.437100  1.0  0.0982
  N  N257  1  0.193300  0.871200  0.429600  1.0  -0.3784
  N  N258  1  0.494600  0.353500  0.348700  1.0  -0.4022
  N  N259  1  0.518900  0.325800  0.444600  1.0  0.1336
  N  N260  1  0.541900  0.447100  0.438100  1.0  -0.377
  N  N261  1  0.081100  0.141800  0.656000  1.0  -0.4146
  N  N262  1  0.034500  0.171200  0.561000  1.0  0.1052
  N  N263  1  0.060800  0.049200  0.566900  1.0  -0.3931
  N  N264  1  0.134900  0.291100  0.339100  1.0  -0.4298
  N  N265  1  0.143400  0.307000  0.434100  1.0  0.1615
  N  N266  1  0.138200  0.181800  0.422300  1.0  -0.3733
  N  N267  1  0.222500  0.681700  0.664200  1.0  -0.3972
  N  N268  1  0.195700  0.656900  0.568400  1.0  0.1339
  N  N269  1  0.273600  0.707000  0.584200  1.0  -0.3706
  N  N270  1  0.357000  0.181200  0.568300  1.0  -0.0799
  N  N271  1  0.282100  0.151000  0.581800  1.0  -0.2155
  N  N272  1  0.386500  0.184200  0.665000  1.0  -0.1408
  N  N273  1  0.312200  0.292000  0.580000  1.0  -0.2615
  N  N274  1  0.771700  0.350500  0.157500  1.0  -0.4017
  N  N275  1  0.721400  0.382800  0.062900  1.0  0.0979
  N  N276  1  0.806700  0.371200  0.070400  1.0  -0.3775
  N  N277  1  0.505400  0.853500  0.151300  1.0  -0.4024
  N  N278  1  0.481100  0.825800  0.055400  1.0  0.1338
  N  N279  1  0.458100  0.947100  0.061900  1.0  -0.3776
  N  N280  1  0.918900  0.641800  0.844000  1.0  -0.4126
  N  N281  1  0.965500  0.671200  0.939000  1.0  0.105
  N  N282  1  0.939200  0.549200  0.933100  1.0  -0.3923
  N  N283  1  0.865100  0.791100  0.160900  1.0  -0.4283
  N  N284  1  0.856600  0.807000  0.065900  1.0  0.1628
  N  N285  1  0.861800  0.681800  0.077700  1.0  -0.3734
  N  N286  1  0.777500  0.181700  0.835800  1.0  -0.4004
  N  N287  1  0.804300  0.156900  0.931600  1.0  0.134
  N  N288  1  0.726400  0.207000  0.915800  1.0  -0.3692
  N  N289  1  0.643000  0.681200  0.931700  1.0  -0.0818
  N  N290  1  0.717900  0.651000  0.918200  1.0  -0.2088
  N  N291  1  0.613500  0.684200  0.835000  1.0  -0.1476
  N  N292  1  0.687800  0.792000  0.920000  1.0  -0.2629
  O  O293  1  0.704600  0.342200  0.730700  1.0  -0.7484
  O  O294  1  0.657200  0.552800  0.739800  1.0  -0.8307
  O  O295  1  0.801200  0.512600  0.736900  1.0  -0.823
  O  O296  1  0.686600  0.487200  0.648800  1.0  -0.6194
  O  O297  1  0.295400  0.842200  0.769300  1.0  -0.7475
  O  O298  1  0.342800  0.052800  0.760200  1.0  -0.8311
  O  O299  1  0.198800  0.012600  0.763100  1.0  -0.8255
  O  O300  1  0.313400  0.987200  0.851200  1.0  -0.6197
  O  O301  1  0.295400  0.657800  0.269300  1.0  -0.7464
  O  O302  1  0.342800  0.447200  0.260200  1.0  -0.8312
  O  O303  1  0.198800  0.487400  0.263100  1.0  -0.8256
  O  O304  1  0.313400  0.512800  0.351200  1.0  -0.6196
  O  O305  1  0.704600  0.157800  0.230700  1.0  -0.7477
  O  O306  1  0.657200  0.947200  0.239800  1.0  -0.8304
  O  O307  1  0.801200  0.987400  0.236900  1.0  -0.8231
  O  O308  1  0.686600  0.012800  0.148800  1.0  -0.6194
