# generated using pymatgen
data_Cu3H40C50(N4O3)2
_symmetry_space_group_name_H-M   'P 1'
_cell_length_a   11.20730000
_cell_length_b   28.64670000
_cell_length_c   21.99600000
_cell_angle_alpha   90.00000000
_cell_angle_beta   117.76400000
_cell_angle_gamma   90.00000000
_symmetry_Int_Tables_number   1
_chemical_formula_structural   Cu3H40C50(N4O3)2
_chemical_formula_sum   'Cu12 H160 C200 N32 O24'
_cell_volume   6248.85812327
_cell_formula_units_Z   4
loop_
 _symmetry_equiv_pos_site_id
 _symmetry_equiv_pos_as_xyz
  1  'x, y, z'
loop_
 _atom_site_type_symbol
 _atom_site_label
 _atom_site_symmetry_multiplicity
 _atom_site_fract_x
 _atom_site_fract_y
 _atom_site_fract_z
 _atom_site_occupancy
 _atom_site_charge
  Cu  Cu1  1  0.497160  0.251320  0.299100  1.0  0.7021
  Cu  Cu2  1  0.505640  0.367380  0.280220  1.0  0.7093
  Cu  Cu3  1  0.502840  0.751320  0.200900  1.0  0.7016
  Cu  Cu4  1  0.494360  0.867380  0.219780  1.0  0.7102
  Cu  Cu5  1  0.502840  0.748680  0.700900  1.0  0.7023
  Cu  Cu6  1  0.494360  0.632620  0.719780  1.0  0.7098
  Cu  Cu7  1  0.497160  0.248680  0.799100  1.0  0.702
  Cu  Cu8  1  0.505640  0.132620  0.780220  1.0  0.7089
  Cu  Cu9  1  0.000000  0.000000  0.000000  1.0  0.4802
  Cu  Cu10  1  0.000000  0.500000  0.500000  1.0  0.4802
  Cu  Cu11  1  0.000000  0.000000  0.500000  1.0  0.3542
  Cu  Cu12  1  0.000000  0.500000  0.000000  1.0  0.3542
  H  H13  1  0.310400  0.099200  0.025800  1.0  0.1
  H  H14  1  0.396700  0.236000  0.052900  1.0  0.0924
  H  H15  1  0.054100  0.190600  0.042400  1.0  0.1056
  H  H16  1  0.579400  0.154300  0.084100  1.0  0.1284
  H  H17  1  0.527100  0.180400  0.013600  1.0  0.1251
  H  H18  1  0.501100  0.126800  0.015000  1.0  0.1225
  H  H19  1  0.219100  0.331500  0.061900  1.0  0.108
  H  H20  1  0.322700  0.300300  0.050900  1.0  0.1161
  H  H21  1  0.816800  0.980300  0.057000  1.0  0.0904
  H  H22  1  0.813800  0.981200  0.160000  1.0  0.0929
  H  H23  1  0.205900  0.014300  0.253300  1.0  0.1101
  H  H24  1  0.198800  0.015300  0.147100  1.0  0.0607
  H  H25  1  0.814200  0.017900  0.354100  1.0  0.0585
  H  H26  1  0.818200  0.021200  0.250700  1.0  0.1059
  H  H27  1  0.197300  0.971700  0.344800  1.0  0.1123
  H  H28  1  0.181500  0.969700  0.445800  1.0  0.0666
  H  H29  1  0.370300  0.180900  0.185100  1.0  0.0551
  H  H30  1  0.369300  0.100200  0.167800  1.0  0.1023
  H  H31  1  0.599400  0.085900  0.372300  1.0  0.1136
  H  H32  1  0.588600  0.166600  0.382700  1.0  0.0669
  H  H33  1  0.507900  0.933600  0.329500  1.0  0.0612
  H  H34  1  0.502200  0.011900  0.347700  1.0  0.1069
  H  H35  1  0.495600  0.036000  0.167900  1.0  0.0964
  H  H36  1  0.507200  0.956000  0.154500  1.0  0.0922
  H  H37  1  0.200800  0.256100  0.204200  1.0  0.0656
  H  H38  1  0.998800  0.255200  0.204100  1.0  0.1041
  H  H39  1  0.192500  0.239800  0.408600  1.0  0.1064
  H  H40  1  0.393200  0.244400  0.402500  1.0  0.0588
  H  H41  1  0.615800  0.233600  0.204300  1.0  0.0947
  H  H42  1  0.820000  0.232700  0.206000  1.0  0.0936
  H  H43  1  0.001100  0.259700  0.406500  1.0  0.0911
  H  H44  1  0.795400  0.257300  0.404400  1.0  0.0801
  H  H45  1  0.215600  0.386000  0.183100  1.0  0.0665
  H  H46  1  0.007000  0.385400  0.179500  1.0  0.1041
  H  H47  1  0.193800  0.363200  0.383800  1.0  0.092
  H  H48  1  0.396200  0.361900  0.380000  1.0  0.0672
  H  H49  1  0.623500  0.350800  0.185200  1.0  0.0812
  H  H50  1  0.828600  0.352600  0.182800  1.0  0.1116
  H  H51  1  0.004500  0.388800  0.381600  1.0  0.0959
  H  H52  1  0.794600  0.387600  0.377100  1.0  0.0637
  H  H53  1  0.689600  0.599200  0.474200  1.0  0.0996
  H  H54  1  0.603300  0.736000  0.447100  1.0  0.0919
  H  H55  1  0.945900  0.690600  0.457600  1.0  0.105
  H  H56  1  0.420600  0.654300  0.415900  1.0  0.1287
  H  H57  1  0.472900  0.680400  0.486400  1.0  0.1252
  H  H58  1  0.498900  0.626800  0.485000  1.0  0.1221
  H  H59  1  0.780900  0.831500  0.438100  1.0  0.1068
  H  H60  1  0.677300  0.800300  0.449100  1.0  0.1161
  H  H61  1  0.183200  0.480300  0.443000  1.0  0.0902
  H  H62  1  0.186200  0.481200  0.340000  1.0  0.0929
  H  H63  1  0.794100  0.514300  0.246700  1.0  0.1111
  H  H64  1  0.801200  0.515300  0.352900  1.0  0.0604
  H  H65  1  0.185800  0.517900  0.145900  1.0  0.0575
  H  H66  1  0.181800  0.521200  0.249300  1.0  0.1053
  H  H67  1  0.802700  0.471700  0.155200  1.0  0.1117
  H  H68  1  0.818500  0.469700  0.054200  1.0  0.0661
  H  H69  1  0.629700  0.680900  0.314900  1.0  0.0548
  H  H70  1  0.630700  0.600200  0.332200  1.0  0.1023
  H  H71  1  0.400600  0.585900  0.127700  1.0  0.1129
  H  H72  1  0.411400  0.666667  0.117300  1.0  0.0669
  H  H73  1  0.492100  0.433600  0.170500  1.0  0.0614
  H  H74  1  0.497800  0.511900  0.152300  1.0  0.1084
  H  H75  1  0.504400  0.536000  0.332100  1.0  0.0964
  H  H76  1  0.492800  0.456000  0.345500  1.0  0.0921
  H  H77  1  0.799200  0.756100  0.295800  1.0  0.0642
  H  H78  1  0.001200  0.755200  0.295900  1.0  0.1044
  H  H79  1  0.807500  0.739800  0.091400  1.0  0.1065
  H  H80  1  0.606800  0.744400  0.097500  1.0  0.0575
  H  H81  1  0.384200  0.733600  0.295700  1.0  0.095
  H  H82  1  0.180000  0.732700  0.294000  1.0  0.093
  H  H83  1  0.998900  0.759700  0.093500  1.0  0.0911
  H  H84  1  0.204600  0.757300  0.095600  1.0  0.08
  H  H85  1  0.784400  0.886000  0.316900  1.0  0.0651
  H  H86  1  0.993000  0.885400  0.320500  1.0  0.1051
  H  H87  1  0.806200  0.863200  0.116200  1.0  0.0922
  H  H88  1  0.603800  0.861900  0.120000  1.0  0.0663
  H  H89  1  0.376500  0.850800  0.314800  1.0  0.0812
  H  H90  1  0.171400  0.852600  0.317200  1.0  0.1111
  H  H91  1  0.995500  0.888800  0.118400  1.0  0.0954
  H  H92  1  0.205400  0.887600  0.122900  1.0  0.064
  H  H93  1  0.689600  0.900800  0.974200  1.0  0.0996
  H  H94  1  0.603300  0.764000  0.947100  1.0  0.0918
  H  H95  1  0.945900  0.809400  0.957600  1.0  0.1049
  H  H96  1  0.420600  0.845700  0.915900  1.0  0.1288
  H  H97  1  0.472900  0.819600  0.986400  1.0  0.1248
  H  H98  1  0.498900  0.873200  0.985000  1.0  0.121
  H  H99  1  0.780900  0.668500  0.938100  1.0  0.1066
  H  H100  1  0.677300  0.699700  0.949100  1.0  0.1171
  H  H101  1  0.183200  0.019700  0.943000  1.0  0.0903
  H  H102  1  0.186200  0.018800  0.840000  1.0  0.0938
  H  H103  1  0.794100  0.985700  0.746700  1.0  0.111
  H  H104  1  0.801200  0.984700  0.852900  1.0  0.0605
  H  H105  1  0.185800  0.982100  0.645900  1.0  0.0577
  H  H106  1  0.181800  0.978800  0.749300  1.0  0.1054
  H  H107  1  0.802700  0.028300  0.655200  1.0  0.1119
  H  H108  1  0.818500  0.030300  0.554200  1.0  0.0663
  H  H109  1  0.629700  0.819100  0.814900  1.0  0.0555
  H  H110  1  0.630700  0.899800  0.832200  1.0  0.1018
  H  H111  1  0.400600  0.914100  0.627700  1.0  0.1134
  H  H112  1  0.411400  0.833400  0.617300  1.0  0.0671
  H  H113  1  0.492100  0.066400  0.670500  1.0  0.0615
  H  H114  1  0.497800  0.988100  0.652300  1.0  0.1081
  H  H115  1  0.504400  0.964000  0.832100  1.0  0.0963
  H  H116  1  0.492800  0.044000  0.845500  1.0  0.0921
  H  H117  1  0.799200  0.743900  0.795800  1.0  0.0636
  H  H118  1  0.001200  0.744800  0.795900  1.0  0.1041
  H  H119  1  0.807500  0.760200  0.591400  1.0  0.1062
  H  H120  1  0.606800  0.755600  0.597500  1.0  0.0578
  H  H121  1  0.384200  0.766400  0.795700  1.0  0.0946
  H  H122  1  0.180000  0.767300  0.794000  1.0  0.0932
  H  H123  1  0.998900  0.740300  0.593500  1.0  0.0902
  H  H124  1  0.204600  0.742700  0.595600  1.0  0.0799
  H  H125  1  0.784400  0.614000  0.816900  1.0  0.0651
  H  H126  1  0.993000  0.614600  0.820500  1.0  0.1047
  H  H127  1  0.806200  0.636800  0.616200  1.0  0.0922
  H  H128  1  0.603800  0.638100  0.620000  1.0  0.0658
  H  H129  1  0.376500  0.649200  0.814800  1.0  0.0811
  H  H130  1  0.171400  0.647400  0.817200  1.0  0.1111
  H  H131  1  0.995500  0.611200  0.618400  1.0  0.095
  H  H132  1  0.205400  0.612400  0.622900  1.0  0.0639
  H  H133  1  0.310400  0.400800  0.525800  1.0  0.1001
  H  H134  1  0.396700  0.264000  0.552900  1.0  0.0915
  H  H135  1  0.054100  0.309400  0.542400  1.0  0.1057
  H  H136  1  0.579400  0.345700  0.584100  1.0  0.128
  H  H137  1  0.527100  0.319600  0.513600  1.0  0.1243
  H  H138  1  0.501100  0.373200  0.515000  1.0  0.121
  H  H139  1  0.219100  0.168500  0.561900  1.0  0.1073
  H  H140  1  0.322700  0.199700  0.550900  1.0  0.1168
  H  H141  1  0.816800  0.519700  0.557000  1.0  0.0904
  H  H142  1  0.813800  0.518800  0.660000  1.0  0.0936
  H  H143  1  0.205900  0.485700  0.753300  1.0  0.1101
  H  H144  1  0.198800  0.484700  0.647100  1.0  0.0605
  H  H145  1  0.814200  0.482100  0.854100  1.0  0.0589
  H  H146  1  0.818200  0.478800  0.750700  1.0  0.1054
  H  H147  1  0.197300  0.528300  0.844800  1.0  0.1124
  H  H148  1  0.181500  0.530300  0.945800  1.0  0.0663
  H  H149  1  0.370300  0.319100  0.685100  1.0  0.0556
  H  H150  1  0.369300  0.399800  0.667800  1.0  0.1022
  H  H151  1  0.599400  0.414100  0.872300  1.0  0.1136
  H  H152  1  0.588600  0.333400  0.882700  1.0  0.0672
  H  H153  1  0.507900  0.566400  0.829500  1.0  0.0608
  H  H154  1  0.502200  0.488100  0.847700  1.0  0.1068
  H  H155  1  0.495600  0.464000  0.667900  1.0  0.0963
  H  H156  1  0.507200  0.544000  0.654500  1.0  0.0924
  H  H157  1  0.200800  0.243900  0.704200  1.0  0.0655
  H  H158  1  0.998800  0.244800  0.704100  1.0  0.1037
  H  H159  1  0.192500  0.260200  0.908600  1.0  0.1064
  H  H160  1  0.393200  0.255600  0.902500  1.0  0.0591
  H  H161  1  0.615800  0.266400  0.704300  1.0  0.0949
  H  H162  1  0.820000  0.267300  0.706000  1.0  0.0937
  H  H163  1  0.001100  0.240300  0.906500  1.0  0.0901
  H  H164  1  0.795400  0.242700  0.904400  1.0  0.0799
  H  H165  1  0.215600  0.114000  0.683100  1.0  0.0663
  H  H166  1  0.007000  0.114600  0.679500  1.0  0.1043
  H  H167  1  0.193800  0.136800  0.883800  1.0  0.0921
  H  H168  1  0.396200  0.138100  0.880000  1.0  0.0672
  H  H169  1  0.623500  0.149200  0.685200  1.0  0.0812
  H  H170  1  0.828600  0.147400  0.682800  1.0  0.1116
  H  H171  1  0.004500  0.111200  0.881600  1.0  0.096
  H  H172  1  0.794600  0.112400  0.877100  1.0  0.0638
  C  C173  1  0.068700  0.098600  0.025400  1.0  0.6633
  C  C174  1  0.165300  0.139000  0.034100  1.0  -0.1302
  C  C175  1  0.288800  0.129600  0.031800  1.0  -0.0611
  C  C176  1  0.376700  0.166300  0.038500  1.0  0.0709
  C  C177  1  0.338700  0.211400  0.047600  1.0  -0.1433
  C  C178  1  0.223800  0.220500  0.049100  1.0  0.1968
  C  C179  1  0.134900  0.184100  0.041900  1.0  -0.0664
  C  C180  1  0.508000  0.156000  0.037700  1.0  -0.4078
  C  C181  1  0.270100  0.302600  0.075500  1.0  -0.0971
  C  C182  1  0.366600  0.303800  0.153800  1.0  0.6986
  C  C183  1  0.895300  0.987700  0.096600  1.0  0.1392
  C  C184  1  0.893700  0.987800  0.158600  1.0  -0.185
  C  C185  1  0.008100  0.997400  0.218600  1.0  0.0795
  C  C186  1  0.125800  0.007700  0.214000  1.0  -0.1914
  C  C187  1  0.120800  0.008000  0.150100  1.0  0.1455
  C  C188  1  0.892500  0.009400  0.352200  1.0  0.1269
  C  C189  1  0.893700  0.010700  0.289700  1.0  -0.1945
  C  C190  1  0.006100  0.996700  0.285100  1.0  0.0452
  C  C191  1  0.118800  0.981300  0.345600  1.0  -0.1975
  C  C192  1  0.109000  0.981000  0.406200  1.0  0.1314
  C  C193  1  0.417100  0.161500  0.222800  1.0  0.1638
  C  C194  1  0.416600  0.112900  0.211600  1.0  -0.2084
  C  C195  1  0.490400  0.084500  0.269100  1.0  0.0066
  C  C196  1  0.553300  0.104300  0.333400  1.0  -0.1715
  C  C197  1  0.546300  0.153200  0.339200  1.0  0.1406
  C  C198  1  0.505500  0.954300  0.296300  1.0  0.1525
  C  C199  1  0.501000  0.001500  0.307400  1.0  -0.2059
  C  C200  1  0.494900  0.033300  0.259200  1.0  0.032
  C  C201  1  0.497900  0.015800  0.201500  1.0  -0.1643
  C  C202  1  0.504300  0.967400  0.193400  1.0  0.1431
  C  C203  1  0.199600  0.253300  0.246100  1.0  0.163
  C  C204  1  0.077300  0.252300  0.245600  1.0  -0.1936
  C  C205  1  0.069200  0.247100  0.304900  1.0  0.0487
  C  C206  1  0.191800  0.243600  0.366400  1.0  -0.1809
  C  C207  1  0.312500  0.246000  0.361900  1.0  0.1619
  C  C208  1  0.693600  0.238600  0.245500  1.0  0.1076
  C  C209  1  0.815800  0.238100  0.246700  1.0  -0.1152
  C  C210  1  0.933100  0.245500  0.305900  1.0  0.0243
  C  C211  1  0.923900  0.253700  0.365500  1.0  -0.1966
  C  C212  1  0.799900  0.253000  0.363600  1.0  0.1592
  C  C213  1  0.210300  0.380600  0.223500  1.0  0.1484
  C  C214  1  0.084200  0.380600  0.221000  1.0  -0.1834
  C  C215  1  0.074100  0.373500  0.281200  1.0  0.0427
  C  C216  1  0.195100  0.367100  0.342200  1.0  -0.1477
  C  C217  1  0.316800  0.366800  0.339600  1.0  0.1567
  C  C218  1  0.701500  0.358100  0.225200  1.0  0.1523
  C  C219  1  0.824400  0.359700  0.223000  1.0  -0.1745
  C  C220  1  0.940700  0.372200  0.282600  1.0  0.0461
  C  C221  1  0.928700  0.381400  0.340700  1.0  -0.1849
  C  C222  1  0.801700  0.379400  0.338000  1.0  0.1623
  C  C223  1  0.931300  0.598600  0.474600  1.0  0.6621
  C  C224  1  0.834700  0.639000  0.465900  1.0  -0.1318
  C  C225  1  0.711200  0.629600  0.468200  1.0  -0.062
  C  C226  1  0.623300  0.666300  0.461500  1.0  0.0709
  C  C227  1  0.661300  0.711400  0.452400  1.0  -0.1418
  C  C228  1  0.776200  0.720500  0.450900  1.0  0.1967
  C  C229  1  0.865100  0.684100  0.458100  1.0  -0.0696
  C  C230  1  0.492000  0.656000  0.462300  1.0  -0.4068
  C  C231  1  0.729900  0.802600  0.424500  1.0  -0.0976
  C  C232  1  0.633400  0.803800  0.346200  1.0  0.7003
  C  C233  1  0.104700  0.487700  0.403400  1.0  0.1389
  C  C234  1  0.106300  0.487800  0.341400  1.0  -0.1858
  C  C235  1  0.991900  0.497400  0.281400  1.0  0.0788
  C  C236  1  0.874200  0.507700  0.286000  1.0  -0.1917
  C  C237  1  0.879200  0.508000  0.349900  1.0  0.1468
  C  C238  1  0.107500  0.509400  0.147800  1.0  0.1273
  C  C239  1  0.106300  0.510700  0.210300  1.0  -0.1936
  C  C240  1  0.993900  0.496700  0.214900  1.0  0.0439
  C  C241  1  0.881200  0.481300  0.154400  1.0  -0.1971
  C  C242  1  0.891000  0.481000  0.093800  1.0  0.131
  C  C243  1  0.582900  0.661500  0.277200  1.0  0.1631
  C  C244  1  0.583400  0.612900  0.288400  1.0  -0.2079
  C  C245  1  0.509600  0.584500  0.230900  1.0  0.005
  C  C246  1  0.446700  0.604300  0.166600  1.0  -0.1632
  C  C247  1  0.453700  0.653200  0.160800  1.0  0.1404
  C  C248  1  0.494500  0.454300  0.203700  1.0  0.1522
  C  C249  1  0.499000  0.501500  0.192600  1.0  -0.206
  C  C250  1  0.505100  0.533300  0.240800  1.0  0.0322
  C  C251  1  0.502100  0.515800  0.298500  1.0  -0.1647
  C  C252  1  0.495700  0.467400  0.306600  1.0  0.144
  C  C253  1  0.800400  0.753300  0.253900  1.0  0.16
  C  C254  1  0.922700  0.752300  0.254400  1.0  -0.1948
  C  C255  1  0.930800  0.747100  0.195100  1.0  0.0484
  C  C256  1  0.808200  0.743600  0.133600  1.0  -0.1789
  C  C257  1  0.687500  0.746000  0.138100  1.0  0.163
  C  C258  1  0.306400  0.738600  0.254500  1.0  0.108
  C  C259  1  0.184200  0.738100  0.253300  1.0  -0.1154
  C  C260  1  0.066900  0.745500  0.194100  1.0  0.0237
  C  C261  1  0.076100  0.753700  0.134500  1.0  -0.1974
  C  C262  1  0.200100  0.753000  0.136400  1.0  0.1615
  C  C263  1  0.789700  0.880600  0.276500  1.0  0.1487
  C  C264  1  0.915800  0.880600  0.279000  1.0  -0.1841
  C  C265  1  0.925900  0.873500  0.218800  1.0  0.0441
  C  C266  1  0.804900  0.867100  0.157800  1.0  -0.1457
  C  C267  1  0.683200  0.866800  0.160400  1.0  0.154
  C  C268  1  0.298500  0.858100  0.274800  1.0  0.1514
  C  C269  1  0.175600  0.859700  0.277000  1.0  -0.1756
  C  C270  1  0.059300  0.872200  0.217400  1.0  0.0465
  C  C271  1  0.071300  0.881400  0.159300  1.0  -0.1845
  C  C272  1  0.198300  0.879400  0.162000  1.0  0.1615
  C  C273  1  0.931300  0.901400  0.974600  1.0  0.6622
  C  C274  1  0.834700  0.861000  0.965900  1.0  -0.132
  C  C275  1  0.711200  0.870400  0.968200  1.0  -0.0644
  C  C276  1  0.623300  0.833700  0.961500  1.0  0.0705
  C  C277  1  0.661300  0.788600  0.952400  1.0  -0.1418
  C  C278  1  0.776200  0.779500  0.950900  1.0  0.197
  C  C279  1  0.865100  0.815900  0.958100  1.0  -0.0696
  C  C280  1  0.492000  0.844000  0.962300  1.0  -0.4064
  C  C281  1  0.729900  0.697400  0.924500  1.0  -0.0964
  C  C282  1  0.633400  0.696200  0.846200  1.0  0.6997
  C  C283  1  0.104700  0.012300  0.903400  1.0  0.1387
  C  C284  1  0.106300  0.012200  0.841400  1.0  -0.1855
  C  C285  1  0.991900  0.002600  0.781400  1.0  0.0797
  C  C286  1  0.874200  0.992300  0.786000  1.0  -0.1905
  C  C287  1  0.879200  0.992000  0.849900  1.0  0.1468
  C  C288  1  0.107500  0.990600  0.647800  1.0  0.1286
  C  C289  1  0.106300  0.989300  0.710300  1.0  -0.1948
  C  C290  1  0.993900  0.003300  0.714900  1.0  0.0445
  C  C291  1  0.881200  0.018700  0.654400  1.0  -0.1967
  C  C292  1  0.891000  0.019000  0.593800  1.0  0.131
  C  C293  1  0.582900  0.838500  0.777200  1.0  0.1633
  C  C294  1  0.583400  0.887100  0.788400  1.0  -0.2078
  C  C295  1  0.509600  0.915500  0.730900  1.0  0.0074
  C  C296  1  0.446700  0.895700  0.666667  1.0  -0.1726
  C  C297  1  0.453700  0.846800  0.660800  1.0  0.1411
  C  C298  1  0.494500  0.045700  0.703700  1.0  0.1531
  C  C299  1  0.499000  0.998500  0.692600  1.0  -0.2048
  C  C300  1  0.505100  0.966700  0.740800  1.0  0.0316
  C  C301  1  0.502100  0.984200  0.798500  1.0  -0.1641
  C  C302  1  0.495700  0.032600  0.806600  1.0  0.1443
  C  C303  1  0.800400  0.746700  0.753900  1.0  0.1611
  C  C304  1  0.922700  0.747700  0.754400  1.0  -0.1938
  C  C305  1  0.930800  0.752900  0.695100  1.0  0.0463
  C  C306  1  0.808200  0.756400  0.633600  1.0  -0.1819
  C  C307  1  0.687500  0.754000  0.638100  1.0  0.1634
  C  C308  1  0.306400  0.761400  0.754500  1.0  0.1073
  C  C309  1  0.184200  0.761900  0.753300  1.0  -0.1144
  C  C310  1  0.066900  0.754500  0.694100  1.0  0.025
  C  C311  1  0.076100  0.746300  0.634500  1.0  -0.1962
  C  C312  1  0.200100  0.747000  0.636400  1.0  0.1619
  C  C313  1  0.789700  0.619400  0.776500  1.0  0.1486
  C  C314  1  0.915800  0.619400  0.779000  1.0  -0.1838
  C  C315  1  0.925900  0.626500  0.718800  1.0  0.0441
  C  C316  1  0.804900  0.632900  0.657800  1.0  -0.1454
  C  C317  1  0.683200  0.633200  0.660400  1.0  0.1539
  C  C318  1  0.298500  0.641900  0.774800  1.0  0.1512
  C  C319  1  0.175600  0.640300  0.777000  1.0  -0.175
  C  C320  1  0.059300  0.627800  0.717400  1.0  0.0466
  C  C321  1  0.071300  0.618600  0.659300  1.0  -0.1847
  C  C322  1  0.198300  0.620600  0.662000  1.0  0.1622
  C  C323  1  0.068700  0.401400  0.525400  1.0  0.6634
  C  C324  1  0.165300  0.361000  0.534100  1.0  -0.1313
  C  C325  1  0.288800  0.370400  0.531800  1.0  -0.0629
  C  C326  1  0.376700  0.333700  0.538500  1.0  0.0708
  C  C327  1  0.338700  0.288600  0.547600  1.0  -0.1424
  C  C328  1  0.223800  0.279500  0.549100  1.0  0.1969
  C  C329  1  0.134900  0.315900  0.541900  1.0  -0.0664
  C  C330  1  0.508000  0.344000  0.537700  1.0  -0.4083
  C  C331  1  0.270100  0.197400  0.575500  1.0  -0.0972
  C  C332  1  0.366600  0.196200  0.653800  1.0  0.6982
  C  C333  1  0.895300  0.512300  0.596600  1.0  0.1383
  C  C334  1  0.893700  0.512200  0.658600  1.0  -0.1852
  C  C335  1  0.008100  0.502600  0.718600  1.0  0.0802
  C  C336  1  0.125800  0.492300  0.714000  1.0  -0.1903
  C  C337  1  0.120800  0.492000  0.650100  1.0  0.1446
  C  C338  1  0.892500  0.490600  0.852200  1.0  0.1285
  C  C339  1  0.893700  0.489300  0.789700  1.0  -0.1941
  C  C340  1  0.006100  0.503300  0.785100  1.0  0.0459
  C  C341  1  0.118800  0.518700  0.845600  1.0  -0.1968
  C  C342  1  0.109000  0.519000  0.906200  1.0  0.1311
  C  C343  1  0.417100  0.338500  0.722800  1.0  0.1637
  C  C344  1  0.416600  0.387100  0.711600  1.0  -0.2081
  C  C345  1  0.490400  0.415500  0.769100  1.0  0.0059
  C  C346  1  0.553300  0.395700  0.833400  1.0  -0.1708
  C  C347  1  0.546300  0.346800  0.839200  1.0  0.1407
  C  C348  1  0.505500  0.545700  0.796300  1.0  0.1525
  C  C349  1  0.501000  0.498500  0.807400  1.0  -0.2055
  C  C350  1  0.494900  0.466700  0.759200  1.0  0.0315
  C  C351  1  0.497900  0.484200  0.701500  1.0  -0.1641
  C  C352  1  0.504300  0.532600  0.693400  1.0  0.1436
  C  C353  1  0.199600  0.246700  0.746100  1.0  0.1621
  C  C354  1  0.077300  0.247700  0.745600  1.0  -0.1933
  C  C355  1  0.069200  0.252900  0.804900  1.0  0.0464
  C  C356  1  0.191800  0.256400  0.866400  1.0  -0.1793
  C  C357  1  0.312500  0.254000  0.861900  1.0  0.1615
  C  C358  1  0.693600  0.261400  0.745500  1.0  0.108
  C  C359  1  0.815800  0.261900  0.746700  1.0  -0.1156
  C  C360  1  0.933100  0.254500  0.805900  1.0  0.0255
  C  C361  1  0.923900  0.246300  0.865500  1.0  -0.1958
  C  C362  1  0.799900  0.247000  0.863600  1.0  0.1596
  C  C363  1  0.210300  0.119400  0.723500  1.0  0.1488
  C  C364  1  0.084200  0.119400  0.721000  1.0  -0.1831
  C  C365  1  0.074100  0.126500  0.781200  1.0  0.0427
  C  C366  1  0.195100  0.132900  0.842200  1.0  -0.1476
  C  C367  1  0.316800  0.133200  0.839600  1.0  0.1567
  C  C368  1  0.701500  0.141900  0.725200  1.0  0.1519
  C  C369  1  0.824400  0.140300  0.723000  1.0  -0.1753
  C  C370  1  0.940700  0.127800  0.782600  1.0  0.0463
  C  C371  1  0.928700  0.118600  0.840700  1.0  -0.1851
  C  C372  1  0.801700  0.120600  0.838000  1.0  0.1625
  N  N373  1  0.007900  0.998100  0.091800  1.0  -0.3438
  N  N374  1  0.000400  0.996300  0.410100  1.0  -0.298
  N  N375  1  0.481300  0.180900  0.284800  1.0  -0.3263
  N  N376  1  0.506400  0.936900  0.240900  1.0  -0.335
  N  N377  1  0.318800  0.250500  0.303800  1.0  -0.3305
  N  N378  1  0.683800  0.246400  0.304700  1.0  -0.3403
  N  N379  1  0.323900  0.373300  0.281200  1.0  -0.3324
  N  N380  1  0.691700  0.366600  0.283000  1.0  -0.3227
  N  N381  1  0.992100  0.498100  0.408200  1.0  -0.3414
  N  N382  1  0.999600  0.496300  0.089900  1.0  -0.2977
  N  N383  1  0.518700  0.680900  0.215200  1.0  -0.3238
  N  N384  1  0.493600  0.436900  0.259100  1.0  -0.3356
  N  N385  1  0.681200  0.750500  0.196200  1.0  -0.3324
  N  N386  1  0.316200  0.746400  0.195300  1.0  -0.3405
  N  N387  1  0.676100  0.873300  0.218800  1.0  -0.3331
  N  N388  1  0.308300  0.866600  0.217000  1.0  -0.3216
  N  N389  1  0.992100  0.001900  0.908200  1.0  -0.3412
  N  N390  1  0.999600  0.003700  0.589900  1.0  -0.2984
  N  N391  1  0.518700  0.819100  0.715200  1.0  -0.3244
  N  N392  1  0.493600  0.063100  0.759100  1.0  -0.3359
  N  N393  1  0.681200  0.749500  0.696200  1.0  -0.3314
  N  N394  1  0.316200  0.753600  0.695300  1.0  -0.3415
  N  N395  1  0.676100  0.626700  0.718800  1.0  -0.3324
  N  N396  1  0.308300  0.633400  0.717000  1.0  -0.3214
  N  N397  1  0.007900  0.501900  0.591800  1.0  -0.3435
  N  N398  1  0.000400  0.503700  0.910100  1.0  -0.299
  N  N399  1  0.481300  0.319100  0.784800  1.0  -0.3255
  N  N400  1  0.506400  0.563100  0.740900  1.0  -0.3354
  N  N401  1  0.318800  0.249500  0.803800  1.0  -0.3308
  N  N402  1  0.683800  0.253600  0.804700  1.0  -0.3407
  N  N403  1  0.323900  0.126700  0.781200  1.0  -0.3317
  N  N404  1  0.691700  0.133400  0.783000  1.0  -0.3229
  O  O405  1  0.108300  0.058600  0.022900  1.0  -0.5921
  O  O406  1  0.960100  0.109200  0.024600  1.0  -0.61
  O  O407  1  0.177900  0.263700  0.056800  1.0  -0.2804
  O  O408  1  0.393700  0.267380  0.187800  1.0  -0.6036
  O  O409  1  0.410300  0.344570  0.174600  1.0  -0.6249
  O  O410  1  0.540900  0.313040  0.338700  1.0  -0.6578
  O  O411  1  0.891700  0.558600  0.477100  1.0  -0.5928
  O  O412  1  0.039900  0.609200  0.475400  1.0  -0.6095
  O  O413  1  0.822100  0.763700  0.443200  1.0  -0.2814
  O  O414  1  0.606300  0.767380  0.312200  1.0  -0.6042
  O  O415  1  0.589700  0.844570  0.325400  1.0  -0.6255
  O  O416  1  0.459100  0.813040  0.161300  1.0  -0.6575
  O  O417  1  0.891700  0.941400  0.977100  1.0  -0.5923
  O  O418  1  0.039900  0.890800  0.975400  1.0  -0.6103
  O  O419  1  0.822100  0.736300  0.943200  1.0  -0.2815
  O  O420  1  0.606300  0.732620  0.812200  1.0  -0.6038
  O  O421  1  0.589700  0.655430  0.825400  1.0  -0.6261
  O  O422  1  0.459100  0.686960  0.661300  1.0  -0.6577
  O  O423  1  0.108300  0.441400  0.522900  1.0  -0.5918
  O  O424  1  0.960100  0.390800  0.524600  1.0  -0.6098
  O  O425  1  0.177900  0.236300  0.556800  1.0  -0.2822
  O  O426  1  0.393700  0.232620  0.687800  1.0  -0.603
  O  O427  1  0.410300  0.155430  0.674600  1.0  -0.6255
  O  O428  1  0.540900  0.186960  0.838700  1.0  -0.6578
