# generated using pymatgen
data_ZnH4C8(N2O)2
_symmetry_space_group_name_H-M   'P 1'
_cell_length_a   7.93320000
_cell_length_b   9.90100000
_cell_length_c   17.21630000
_cell_angle_alpha   104.07000000
_cell_angle_beta   90.00000000
_cell_angle_gamma   113.61700000
_symmetry_Int_Tables_number   1
_chemical_formula_structural   ZnH4C8(N2O)2
_chemical_formula_sum   'Zn4 H16 C32 N16 O8'
_cell_volume   1194.61074628
_cell_formula_units_Z   4
loop_
 _symmetry_equiv_pos_site_id
 _symmetry_equiv_pos_as_xyz
  1  'x, y, z'
loop_
 _atom_site_type_symbol
 _atom_site_label
 _atom_site_symmetry_multiplicity
 _atom_site_fract_x
 _atom_site_fract_y
 _atom_site_fract_z
 _atom_site_occupancy
 _atom_site_charge
  Zn  Zn1  1  0.186850  0.832680  0.755720  1.0  0.9911
  Zn  Zn2  1  0.333710  0.500920  0.756600  1.0  0.911
  Zn  Zn3  1  0.354170  0.167320  0.244280  1.0  0.9916
  Zn  Zn4  1  0.832790  0.499080  0.243400  1.0  0.9105
  H  H5  1  0.876700  0.786200  0.606300  1.0  0.1032
  H  H6  1  0.824900  0.685000  0.467400  1.0  0.1084
  H  H7  1  0.477900  0.282200  0.495000  1.0  0.1049
  H  H8  1  0.542500  0.372800  0.633500  1.0  0.114
  H  H9  1  0.146500  0.066600  0.897200  1.0  0.1102
  H  H10  1  0.246400  0.144800  0.032500  1.0  0.0905
  H  H11  1  0.687800  0.496400  0.998200  1.0  0.1173
  H  H12  1  0.582400  0.422000  0.863900  1.0  0.1031
  H  H13  1  0.090500  0.213800  0.393700  1.0  0.1039
  H  H14  1  0.139900  0.315000  0.532600  1.0  0.1086
  H  H15  1  0.195700  0.717800  0.505000  1.0  0.1054
  H  H16  1  0.169700  0.627200  0.366500  1.0  0.1123
  H  H17  1  0.079900  0.933400  0.102800  1.0  0.1112
  H  H18  1  0.101600  0.855200  0.967500  1.0  0.0904
  H  H19  1  0.191400  0.503600  0.001800  1.0  0.1175
  H  H20  1  0.160400  0.578000  0.136100  1.0  0.1027
  C  C21  1  0.741000  0.659200  0.721600  1.0  0.3557
  C  C22  1  0.714500  0.592200  0.634500  1.0  -0.0576
  C  C23  1  0.798800  0.683800  0.584400  1.0  -0.0867
  C  C24  1  0.767600  0.623200  0.501100  1.0  -0.016
  C  C25  1  0.652100  0.472000  0.468800  1.0  -0.139
  C  C26  1  0.562900  0.382200  0.517800  1.0  -0.0171
  C  C27  1  0.596600  0.437200  0.600600  1.0  -0.1061
  C  C28  1  0.607200  0.406400  0.376600  1.0  0.7172
  C  C29  1  0.283700  0.187400  0.779400  1.0  0.3634
  C  C30  1  0.353100  0.242200  0.867300  1.0  -0.0693
  C  C31  1  0.254000  0.154600  0.917700  1.0  -0.1097
  C  C32  1  0.317000  0.199600  0.998300  1.0  -0.0109
  C  C33  1  0.477400  0.320200  0.028900  1.0  -0.1575
  C  C34  1  0.579100  0.409600  0.977800  1.0  -0.0615
  C  C35  1  0.514300  0.365800  0.898000  1.0  -0.0437
  C  C36  1  0.554100  0.361800  0.116900  1.0  0.7402
  C  C37  1  0.081800  0.340800  0.278400  1.0  0.3549
  C  C38  1  0.122300  0.407800  0.365500  1.0  -0.057
  C  C39  1  0.115000  0.316200  0.415600  1.0  -0.0851
  C  C40  1  0.144400  0.376800  0.498900  1.0  -0.0177
  C  C41  1  0.180100  0.528000  0.531200  1.0  -0.1409
  C  C42  1  0.180700  0.617800  0.482200  1.0  -0.018
  C  C43  1  0.159400  0.562800  0.399400  1.0  -0.106
  C  C44  1  0.200800  0.593600  0.623400  1.0  0.7167
  C  C45  1  0.096300  0.812600  0.220600  1.0  0.3627
  C  C46  1  0.110900  0.757800  0.132700  1.0  -0.0694
  C  C47  1  0.099400  0.845400  0.082300  1.0  -0.1087
  C  C48  1  0.117400  0.800400  0.001700  1.0  -0.0125
  C  C49  1  0.157200  0.679800  0.971100  1.0  -0.158
  C  C50  1  0.169500  0.590400  0.022200  1.0  -0.0619
  C  C51  1  0.148500  0.634200  0.102000  1.0  -0.0435
  C  C52  1  0.192300  0.638200  0.883100  1.0  0.74
  N  N53  1  0.604600  0.634400  0.769400  1.0  -0.3123
  N  N54  1  0.681100  0.724000  0.844300  1.0  -0.0923
  N  N55  1  0.857500  0.800000  0.842200  1.0  -0.0745
  N  N56  1  0.897500  0.759600  0.765100  1.0  -0.3128
  N  N57  1  0.282900  0.277400  0.734400  1.0  -0.31
  N  N58  1  0.199400  0.179400  0.660400  1.0  -0.0941
  N  N59  1  0.152900  0.040600  0.662100  1.0  -0.0557
  N  N60  1  0.208600  0.040000  0.738400  1.0  -0.3607
  N  N61  1  0.970200  0.365600  0.230600  1.0  -0.3109
  N  N62  1  0.957100  0.276000  0.155700  1.0  -0.0893
  N  N63  1  0.057500  0.200000  0.157800  1.0  -0.0727
  N  N64  1  0.137900  0.240400  0.234900  1.0  -0.3126
  N  N65  1  0.005500  0.722600  0.265600  1.0  -0.3104
  N  N66  1  0.020000  0.820600  0.339600  1.0  -0.0958
  N  N67  1  0.112300  0.959400  0.337900  1.0  -0.0574
  N  N68  1  0.168600  0.960000  0.261600  1.0  -0.3609
  O  O69  1  0.490700  0.280800  0.351600  1.0  -0.5726
  O  O70  1  0.700800  0.497200  0.336200  1.0  -0.6387
  O  O71  1  0.464500  0.272200  0.154700  1.0  -0.6597
  O  O72  1  0.702300  0.469200  0.141100  1.0  -0.5683
  O  O73  1  0.209900  0.719200  0.648400  1.0  -0.575
  O  O74  1  0.203600  0.502800  0.663800  1.0  -0.641
  O  O75  1  0.192300  0.727800  0.845300  1.0  -0.6596
  O  O76  1  0.233100  0.530800  0.858900  1.0  -0.5677
