# generated using pymatgen
data_Eu2H30C45(SO8)3
_symmetry_space_group_name_H-M   'P 1'
_cell_length_a   9.27060000
_cell_length_b   15.66300000
_cell_length_c   22.31000000
_cell_angle_alpha   102.25000000
_cell_angle_beta   101.47000000
_cell_angle_gamma   104.51000000
_symmetry_Int_Tables_number   1
_chemical_formula_structural   Eu2H30C45(SO8)3
_chemical_formula_sum   'Eu4 H60 C90 S6 O48'
_cell_volume   2954.05592187
_cell_formula_units_Z   2
loop_
 _symmetry_equiv_pos_site_id
 _symmetry_equiv_pos_as_xyz
  1  'x, y, z'
loop_
 _atom_site_type_symbol
 _atom_site_label
 _atom_site_symmetry_multiplicity
 _atom_site_fract_x
 _atom_site_fract_y
 _atom_site_fract_z
 _atom_site_occupancy
 _atom_site_charge
  Eu  Eu1  1  0.514380  0.860340  0.802130  1.0  2.1697
  Eu  Eu2  1  0.029510  0.912010  0.856580  1.0  2.1549
  Eu  Eu3  1  0.485620  0.139660  0.197870  1.0  2.1674
  Eu  Eu4  1  0.970490  0.087990  0.143420  1.0  2.1534
  H  H5  1  0.868900  0.835000  0.665100  1.0  0.1012
  H  H6  1  0.746900  0.834900  0.566800  1.0  0.1154
  H  H7  1  0.281000  0.914600  0.626800  1.0  0.1163
  H  H8  1  0.668200  0.786300  0.451400  1.0  0.1138
  H  H9  1  0.668100  0.886400  0.481000  1.0  0.1184
  H  H10  1  0.681500  0.857300  0.411100  1.0  0.1094
  H  H11  1  0.984000  0.849500  0.370300  1.0  0.1048
  H  H12  1  0.971000  0.904700  0.281400  1.0  0.0897
  H  H13  1  0.430000  0.012600  0.332300  1.0  0.1059
  H  H14  1  0.442100  0.952700  0.419900  1.0  0.1013
  H  H15  1  0.004400  0.662100  0.908500  1.0  0.0998
  H  H16  1  0.942200  0.518900  0.925900  1.0  0.1124
  H  H17  1  0.273300  0.463800  0.847000  1.0  0.1065
  H  H18  1  0.338400  0.609700  0.832500  1.0  0.1031
  H  H19  1  0.126900  0.266600  0.021500  1.0  0.1049
  H  H20  1  0.509400  0.192000  0.031100  1.0  0.1035
  H  H21  1  0.594200  0.293500  0.974800  1.0  0.1152
  H  H22  1  0.682400  0.445200  0.963700  1.0  0.0922
  H  H23  1  0.614000  0.368300  0.898900  1.0  0.0998
  H  H24  1  0.619500  0.469700  0.901000  1.0  0.1167
  H  H25  1  0.591200  0.562600  0.801700  1.0  0.1154
  H  H26  1  0.992000  0.563800  0.706700  1.0  0.1113
  H  H27  1  0.923300  0.694200  0.733100  1.0  0.0997
  H  H28  1  0.933800  0.364400  0.648200  1.0  0.1158
  H  H29  1  0.047700  0.455200  0.697000  1.0  0.1125
  H  H30  1  0.041100  0.360400  0.710700  1.0  0.1293
  H  H31  1  0.259300  0.271600  0.790700  1.0  0.1194
  H  H32  1  0.232300  0.156900  0.841900  1.0  0.098
  H  H33  1  0.588900  0.093700  0.790400  1.0  0.0927
  H  H34  1  0.623000  0.209800  0.739900  1.0  0.1204
  H  H35  1  0.131100  0.165000  0.334900  1.0  0.1021
  H  H36  1  0.253100  0.165100  0.433200  1.0  0.1158
  H  H37  1  0.719000  0.085400  0.373200  1.0  0.1151
  H  H38  1  0.331800  0.213700  0.548600  1.0  0.1137
  H  H39  1  0.331900  0.113600  0.519000  1.0  0.1189
  H  H40  1  0.318500  0.142700  0.588900  1.0  0.1093
  H  H41  1  0.016000  0.150500  0.629700  1.0  0.1046
  H  H42  1  0.029000  0.095300  0.718600  1.0  0.0903
  H  H43  1  0.570000  0.987400  0.667700  1.0  0.1058
  H  H44  1  0.557900  0.047300  0.580100  1.0  0.1016
  H  H45  1  0.995600  0.337900  0.091500  1.0  0.1
  H  H46  1  0.057800  0.481100  0.074100  1.0  0.1127
  H  H47  1  0.726700  0.536200  0.153000  1.0  0.1066
  H  H48  1  0.661600  0.390300  0.167500  1.0  0.1034
  H  H49  1  0.873100  0.733400  0.978500  1.0  0.1042
  H  H50  1  0.490600  0.808000  0.968900  1.0  0.1039
  H  H51  1  0.405800  0.706500  0.025200  1.0  0.1147
  H  H52  1  0.317600  0.554800  0.036300  1.0  0.0929
  H  H53  1  0.386000  0.631700  0.101100  1.0  0.1007
  H  H54  1  0.380500  0.530300  0.099000  1.0  0.1181
  H  H55  1  0.408800  0.437400  0.198300  1.0  0.116
  H  H56  1  0.008000  0.436200  0.293300  1.0  0.1131
  H  H57  1  0.076700  0.305800  0.266900  1.0  0.0997
  H  H58  1  0.066200  0.635600  0.351800  1.0  0.1163
  H  H59  1  0.952300  0.544800  0.303000  1.0  0.1136
  H  H60  1  0.958900  0.639600  0.289300  1.0  0.13
  H  H61  1  0.740700  0.728400  0.209300  1.0  0.1192
  H  H62  1  0.767700  0.843100  0.158100  1.0  0.0978
  H  H63  1  0.411100  0.906300  0.209600  1.0  0.093
  H  H64  1  0.377000  0.790200  0.260100  1.0  0.1206
  C  C65  1  0.169700  0.876400  0.722900  1.0  0.7386
  C  C66  1  0.090400  0.876300  0.658500  1.0  -0.1247
  C  C67  1  0.927200  0.851500  0.637600  1.0  -0.0505
  C  C68  1  0.854300  0.851000  0.578800  1.0  -0.2181
  C  C69  1  0.936000  0.874100  0.536100  1.0  0.2767
  C  C70  1  0.093500  0.898000  0.555900  1.0  0.1348
  C  C71  1  0.173700  0.899000  0.615600  1.0  -0.0893
  C  C72  1  0.709400  0.849700  0.453000  1.0  -0.0186
  C  C73  1  0.214800  0.892800  0.401200  1.0  -0.1198
  C  C74  1  0.074000  0.880500  0.362000  1.0  -0.0878
  C  C75  1  0.066500  0.915100  0.309300  1.0  0.0024
  C  C76  1  0.199300  0.964600  0.298000  1.0  -0.1404
  C  C77  1  0.339800  0.978900  0.339100  1.0  -0.0182
  C  C78  1  0.347100  0.942700  0.391600  1.0  -0.0491
  C  C79  1  0.190000  0.005000  0.241900  1.0  0.7394
  C  C80  1  0.206500  0.742200  0.854700  1.0  0.7417
  C  C81  1  0.174400  0.648900  0.867700  1.0  -0.1263
  C  C82  1  0.058600  0.621900  0.896200  1.0  -0.0126
  C  C83  1  0.021300  0.536800  0.907000  1.0  -0.0396
  C  C84  1  0.104100  0.478600  0.889000  1.0  -0.2266
  C  C85  1  0.220400  0.504400  0.860000  1.0  -0.0264
  C  C86  1  0.257700  0.591000  0.850400  1.0  0.0127
  C  C87  1  0.271700  0.332800  0.980600  1.0  0.2588
  C  C88  1  0.222000  0.272200  0.012500  1.0  -0.1064
  C  C89  1  0.308600  0.217800  0.032200  1.0  -0.1782
  C  C90  1  0.448500  0.227200  0.018100  1.0  -0.0357
  C  C91  1  0.500000  0.288700  0.984500  1.0  -0.2115
  C  C92  1  0.412100  0.343300  0.965300  1.0  0.2741
  C  C93  1  0.251400  0.154400  0.069600  1.0  0.7718
  C  C94  1  0.605100  0.423900  0.923600  1.0  -0.0087
  C  C95  1  0.701000  0.727100  0.788300  1.0  0.694
  C  C96  1  0.750700  0.643100  0.770800  1.0  -0.1694
  C  C97  1  0.671800  0.563300  0.782600  1.0  -0.1406
  C  C98  1  0.713400  0.485800  0.765900  1.0  0.1983
  C  C99  1  0.832400  0.483600  0.737300  1.0  0.2196
  C  C100  1  0.911100  0.563400  0.725600  1.0  -0.2175
  C  C101  1  0.870400  0.641300  0.741700  1.0  -0.0091
  C  C102  1  0.981300  0.395000  0.692500  1.0  -0.0735
  C  C103  1  0.447000  0.252100  0.762500  1.0  -0.2269
  C  C104  1  0.326600  0.236400  0.791500  1.0  -0.0732
  C  C105  1  0.310100  0.167400  0.821200  1.0  0.0043
  C  C106  1  0.407600  0.113300  0.820800  1.0  -0.1521
  C  C107  1  0.523400  0.130000  0.790600  1.0  -0.0051
  C  C108  1  0.545200  0.199400  0.760600  1.0  -0.0986
  C  C109  1  0.388900  0.038300  0.853800  1.0  0.7412
  C  C110  1  0.830300  0.123600  0.277100  1.0  0.7388
  C  C111  1  0.909600  0.123700  0.341500  1.0  -0.1262
  C  C112  1  0.072800  0.148500  0.362400  1.0  -0.0518
  C  C113  1  0.145700  0.149000  0.421200  1.0  -0.2176
  C  C114  1  0.064000  0.125900  0.463900  1.0  0.2758
  C  C115  1  0.906500  0.102000  0.444100  1.0  0.1371
  C  C116  1  0.826300  0.101000  0.384400  1.0  -0.0914
  C  C117  1  0.290600  0.150300  0.547000  1.0  -0.019
  C  C118  1  0.785200  0.107200  0.598800  1.0  -0.1221
  C  C119  1  0.926000  0.119500  0.638000  1.0  -0.0885
  C  C120  1  0.933500  0.084900  0.690700  1.0  0.0017
  C  C121  1  0.800700  0.035400  0.702000  1.0  -0.1392
  C  C122  1  0.660200  0.021100  0.660900  1.0  -0.0175
  C  C123  1  0.652900  0.057300  0.608400  1.0  -0.0462
  C  C124  1  0.810000  0.995000  0.758100  1.0  0.738
  C  C125  1  0.793500  0.257800  0.145300  1.0  0.7389
  C  C126  1  0.825600  0.351100  0.132300  1.0  -0.125
  C  C127  1  0.941400  0.378100  0.103800  1.0  -0.0134
  C  C128  1  0.978700  0.463200  0.093000  1.0  -0.0402
  C  C129  1  0.895900  0.521400  0.111000  1.0  -0.2262
  C  C130  1  0.779600  0.495600  0.140000  1.0  -0.0251
  C  C131  1  0.742300  0.409000  0.149600  1.0  0.0138
  C  C132  1  0.728300  0.667200  0.019400  1.0  0.26
  C  C133  1  0.778000  0.727800  0.987500  1.0  -0.1073
  C  C134  1  0.691400  0.782200  0.967800  1.0  -0.1763
  C  C135  1  0.551500  0.772800  0.981900  1.0  -0.0342
  C  C136  1  0.500000  0.711300  0.015500  1.0  -0.2134
  C  C137  1  0.587900  0.656700  0.034700  1.0  0.2753
  C  C138  1  0.748600  0.845600  0.930400  1.0  0.7703
  C  C139  1  0.394900  0.576100  0.076400  1.0  -0.0078
  C  C140  1  0.299000  0.272900  0.211700  1.0  0.6942
  C  C141  1  0.249300  0.356900  0.229200  1.0  -0.1672
  C  C142  1  0.328200  0.436700  0.217400  1.0  -0.1423
  C  C143  1  0.286600  0.514200  0.234100  1.0  0.1992
  C  C144  1  0.167600  0.516400  0.262700  1.0  0.2197
  C  C145  1  0.088900  0.436600  0.274400  1.0  -0.2174
  C  C146  1  0.129600  0.358700  0.258300  1.0  -0.0098
  C  C147  1  0.018700  0.605000  0.307500  1.0  -0.0722
  C  C148  1  0.553000  0.747900  0.237500  1.0  -0.2233
  C  C149  1  0.673400  0.763600  0.208500  1.0  -0.0773
  C  C150  1  0.689900  0.832600  0.178800  1.0  0.0037
  C  C151  1  0.592400  0.886700  0.179200  1.0  -0.1537
  C  C152  1  0.476600  0.870000  0.209400  1.0  -0.0027
  C  C153  1  0.454800  0.800600  0.239400  1.0  -0.0969
  C  C154  1  0.611100  0.961700  0.146200  1.0  0.7397
  S  S155  1  0.225900  0.848840  0.467510  1.0  1.2477
  S  S156  1  0.060000  0.369350  0.902570  1.0  1.2585
  S  S157  1  0.474600  0.344140  0.728370  1.0  1.2201
  S  S158  1  0.774100  0.151160  0.532490  1.0  1.2494
  S  S159  1  0.940000  0.630650  0.097430  1.0  1.259
  S  S160  1  0.525400  0.655860  0.271630  1.0  1.2196
  O  O161  1  0.089500  0.861000  0.761400  1.0  -0.7049
  O  O162  1  0.312100  0.889500  0.735500  1.0  -0.7326
  O  O163  1  0.876100  0.878300  0.476400  1.0  -0.2404
  O  O164  1  0.182400  0.925300  0.513900  1.0  -0.3926
  O  O165  1  0.109300  0.763700  0.452500  1.0  -0.5578
  O  O166  1  0.383400  0.856500  0.494700  1.0  -0.5632
  O  O167  1  0.059800  0.001000  0.210700  1.0  -0.6885
  O  O168  1  0.315700  0.036500  0.229300  1.0  -0.75
  O  O169  1  0.129900  0.792500  0.873200  1.0  -0.7512
  O  O170  1  0.308300  0.762800  0.825100  1.0  -0.7408
  O  O171  1  0.913300  0.348600  0.917100  1.0  -0.5961
  O  O172  1  0.086400  0.303600  0.855700  1.0  -0.5592
  O  O173  1  0.191600  0.394800  0.968300  1.0  -0.3773
  O  O174  1  0.496900  0.001600  0.862300  1.0  -0.7224
  O  O175  1  0.270000  0.017600  0.872200  1.0  -0.7532
  O  O176  1  0.120600  0.146000  0.075900  1.0  -0.7113
  O  O177  1  0.341100  0.114700  0.094200  1.0  -0.7094
  O  O178  1  0.364100  0.391200  0.736300  1.0  -0.5779
  O  O179  1  0.635400  0.405200  0.778800  1.0  -0.4031
  O  O180  1  0.571900  0.716900  0.801200  1.0  -0.6388
  O  O181  1  0.454200  0.406600  0.934700  1.0  -0.2497
  O  O182  1  0.785800  0.805200  0.789600  1.0  -0.8027
  O  O183  1  0.863600  0.402700  0.724800  1.0  -0.2631
  O  O184  1  0.500900  0.319500  0.668100  1.0  -0.5708
  O  O185  1  0.910500  0.139000  0.238600  1.0  -0.7035
  O  O186  1  0.687900  0.110500  0.264500  1.0  -0.7336
  O  O187  1  0.123900  0.121700  0.523600  1.0  -0.2406
  O  O188  1  0.817600  0.074700  0.486100  1.0  -0.3936
  O  O189  1  0.890700  0.236300  0.547500  1.0  -0.5599
  O  O190  1  0.616600  0.143500  0.505300  1.0  -0.5632
  O  O191  1  0.940200  0.999000  0.789300  1.0  -0.6885
  O  O192  1  0.684300  0.963500  0.770700  1.0  -0.7497
  O  O193  1  0.870100  0.207500  0.126800  1.0  -0.7481
  O  O194  1  0.691700  0.237200  0.174900  1.0  -0.7433
  O  O195  1  0.086700  0.651400  0.082900  1.0  -0.5971
  O  O196  1  0.913600  0.696400  0.144300  1.0  -0.5603
  O  O197  1  0.808400  0.605200  0.031700  1.0  -0.3772
  O  O198  1  0.503100  0.998400  0.137700  1.0  -0.7198
  O  O199  1  0.730000  0.982400  0.127800  1.0  -0.7547
  O  O200  1  0.879400  0.854000  0.924100  1.0  -0.7089
  O  O201  1  0.658900  0.885300  0.905800  1.0  -0.7084
  O  O202  1  0.635900  0.608800  0.263700  1.0  -0.5752
  O  O203  1  0.364600  0.594800  0.221200  1.0  -0.4066
  O  O204  1  0.428100  0.283100  0.198800  1.0  -0.6373
  O  O205  1  0.545800  0.593400  0.065300  1.0  -0.2483
  O  O206  1  0.214200  0.194800  0.210400  1.0  -0.8028
  O  O207  1  0.136400  0.597300  0.275200  1.0  -0.2591
  O  O208  1  0.499100  0.680500  0.331900  1.0  -0.5703
