# generated using pymatgen
data_Tb2H30C45(SO8)3
_symmetry_space_group_name_H-M   'P 1'
_cell_length_a   9.25740000
_cell_length_b   15.60100000
_cell_length_c   22.27400000
_cell_angle_alpha   102.19000000
_cell_angle_beta   101.58000000
_cell_angle_gamma   104.32000000
_symmetry_Int_Tables_number   1
_chemical_formula_structural   Tb2H30C45(SO8)3
_chemical_formula_sum   'Tb4 H60 C90 S6 O48'
_cell_volume   2935.99891293
_cell_formula_units_Z   2
loop_
 _symmetry_equiv_pos_site_id
 _symmetry_equiv_pos_as_xyz
  1  'x, y, z'
loop_
 _atom_site_type_symbol
 _atom_site_label
 _atom_site_symmetry_multiplicity
 _atom_site_fract_x
 _atom_site_fract_y
 _atom_site_fract_z
 _atom_site_occupancy
 _atom_site_charge
  Tb  Tb1  1  0.515250  0.860580  0.802170  1.0  2.2959
  Tb  Tb2  1  0.031810  0.911890  0.855820  1.0  2.2783
  Tb  Tb3  1  0.484750  0.139420  0.197830  1.0  2.2928
  Tb  Tb4  1  0.968190  0.088110  0.144180  1.0  2.2755
  H  H5  1  0.874000  0.833100  0.666667  1.0  0.105
  H  H6  1  0.746900  0.834100  0.567900  1.0  0.1149
  H  H7  1  0.281000  0.917800  0.628000  1.0  0.1107
  H  H8  1  0.671400  0.783200  0.450900  1.0  0.1036
  H  H9  1  0.665900  0.882500  0.480300  1.0  0.1114
  H  H10  1  0.681000  0.854500  0.410600  1.0  0.1033
  H  H11  1  0.984500  0.848900  0.369700  1.0  0.104
  H  H12  1  0.969400  0.908100  0.281300  1.0  0.0894
  H  H13  1  0.429700  0.011700  0.331600  1.0  0.0987
  H  H14  1  0.445800  0.957400  0.418800  1.0  0.1159
  H  H15  1  0.004900  0.664500  0.907300  1.0  0.1033
  H  H16  1  0.947300  0.523100  0.927300  1.0  0.1103
  H  H17  1  0.280300  0.465600  0.850700  1.0  0.1103
  H  H18  1  0.340700  0.609600  0.832900  1.0  0.106
  H  H19  1  0.121800  0.264900  0.022000  1.0  0.1144
  H  H20  1  0.501700  0.187300  0.030500  1.0  0.0947
  H  H21  1  0.588500  0.285500  0.974300  1.0  0.1095
  H  H22  1  0.684300  0.453300  0.963100  1.0  0.1113
  H  H23  1  0.621400  0.362700  0.906900  1.0  0.1082
  H  H24  1  0.613100  0.456500  0.893800  1.0  0.126
  H  H25  1  0.594200  0.563100  0.801100  1.0  0.109
  H  H26  1  0.993400  0.561200  0.706700  1.0  0.1127
  H  H27  1  0.930000  0.694000  0.733500  1.0  0.1093
  H  H28  1  0.949400  0.392200  0.651200  1.0  0.1031
  H  H29  1  0.077000  0.440800  0.715800  1.0  0.0955
  H  H30  1  0.003300  0.333700  0.695300  1.0  0.1155
  H  H31  1  0.262200  0.272900  0.792800  1.0  0.1076
  H  H32  1  0.228800  0.154400  0.840100  1.0  0.0969
  H  H33  1  0.590700  0.093400  0.791700  1.0  0.0939
  H  H34  1  0.625200  0.211300  0.742600  1.0  0.1165
  H  H35  1  0.126000  0.166900  0.333333  1.0  0.105
  H  H36  1  0.253100  0.165900  0.432100  1.0  0.1156
  H  H37  1  0.719000  0.082200  0.372000  1.0  0.1102
  H  H38  1  0.328600  0.216800  0.549100  1.0  0.1041
  H  H39  1  0.334100  0.117500  0.519700  1.0  0.1111
  H  H40  1  0.319000  0.145500  0.589400  1.0  0.1029
  H  H41  1  0.015500  0.151100  0.630300  1.0  0.1037
  H  H42  1  0.030600  0.091900  0.718700  1.0  0.0899
  H  H43  1  0.570300  0.988300  0.668400  1.0  0.0988
  H  H44  1  0.554200  0.042600  0.581200  1.0  0.116
  H  H45  1  0.995100  0.335500  0.092700  1.0  0.1031
  H  H46  1  0.052700  0.476900  0.072700  1.0  0.1104
  H  H47  1  0.719700  0.534400  0.149300  1.0  0.1103
  H  H48  1  0.659300  0.390400  0.167100  1.0  0.1065
  H  H49  1  0.878200  0.735100  0.978000  1.0  0.1145
  H  H50  1  0.498300  0.812700  0.969500  1.0  0.0951
  H  H51  1  0.411500  0.714500  0.025700  1.0  0.1095
  H  H52  1  0.315700  0.546700  0.036900  1.0  0.1113
  H  H53  1  0.378600  0.637300  0.093100  1.0  0.108
  H  H54  1  0.386900  0.543500  0.106200  1.0  0.1261
  H  H55  1  0.405800  0.436900  0.198900  1.0  0.1091
  H  H56  1  0.006600  0.438800  0.293300  1.0  0.1125
  H  H57  1  0.070000  0.306000  0.266500  1.0  0.1101
  H  H58  1  0.050600  0.607800  0.348800  1.0  0.1037
  H  H59  1  0.923000  0.559200  0.284200  1.0  0.0936
  H  H60  1  0.996700  0.666300  0.304700  1.0  0.1153
  H  H61  1  0.737800  0.727100  0.207200  1.0  0.1073
  H  H62  1  0.771200  0.845600  0.159900  1.0  0.0967
  H  H63  1  0.409300  0.906600  0.208300  1.0  0.0937
  H  H64  1  0.374800  0.788700  0.257400  1.0  0.117
  C  C65  1  0.174000  0.877000  0.723200  1.0  0.7127
  C  C66  1  0.091200  0.876000  0.657600  1.0  -0.1657
  C  C67  1  0.930300  0.850400  0.638700  1.0  -0.0374
  C  C68  1  0.854400  0.850500  0.579500  1.0  -0.2138
  C  C69  1  0.935400  0.874700  0.536300  1.0  0.2517
  C  C70  1  0.096000  0.897800  0.556000  1.0  0.1843
  C  C71  1  0.173400  0.900100  0.615800  1.0  -0.0946
  C  C72  1  0.709700  0.847000  0.452600  1.0  -0.0076
  C  C73  1  0.217600  0.895400  0.401500  1.0  -0.1964
  C  C74  1  0.073900  0.881400  0.361600  1.0  -0.0588
  C  C75  1  0.065200  0.917000  0.308600  1.0  0.0272
  C  C76  1  0.197500  0.964700  0.297100  1.0  -0.1434
  C  C77  1  0.339800  0.978900  0.339200  1.0  -0.0449
  C  C78  1  0.349900  0.946000  0.390700  1.0  -0.0499
  C  C79  1  0.190000  0.005600  0.241200  1.0  0.7354
  C  C80  1  0.211900  0.745200  0.855200  1.0  0.7054
  C  C81  1  0.178100  0.650800  0.869100  1.0  -0.13
  C  C82  1  0.061000  0.624500  0.896300  1.0  -0.0269
  C  C83  1  0.025300  0.540100  0.907700  1.0  -0.0512
  C  C84  1  0.106400  0.480700  0.889600  1.0  -0.2128
  C  C85  1  0.225100  0.506000  0.862100  1.0  -0.0431
  C  C86  1  0.261200  0.591600  0.851600  1.0  -0.0311
  C  C87  1  0.271400  0.332100  0.981600  1.0  0.1745
  C  C88  1  0.217600  0.270500  0.013500  1.0  -0.1316
  C  C89  1  0.305300  0.216300  0.033400  1.0  -0.1795
  C  C90  1  0.442600  0.224000  0.018000  1.0  -0.036
  C  C91  1  0.495800  0.283600  0.985000  1.0  -0.1977
  C  C92  1  0.414200  0.341300  0.967000  1.0  0.2393
  C  C93  1  0.247600  0.153900  0.071100  1.0  0.7666
  C  C94  1  0.606200  0.420700  0.923800  1.0  -0.0522
  C  C95  1  0.706000  0.727000  0.787300  1.0  0.6967
  C  C96  1  0.755600  0.643500  0.771200  1.0  -0.1833
  C  C97  1  0.675400  0.563400  0.782400  1.0  -0.1366
  C  C98  1  0.715700  0.485500  0.765900  1.0  0.1678
  C  C99  1  0.835000  0.481300  0.738100  1.0  0.2594
  C  C100  1  0.913400  0.561700  0.726100  1.0  -0.2253
  C  C101  1  0.875800  0.641200  0.742000  1.0  -0.0532
  C  C102  1  0.983700  0.391100  0.694500  1.0  -0.0259
  C  C103  1  0.444800  0.251700  0.762700  1.0  -0.1882
  C  C104  1  0.327700  0.236400  0.792200  1.0  -0.073
  C  C105  1  0.309200  0.166300  0.820900  1.0  -0.0122
  C  C106  1  0.408400  0.113000  0.821500  1.0  -0.1499
  C  C107  1  0.524800  0.129700  0.791900  1.0  0.0023
  C  C108  1  0.545600  0.199600  0.762200  1.0  -0.1138
  C  C109  1  0.389700  0.036000  0.854300  1.0  0.7339
  C  C110  1  0.826000  0.123000  0.276800  1.0  0.7116
  C  C111  1  0.908800  0.124000  0.342400  1.0  -0.1666
  C  C112  1  0.069700  0.149600  0.361300  1.0  -0.0362
  C  C113  1  0.145600  0.149500  0.420500  1.0  -0.2141
  C  C114  1  0.064600  0.125300  0.463700  1.0  0.2521
  C  C115  1  0.904000  0.102200  0.444000  1.0  0.1854
  C  C116  1  0.826600  0.099900  0.384200  1.0  -0.0964
  C  C117  1  0.290300  0.153000  0.547400  1.0  -0.0083
  C  C118  1  0.782400  0.104600  0.598500  1.0  -0.1994
  C  C119  1  0.926100  0.118600  0.638400  1.0  -0.0584
  C  C120  1  0.934800  0.083000  0.691400  1.0  0.0271
  C  C121  1  0.802500  0.035300  0.702900  1.0  -0.1434
  C  C122  1  0.660200  0.021100  0.660800  1.0  -0.0437
  C  C123  1  0.650100  0.054000  0.609300  1.0  -0.0484
  C  C124  1  0.810000  0.994400  0.758800  1.0  0.733
  C  C125  1  0.788100  0.254800  0.144800  1.0  0.7066
  C  C126  1  0.821900  0.349200  0.130900  1.0  -0.1301
  C  C127  1  0.939000  0.375500  0.103700  1.0  -0.0279
  C  C128  1  0.974700  0.459900  0.092300  1.0  -0.0506
  C  C129  1  0.893600  0.519300  0.110400  1.0  -0.2132
  C  C130  1  0.774900  0.494000  0.137900  1.0  -0.0416
  C  C131  1  0.738800  0.408400  0.148400  1.0  -0.0275
  C  C132  1  0.728600  0.667900  0.018400  1.0  0.1762
  C  C133  1  0.782400  0.729500  0.986500  1.0  -0.1339
  C  C134  1  0.694700  0.783700  0.966600  1.0  -0.1778
  C  C135  1  0.557400  0.776000  0.982000  1.0  -0.0377
  C  C136  1  0.504200  0.716400  0.015000  1.0  -0.1972
  C  C137  1  0.585800  0.658700  0.033000  1.0  0.2398
  C  C138  1  0.752400  0.846100  0.928900  1.0  0.7671
  C  C139  1  0.393800  0.579300  0.076200  1.0  -0.0513
  C  C140  1  0.294000  0.273000  0.212700  1.0  0.6985
  C  C141  1  0.244400  0.356500  0.228800  1.0  -0.181
  C  C142  1  0.324600  0.436600  0.217600  1.0  -0.1362
  C  C143  1  0.284300  0.514500  0.234100  1.0  0.168
  C  C144  1  0.165000  0.518700  0.261900  1.0  0.2612
  C  C145  1  0.086600  0.438300  0.273900  1.0  -0.2236
  C  C146  1  0.124200  0.358800  0.258000  1.0  -0.0544
  C  C147  1  0.016300  0.608900  0.305500  1.0  -0.0251
  C  C148  1  0.555200  0.748300  0.237300  1.0  -0.1861
  C  C149  1  0.672300  0.763600  0.207800  1.0  -0.076
  C  C150  1  0.690800  0.833700  0.179100  1.0  -0.0142
  C  C151  1  0.591600  0.887000  0.178500  1.0  -0.1499
  C  C152  1  0.475200  0.870300  0.208100  1.0  0.0028
  C  C153  1  0.454400  0.800400  0.237800  1.0  -0.1129
  C  C154  1  0.610300  0.964000  0.145700  1.0  0.7328
  S  S155  1  0.226700  0.849580  0.467590  1.0  1.2517
  S  S156  1  0.060800  0.370610  0.903390  1.0  1.2384
  S  S157  1  0.475900  0.344550  0.729470  1.0  1.2482
  S  S158  1  0.773300  0.150420  0.532410  1.0  1.2524
  S  S159  1  0.939200  0.629390  0.096610  1.0  1.2401
  S  S160  1  0.524100  0.655450  0.270530  1.0  1.2475
  O  O161  1  0.093800  0.863100  0.761970  1.0  -0.6896
  O  O162  1  0.316400  0.890900  0.735100  1.0  -0.7276
  O  O163  1  0.874300  0.877800  0.476200  1.0  -0.2351
  O  O164  1  0.183000  0.926300  0.513600  1.0  -0.3973
  O  O165  1  0.109900  0.763800  0.452200  1.0  -0.5399
  O  O166  1  0.382500  0.856300  0.495200  1.0  -0.5869
  O  O167  1  0.060300  0.001900  0.210130  1.0  -0.6873
  O  O168  1  0.315100  0.037900  0.228600  1.0  -0.7346
  O  O169  1  0.136400  0.795300  0.873420  1.0  -0.7164
  O  O170  1  0.312500  0.763700  0.825100  1.0  -0.7167
  O  O171  1  0.914700  0.350700  0.917800  1.0  -0.5762
  O  O172  1  0.089100  0.305600  0.857900  1.0  -0.5539
  O  O173  1  0.190200  0.394300  0.968200  1.0  -0.3845
  O  O174  1  0.495700  0.999600  0.862240  1.0  -0.7164
  O  O175  1  0.269500  0.016500  0.872900  1.0  -0.7601
  O  O176  1  0.114100  0.146600  0.078000  1.0  -0.767
  O  O177  1  0.336900  0.113800  0.096290  1.0  -0.7095
  O  O178  1  0.364000  0.391600  0.737000  1.0  -0.5723
  O  O179  1  0.635200  0.404300  0.779300  1.0  -0.3589
  O  O180  1  0.577800  0.719600  0.799700  1.0  -0.6326
  O  O181  1  0.454600  0.404900  0.935600  1.0  -0.2466
  O  O182  1  0.795200  0.805900  0.789600  1.0  -0.7744
  O  O183  1  0.866200  0.400900  0.726400  1.0  -0.2576
  O  O184  1  0.502900  0.318800  0.668700  1.0  -0.5754
  O  O185  1  0.906200  0.136900  0.238030  1.0  -0.6898
  O  O186  1  0.683600  0.109100  0.264900  1.0  -0.729
  O  O187  1  0.125700  0.122200  0.523800  1.0  -0.2351
  O  O188  1  0.817000  0.073700  0.486400  1.0  -0.3981
  O  O189  1  0.890100  0.236200  0.547800  1.0  -0.5429
  O  O190  1  0.617500  0.143700  0.504800  1.0  -0.5864
  O  O191  1  0.939700  0.998100  0.789870  1.0  -0.6885
  O  O192  1  0.684900  0.962100  0.771400  1.0  -0.7333
  O  O193  1  0.863600  0.204700  0.126580  1.0  -0.7165
  O  O194  1  0.687500  0.236300  0.174900  1.0  -0.7174
  O  O195  1  0.085300  0.649300  0.082200  1.0  -0.5779
  O  O196  1  0.910900  0.694400  0.142100  1.0  -0.5531
  O  O197  1  0.809800  0.605700  0.031800  1.0  -0.3847
  O  O198  1  0.504300  0.000400  0.137760  1.0  -0.7152
  O  O199  1  0.730500  0.983500  0.127100  1.0  -0.7608
  O  O200  1  0.885900  0.853400  0.922000  1.0  -0.7638
  O  O201  1  0.663100  0.886200  0.903710  1.0  -0.7111
  O  O202  1  0.636000  0.608400  0.263000  1.0  -0.5703
  O  O203  1  0.364800  0.595700  0.220700  1.0  -0.3621
  O  O204  1  0.422200  0.280400  0.200300  1.0  -0.6301
  O  O205  1  0.545400  0.595100  0.064400  1.0  -0.2472
  O  O206  1  0.204800  0.194100  0.210400  1.0  -0.774
  O  O207  1  0.133800  0.599100  0.273600  1.0  -0.2538
  O  O208  1  0.497100  0.681200  0.331300  1.0  -0.5752
