# generated using pymatgen
data_Gd2H32C45S3O25
_symmetry_space_group_name_H-M   'P 1'
_cell_length_a   9.26540000
_cell_length_b   15.64200000
_cell_length_c   22.28700000
_cell_angle_alpha   102.15000000
_cell_angle_beta   101.48000000
_cell_angle_gamma   104.44000000
_symmetry_Int_Tables_number   1
_chemical_formula_structural   Gd2H32C45S3O25
_chemical_formula_sum   'Gd4 H64 C90 S6 O50'
_cell_volume   2948.04818692
_cell_formula_units_Z   2
loop_
 _symmetry_equiv_pos_site_id
 _symmetry_equiv_pos_as_xyz
  1  'x, y, z'
loop_
 _atom_site_type_symbol
 _atom_site_label
 _atom_site_symmetry_multiplicity
 _atom_site_fract_x
 _atom_site_fract_y
 _atom_site_fract_z
 _atom_site_occupancy
 _atom_site_charge
  Gd  Gd1  1  0.514140  0.860110  0.802260  1.0  2.1842
  Gd  Gd2  1  0.030540  0.912150  0.856500  1.0  2.1866
  Gd  Gd3  1  0.485860  0.139890  0.197740  1.0  2.1858
  Gd  Gd4  1  0.969460  0.087850  0.143500  1.0  2.1835
  H  H5  1  0.870900  0.833900  0.666300  1.0  0.106
  H  H6  1  0.746900  0.833400  0.566500  1.0  0.1138
  H  H7  1  0.281100  0.913700  0.626600  1.0  0.1087
  H  H8  1  0.666667  0.791600  0.457800  1.0  0.0926
  H  H9  1  0.673100  0.895100  0.477000  1.0  0.1074
  H  H10  1  0.683000  0.849700  0.408800  1.0  0.103
  H  H11  1  0.985700  0.845800  0.368300  1.0  0.1011
  H  H12  1  0.970200  0.908700  0.282300  1.0  0.0932
  H  H13  1  0.430100  0.012900  0.331800  1.0  0.1045
  H  H14  1  0.443900  0.954100  0.418400  1.0  0.1051
  H  H15  1  0.003800  0.664400  0.909400  1.0  0.1136
  H  H16  1  0.945300  0.520900  0.927800  1.0  0.1018
  H  H17  1  0.274300  0.463400  0.847700  1.0  0.1122
  H  H18  1  0.338100  0.609800  0.833600  1.0  0.0849
  H  H19  1  0.122400  0.263800  0.020800  1.0  0.1193
  H  H20  1  0.508600  0.191000  0.032200  1.0  0.0983
  H  H21  1  0.594500  0.291800  0.974600  1.0  0.1227
  H  H22  1  0.681100  0.441800  0.963700  1.0  0.0849
  H  H23  1  0.610600  0.366200  0.898300  1.0  0.0833
  H  H24  1  0.619700  0.468600  0.901700  1.0  0.1147
  H  H25  1  0.593500  0.562300  0.802300  1.0  0.108
  H  H26  1  0.993900  0.562700  0.706400  1.0  0.1159
  H  H27  1  0.925300  0.695900  0.733800  1.0  0.1017
  H  H28  1  0.966300  0.417000  0.656200  1.0  0.103
  H  H29  1  0.082300  0.426400  0.720600  1.0  0.112
  H  H30  1  0.975800  0.329200  0.678000  1.0  0.1189
  H  H31  1  0.260900  0.271800  0.791400  1.0  0.103
  H  H32  1  0.227500  0.153400  0.839600  1.0  0.1003
  H  H33  1  0.589900  0.093800  0.790800  1.0  0.0934
  H  H34  1  0.622200  0.209600  0.740000  1.0  0.1177
  H  H35  1  0.520800  0.742100  0.701400  1.0  0.4101
  H  H36  1  0.480600  0.820800  0.695600  1.0  0.3909
  H  H37  1  0.129100  0.166100  0.333700  1.0  0.1064
  H  H38  1  0.253100  0.166600  0.433500  1.0  0.1146
  H  H39  1  0.718900  0.086300  0.373400  1.0  0.1083
  H  H40  1  0.333333  0.208400  0.542200  1.0  0.0938
  H  H41  1  0.326900  0.104900  0.523000  1.0  0.1084
  H  H42  1  0.317000  0.150300  0.591200  1.0  0.1016
  H  H43  1  0.014300  0.154200  0.631700  1.0  0.1012
  H  H44  1  0.029800  0.091300  0.717700  1.0  0.0942
  H  H45  1  0.569900  0.987100  0.668200  1.0  0.1044
  H  H46  1  0.556100  0.045900  0.581600  1.0  0.1049
  H  H47  1  0.996200  0.335600  0.090600  1.0  0.1133
  H  H48  1  0.054700  0.479100  0.072200  1.0  0.1017
  H  H49  1  0.725700  0.536600  0.152300  1.0  0.1124
  H  H50  1  0.661900  0.390200  0.166400  1.0  0.0851
  H  H51  1  0.877600  0.736200  0.979200  1.0  0.1189
  H  H52  1  0.491400  0.809000  0.967800  1.0  0.0989
  H  H53  1  0.405500  0.708200  0.025400  1.0  0.1224
  H  H54  1  0.318900  0.558200  0.036300  1.0  0.0862
  H  H55  1  0.389400  0.633800  0.101700  1.0  0.0841
  H  H56  1  0.380300  0.531400  0.098300  1.0  0.1162
  H  H57  1  0.406500  0.437700  0.197700  1.0  0.1086
  H  H58  1  0.006100  0.437300  0.293600  1.0  0.1161
  H  H59  1  0.074700  0.304100  0.266200  1.0  0.102
  H  H60  1  0.033700  0.583000  0.343800  1.0  0.1025
  H  H61  1  0.917700  0.573600  0.279400  1.0  0.1121
  H  H62  1  0.024200  0.670800  0.322000  1.0  0.1209
  H  H63  1  0.739100  0.728200  0.208600  1.0  0.1026
  H  H64  1  0.772500  0.846600  0.160400  1.0  0.0999
  H  H65  1  0.410100  0.906200  0.209200  1.0  0.0933
  H  H66  1  0.377800  0.790400  0.260000  1.0  0.1184
  H  H67  1  0.479200  0.257900  0.298600  1.0  0.4154
  H  H68  1  0.519400  0.179200  0.304400  1.0  0.3885
  C  C69  1  0.170800  0.876500  0.723700  1.0  0.689
  C  C70  1  0.088700  0.875500  0.658300  1.0  -0.1598
  C  C71  1  0.928600  0.850700  0.638700  1.0  -0.0152
  C  C72  1  0.854300  0.850800  0.578800  1.0  -0.1945
  C  C73  1  0.936200  0.876200  0.536200  1.0  0.2352
  C  C74  1  0.095900  0.898800  0.555800  1.0  0.1625
  C  C75  1  0.173800  0.898700  0.615100  1.0  -0.0969
  C  C76  1  0.711100  0.851300  0.453000  1.0  -0.0043
  C  C77  1  0.215000  0.895100  0.400900  1.0  -0.1529
  C  C78  1  0.074900  0.880200  0.361100  1.0  -0.0404
  C  C79  1  0.065900  0.917000  0.309500  1.0  -0.012
  C  C80  1  0.200000  0.966000  0.298600  1.0  -0.1353
  C  C81  1  0.340200  0.979700  0.339100  1.0  0.0206
  C  C82  1  0.348600  0.944500  0.390600  1.0  -0.0427
  C  C83  1  0.188900  0.004200  0.241200  1.0  0.7066
  C  C84  1  0.208500  0.743400  0.855500  1.0  0.6939
  C  C85  1  0.176100  0.649400  0.867200  1.0  -0.1417
  C  C86  1  0.057800  0.624000  0.897100  1.0  -0.0299
  C  C87  1  0.022900  0.538500  0.908000  1.0  -0.018
  C  C88  1  0.103800  0.479300  0.889400  1.0  -0.2539
  C  C89  1  0.221000  0.504000  0.860500  1.0  -0.0836
  C  C90  1  0.256700  0.591100  0.851200  1.0  -0.0042
  C  C91  1  0.271300  0.331800  0.981400  1.0  0.1921
  C  C92  1  0.218600  0.270400  0.012700  1.0  -0.0994
  C  C93  1  0.307900  0.217600  0.032400  1.0  -0.1678
  C  C94  1  0.448200  0.226300  0.018700  1.0  -0.0258
  C  C95  1  0.500800  0.287500  0.984700  1.0  -0.2286
  C  C96  1  0.413900  0.341000  0.966500  1.0  0.2646
  C  C97  1  0.250200  0.154600  0.070000  1.0  0.762
  C  C98  1  0.603600  0.422000  0.923800  1.0  -0.0094
  C  C99  1  0.705700  0.726900  0.788800  1.0  0.6767
  C  C100  1  0.753700  0.643800  0.771500  1.0  -0.1714
  C  C101  1  0.673900  0.562800  0.783000  1.0  -0.1207
  C  C102  1  0.713500  0.484900  0.765900  1.0  0.1968
  C  C103  1  0.834200  0.483600  0.736900  1.0  0.2139
  C  C104  1  0.913200  0.562600  0.725400  1.0  -0.2443
  C  C105  1  0.872400  0.642800  0.742300  1.0  -0.029
  C  C106  1  0.982100  0.392700  0.692200  1.0  -0.0295
  C  C107  1  0.445900  0.252400  0.761900  1.0  -0.2087
  C  C108  1  0.327100  0.235900  0.791300  1.0  -0.0403
  C  C109  1  0.307800  0.165500  0.820400  1.0  0.0215
  C  C110  1  0.408100  0.113200  0.820800  1.0  -0.1496
  C  C111  1  0.523800  0.129800  0.790800  1.0  0.0095
  C  C112  1  0.544200  0.199200  0.760600  1.0  -0.0886
  C  C113  1  0.388700  0.037600  0.853700  1.0  0.7363
  C  C114  1  0.829200  0.123500  0.276300  1.0  0.6887
  C  C115  1  0.911300  0.124500  0.341700  1.0  -0.1598
  C  C116  1  0.071400  0.149300  0.361300  1.0  -0.0153
  C  C117  1  0.145700  0.149200  0.421200  1.0  -0.1949
  C  C118  1  0.063800  0.123800  0.463800  1.0  0.2361
  C  C119  1  0.904100  0.101200  0.444200  1.0  0.1633
  C  C120  1  0.826200  0.101300  0.384900  1.0  -0.0988
  C  C121  1  0.288900  0.148700  0.547000  1.0  -0.0042
  C  C122  1  0.785000  0.104900  0.599100  1.0  -0.1545
  C  C123  1  0.925100  0.119800  0.638900  1.0  -0.0414
  C  C124  1  0.934100  0.083000  0.690500  1.0  -0.012
  C  C125  1  0.800000  0.034000  0.701400  1.0  -0.1352
  C  C126  1  0.659800  0.020300  0.660900  1.0  0.0217
  C  C127  1  0.651400  0.055500  0.609400  1.0  -0.0411
  C  C128  1  0.811100  0.995800  0.758800  1.0  0.7043
  C  C129  1  0.791500  0.256600  0.144500  1.0  0.694
  C  C130  1  0.823900  0.350600  0.132800  1.0  -0.1418
  C  C131  1  0.942200  0.376000  0.102900  1.0  -0.0304
  C  C132  1  0.977100  0.461500  0.092000  1.0  -0.0178
  C  C133  1  0.896200  0.520700  0.110600  1.0  -0.2534
  C  C134  1  0.779000  0.496000  0.139500  1.0  -0.0827
  C  C135  1  0.743300  0.408900  0.148800  1.0  -0.0023
  C  C136  1  0.728700  0.668200  0.018600  1.0  0.1943
  C  C137  1  0.781400  0.729600  0.987300  1.0  -0.0996
  C  C138  1  0.692100  0.782400  0.967600  1.0  -0.1665
  C  C139  1  0.551800  0.773700  0.981300  1.0  -0.024
  C  C140  1  0.499200  0.712500  0.015300  1.0  -0.2294
  C  C141  1  0.586100  0.659000  0.033500  1.0  0.2644
  C  C142  1  0.749800  0.845400  0.930000  1.0  0.7617
  C  C143  1  0.396400  0.578000  0.076200  1.0  -0.0089
  C  C144  1  0.294300  0.273100  0.211200  1.0  0.6764
  C  C145  1  0.246300  0.356200  0.228500  1.0  -0.1714
  C  C146  1  0.326100  0.437200  0.217000  1.0  -0.1216
  C  C147  1  0.286500  0.515100  0.234100  1.0  0.196
  C  C148  1  0.165800  0.516400  0.263100  1.0  0.2143
  C  C149  1  0.086800  0.437400  0.274600  1.0  -0.2469
  C  C150  1  0.127600  0.357200  0.257700  1.0  -0.0309
  C  C151  1  0.017900  0.607300  0.307800  1.0  -0.0278
  C  C152  1  0.554100  0.747600  0.238100  1.0  -0.205
  C  C153  1  0.672900  0.764100  0.208700  1.0  -0.0438
  C  C154  1  0.692200  0.834500  0.179600  1.0  0.0197
  C  C155  1  0.591900  0.886800  0.179200  1.0  -0.1507
  C  C156  1  0.476200  0.870200  0.209200  1.0  0.011
  C  C157  1  0.455800  0.800800  0.239400  1.0  -0.0865
  C  C158  1  0.611300  0.962400  0.146300  1.0  0.7375
  S  S159  1  0.225500  0.849300  0.467510  1.0  1.2419
  S  S160  1  0.060100  0.369700  0.902770  1.0  1.2486
  S  S161  1  0.475400  0.344300  0.728690  1.0  1.2433
  S  S162  1  0.774500  0.150700  0.532490  1.0  1.2438
  S  S163  1  0.939900  0.630300  0.097230  1.0  1.2492
  S  S164  1  0.524600  0.655700  0.271310  1.0  1.2428
  O  O165  1  0.089600  0.860900  0.761600  1.0  -0.6997
  O  O166  1  0.315000  0.889800  0.735200  1.0  -0.6478
  O  O167  1  0.875700  0.877400  0.475700  1.0  -0.2463
  O  O168  1  0.182100  0.926700  0.513800  1.0  -0.3998
  O  O169  1  0.108400  0.763400  0.451800  1.0  -0.5538
  O  O170  1  0.382100  0.855500  0.494700  1.0  -0.5598
  O  O171  1  0.060400  0.001300  0.210100  1.0  -0.6727
  O  O172  1  0.314900  0.037400  0.229300  1.0  -0.6604
  O  O173  1  0.132200  0.793500  0.873200  1.0  -0.7406
  O  O174  1  0.309200  0.763000  0.825600  1.0  -0.7353
  O  O175  1  0.913800  0.349500  0.917300  1.0  -0.5766
  O  O176  1  0.087900  0.303600  0.855900  1.0  -0.5568
  O  O177  1  0.190200  0.394500  0.968400  1.0  -0.4011
  O  O178  1  0.494200  0.000300  0.861300  1.0  -0.7116
  O  O179  1  0.270400  0.017000  0.872400  1.0  -0.7585
  O  O180  1  0.118100  0.145700  0.076600  1.0  -0.7421
  O  O181  1  0.342400  0.114800  0.095400  1.0  -0.7406
  O  O182  1  0.363100  0.391400  0.736800  1.0  -0.5665
  O  O183  1  0.635700  0.404600  0.779100  1.0  -0.4064
  O  O184  1  0.447500  0.764300  0.693300  1.0  -0.7885
  O  O185  1  0.576200  0.718800  0.800900  1.0  -0.6208
  O  O186  1  0.453600  0.406200  0.935100  1.0  -0.2464
  O  O187  1  0.790900  0.805400  0.790100  1.0  -0.775
  O  O188  1  0.865200  0.400900  0.725000  1.0  -0.2545
  O  O189  1  0.502100  0.318200  0.668400  1.0  -0.5795
  O  O190  1  0.910400  0.139100  0.238400  1.0  -0.6993
  O  O191  1  0.685000  0.110200  0.264800  1.0  -0.6475
  O  O192  1  0.124300  0.122600  0.524300  1.0  -0.2457
  O  O193  1  0.817900  0.073300  0.486200  1.0  -0.4003
  O  O194  1  0.891600  0.236600  0.548200  1.0  -0.5548
  O  O195  1  0.617900  0.144500  0.505300  1.0  -0.5604
  O  O196  1  0.939600  0.998700  0.789900  1.0  -0.6732
  O  O197  1  0.685100  0.962600  0.770700  1.0  -0.6618
  O  O198  1  0.867800  0.206500  0.126800  1.0  -0.7403
  O  O199  1  0.690800  0.237000  0.174400  1.0  -0.7362
  O  O200  1  0.086200  0.650500  0.082700  1.0  -0.5777
  O  O201  1  0.912100  0.696400  0.144100  1.0  -0.5566
  O  O202  1  0.809800  0.605500  0.031600  1.0  -0.4005
  O  O203  1  0.505800  0.999700  0.138700  1.0  -0.7091
  O  O204  1  0.729600  0.983000  0.127600  1.0  -0.76
  O  O205  1  0.881900  0.854300  0.923400  1.0  -0.7396
  O  O206  1  0.657600  0.885200  0.904600  1.0  -0.74
  O  O207  1  0.636900  0.608600  0.263200  1.0  -0.566
  O  O208  1  0.364300  0.595400  0.220900  1.0  -0.4094
  O  O209  1  0.552500  0.235700  0.306700  1.0  -0.788
  O  O210  1  0.423800  0.281200  0.199100  1.0  -0.6223
  O  O211  1  0.546400  0.593800  0.064900  1.0  -0.2464
  O  O212  1  0.209100  0.194600  0.209900  1.0  -0.7748
  O  O213  1  0.134800  0.599100  0.275000  1.0  -0.2504
  O  O214  1  0.497900  0.681800  0.331600  1.0  -0.5791
