# generated using pymatgen
data_Pr2H32C45S3O25
_symmetry_space_group_name_H-M   'P 1'
_cell_length_a   9.33790000
_cell_length_b   15.71000000
_cell_length_c   22.43100000
_cell_angle_alpha   102.47000000
_cell_angle_beta   101.71000000
_cell_angle_gamma   104.90000000
_symmetry_Int_Tables_number   1
_chemical_formula_structural   Pr2H32C45S3O25
_chemical_formula_sum   'Pr4 H64 C90 S6 O50'
_cell_volume   2986.16143786
_cell_formula_units_Z   2
loop_
 _symmetry_equiv_pos_site_id
 _symmetry_equiv_pos_as_xyz
  1  'x, y, z'
loop_
 _atom_site_type_symbol
 _atom_site_label
 _atom_site_symmetry_multiplicity
 _atom_site_fract_x
 _atom_site_fract_y
 _atom_site_fract_z
 _atom_site_occupancy
 _atom_site_charge
  Pr  Pr1  1  0.522540  0.861910  0.801900  1.0  2.2035
  Pr  Pr2  1  0.035970  0.912530  0.857510  1.0  2.1909
  Pr  Pr3  1  0.477460  0.138090  0.198100  1.0  2.2028
  Pr  Pr4  1  0.964030  0.087470  0.142490  1.0  2.1896
  H  H5  1  0.875600  0.836200  0.667300  1.0  0.0942
  H  H6  1  0.747300  0.835100  0.568500  1.0  0.1237
  H  H7  1  0.278600  0.911200  0.625500  1.0  0.1146
  H  H8  1  0.664600  0.787000  0.449800  1.0  0.0943
  H  H9  1  0.670500  0.885700  0.485800  1.0  0.0803
  H  H10  1  0.679700  0.864400  0.415300  1.0  0.0986
  H  H11  1  0.977400  0.848400  0.370400  1.0  0.1071
  H  H12  1  0.960700  0.904200  0.282600  1.0  0.0944
  H  H13  1  0.416800  0.006600  0.329300  1.0  0.0904
  H  H14  1  0.439500  0.953300  0.419200  1.0  0.1176
  H  H15  1  0.009300  0.661500  0.907600  1.0  0.1065
  H  H16  1  0.953600  0.520200  0.925700  1.0  0.0993
  H  H17  1  0.283700  0.466400  0.849000  1.0  0.1038
  H  H18  1  0.341800  0.609400  0.832100  1.0  0.0965
  H  H19  1  0.134000  0.275300  0.023100  1.0  0.1251
  H  H20  1  0.503300  0.188400  0.029900  1.0  0.1023
  H  H21  1  0.595900  0.287200  0.974000  1.0  0.1259
  H  H22  1  0.697900  0.428300  0.961300  1.0  0.0909
  H  H23  1  0.616900  0.360600  0.893100  1.0  0.0994
  H  H24  1  0.643700  0.466200  0.904400  1.0  0.1233
  H  H25  1  0.594700  0.560400  0.801100  1.0  0.1243
  H  H26  1  0.991800  0.565600  0.706100  1.0  0.1262
  H  H27  1  0.927800  0.697000  0.736100  1.0  0.0998
  H  H28  1  0.960600  0.412500  0.653900  1.0  0.0844
  H  H29  1  0.081700  0.436800  0.719600  1.0  0.082
  H  H30  1  0.985000  0.334200  0.683900  1.0  0.1
  H  H31  1  0.265800  0.271600  0.790600  1.0  0.1073
  H  H32  1  0.239400  0.159500  0.842200  1.0  0.108
  H  H33  1  0.594300  0.095900  0.788200  1.0  0.1109
  H  H34  1  0.618500  0.209700  0.737600  1.0  0.1109
  H  H35  1  0.519100  0.737200  0.696300  1.0  0.418
  H  H36  1  0.478900  0.815900  0.690500  1.0  0.3948
  H  H37  1  0.124400  0.163800  0.332700  1.0  0.0947
  H  H38  1  0.252700  0.164900  0.431500  1.0  0.1242
  H  H39  1  0.721400  0.088800  0.374500  1.0  0.1143
  H  H40  1  0.335400  0.213000  0.550200  1.0  0.0943
  H  H41  1  0.329500  0.114300  0.514200  1.0  0.0792
  H  H42  1  0.320300  0.135600  0.584700  1.0  0.0987
  H  H43  1  0.022600  0.151600  0.629600  1.0  0.1067
  H  H44  1  0.039300  0.095800  0.717400  1.0  0.0954
  H  H45  1  0.583200  0.993400  0.670700  1.0  0.0908
  H  H46  1  0.560500  0.046700  0.580800  1.0  0.118
  H  H47  1  0.990700  0.338500  0.092400  1.0  0.1063
  H  H48  1  0.046400  0.479800  0.074300  1.0  0.099
  H  H49  1  0.716300  0.533600  0.151000  1.0  0.1043
  H  H50  1  0.658200  0.390600  0.167900  1.0  0.0965
  H  H51  1  0.866000  0.724700  0.976900  1.0  0.1253
  H  H52  1  0.496700  0.811600  0.970100  1.0  0.1026
  H  H53  1  0.404100  0.712800  0.026000  1.0  0.1257
  H  H54  1  0.302100  0.571700  0.038700  1.0  0.091
  H  H55  1  0.383100  0.639400  0.106900  1.0  0.0981
  H  H56  1  0.356300  0.533800  0.095600  1.0  0.1204
  H  H57  1  0.405300  0.439600  0.198900  1.0  0.1253
  H  H58  1  0.008200  0.434400  0.293900  1.0  0.1255
  H  H59  1  0.072200  0.303000  0.263900  1.0  0.0999
  H  H60  1  0.039400  0.587500  0.346100  1.0  0.0858
  H  H61  1  0.918300  0.563200  0.280400  1.0  0.0806
  H  H62  1  0.015000  0.665800  0.316100  1.0  0.1105
  H  H63  1  0.734200  0.728400  0.209400  1.0  0.1075
  H  H64  1  0.760600  0.840500  0.157800  1.0  0.1079
  H  H65  1  0.405700  0.904100  0.211800  1.0  0.1107
  H  H66  1  0.381500  0.790300  0.262400  1.0  0.1108
  H  H67  1  0.480900  0.262800  0.303700  1.0  0.4281
  H  H68  1  0.521100  0.184100  0.309500  1.0  0.3941
  C  C69  1  0.173800  0.875400  0.721900  1.0  0.7537
  C  C70  1  0.092100  0.876500  0.657900  1.0  -0.1888
  C  C71  1  0.931300  0.852200  0.639100  1.0  -0.0119
  C  C72  1  0.854200  0.851400  0.579800  1.0  -0.2348
  C  C73  1  0.933500  0.874600  0.536500  1.0  0.2251
  C  C74  1  0.093700  0.899300  0.555700  1.0  0.1312
  C  C75  1  0.172100  0.897800  0.614900  1.0  -0.0944
  C  C76  1  0.708400  0.851500  0.455200  1.0  -0.0169
  C  C77  1  0.208000  0.894300  0.401900  1.0  -0.2153
  C  C78  1  0.066500  0.880400  0.362200  1.0  -0.0236
  C  C79  1  0.056600  0.914100  0.309800  1.0  -0.0104
  C  C80  1  0.188200  0.962000  0.298100  1.0  -0.1387
  C  C81  1  0.328200  0.975100  0.338100  1.0  -0.0257
  C  C82  1  0.343600  0.942800  0.391700  1.0  -0.0805
  C  C83  1  0.175000  0.998800  0.241600  1.0  0.7371
  C  C84  1  0.212800  0.741400  0.854300  1.0  0.7692
  C  C85  1  0.181100  0.649900  0.867700  1.0  -0.1428
  C  C86  1  0.065000  0.622400  0.896000  1.0  -0.0323
  C  C87  1  0.031800  0.538200  0.906800  1.0  -0.0272
  C  C88  1  0.114200  0.479200  0.889800  1.0  -0.2238
  C  C89  1  0.229200  0.505900  0.861200  1.0  -0.0239
  C  C90  1  0.263100  0.591200  0.850700  1.0  -0.0253
  C  C91  1  0.284800  0.337200  0.982100  1.0  0.1768
  C  C92  1  0.227500  0.278000  0.013900  1.0  -0.1115
  C  C93  1  0.309300  0.222000  0.032400  1.0  -0.1727
  C  C94  1  0.447900  0.226000  0.017400  1.0  -0.0057
  C  C95  1  0.503800  0.285400  0.984300  1.0  -0.2428
  C  C96  1  0.422800  0.342400  0.966300  1.0  0.2552
  C  C97  1  0.247500  0.159800  0.069600  1.0  0.7496
  C  C98  1  0.620000  0.415900  0.922500  1.0  -0.0138
  C  C99  1  0.701400  0.724800  0.788300  1.0  0.688
  C  C100  1  0.754700  0.642800  0.771900  1.0  -0.1678
  C  C101  1  0.675600  0.562200  0.782500  1.0  -0.1318
  C  C102  1  0.718500  0.485500  0.765300  1.0  0.1447
  C  C103  1  0.836400  0.485000  0.737500  1.0  0.234
  C  C104  1  0.913300  0.565000  0.725800  1.0  -0.2385
  C  C105  1  0.874200  0.643200  0.743400  1.0  -0.0117
  C  C106  1  0.983100  0.396400  0.692900  1.0  -0.0033
  C  C107  1  0.447800  0.252200  0.761300  1.0  -0.2054
  C  C108  1  0.332300  0.236600  0.791100  1.0  -0.0324
  C  C109  1  0.316000  0.169600  0.821300  1.0  -0.0275
  C  C110  1  0.414700  0.116200  0.820800  1.0  -0.1351
  C  C111  1  0.528700  0.131600  0.789100  1.0  -0.015
  C  C112  1  0.543500  0.199500  0.759200  1.0  -0.0578
  C  C113  1  0.401300  0.041000  0.855100  1.0  0.7598
  C  C114  1  0.826200  0.124600  0.278100  1.0  0.7496
  C  C115  1  0.907900  0.123500  0.342100  1.0  -0.1881
  C  C116  1  0.068700  0.147800  0.360900  1.0  -0.0088
  C  C117  1  0.145800  0.148600  0.420200  1.0  -0.235
  C  C118  1  0.066500  0.125400  0.463500  1.0  0.2252
  C  C119  1  0.906300  0.100700  0.444300  1.0  0.1344
  C  C120  1  0.827900  0.102200  0.385100  1.0  -0.0961
  C  C121  1  0.291600  0.148500  0.544800  1.0  -0.0163
  C  C122  1  0.792000  0.105700  0.598100  1.0  -0.2159
  C  C123  1  0.933500  0.119600  0.637800  1.0  -0.0223
  C  C124  1  0.943400  0.085900  0.690200  1.0  -0.011
  C  C125  1  0.811800  0.038000  0.701900  1.0  -0.1375
  C  C126  1  0.671800  0.024900  0.661900  1.0  -0.026
  C  C127  1  0.656400  0.057200  0.608300  1.0  -0.0823
  C  C128  1  0.825000  0.001200  0.758400  1.0  0.7249
  C  C129  1  0.787200  0.258600  0.145700  1.0  0.7663
  C  C130  1  0.818900  0.350100  0.132300  1.0  -0.1426
  C  C131  1  0.935000  0.377600  0.104000  1.0  -0.0322
  C  C132  1  0.968200  0.461800  0.093200  1.0  -0.026
  C  C133  1  0.885800  0.520800  0.110200  1.0  -0.2242
  C  C134  1  0.770800  0.494100  0.138800  1.0  -0.0228
  C  C135  1  0.736900  0.408800  0.149300  1.0  -0.0239
  C  C136  1  0.715200  0.662800  0.017900  1.0  0.187
  C  C137  1  0.772500  0.722000  0.986100  1.0  -0.1128
  C  C138  1  0.690700  0.778000  0.967600  1.0  -0.17
  C  C139  1  0.552100  0.774000  0.982600  1.0  -0.0067
  C  C140  1  0.496200  0.714600  0.015700  1.0  -0.2433
  C  C141  1  0.577200  0.657600  0.033700  1.0  0.2529
  C  C142  1  0.752500  0.840200  0.930400  1.0  0.7623
  C  C143  1  0.380000  0.584100  0.077500  1.0  -0.0134
  C  C144  1  0.298600  0.275200  0.211700  1.0  0.6867
  C  C145  1  0.245300  0.357200  0.228100  1.0  -0.1666
  C  C146  1  0.324400  0.437800  0.217500  1.0  -0.1342
  C  C147  1  0.281500  0.514500  0.234700  1.0  0.1476
  C  C148  1  0.163600  0.515000  0.262500  1.0  0.2343
  C  C149  1  0.086700  0.435000  0.274200  1.0  -0.2388
  C  C150  1  0.125800  0.356800  0.256600  1.0  -0.0119
  C  C151  1  0.016900  0.603600  0.307100  1.0  -0.0024
  C  C152  1  0.552200  0.747800  0.238700  1.0  -0.196
  C  C153  1  0.667700  0.763400  0.208900  1.0  -0.0356
  C  C154  1  0.684000  0.830400  0.178700  1.0  -0.0285
  C  C155  1  0.585300  0.883800  0.179200  1.0  -0.1355
  C  C156  1  0.471300  0.868400  0.210900  1.0  -0.0115
  C  C157  1  0.456500  0.800500  0.240800  1.0  -0.0549
  C  C158  1  0.598700  0.959000  0.144900  1.0  0.7592
  S  S159  1  0.222400  0.849610  0.467920  1.0  1.2507
  S  S160  1  0.074200  0.372210  0.904640  1.0  1.2722
  S  S161  1  0.478500  0.343730  0.728170  1.0  1.2629
  S  S162  1  0.777600  0.150390  0.532080  1.0  1.2517
  S  S163  1  0.925800  0.627790  0.095360  1.0  1.2732
  S  S164  1  0.521500  0.656270  0.271830  1.0  1.2617
  O  O165  1  0.095100  0.859700  0.760800  1.0  -0.728
  O  O166  1  0.317600  0.890900  0.734100  1.0  -0.7149
  O  O167  1  0.872400  0.877300  0.477000  1.0  -0.2361
  O  O168  1  0.177300  0.925300  0.513700  1.0  -0.3612
  O  O169  1  0.106300  0.763100  0.452700  1.0  -0.5506
  O  O170  1  0.379200  0.858300  0.494900  1.0  -0.5676
  O  O171  1  0.048000  0.996200  0.211400  1.0  -0.6799
  O  O172  1  0.299700  0.031000  0.227900  1.0  -0.7417
  O  O173  1  0.140500  0.791900  0.874200  1.0  -0.7008
  O  O174  1  0.309700  0.760300  0.823500  1.0  -0.7358
  O  O175  1  0.933800  0.350600  0.921200  1.0  -0.5807
  O  O176  1  0.097000  0.305100  0.857300  1.0  -0.5555
  O  O177  1  0.210900  0.400000  0.967900  1.0  -0.3664
  O  O178  1  0.507500  0.007400  0.863600  1.0  -0.6801
  O  O179  1  0.282300  0.019900  0.873700  1.0  -0.7796
  O  O180  1  0.116900  0.154200  0.076200  1.0  -0.7374
  O  O181  1  0.331100  0.115000  0.092400  1.0  -0.7369
  O  O182  1  0.366800  0.389300  0.735500  1.0  -0.5681
  O  O183  1  0.638700  0.404900  0.777800  1.0  -0.3616
  O  O184  1  0.445700  0.759400  0.688200  1.0  -0.7961
  O  O185  1  0.573000  0.713300  0.800400  1.0  -0.6442
  O  O186  1  0.470700  0.404600  0.935500  1.0  -0.2489
  O  O187  1  0.782200  0.804600  0.789100  1.0  -0.811
  O  O188  1  0.868100  0.404800  0.724200  1.0  -0.2504
  O  O189  1  0.504100  0.317700  0.667800  1.0  -0.5654
  O  O190  1  0.904900  0.140300  0.239200  1.0  -0.7278
  O  O191  1  0.682400  0.109100  0.265900  1.0  -0.7147
  O  O192  1  0.127600  0.122700  0.523000  1.0  -0.2384
  O  O193  1  0.822700  0.074700  0.486300  1.0  -0.3615
  O  O194  1  0.893700  0.236900  0.547300  1.0  -0.5535
  O  O195  1  0.620800  0.141700  0.505100  1.0  -0.5675
  O  O196  1  0.952000  0.003800  0.788600  1.0  -0.6801
  O  O197  1  0.700300  0.969000  0.772100  1.0  -0.7307
  O  O198  1  0.859500  0.208100  0.125800  1.0  -0.6963
  O  O199  1  0.690300  0.239700  0.176500  1.0  -0.7367
  O  O200  1  0.066200  0.649400  0.078800  1.0  -0.5813
  O  O201  1  0.903000  0.694900  0.142700  1.0  -0.5563
  O  O202  1  0.789100  0.600000  0.032100  1.0  -0.3677
  O  O203  1  0.492500  0.992600  0.136400  1.0  -0.6805
  O  O204  1  0.717700  0.980100  0.126300  1.0  -0.7801
  O  O205  1  0.883100  0.845800  0.923800  1.0  -0.7369
  O  O206  1  0.668900  0.885000  0.907600  1.0  -0.7284
  O  O207  1  0.633200  0.610700  0.264500  1.0  -0.5669
  O  O208  1  0.361300  0.595100  0.222200  1.0  -0.3658
  O  O209  1  0.554300  0.240600  0.311800  1.0  -0.7976
  O  O210  1  0.427000  0.286700  0.199600  1.0  -0.6437
  O  O211  1  0.529300  0.595400  0.064500  1.0  -0.2465
  O  O212  1  0.217800  0.195400  0.210900  1.0  -0.8111
  O  O213  1  0.131900  0.595200  0.275800  1.0  -0.2439
  O  O214  1  0.495900  0.682300  0.332200  1.0  -0.5658
