# generated using pymatgen
data_Dy2H30C45(SO8)3
_symmetry_space_group_name_H-M   'P 1'
_cell_length_a   9.19990000
_cell_length_b   15.57800000
_cell_length_c   22.14200000
_cell_angle_alpha   102.86000000
_cell_angle_beta   101.55000000
_cell_angle_gamma   104.52000000
_symmetry_Int_Tables_number   1
_chemical_formula_structural   Dy2H30C45(SO8)3
_chemical_formula_sum   'Dy4 H60 C90 S6 O48'
_cell_volume   2882.59029911
_cell_formula_units_Z   2
loop_
 _symmetry_equiv_pos_site_id
 _symmetry_equiv_pos_as_xyz
  1  'x, y, z'
loop_
 _atom_site_type_symbol
 _atom_site_label
 _atom_site_symmetry_multiplicity
 _atom_site_fract_x
 _atom_site_fract_y
 _atom_site_fract_z
 _atom_site_occupancy
 _atom_site_charge
  Dy  Dy1  1  0.514110  0.862230  0.804320  1.0  2.3286
  Dy  Dy2  1  0.029170  0.912850  0.857740  1.0  2.3479
  Dy  Dy3  1  0.485890  0.137770  0.195680  1.0  2.3276
  Dy  Dy4  1  0.970830  0.087150  0.142260  1.0  2.3458
  H  H5  1  0.865600  0.833600  0.665600  1.0  0.1045
  H  H6  1  0.742300  0.834300  0.566700  1.0  0.1282
  H  H7  1  0.283000  0.918300  0.631100  1.0  0.1088
  H  H8  1  0.665100  0.789600  0.452300  1.0  0.1016
  H  H9  1  0.670200  0.892100  0.481200  1.0  0.0985
  H  H10  1  0.679900  0.858500  0.410300  1.0  0.104
  H  H11  1  0.983700  0.849000  0.368100  1.0  0.0972
  H  H12  1  0.967400  0.909800  0.280600  1.0  0.0983
  H  H13  1  0.432500  0.010500  0.330500  1.0  0.0963
  H  H14  1  0.451200  0.954700  0.418700  1.0  0.1232
  H  H15  1  0.998600  0.665200  0.908500  1.0  0.1028
  H  H16  1  0.936000  0.521500  0.925100  1.0  0.0995
  H  H17  1  0.271600  0.461200  0.847200  1.0  0.119
  H  H18  1  0.334500  0.607900  0.831800  1.0  0.0961
  H  H19  1  0.115600  0.260600  0.018900  1.0  0.1081
  H  H20  1  0.510400  0.192000  0.028700  1.0  0.1019
  H  H21  1  0.596900  0.299000  0.977000  1.0  0.1134
  H  H22  1  0.675600  0.447200  0.965000  1.0  0.087
  H  H23  1  0.607900  0.373300  0.897300  1.0  0.0944
  H  H24  1  0.615500  0.476700  0.903800  1.0  0.1062
  H  H25  1  0.593500  0.564700  0.803700  1.0  0.1216
  H  H26  1  0.989900  0.563700  0.705400  1.0  0.118
  H  H27  1  0.927400  0.698300  0.733700  1.0  0.1252
  H  H28  1  0.949000  0.396600  0.649000  1.0  0.0926
  H  H29  1  0.079000  0.444400  0.714300  1.0  0.0817
  H  H30  1  0.005100  0.336400  0.691200  1.0  0.0976
  H  H31  1  0.257500  0.271500  0.791600  1.0  0.1033
  H  H32  1  0.225900  0.157400  0.842300  1.0  0.1138
  H  H33  1  0.596600  0.098000  0.794400  1.0  0.0973
  H  H34  1  0.622700  0.209300  0.741000  1.0  0.1196
  H  H35  1  0.134400  0.166400  0.334400  1.0  0.1044
  H  H36  1  0.257700  0.165700  0.433300  1.0  0.1283
  H  H37  1  0.717000  0.081700  0.368900  1.0  0.1088
  H  H38  1  0.334900  0.210400  0.547700  1.0  0.103
  H  H39  1  0.329800  0.107900  0.518800  1.0  0.0992
  H  H40  1  0.320100  0.141500  0.589700  1.0  0.1042
  H  H41  1  0.016300  0.151000  0.631900  1.0  0.0965
  H  H42  1  0.032600  0.090200  0.719400  1.0  0.0989
  H  H43  1  0.567500  0.989500  0.669500  1.0  0.0966
  H  H44  1  0.548800  0.045300  0.581300  1.0  0.1236
  H  H45  1  0.001400  0.334800  0.091500  1.0  0.1025
  H  H46  1  0.064000  0.478500  0.074900  1.0  0.0992
  H  H47  1  0.728400  0.538800  0.152800  1.0  0.1187
  H  H48  1  0.665500  0.392100  0.168200  1.0  0.0963
  H  H49  1  0.884400  0.739400  0.981100  1.0  0.1099
  H  H50  1  0.489600  0.808000  0.971300  1.0  0.1021
  H  H51  1  0.403100  0.701000  0.023000  1.0  0.1086
  H  H52  1  0.324400  0.552800  0.035000  1.0  0.0874
  H  H53  1  0.392100  0.626700  0.102700  1.0  0.0948
  H  H54  1  0.384500  0.523300  0.096200  1.0  0.1069
  H  H55  1  0.406500  0.435300  0.196300  1.0  0.1222
  H  H56  1  0.010100  0.436300  0.294600  1.0  0.1182
  H  H57  1  0.072600  0.301700  0.266300  1.0  0.1256
  H  H58  1  0.051000  0.603400  0.351000  1.0  0.0935
  H  H59  1  0.921000  0.555600  0.285700  1.0  0.0811
  H  H60  1  0.994900  0.663600  0.308800  1.0  0.0988
  H  H61  1  0.742500  0.728500  0.208400  1.0  0.1032
  H  H62  1  0.774100  0.842600  0.157700  1.0  0.1135
  H  H63  1  0.403400  0.902000  0.205600  1.0  0.0975
  H  H64  1  0.377300  0.790700  0.259000  1.0  0.1207
  C  C65  1  0.168400  0.876700  0.724200  1.0  0.7619
  C  C66  1  0.090400  0.878600  0.659100  1.0  -0.1819
  C  C67  1  0.923800  0.851300  0.638200  1.0  -0.0161
  C  C68  1  0.850700  0.851200  0.579400  1.0  -0.2169
  C  C69  1  0.936000  0.876300  0.536700  1.0  0.222
  C  C70  1  0.099000  0.902100  0.556400  1.0  0.1308
  C  C71  1  0.174700  0.902100  0.618200  1.0  -0.081
  C  C72  1  0.708900  0.852700  0.453000  1.0  -0.0187
  C  C73  1  0.217400  0.895300  0.402200  1.0  -0.2122
  C  C74  1  0.074400  0.882100  0.360700  1.0  -0.0151
  C  C75  1  0.064300  0.918000  0.307700  1.0  -0.021
  C  C76  1  0.199400  0.965400  0.296200  1.0  -0.1461
  C  C77  1  0.341700  0.978100  0.338200  1.0  -0.0327
  C  C78  1  0.354100  0.944700  0.391100  1.0  -0.0508
  C  C79  1  0.190800  0.004300  0.240000  1.0  0.7897
  C  C80  1  0.205700  0.746200  0.855800  1.0  0.7775
  C  C81  1  0.172300  0.651000  0.869200  1.0  -0.1398
  C  C82  1  0.053700  0.624700  0.896400  1.0  -0.0252
  C  C83  1  0.015700  0.538800  0.906100  1.0  -0.0191
  C  C84  1  0.096000  0.477600  0.887500  1.0  -0.2277
  C  C85  1  0.217300  0.502100  0.859500  1.0  -0.0588
  C  C86  1  0.254200  0.589800  0.850500  1.0  -0.0211
  C  C87  1  0.261500  0.330600  0.979000  1.0  0.1364
  C  C88  1  0.212300  0.268400  0.010300  1.0  -0.1032
  C  C89  1  0.305500  0.215500  0.030200  1.0  -0.1867
  C  C90  1  0.448300  0.227300  0.016500  1.0  -0.0103
  C  C91  1  0.499500  0.291000  0.984900  1.0  -0.2153
  C  C92  1  0.407900  0.343400  0.964500  1.0  0.2128
  C  C93  1  0.251800  0.152700  0.067700  1.0  0.7759
  C  C94  1  0.598800  0.428100  0.924300  1.0  -0.0225
  C  C95  1  0.704500  0.729700  0.789600  1.0  0.7174
  C  C96  1  0.753600  0.644100  0.771600  1.0  -0.1667
  C  C97  1  0.673800  0.564400  0.784100  1.0  -0.1246
  C  C98  1  0.715200  0.485200  0.767100  1.0  0.1235
  C  C99  1  0.834500  0.484200  0.736600  1.0  0.2175
  C  C100  1  0.910100  0.564100  0.725300  1.0  -0.2101
  C  C101  1  0.873700  0.645000  0.741900  1.0  -0.0292
  C  C102  1  0.984900  0.394200  0.692200  1.0  -0.0093
  C  C103  1  0.445300  0.251400  0.762800  1.0  -0.2351
  C  C104  1  0.324600  0.235700  0.792300  1.0  -0.0381
  C  C105  1  0.305500  0.167900  0.822200  1.0  -0.0096
  C  C106  1  0.406900  0.113600  0.822500  1.0  -0.1446
  C  C107  1  0.527000  0.132100  0.793000  1.0  -0.0289
  C  C108  1  0.544900  0.199300  0.762000  1.0  -0.0442
  C  C109  1  0.390000  0.038400  0.856100  1.0  0.7713
  C  C110  1  0.831600  0.123300  0.275800  1.0  0.7606
  C  C111  1  0.909600  0.121400  0.340900  1.0  -0.1848
  C  C112  1  0.076200  0.148700  0.361800  1.0  -0.0141
  C  C113  1  0.149300  0.148800  0.420600  1.0  -0.2159
  C  C114  1  0.064000  0.123700  0.463300  1.0  0.2214
  C  C115  1  0.901000  0.097900  0.443600  1.0  0.1372
  C  C116  1  0.825300  0.097900  0.381800  1.0  -0.0837
  C  C117  1  0.291100  0.147300  0.547000  1.0  -0.0183
  C  C118  1  0.782600  0.104700  0.597800  1.0  -0.2129
  C  C119  1  0.925600  0.117900  0.639300  1.0  -0.0152
  C  C120  1  0.935700  0.082000  0.692300  1.0  -0.0217
  C  C121  1  0.800600  0.034600  0.703800  1.0  -0.146
  C  C122  1  0.658300  0.021900  0.661800  1.0  -0.0316
  C  C123  1  0.645900  0.055300  0.608900  1.0  -0.0503
  C  C124  1  0.809200  0.995700  0.760000  1.0  0.7902
  C  C125  1  0.794300  0.253800  0.144200  1.0  0.7749
  C  C126  1  0.827700  0.349000  0.130800  1.0  -0.1387
  C  C127  1  0.946300  0.375300  0.103600  1.0  -0.0254
  C  C128  1  0.984300  0.461200  0.093900  1.0  -0.0192
  C  C129  1  0.904000  0.522400  0.112500  1.0  -0.2281
  C  C130  1  0.782700  0.497900  0.140500  1.0  -0.0576
  C  C131  1  0.745800  0.410200  0.149500  1.0  -0.0178
  C  C132  1  0.738500  0.669400  0.021000  1.0  0.1378
  C  C133  1  0.787700  0.731600  0.989700  1.0  -0.1035
  C  C134  1  0.694500  0.784500  0.969800  1.0  -0.1856
  C  C135  1  0.551700  0.772700  0.983500  1.0  -0.0099
  C  C136  1  0.500500  0.709000  0.015100  1.0  -0.2212
  C  C137  1  0.592100  0.656600  0.035500  1.0  0.213
  C  C138  1  0.748200  0.847300  0.932300  1.0  0.7754
  C  C139  1  0.401200  0.571900  0.075700  1.0  -0.0217
  C  C140  1  0.295500  0.270300  0.210400  1.0  0.7186
  C  C141  1  0.246400  0.355900  0.228400  1.0  -0.167
  C  C142  1  0.326200  0.435600  0.215900  1.0  -0.1254
  C  C143  1  0.284800  0.514800  0.232900  1.0  0.1239
  C  C144  1  0.165500  0.515800  0.263400  1.0  0.2189
  C  C145  1  0.089900  0.435900  0.274700  1.0  -0.2094
  C  C146  1  0.126300  0.355000  0.258100  1.0  -0.0345
  C  C147  1  0.015100  0.605800  0.307800  1.0  -0.0097
  C  C148  1  0.554700  0.748600  0.237200  1.0  -0.233
  C  C149  1  0.675400  0.764300  0.207700  1.0  -0.0406
  C  C150  1  0.694500  0.832100  0.177800  1.0  -0.0107
  C  C151  1  0.593100  0.886400  0.177500  1.0  -0.146
  C  C152  1  0.473000  0.867900  0.207000  1.0  -0.0278
  C  C153  1  0.455100  0.800700  0.238000  1.0  -0.0436
  C  C154  1  0.610000  0.961600  0.143900  1.0  0.7629
  S  S155  1  0.228800  0.851100  0.467850  1.0  1.2476
  S  S156  1  0.049300  0.367800  0.900190  1.0  1.2542
  S  S157  1  0.475000  0.343800  0.729280  1.0  1.2501
  S  S158  1  0.771200  0.148900  0.532150  1.0  1.249
  S  S159  1  0.950700  0.632200  0.099810  1.0  1.2545
  S  S160  1  0.525000  0.656200  0.270720  1.0  1.25
  O  O161  1  0.088100  0.859900  0.762500  1.0  -0.7157
  O  O162  1  0.315700  0.893500  0.738400  1.0  -0.7674
  O  O163  1  0.877100  0.879700  0.475900  1.0  -0.2371
  O  O164  1  0.185700  0.928200  0.515100  1.0  -0.3582
  O  O165  1  0.107700  0.764800  0.452300  1.0  -0.5598
  O  O166  1  0.386900  0.856800  0.495500  1.0  -0.5748
  O  O167  1  0.058500  0.001300  0.209000  1.0  -0.7176
  O  O168  1  0.316400  0.036000  0.226500  1.0  -0.7905
  O  O169  1  0.129100  0.794900  0.875300  1.0  -0.7177
  O  O170  1  0.309700  0.765600  0.826500  1.0  -0.7558
  O  O171  1  0.900900  0.347900  0.913600  1.0  -0.5655
  O  O172  1  0.079800  0.301800  0.853200  1.0  -0.5482
  O  O173  1  0.178300  0.391800  0.967100  1.0  -0.3678
  O  O174  1  0.499700  0.003200  0.865600  1.0  -0.7037
  O  O175  1  0.267400  0.017100  0.873400  1.0  -0.7847
  O  O176  1  0.117500  0.142500  0.074700  1.0  -0.7625
  O  O177  1  0.345900  0.113600  0.093300  1.0  -0.7573
  O  O178  1  0.359700  0.390500  0.736100  1.0  -0.5725
  O  O179  1  0.638200  0.406000  0.780500  1.0  -0.356
  O  O180  1  0.571200  0.719200  0.801800  1.0  -0.7091
  O  O181  1  0.445700  0.409200  0.934100  1.0  -0.2387
  O  O182  1  0.789100  0.807200  0.791600  1.0  -0.7989
  O  O183  1  0.868200  0.401800  0.725100  1.0  -0.2477
  O  O184  1  0.500200  0.317000  0.668100  1.0  -0.5562
  O  O185  1  0.911900  0.140100  0.237500  1.0  -0.7112
  O  O186  1  0.684300  0.106500  0.261600  1.0  -0.7692
  O  O187  1  0.122900  0.120300  0.524100  1.0  -0.2384
  O  O188  1  0.814300  0.071800  0.484900  1.0  -0.3575
  O  O189  1  0.892300  0.235200  0.547700  1.0  -0.5612
  O  O190  1  0.613100  0.143200  0.504500  1.0  -0.5744
  O  O191  1  0.941500  0.998700  0.791000  1.0  -0.7166
  O  O192  1  0.683600  0.964000  0.773500  1.0  -0.7902
  O  O193  1  0.870900  0.205100  0.124700  1.0  -0.7183
  O  O194  1  0.690300  0.234400  0.173500  1.0  -0.7582
  O  O195  1  0.099100  0.652100  0.086400  1.0  -0.566
  O  O196  1  0.920200  0.698200  0.146800  1.0  -0.5478
  O  O197  1  0.821700  0.608200  0.032900  1.0  -0.368
  O  O198  1  0.500300  0.996800  0.134400  1.0  -0.7017
  O  O199  1  0.732600  0.982900  0.126600  1.0  -0.7835
  O  O200  1  0.882500  0.857500  0.925300  1.0  -0.7555
  O  O201  1  0.654100  0.886400  0.906700  1.0  -0.7564
  O  O202  1  0.640300  0.609500  0.263900  1.0  -0.5716
  O  O203  1  0.361800  0.594000  0.219500  1.0  -0.3576
  O  O204  1  0.428800  0.280800  0.198200  1.0  -0.7106
  O  O205  1  0.554300  0.590800  0.065900  1.0  -0.2393
  O  O206  1  0.210900  0.192800  0.208400  1.0  -0.7989
  O  O207  1  0.131800  0.598200  0.274900  1.0  -0.246
  O  O208  1  0.499800  0.683000  0.331900  1.0  -0.5557
