# generated using pymatgen
data_Ho2H30C45(SO8)3
_symmetry_space_group_name_H-M   'P 1'
_cell_length_a   9.16710000
_cell_length_b   15.52000000
_cell_length_c   22.19900000
_cell_angle_alpha   102.89000000
_cell_angle_beta   101.79000000
_cell_angle_gamma   104.14000000
_symmetry_Int_Tables_number   1
_chemical_formula_structural   Ho2H30C45(SO8)3
_chemical_formula_sum   'Ho4 H60 C90 S6 O48'
_cell_volume   2871.36543112
_cell_formula_units_Z   2
loop_
 _symmetry_equiv_pos_site_id
 _symmetry_equiv_pos_as_xyz
  1  'x, y, z'
loop_
 _atom_site_type_symbol
 _atom_site_label
 _atom_site_symmetry_multiplicity
 _atom_site_fract_x
 _atom_site_fract_y
 _atom_site_fract_z
 _atom_site_occupancy
 _atom_site_charge
  Ho  Ho1  1  0.516750  0.861690  0.803530  1.0  2.2359
  Ho  Ho2  1  0.029930  0.911460  0.856060  1.0  2.2138
  Ho  Ho3  1  0.483250  0.138310  0.196470  1.0  2.2359
  Ho  Ho4  1  0.970070  0.088540  0.143940  1.0  2.2127
  H  H5  1  0.867500  0.834900  0.665600  1.0  0.1031
  H  H6  1  0.742700  0.834000  0.565300  1.0  0.1261
  H  H7  1  0.285400  0.919300  0.630400  1.0  0.1163
  H  H8  1  0.667300  0.787900  0.453200  1.0  0.115
  H  H9  1  0.666200  0.890500  0.478000  1.0  0.1212
  H  H10  1  0.678200  0.852700  0.408200  1.0  0.1189
  H  H11  1  0.985200  0.849700  0.368500  1.0  0.1143
  H  H12  1  0.969800  0.915900  0.284000  1.0  0.0888
  H  H13  1  0.435800  0.008000  0.328800  1.0  0.1146
  H  H14  1  0.449200  0.950500  0.418100  1.0  0.1099
  H  H15  1  0.002500  0.664700  0.906700  1.0  0.0958
  H  H16  1  0.946100  0.525400  0.928900  1.0  0.1237
  H  H17  1  0.276400  0.464200  0.847500  1.0  0.113
  H  H18  1  0.343400  0.610200  0.834300  1.0  0.0938
  H  H19  1  0.115500  0.261200  0.020700  1.0  0.1172
  H  H20  1  0.503000  0.186500  0.028300  1.0  0.1034
  H  H21  1  0.592700  0.290200  0.975800  1.0  0.1226
  H  H22  1  0.673600  0.466600  0.960500  1.0  0.1
  H  H23  1  0.624600  0.365700  0.914300  1.0  0.1112
  H  H24  1  0.594200  0.446500  0.887100  1.0  0.1186
  H  H25  1  0.595800  0.564300  0.804600  1.0  0.1087
  H  H26  1  0.996800  0.562800  0.706000  1.0  0.1205
  H  H27  1  0.927500  0.696200  0.733600  1.0  0.1108
  H  H28  1  0.961300  0.410600  0.654100  1.0  0.0954
  H  H29  1  0.088800  0.438800  0.719900  1.0  0.0999
  H  H30  1  0.998000  0.333900  0.684800  1.0  0.1149
  H  H31  1  0.256600  0.269300  0.789600  1.0  0.1084
  H  H32  1  0.221800  0.149300  0.838600  1.0  0.1131
  H  H33  1  0.595400  0.092700  0.795000  1.0  0.1009
  H  H34  1  0.635800  0.213200  0.746400  1.0  0.1321
  H  H35  1  0.132500  0.165100  0.334400  1.0  0.1029
  H  H36  1  0.257300  0.166000  0.434700  1.0  0.1275
  H  H37  1  0.714600  0.080700  0.369600  1.0  0.1163
  H  H38  1  0.332700  0.212100  0.546800  1.0  0.1147
  H  H39  1  0.333800  0.109500  0.522000  1.0  0.1211
  H  H40  1  0.321800  0.147300  0.591800  1.0  0.1187
  H  H41  1  0.014800  0.150300  0.631500  1.0  0.114
  H  H42  1  0.030200  0.084100  0.716000  1.0  0.089
  H  H43  1  0.564200  0.992000  0.671200  1.0  0.1148
  H  H44  1  0.550800  0.049500  0.581900  1.0  0.1098
  H  H45  1  0.997500  0.335300  0.093300  1.0  0.0957
  H  H46  1  0.053900  0.474600  0.071100  1.0  0.1236
  H  H47  1  0.723600  0.535800  0.152500  1.0  0.113
  H  H48  1  0.656600  0.389800  0.165700  1.0  0.0941
  H  H49  1  0.884500  0.738800  0.979300  1.0  0.1172
  H  H50  1  0.497000  0.813500  0.971700  1.0  0.1034
  H  H51  1  0.407300  0.709800  0.024200  1.0  0.1231
  H  H52  1  0.326400  0.533400  0.039500  1.0  0.0998
  H  H53  1  0.375400  0.634300  0.085700  1.0  0.1116
  H  H54  1  0.405800  0.553500  0.112900  1.0  0.118
  H  H55  1  0.404200  0.435700  0.195400  1.0  0.1094
  H  H56  1  0.003200  0.437200  0.294000  1.0  0.1204
  H  H57  1  0.072500  0.303800  0.266400  1.0  0.1104
  H  H58  1  0.038700  0.589400  0.345900  1.0  0.0958
  H  H59  1  0.911200  0.561200  0.280100  1.0  0.0999
  H  H60  1  0.002000  0.666100  0.315200  1.0  0.1173
  H  H61  1  0.743400  0.730700  0.210400  1.0  0.1082
  H  H62  1  0.778200  0.850700  0.161400  1.0  0.1129
  H  H63  1  0.404600  0.907300  0.205000  1.0  0.1
  H  H64  1  0.364200  0.786800  0.253600  1.0  0.1322
  C  C65  1  0.170900  0.876200  0.725200  1.0  0.7133
  C  C66  1  0.090300  0.875600  0.659500  1.0  -0.1875
  C  C67  1  0.926500  0.851300  0.638100  1.0  -0.0218
  C  C68  1  0.851400  0.851000  0.578100  1.0  -0.227
  C  C69  1  0.937500  0.876200  0.535600  1.0  0.2586
  C  C70  1  0.095200  0.899100  0.556100  1.0  0.166
  C  C71  1  0.176600  0.901200  0.617700  1.0  -0.0824
  C  C72  1  0.707900  0.850400  0.451700  1.0  -0.0403
  C  C73  1  0.219600  0.897200  0.401300  1.0  -0.1548
  C  C74  1  0.075600  0.883600  0.361400  1.0  -0.0471
  C  C75  1  0.067200  0.921400  0.309800  1.0  0.0035
  C  C76  1  0.197200  0.965400  0.296800  1.0  -0.1494
  C  C77  1  0.344900  0.977400  0.337300  1.0  -0.04
  C  C78  1  0.352700  0.942500  0.390500  1.0  -0.0366
  C  C79  1  0.191400  0.005800  0.239800  1.0  0.7174
  C  C80  1  0.212800  0.746200  0.855800  1.0  0.7014
  C  C81  1  0.181300  0.653600  0.868900  1.0  -0.1567
  C  C82  1  0.060100  0.624700  0.896200  1.0  -0.0253
  C  C83  1  0.022400  0.540900  0.908000  1.0  -0.1028
  C  C84  1  0.102500  0.478800  0.887400  1.0  -0.1992
  C  C85  1  0.222000  0.505200  0.860200  1.0  -0.0631
  C  C86  1  0.261000  0.592500  0.851900  1.0  -0.0382
  C  C87  1  0.261800  0.329500  0.980200  1.0  0.2441
  C  C88  1  0.211900  0.267800  0.011800  1.0  -0.1291
  C  C89  1  0.303600  0.214500  0.031100  1.0  -0.1663
  C  C90  1  0.443000  0.223500  0.016500  1.0  -0.0503
  C  C91  1  0.497000  0.285600  0.984900  1.0  -0.2409
  C  C92  1  0.408700  0.342500  0.966100  1.0  0.2629
  C  C93  1  0.242500  0.152800  0.069200  1.0  0.7224
  C  C94  1  0.597000  0.422200  0.923300  1.0  -0.0289
  C  C95  1  0.704600  0.729600  0.790100  1.0  0.7118
  C  C96  1  0.754300  0.645400  0.773100  1.0  -0.1702
  C  C97  1  0.676300  0.564500  0.784900  1.0  -0.1
  C  C98  1  0.717700  0.484800  0.767800  1.0  0.1678
  C  C99  1  0.840800  0.482600  0.738100  1.0  0.2313
  C  C100  1  0.916600  0.562800  0.725800  1.0  -0.2618
  C  C101  1  0.875300  0.643100  0.742600  1.0  -0.0467
  C  C102  1  0.989900  0.395800  0.693800  1.0  -0.0109
  C  C103  1  0.448600  0.251900  0.765000  1.0  -0.1991
  C  C104  1  0.325900  0.234500  0.791400  1.0  -0.0407
  C  C105  1  0.305800  0.163200  0.821200  1.0  -0.0649
  C  C106  1  0.411500  0.114700  0.824400  1.0  -0.1168
  C  C107  1  0.530000  0.130000  0.795000  1.0  -0.0217
  C  C108  1  0.553900  0.200900  0.765200  1.0  -0.1233
  C  C109  1  0.391000  0.038600  0.855400  1.0  0.706
  C  C110  1  0.829100  0.123800  0.274800  1.0  0.7131
  C  C111  1  0.909700  0.124400  0.340500  1.0  -0.1864
  C  C112  1  0.073500  0.148700  0.361900  1.0  -0.0213
  C  C113  1  0.148600  0.149000  0.421900  1.0  -0.2247
  C  C114  1  0.062500  0.123800  0.464400  1.0  0.2583
  C  C115  1  0.904800  0.100900  0.443900  1.0  0.1681
  C  C116  1  0.823400  0.098800  0.382300  1.0  -0.0858
  C  C117  1  0.292100  0.149600  0.548300  1.0  -0.0403
  C  C118  1  0.780400  0.102800  0.598700  1.0  -0.1586
  C  C119  1  0.924400  0.116400  0.638600  1.0  -0.0476
  C  C120  1  0.932800  0.078600  0.690200  1.0  0.0044
  C  C121  1  0.802800  0.034600  0.703200  1.0  -0.1503
  C  C122  1  0.655100  0.022600  0.662700  1.0  -0.039
  C  C123  1  0.647300  0.057500  0.609500  1.0  -0.0355
  C  C124  1  0.808600  0.994200  0.760200  1.0  0.716
  C  C125  1  0.787200  0.253800  0.144200  1.0  0.7
  C  C126  1  0.818700  0.346400  0.131100  1.0  -0.1566
  C  C127  1  0.939900  0.375300  0.103800  1.0  -0.0252
  C  C128  1  0.977600  0.459100  0.092000  1.0  -0.1014
  C  C129  1  0.897500  0.521200  0.112600  1.0  -0.2001
  C  C130  1  0.778000  0.494800  0.139800  1.0  -0.0635
  C  C131  1  0.739000  0.407500  0.148100  1.0  -0.0364
  C  C132  1  0.738200  0.670500  0.019800  1.0  0.246
  C  C133  1  0.788100  0.732200  0.988200  1.0  -0.1299
  C  C134  1  0.696400  0.785500  0.968900  1.0  -0.1665
  C  C135  1  0.557000  0.776500  0.983500  1.0  -0.0514
  C  C136  1  0.503000  0.714400  0.015100  1.0  -0.2413
  C  C137  1  0.591300  0.657500  0.033900  1.0  0.264
  C  C138  1  0.757500  0.847200  0.930800  1.0  0.724
  C  C139  1  0.403000  0.577800  0.076700  1.0  -0.0293
  C  C140  1  0.295400  0.270400  0.209900  1.0  0.7123
  C  C141  1  0.245700  0.354600  0.226900  1.0  -0.1702
  C  C142  1  0.323700  0.435500  0.215100  1.0  -0.1
  C  C143  1  0.282300  0.515200  0.232200  1.0  0.1684
  C  C144  1  0.159200  0.517400  0.261900  1.0  0.2341
  C  C145  1  0.083400  0.437200  0.274200  1.0  -0.2622
  C  C146  1  0.124700  0.356900  0.257400  1.0  -0.0503
  C  C147  1  0.010100  0.604200  0.306200  1.0  -0.0108
  C  C148  1  0.551400  0.748100  0.235000  1.0  -0.1969
  C  C149  1  0.674100  0.765500  0.208600  1.0  -0.0443
  C  C150  1  0.694200  0.836800  0.178800  1.0  -0.0648
  C  C151  1  0.588500  0.885300  0.175600  1.0  -0.1188
  C  C152  1  0.470000  0.870000  0.205000  1.0  -0.0206
  C  C153  1  0.446100  0.799100  0.234800  1.0  -0.1208
  C  C154  1  0.609000  0.961400  0.144600  1.0  0.7022
  S  S155  1  0.229700  0.850800  0.467880  1.0  1.2455
  S  S156  1  0.053000  0.369400  0.900810  1.0  1.2683
  S  S157  1  0.478500  0.343500  0.730250  1.0  1.2557
  S  S158  1  0.770300  0.149200  0.532120  1.0  1.248
  S  S159  1  0.947000  0.630600  0.099190  1.0  1.2696
  S  S160  1  0.521500  0.656500  0.269750  1.0  1.2553
  O  O161  1  0.089700  0.857800  0.762500  1.0  -0.6752
  O  O162  1  0.316400  0.892300  0.738000  1.0  -0.7218
  O  O163  1  0.877800  0.880700  0.475500  1.0  -0.2386
  O  O164  1  0.188200  0.929300  0.516200  1.0  -0.4189
  O  O165  1  0.108300  0.766100  0.452500  1.0  -0.5528
  O  O166  1  0.386600  0.855500  0.494100  1.0  -0.5732
  O  O167  1  0.059800  0.004200  0.210100  1.0  -0.6772
  O  O168  1  0.316400  0.036300  0.227500  1.0  -0.6866
  O  O169  1  0.138300  0.799500  0.876500  1.0  -0.695
  O  O170  1  0.314800  0.766100  0.827100  1.0  -0.7062
  O  O171  1  0.903600  0.349300  0.913900  1.0  -0.5703
  O  O172  1  0.080300  0.302100  0.853700  1.0  -0.5597
  O  O173  1  0.181700  0.393200  0.968600  1.0  -0.4059
  O  O174  1  0.498900  0.000700  0.864500  1.0  -0.7055
  O  O175  1  0.268800  0.016100  0.873000  1.0  -0.7579
  O  O176  1  0.108600  0.142900  0.076000  1.0  -0.7374
  O  O177  1  0.333600  0.112600  0.094200  1.0  -0.685
  O  O178  1  0.364400  0.389800  0.737200  1.0  -0.5621
  O  O179  1  0.641300  0.405000  0.781700  1.0  -0.4203
  O  O180  1  0.572900  0.719700  0.800400  1.0  -0.6193
  O  O181  1  0.448100  0.403900  0.935100  1.0  -0.2747
  O  O182  1  0.789800  0.806000  0.790600  1.0  -0.7401
  O  O183  1  0.873600  0.401600  0.726900  1.0  -0.2632
  O  O184  1  0.504300  0.316400  0.669600  1.0  -0.5755
  O  O185  1  0.910300  0.142200  0.237500  1.0  -0.6727
  O  O186  1  0.683600  0.107700  0.262000  1.0  -0.7222
  O  O187  1  0.122200  0.119300  0.524500  1.0  -0.2391
  O  O188  1  0.811800  0.070700  0.483800  1.0  -0.4197
  O  O189  1  0.891700  0.233900  0.547500  1.0  -0.5551
  O  O190  1  0.613400  0.144500  0.505900  1.0  -0.5728
  O  O191  1  0.940200  0.995800  0.789900  1.0  -0.678
  O  O192  1  0.683600  0.963700  0.772500  1.0  -0.6854
  O  O193  1  0.861700  0.200500  0.123500  1.0  -0.6937
  O  O194  1  0.685200  0.233900  0.172900  1.0  -0.7069
  O  O195  1  0.096400  0.650700  0.086100  1.0  -0.5721
  O  O196  1  0.919700  0.697900  0.146300  1.0  -0.5602
  O  O197  1  0.818300  0.606800  0.031400  1.0  -0.4061
  O  O198  1  0.501100  0.999300  0.135500  1.0  -0.7037
  O  O199  1  0.731200  0.983900  0.127000  1.0  -0.7569
  O  O200  1  0.891400  0.857100  0.924000  1.0  -0.7348
  O  O201  1  0.666400  0.887400  0.905800  1.0  -0.6844
  O  O202  1  0.635600  0.610200  0.262800  1.0  -0.5585
  O  O203  1  0.358700  0.595000  0.218300  1.0  -0.4229
  O  O204  1  0.427100  0.280300  0.199600  1.0  -0.6188
  O  O205  1  0.551900  0.596100  0.064900  1.0  -0.2753
  O  O206  1  0.210200  0.194000  0.209400  1.0  -0.7379
  O  O207  1  0.126400  0.598400  0.273100  1.0  -0.2603
  O  O208  1  0.495700  0.683600  0.330400  1.0  -0.5708
