# generated using pymatgen
data_K2CaZr(CO2)8
_symmetry_space_group_name_H-M   'P 1'
_cell_length_a   8.92000000
_cell_length_b   9.17670000
_cell_length_c   9.17670000
_cell_angle_alpha   76.33710000
_cell_angle_beta   60.92110000
_cell_angle_gamma   60.92120000
_symmetry_Int_Tables_number   1
_chemical_formula_structural   K2CaZr(CO2)8
_chemical_formula_sum   'K2 Ca1 Zr1 C8 O16'
_cell_volume   573.73688846
_cell_formula_units_Z   1
loop_
 _symmetry_equiv_pos_site_id
 _symmetry_equiv_pos_as_xyz
  1  'x, y, z'
loop_
 _atom_site_type_symbol
 _atom_site_label
 _atom_site_symmetry_multiplicity
 _atom_site_fract_x
 _atom_site_fract_y
 _atom_site_fract_z
 _atom_site_occupancy
 _atom_site_charge
  K  K1  1  0.500000  0.000000  0.000000  1.0  0.9623
  K  K2  1  0.250000  0.500000  0.500000  1.0  1.0285
  Ca  Ca3  1  0.750000  0.500000  0.500000  1.0  1.3891
  Zr  Zr4  1  0.000000  0.000000  0.000000  1.0  1.9642
  C  C5  1  0.802400  0.218200  0.778000  1.0  0.5175
  C  C6  1  0.957600  0.271400  0.738200  1.0  0.5592
  C  C7  1  0.798600  0.781800  0.222000  1.0  0.5175
  C  C8  1  0.967200  0.728600  0.261800  1.0  0.5583
  C  C9  1  0.419600  0.778000  0.781800  1.0  0.5174
  C  C10  1  0.304200  0.738200  0.728600  1.0  0.5576
  C  C11  1  0.979400  0.222000  0.218200  1.0  0.5177
  C  C12  1  0.771000  0.261800  0.271400  1.0  0.558
  O  O13  1  0.796400  0.104400  0.886000  1.0  -0.6444
  O  O14  1  0.058100  0.189200  0.818200  1.0  -0.5857
  O  O15  1  0.700500  0.288300  0.703700  1.0  -0.6018
  O  O16  1  0.971200  0.384500  0.637300  1.0  -0.5766
  O  O17  1  0.786800  0.895600  0.114000  1.0  -0.649
  O  O18  1  0.065500  0.810800  0.181800  1.0  -0.5846
  O  O19  1  0.692500  0.711700  0.296300  1.0  -0.5997
  O  O20  1  0.993000  0.615500  0.362700  1.0  -0.5805
  O  O21  1  0.317600  0.886000  0.895600  1.0  -0.6463
  O  O22  1  0.123700  0.818200  0.810800  1.0  -0.5835
  O  O23  1  0.595800  0.703700  0.711700  1.0  -0.6003
  O  O24  1  0.391500  0.637300  0.615500  1.0  -0.5811
  O  O25  1  0.099200  0.114000  0.104400  1.0  -0.6478
  O  O26  1  0.752700  0.181800  0.189200  1.0  -0.5866
  O  O27  1  0.011200  0.296300  0.288300  1.0  -0.6022
  O  O28  1  0.644300  0.362700  0.384500  1.0  -0.577
