# generated using pymatgen
data_Al3P3O12F
_symmetry_space_group_name_H-M   'P 1'
_cell_length_a   9.33300000
_cell_length_b   9.18300000
_cell_length_c   9.16200000
_cell_angle_alpha   88.45000000
_cell_angle_beta   102.57000000
_cell_angle_gamma   93.76000000
_symmetry_Int_Tables_number   1
_chemical_formula_structural   Al3P3O12F
_chemical_formula_sum   'Al6 P6 O24 F2'
_cell_volume   764.69186936
_cell_formula_units_Z   2
loop_
 _symmetry_equiv_pos_site_id
 _symmetry_equiv_pos_as_xyz
  1  'x, y, z'
loop_
 _atom_site_type_symbol
 _atom_site_label
 _atom_site_symmetry_multiplicity
 _atom_site_fract_x
 _atom_site_fract_y
 _atom_site_fract_z
 _atom_site_occupancy
 _atom_site_charge
  Al  Al1  1  0.912400  0.065100  0.363300  1.0  1.8518
  Al  Al2  1  0.923300  0.658500  0.131000  1.0  1.9779
  Al  Al3  1  0.344800  0.872800  0.106100  1.0  1.9801
  Al  Al4  1  0.087600  0.934900  0.636700  1.0  1.8524
  Al  Al5  1  0.076700  0.341500  0.869000  1.0  1.9774
  Al  Al6  1  0.655200  0.127200  0.893900  1.0  1.9807
  P  P7  1  0.899900  0.312500  0.119200  1.0  1.776
  P  P8  1  0.678200  0.881500  0.127100  1.0  1.9472
  P  P9  1  0.141100  0.854600  0.331100  1.0  1.8228
  P  P10  1  0.100100  0.687500  0.880800  1.0  1.7787
  P  P11  1  0.321800  0.118500  0.872900  1.0  1.9475
  P  P12  1  0.858900  0.145400  0.668900  1.0  1.8234
  O  O13  1  0.285100  0.879100  0.272100  1.0  -0.9323
  O  O14  1  0.660900  0.947100  0.969700  1.0  -0.9166
  O  O15  1  0.768200  0.747100  0.138600  1.0  -0.9693
  O  O16  1  0.035400  0.302700  0.036800  1.0  -0.941
  O  O17  1  0.927800  0.237700  0.265000  1.0  -0.8316
  O  O18  1  0.038700  0.972700  0.267900  1.0  -0.828
  O  O19  1  0.070900  0.704700  0.278000  1.0  -0.8608
  O  O20  1  0.522300  0.824900  0.149500  1.0  -0.9615
  O  O21  1  0.194500  0.854200  0.503100  1.0  -0.7202
  O  O22  1  0.880100  0.475400  0.140800  1.0  -0.9805
  O  O23  1  0.735900  0.985000  0.250500  1.0  -0.8681
  O  O24  1  0.759200  0.252400  0.013600  1.0  -1.0148
  O  O25  1  0.714900  0.120900  0.727900  1.0  -0.9317
  O  O26  1  0.339100  0.052900  0.030300  1.0  -0.9155
  O  O27  1  0.231800  0.252900  0.861400  1.0  -0.9727
  O  O28  1  0.964600  0.697300  0.963200  1.0  -0.9415
  O  O29  1  0.072200  0.762300  0.735000  1.0  -0.8316
  O  O30  1  0.961300  0.027300  0.732100  1.0  -0.8285
  O  O31  1  0.929100  0.295300  0.722000  1.0  -0.8576
  O  O32  1  0.477700  0.175100  0.850500  1.0  -0.9605
  O  O33  1  0.805500  0.145800  0.496900  1.0  -0.7199
  O  O34  1  0.119900  0.524600  0.859200  1.0  -0.9805
  O  O35  1  0.264100  0.015000  0.749500  1.0  -0.8666
  O  O36  1  0.240800  0.747600  0.986400  1.0  -1.014
  F  F37  1  0.919200  0.887500  0.487800  1.0  -0.5355
  F  F38  1  0.080800  0.112500  0.512200  1.0  -0.5352
