# generated using pymatgen
data_NaPH11C9BrN3O8
_symmetry_space_group_name_H-M   'P 1'
_cell_length_a   4.73300000
_cell_length_b   17.30500000
_cell_length_c   19.24300000
_cell_angle_alpha   90.00000000
_cell_angle_beta   90.00000000
_cell_angle_gamma   90.00000000
_symmetry_Int_Tables_number   1
_chemical_formula_structural   NaPH11C9BrN3O8
_chemical_formula_sum   'Na4 P4 H44 C36 Br4 N12 O32'
_cell_volume   1576.08954429
_cell_formula_units_Z   4
loop_
 _symmetry_equiv_pos_site_id
 _symmetry_equiv_pos_as_xyz
  1  'x, y, z'
loop_
 _atom_site_type_symbol
 _atom_site_label
 _atom_site_symmetry_multiplicity
 _atom_site_fract_x
 _atom_site_fract_y
 _atom_site_fract_z
 _atom_site_occupancy
 _atom_site_charge
  Na  Na1  1  0.969100  0.676100  0.549800  1.0  0.9454
  Na  Na2  1  0.530900  0.323900  0.049800  1.0  0.9444
  Na  Na3  1  0.030900  0.176100  0.950200  1.0  0.9457
  Na  Na4  1  0.469100  0.823900  0.450200  1.0  0.9458
  P  P5  1  0.992700  0.447570  0.101620  1.0  1.4992
  P  P6  1  0.507300  0.552430  0.601620  1.0  1.4954
  P  P7  1  0.007300  0.947570  0.398380  1.0  1.4975
  P  P8  1  0.492700  0.052430  0.898380  1.0  1.4952
  H  H9  1  0.770000  0.790000  0.233000  1.0  0.3205
  H  H10  1  0.770000  0.810000  0.311000  1.0  0.3151
  H  H11  1  0.080000  0.606000  0.228000  1.0  0.111
  H  H12  1  0.760000  0.592000  0.395000  1.0  0.0761
  H  H13  1  0.220000  0.514000  0.413000  1.0  0.0847
  H  H14  1  0.770000  0.507000  0.486000  1.0  0.3638
  H  H15  1  0.210000  0.478000  0.297000  1.0  0.0688
  H  H16  1  0.010000  0.352000  0.390000  1.0  0.3653
  H  H17  1  0.630000  0.434000  0.319000  1.0  0.0774
  H  H18  1  0.560000  0.461000  0.203000  1.0  0.1028
  H  H19  1  0.790000  0.376000  0.220000  1.0  0.0805
  H  H20  1  0.730000  0.210000  0.733000  1.0  0.3195
  H  H21  1  0.730000  0.190000  0.811000  1.0  0.3121
  H  H22  1  0.420000  0.394000  0.728000  1.0  0.1107
  H  H23  1  0.740000  0.408000  0.895000  1.0  0.0766
  H  H24  1  0.280000  0.486000  0.913000  1.0  0.0843
  H  H25  1  0.730000  0.493000  0.986000  1.0  0.3635
  H  H26  1  0.290000  0.522000  0.797000  1.0  0.0693
  H  H27  1  0.490000  0.648000  0.890000  1.0  0.3716
  H  H28  1  0.870000  0.566000  0.819000  1.0  0.0768
  H  H29  1  0.940000  0.539000  0.703000  1.0  0.1022
  H  H30  1  0.710000  0.624000  0.720000  1.0  0.0807
  H  H31  1  0.230000  0.290000  0.267000  1.0  0.3183
  H  H32  1  0.230000  0.310000  0.189000  1.0  0.3098
  H  H33  1  0.920000  0.106000  0.272000  1.0  0.1105
  H  H34  1  0.240000  0.092000  0.105000  1.0  0.0775
  H  H35  1  0.780000  0.014000  0.087000  1.0  0.0841
  H  H36  1  0.230000  0.007000  0.014000  1.0  0.3656
  H  H37  1  0.790000  0.978000  0.203000  1.0  0.0689
  H  H38  1  0.990000  0.852000  0.110000  1.0  0.3517
  H  H39  1  0.370000  0.934000  0.181000  1.0  0.0775
  H  H40  1  0.440000  0.961000  0.297000  1.0  0.1026
  H  H41  1  0.210000  0.876000  0.280000  1.0  0.0808
  H  H42  1  0.270000  0.710000  0.767000  1.0  0.3181
  H  H43  1  0.270000  0.690000  0.689000  1.0  0.3102
  H  H44  1  0.580000  0.894000  0.772000  1.0  0.1105
  H  H45  1  0.260000  0.908000  0.605000  1.0  0.0763
  H  H46  1  0.720000  0.986000  0.587000  1.0  0.0853
  H  H47  1  0.270000  0.993000  0.514000  1.0  0.3652
  H  H48  1  0.710000  0.022000  0.703000  1.0  0.0688
  H  H49  1  0.510000  0.148000  0.610000  1.0  0.3669
  H  H50  1  0.130000  0.066000  0.681000  1.0  0.0774
  H  H51  1  0.060000  0.039000  0.797000  1.0  0.1024
  H  H52  1  0.290000  0.124000  0.780000  1.0  0.0804
  C  C53  1  0.192700  0.683000  0.379000  1.0  0.741
  C  C54  1  0.477500  0.734800  0.291700  1.0  0.5529
  C  C55  1  0.353600  0.685400  0.241600  1.0  -0.2178
  C  C56  1  0.153000  0.634600  0.262800  1.0  0.1453
  C  C57  1  0.869800  0.574600  0.358400  1.0  0.245
  C  C58  1  0.017700  0.505600  0.392400  1.0  0.0628
  C  C59  1  0.048500  0.451900  0.330100  1.0  0.136
  C  C60  1  0.763000  0.462500  0.295500  1.0  0.1073
  C  C61  1  0.738700  0.440000  0.219900  1.0  0.031
  C  C62  1  0.307300  0.317000  0.879000  1.0  0.7393
  C  C63  1  0.022500  0.265200  0.791700  1.0  0.5534
  C  C64  1  0.146400  0.314600  0.741600  1.0  -0.2188
  C  C65  1  0.347000  0.365400  0.762800  1.0  0.145
  C  C66  1  0.630200  0.425400  0.858400  1.0  0.2426
  C  C67  1  0.482300  0.494400  0.892400  1.0  0.0617
  C  C68  1  0.451500  0.548100  0.830100  1.0  0.1357
  C  C69  1  0.737000  0.537500  0.795500  1.0  0.1076
  C  C70  1  0.761300  0.560000  0.719900  1.0  0.0316
  C  C71  1  0.807300  0.183000  0.121000  1.0  0.74
  C  C72  1  0.522500  0.234800  0.208300  1.0  0.5547
  C  C73  1  0.646400  0.185400  0.258400  1.0  -0.2206
  C  C74  1  0.847000  0.134600  0.237200  1.0  0.1454
  C  C75  1  0.130200  0.074600  0.141600  1.0  0.2399
  C  C76  1  0.982300  0.005600  0.107600  1.0  0.0623
  C  C77  1  0.951500  0.951900  0.169900  1.0  0.1344
  C  C78  1  0.237000  0.962500  0.204500  1.0  0.1076
  C  C79  1  0.261300  0.940000  0.280100  1.0  0.0314
  C  C80  1  0.692700  0.817000  0.621000  1.0  0.7381
  C  C81  1  0.977500  0.765200  0.708300  1.0  0.5543
  C  C82  1  0.853600  0.814600  0.758400  1.0  -0.2201
  C  C83  1  0.653000  0.865400  0.737200  1.0  0.1456
  C  C84  1  0.369800  0.925400  0.641600  1.0  0.2287
  C  C85  1  0.517700  0.994400  0.607600  1.0  0.0635
  C  C86  1  0.548500  0.048100  0.669900  1.0  0.1349
  C  C87  1  0.263000  0.037500  0.704500  1.0  0.1071
  C  C88  1  0.238700  0.060000  0.780100  1.0  0.0308
  Br  Br89  1  0.476500  0.686640  0.148700  1.0  0.0613
  Br  Br90  1  0.023500  0.313360  0.648700  1.0  0.0616
  Br  Br91  1  0.523500  0.186640  0.351300  1.0  0.0554
  Br  Br92  1  0.976500  0.813360  0.851300  1.0  0.0554
  N  N93  1  0.077500  0.632100  0.331000  1.0  -0.2086
  N  N94  1  0.395600  0.733100  0.357900  1.0  -0.6768
  N  N95  1  0.688200  0.784100  0.275000  1.0  -0.6361
  N  N96  1  0.422500  0.367900  0.831000  1.0  -0.2094
  N  N97  1  0.104400  0.266900  0.857900  1.0  -0.6815
  N  N98  1  0.811800  0.215900  0.775000  1.0  -0.6352
  N  N99  1  0.922500  0.132100  0.169000  1.0  -0.2088
  N  N100  1  0.604400  0.233100  0.142100  1.0  -0.6908
  N  N101  1  0.311800  0.284100  0.225000  1.0  -0.6355
  N  N102  1  0.577500  0.867900  0.669000  1.0  -0.2094
  N  N103  1  0.895600  0.766900  0.642100  1.0  -0.6915
  N  N104  1  0.188200  0.715900  0.725000  1.0  -0.6354
  O  O105  1  0.113800  0.680800  0.440200  1.0  -0.7165
  O  O106  1  0.829900  0.469100  0.439600  1.0  -0.5274
  O  O107  1  0.110300  0.373800  0.344500  1.0  -0.5357
  O  O108  1  0.707700  0.544900  0.303100  1.0  -0.3308
  O  O109  1  0.949200  0.478900  0.179100  1.0  -0.4861
  O  O110  1  0.716200  0.453100  0.063100  1.0  -0.7559
  O  O111  1  0.118000  0.368800  0.104200  1.0  -0.8658
  O  O112  1  0.204500  0.509100  0.071900  1.0  -0.5115
  O  O113  1  0.386200  0.319200  0.940200  1.0  -0.7167
  O  O114  1  0.670100  0.530900  0.939600  1.0  -0.5253
  O  O115  1  0.389700  0.626200  0.844500  1.0  -0.5345
  O  O116  1  0.792300  0.455100  0.803100  1.0  -0.3308
  O  O117  1  0.550800  0.521100  0.679100  1.0  -0.4852
  O  O118  1  0.783800  0.546900  0.563100  1.0  -0.7563
  O  O119  1  0.382000  0.631200  0.604200  1.0  -0.8661
  O  O120  1  0.295500  0.490900  0.571900  1.0  -0.5126
  O  O121  1  0.886200  0.180800  0.059800  1.0  -0.7148
  O  O122  1  0.170100  0.969100  0.060400  1.0  -0.527
  O  O123  1  0.889700  0.873800  0.155500  1.0  -0.5355
  O  O124  1  0.292300  0.044900  0.196900  1.0  -0.3301
  O  O125  1  0.050800  0.978900  0.320900  1.0  -0.4877
  O  O126  1  0.283800  0.953100  0.436900  1.0  -0.7563
  O  O127  1  0.882000  0.868800  0.395800  1.0  -0.8648
  O  O128  1  0.795500  0.009100  0.428100  1.0  -0.5109
  O  O129  1  0.613800  0.819200  0.559800  1.0  -0.716
  O  O130  1  0.329900  0.030900  0.560400  1.0  -0.5251
  O  O131  1  0.610300  0.126200  0.655500  1.0  -0.5292
  O  O132  1  0.207700  0.955100  0.696900  1.0  -0.3325
  O  O133  1  0.449200  0.021100  0.820900  1.0  -0.4856
  O  O134  1  0.216200  0.046900  0.936900  1.0  -0.7558
  O  O135  1  0.618000  0.131200  0.895800  1.0  -0.8656
  O  O136  1  0.704500  0.990900  0.928100  1.0  -0.5108
