# generated using pymatgen
data_CoH8C8N5O2
_symmetry_space_group_name_H-M   'P 1'
_cell_length_a   10.08120000
_cell_length_b   10.08120000
_cell_length_c   6.19900000
_cell_angle_alpha   90.00000000
_cell_angle_beta   90.00000000
_cell_angle_gamma   90.00000000
_symmetry_Int_Tables_number   1
_chemical_formula_structural   CoH8C8N5O2
_chemical_formula_sum   'Co2 H16 C16 N10 O4'
_cell_volume   630.00804873
_cell_formula_units_Z   2
loop_
 _symmetry_equiv_pos_site_id
 _symmetry_equiv_pos_as_xyz
  1  'x, y, z'
loop_
 _atom_site_type_symbol
 _atom_site_label
 _atom_site_symmetry_multiplicity
 _atom_site_fract_x
 _atom_site_fract_y
 _atom_site_fract_z
 _atom_site_occupancy
 _atom_site_charge
  Co  Co1  1  0.250000  0.250000  0.500000  1.0  0.6574
  Co  Co2  1  0.750000  0.750000  0.500000  1.0  0.6574
  H  H3  1  0.001800  0.157900  0.757000  1.0  0.0809
  H  H4  1  0.498200  0.342100  0.757000  1.0  0.0811
  H  H5  1  0.342100  0.001800  0.757000  1.0  0.0812
  H  H6  1  0.157900  0.498200  0.757000  1.0  0.0817
  H  H7  1  0.498200  0.157900  0.243000  1.0  0.0813
  H  H8  1  0.001800  0.342100  0.243000  1.0  0.0815
  H  H9  1  0.157900  0.001800  0.243000  1.0  0.0818
  H  H10  1  0.342100  0.498200  0.243000  1.0  0.0815
  H  H11  1  0.998200  0.842100  0.243000  1.0  0.0812
  H  H12  1  0.501800  0.657900  0.243000  1.0  0.0815
  H  H13  1  0.657900  0.998200  0.243000  1.0  0.0817
  H  H14  1  0.842100  0.501800  0.243000  1.0  0.0815
  H  H15  1  0.501800  0.842100  0.757000  1.0  0.0813
  H  H16  1  0.998200  0.657900  0.757000  1.0  0.0807
  H  H17  1  0.842100  0.998200  0.757000  1.0  0.0812
  H  H18  1  0.657900  0.501800  0.757000  1.0  0.0819
  C  C19  1  0.003100  0.093800  0.649300  1.0  0.1499
  C  C20  1  0.496900  0.406200  0.649300  1.0  0.1488
  C  C21  1  0.406200  0.003100  0.649300  1.0  0.1508
  C  C22  1  0.093800  0.496900  0.649300  1.0  0.1502
  C  C23  1  0.496900  0.093800  0.350700  1.0  0.1496
  C  C24  1  0.003100  0.406200  0.350700  1.0  0.1496
  C  C25  1  0.093800  0.003100  0.350700  1.0  0.1505
  C  C26  1  0.406200  0.496900  0.350700  1.0  0.1504
  C  C27  1  0.996900  0.906200  0.350700  1.0  0.1491
  C  C28  1  0.503100  0.593800  0.350700  1.0  0.1499
  C  C29  1  0.593800  0.996900  0.350700  1.0  0.1503
  C  C30  1  0.906200  0.503100  0.350700  1.0  0.1507
  C  C31  1  0.503100  0.906200  0.649300  1.0  0.1494
  C  C32  1  0.996900  0.593800  0.649300  1.0  0.1496
  C  C33  1  0.906200  0.996900  0.649300  1.0  0.15
  C  C34  1  0.593800  0.503100  0.649300  1.0  0.1508
  N  N35  1  0.098500  0.098500  0.500000  1.0  -0.3281
  N  N36  1  0.401500  0.401500  0.500000  1.0  -0.3285
  N  N37  1  0.401500  0.098500  0.500000  1.0  -0.3286
  N  N38  1  0.098500  0.401500  0.500000  1.0  -0.3278
  N  N39  1  0.901500  0.901500  0.500000  1.0  -0.3286
  N  N40  1  0.598500  0.598500  0.500000  1.0  -0.3283
  N  N41  1  0.598500  0.901500  0.500000  1.0  -0.328
  N  N42  1  0.901500  0.598500  0.500000  1.0  -0.3286
  N  N43  1  0.250000  0.250000  0.000000  1.0  0.1037
  N  N44  1  0.750000  0.750000  0.000000  1.0  0.1037
  O  O45  1  0.250000  0.250000  0.166500  1.0  -0.6491
  O  O46  1  0.250000  0.250000  0.833500  1.0  -0.6496
  O  O47  1  0.750000  0.750000  0.833500  1.0  -0.6496
  O  O48  1  0.750000  0.750000  0.166500  1.0  -0.6491
