# generated using pymatgen
data_CuH5C6N4O
_symmetry_space_group_name_H-M   'P 1'
_cell_length_a   6.78750000
_cell_length_b   10.56150000
_cell_length_c   14.21180000
_cell_angle_alpha   90.00000000
_cell_angle_beta   97.56700000
_cell_angle_gamma   90.00000000
_symmetry_Int_Tables_number   1
_chemical_formula_structural   CuH5C6N4O
_chemical_formula_sum   'Cu4 H20 C24 N16 O4'
_cell_volume   1009.91759183
_cell_formula_units_Z   4
loop_
 _symmetry_equiv_pos_site_id
 _symmetry_equiv_pos_as_xyz
  1  'x, y, z'
loop_
 _atom_site_type_symbol
 _atom_site_label
 _atom_site_symmetry_multiplicity
 _atom_site_fract_x
 _atom_site_fract_y
 _atom_site_fract_z
 _atom_site_occupancy
 _atom_site_charge
  Cu  Cu1  1  0.500000  0.500000  0.500000  1.0  0.8059
  Cu  Cu2  1  0.500000  0.000000  0.000000  1.0  0.8059
  Cu  Cu3  1  0.000000  0.500000  0.500000  1.0  0.7651
  Cu  Cu4  1  0.000000  0.000000  0.000000  1.0  0.7651
  H  H5  1  0.745600  0.678400  0.487300  1.0  0.3684
  H  H6  1  0.437000  0.268500  0.331700  1.0  0.0862
  H  H7  1  0.421800  0.141700  0.177600  1.0  0.0751
  H  H8  1  0.092500  0.361200  0.317900  1.0  0.0743
  H  H9  1  0.084000  0.219300  0.168400  1.0  0.0774
  H  H10  1  0.254400  0.178400  0.012700  1.0  0.3682
  H  H11  1  0.563000  0.768500  0.168300  1.0  0.0865
  H  H12  1  0.578200  0.641700  0.322400  1.0  0.0736
  H  H13  1  0.907500  0.861200  0.182100  1.0  0.0747
  H  H14  1  0.916000  0.719300  0.331600  1.0  0.0765
  H  H15  1  0.254400  0.321600  0.512700  1.0  0.3699
  H  H16  1  0.563000  0.731500  0.668300  1.0  0.0871
  H  H17  1  0.578200  0.858300  0.822400  1.0  0.0734
  H  H18  1  0.907500  0.638800  0.682100  1.0  0.0747
  H  H19  1  0.916000  0.780700  0.831600  1.0  0.0767
  H  H20  1  0.745600  0.821600  0.987300  1.0  0.3699
  H  H21  1  0.437000  0.231500  0.831700  1.0  0.0862
  H  H22  1  0.421800  0.358300  0.677600  1.0  0.0749
  H  H23  1  0.092500  0.138800  0.817900  1.0  0.0745
  H  H24  1  0.084000  0.280700  0.668400  1.0  0.077
  C  C25  1  0.571200  0.286500  0.327500  1.0  0.1631
  C  C26  1  0.660300  0.234100  0.251200  1.0  0.0186
  C  C27  1  0.558100  0.157500  0.177800  1.0  0.143
  C  C28  1  0.958000  0.341000  0.319300  1.0  0.1471
  C  C29  1  0.858000  0.261200  0.247000  1.0  -0.0013
  C  C30  1  0.949000  0.203400  0.172300  1.0  0.1603
  C  C31  1  0.428800  0.786500  0.172500  1.0  0.1616
  C  C32  1  0.339700  0.734100  0.248800  1.0  0.0186
  C  C33  1  0.441900  0.657500  0.322200  1.0  0.1433
  C  C34  1  0.042000  0.841000  0.180700  1.0  0.1471
  C  C35  1  0.142000  0.761200  0.253000  1.0  -0.0014
  C  C36  1  0.051000  0.703400  0.327700  1.0  0.1593
  C  C37  1  0.428800  0.713500  0.672500  1.0  0.1616
  C  C38  1  0.339700  0.765900  0.748800  1.0  0.0186
  C  C39  1  0.441900  0.842500  0.822200  1.0  0.1436
  C  C40  1  0.042000  0.659000  0.680700  1.0  0.1465
  C  C41  1  0.142000  0.738800  0.753000  1.0  -0.0016
  C  C42  1  0.051000  0.796600  0.827700  1.0  0.1597
  C  C43  1  0.571200  0.213500  0.827500  1.0  0.162
  C  C44  1  0.660300  0.265900  0.751200  1.0  0.0187
  C  C45  1  0.558100  0.342500  0.677800  1.0  0.1432
  C  C46  1  0.958000  0.159000  0.819300  1.0  0.1466
  C  C47  1  0.858000  0.238800  0.747000  1.0  -0.0014
  C  C48  1  0.949000  0.296600  0.672300  1.0  0.1599
  N  N49  1  0.669900  0.359300  0.392430  1.0  -0.2371
  N  N50  1  0.866000  0.386600  0.387370  1.0  -0.3142
  N  N51  1  0.649800  0.108400  0.110730  1.0  -0.3244
  N  N52  1  0.849100  0.129100  0.109040  1.0  -0.2383
  N  N53  1  0.330100  0.859300  0.107570  1.0  -0.2369
  N  N54  1  0.134000  0.886600  0.112630  1.0  -0.3144
  N  N55  1  0.350200  0.608400  0.389270  1.0  -0.3237
  N  N56  1  0.150900  0.629100  0.390960  1.0  -0.2381
  N  N57  1  0.330100  0.640700  0.607570  1.0  -0.2374
  N  N58  1  0.134000  0.613400  0.612630  1.0  -0.3146
  N  N59  1  0.350200  0.891600  0.889270  1.0  -0.323
  N  N60  1  0.150900  0.870900  0.890960  1.0  -0.2382
  N  N61  1  0.669900  0.140700  0.892430  1.0  -0.2382
  N  N62  1  0.866000  0.113400  0.887370  1.0  -0.3146
  N  N63  1  0.649800  0.391600  0.610730  1.0  -0.3236
  N  N64  1  0.849100  0.370900  0.609040  1.0  -0.2385
  O  O65  1  0.747500  0.589770  0.493630  1.0  -0.9813
  O  O66  1  0.252500  0.089770  0.006370  1.0  -0.9813
  O  O67  1  0.252500  0.410230  0.506370  1.0  -0.9829
  O  O68  1  0.747500  0.910230  0.993630  1.0  -0.9829
