# generated using pymatgen
data_Gd2Cu3H24(C4O5)6
_symmetry_space_group_name_H-M   'P 1'
_cell_length_a   14.47830000
_cell_length_b   14.47830000
_cell_length_c   15.29300000
_cell_angle_alpha   90.00000000
_cell_angle_beta   90.00000000
_cell_angle_gamma   120.00000000
_symmetry_Int_Tables_number   1
_chemical_formula_structural   Gd2Cu3H24(C4O5)6
_chemical_formula_sum   'Gd4 Cu6 H48 C48 O60'
_cell_volume   2776.24930436
_cell_formula_units_Z   2
loop_
 _symmetry_equiv_pos_site_id
 _symmetry_equiv_pos_as_xyz
  1  'x, y, z'
loop_
 _atom_site_type_symbol
 _atom_site_label
 _atom_site_symmetry_multiplicity
 _atom_site_fract_x
 _atom_site_fract_y
 _atom_site_fract_z
 _atom_site_occupancy
 _atom_site_charge
  Gd  Gd1  1  0.666667  0.333333  0.250000  1.0  2.0956
  Gd  Gd2  1  0.333333  0.666667  0.250000  1.0  2.0956
  Gd  Gd3  1  0.333333  0.666667  0.750000  1.0  2.0956
  Gd  Gd4  1  0.666667  0.333333  0.750000  1.0  2.0956
  Cu  Cu5  1  0.000000  0.500000  0.000000  1.0  0.9163
  Cu  Cu6  1  0.500000  0.500000  0.000000  1.0  0.9163
  Cu  Cu7  1  0.500000  0.000000  0.000000  1.0  0.9163
  Cu  Cu8  1  0.500000  0.000000  0.500000  1.0  0.9163
  Cu  Cu9  1  0.500000  0.500000  0.500000  1.0  0.9163
  Cu  Cu10  1  0.000000  0.500000  0.500000  1.0  0.9163
  H  H11  1  0.840100  0.197600  0.159100  1.0  0.1012
  H  H12  1  0.918700  0.280800  0.231200  1.0  0.1058
  H  H13  1  0.802400  0.642500  0.159100  1.0  0.1027
  H  H14  1  0.719200  0.637900  0.231200  1.0  0.1064
  H  H15  1  0.357500  0.159900  0.159100  1.0  0.1009
  H  H16  1  0.362100  0.081300  0.231200  1.0  0.1073
  H  H17  1  0.159900  0.802400  0.159100  1.0  0.1019
  H  H18  1  0.081300  0.719200  0.231200  1.0  0.1062
  H  H19  1  0.197600  0.357500  0.159100  1.0  0.1025
  H  H20  1  0.280800  0.362100  0.231200  1.0  0.1072
  H  H21  1  0.642500  0.840100  0.159100  1.0  0.1014
  H  H22  1  0.637900  0.918700  0.231200  1.0  0.1061
  H  H23  1  0.197600  0.840100  0.340900  1.0  0.1008
  H  H24  1  0.280800  0.918700  0.268800  1.0  0.1065
  H  H25  1  0.642500  0.802400  0.340900  1.0  0.1008
  H  H26  1  0.637900  0.719200  0.268800  1.0  0.1052
  H  H27  1  0.159900  0.357500  0.340900  1.0  0.103
  H  H28  1  0.081300  0.362100  0.268800  1.0  0.1068
  H  H29  1  0.802400  0.159900  0.340900  1.0  0.1008
  H  H30  1  0.719200  0.081300  0.268800  1.0  0.1064
  H  H31  1  0.357500  0.197600  0.340900  1.0  0.1018
  H  H32  1  0.362100  0.280800  0.268800  1.0  0.106
  H  H33  1  0.840100  0.642500  0.340900  1.0  0.1028
  H  H34  1  0.918700  0.637900  0.268800  1.0  0.1056
  H  H35  1  0.159900  0.802400  0.840900  1.0  0.1017
  H  H36  1  0.081300  0.719200  0.768800  1.0  0.1063
  H  H37  1  0.197600  0.357500  0.840900  1.0  0.1027
  H  H38  1  0.280800  0.362100  0.768800  1.0  0.1069
  H  H39  1  0.642500  0.840100  0.840900  1.0  0.1005
  H  H40  1  0.637900  0.918700  0.768800  1.0  0.1065
  H  H41  1  0.840100  0.197600  0.840900  1.0  0.1011
  H  H42  1  0.918700  0.280800  0.768800  1.0  0.1052
  H  H43  1  0.802400  0.642500  0.840900  1.0  0.1026
  H  H44  1  0.719200  0.637900  0.768800  1.0  0.1064
  H  H45  1  0.357500  0.159900  0.840900  1.0  0.101
  H  H46  1  0.362100  0.081300  0.768800  1.0  0.1066
  H  H47  1  0.802400  0.159900  0.659100  1.0  0.1012
  H  H48  1  0.719200  0.081300  0.731200  1.0  0.1067
  H  H49  1  0.357500  0.197600  0.659100  1.0  0.1012
  H  H50  1  0.362100  0.280800  0.731200  1.0  0.1062
  H  H51  1  0.840100  0.642500  0.659100  1.0  0.1032
  H  H52  1  0.918700  0.637900  0.731200  1.0  0.1058
  H  H53  1  0.197600  0.840100  0.659100  1.0  0.101
  H  H54  1  0.280800  0.918700  0.731200  1.0  0.1062
  H  H55  1  0.642500  0.802400  0.659100  1.0  0.1017
  H  H56  1  0.637900  0.719200  0.731200  1.0  0.1053
  H  H57  1  0.159900  0.357500  0.659100  1.0  0.1024
  H  H58  1  0.081300  0.362100  0.731200  1.0  0.1068
  C  C59  1  0.868900  0.352400  0.138100  1.0  0.6707
  C  C60  1  0.854100  0.259900  0.195400  1.0  -0.0129
  C  C61  1  0.647600  0.516500  0.138100  1.0  0.67
  C  C62  1  0.740100  0.594200  0.195400  1.0  -0.0124
  C  C63  1  0.483500  0.131100  0.138100  1.0  0.6692
  C  C64  1  0.405800  0.145900  0.195400  1.0  -0.0106
  C  C65  1  0.131100  0.647600  0.138100  1.0  0.6703
  C  C66  1  0.145900  0.740100  0.195400  1.0  -0.0107
  C  C67  1  0.352400  0.483500  0.138100  1.0  0.6691
  C  C68  1  0.259900  0.405800  0.195400  1.0  -0.0124
  C  C69  1  0.516500  0.868900  0.138100  1.0  0.6681
  C  C70  1  0.594200  0.854100  0.195400  1.0  -0.0129
  C  C71  1  0.352400  0.868900  0.361900  1.0  0.6675
  C  C72  1  0.259900  0.854100  0.304600  1.0  -0.0112
  C  C73  1  0.516500  0.647600  0.361900  1.0  0.6686
  C  C74  1  0.594200  0.740100  0.304600  1.0  -0.0136
  C  C75  1  0.131100  0.483500  0.361900  1.0  0.6688
  C  C76  1  0.145900  0.405800  0.304600  1.0  -0.0137
  C  C77  1  0.647600  0.131100  0.361900  1.0  0.6666
  C  C78  1  0.740100  0.145900  0.304600  1.0  -0.0135
  C  C79  1  0.483500  0.352400  0.361900  1.0  0.669
  C  C80  1  0.405800  0.259900  0.304600  1.0  -0.0116
  C  C81  1  0.868900  0.516500  0.361900  1.0  0.6666
  C  C82  1  0.854100  0.594200  0.304600  1.0  -0.013
  C  C83  1  0.131100  0.647600  0.861900  1.0  0.6684
  C  C84  1  0.145900  0.740100  0.804600  1.0  -0.0114
  C  C85  1  0.352400  0.483500  0.861900  1.0  0.6676
  C  C86  1  0.259900  0.405800  0.804600  1.0  -0.0129
  C  C87  1  0.516500  0.868900  0.861900  1.0  0.6664
  C  C88  1  0.594200  0.854100  0.804600  1.0  -0.0135
  C  C89  1  0.868900  0.352400  0.861900  1.0  0.6691
  C  C90  1  0.854100  0.259900  0.804600  1.0  -0.0138
  C  C91  1  0.647600  0.516500  0.861900  1.0  0.668
  C  C92  1  0.740100  0.594200  0.804600  1.0  -0.0134
  C  C93  1  0.483500  0.131100  0.861900  1.0  0.6678
  C  C94  1  0.405800  0.145900  0.804600  1.0  -0.0114
  C  C95  1  0.647600  0.131100  0.638100  1.0  0.6681
  C  C96  1  0.740100  0.145900  0.695400  1.0  -0.0128
  C  C97  1  0.483500  0.352400  0.638100  1.0  0.6714
  C  C98  1  0.405800  0.259900  0.695400  1.0  -0.0104
  C  C99  1  0.868900  0.516500  0.638100  1.0  0.6681
  C  C100  1  0.854100  0.594200  0.695400  1.0  -0.0124
  C  C101  1  0.352400  0.868900  0.638100  1.0  0.6691
  C  C102  1  0.259900  0.854100  0.695400  1.0  -0.0107
  C  C103  1  0.516500  0.647600  0.638100  1.0  0.6698
  C  C104  1  0.594200  0.740100  0.695400  1.0  -0.0131
  C  C105  1  0.131100  0.483500  0.638100  1.0  0.6709
  C  C106  1  0.145900  0.405800  0.695400  1.0  -0.013
  O  O107  1  0.946700  0.386500  0.089900  1.0  -0.6252
  O  O108  1  0.805800  0.386200  0.144400  1.0  -0.6372
  O  O109  1  0.613500  0.560200  0.089900  1.0  -0.6276
  O  O110  1  0.613800  0.419600  0.144400  1.0  -0.6366
  O  O111  1  0.439800  0.053300  0.089900  1.0  -0.6284
  O  O112  1  0.580400  0.194200  0.144400  1.0  -0.6366
  O  O113  1  0.053300  0.613500  0.089900  1.0  -0.6257
  O  O114  1  0.194200  0.613800  0.144400  1.0  -0.6369
  O  O115  1  0.386500  0.439800  0.089900  1.0  -0.6265
  O  O116  1  0.386200  0.580400  0.144400  1.0  -0.6368
  O  O117  1  0.560200  0.946700  0.089900  1.0  -0.6274
  O  O118  1  0.419600  0.805800  0.144400  1.0  -0.6369
  O  O119  1  0.386500  0.946700  0.410100  1.0  -0.628
  O  O120  1  0.386200  0.805800  0.355600  1.0  -0.6366
  O  O121  1  0.560200  0.613500  0.410100  1.0  -0.626
  O  O122  1  0.419600  0.613800  0.355600  1.0  -0.6369
  O  O123  1  0.053300  0.439800  0.410100  1.0  -0.6268
  O  O124  1  0.194200  0.580400  0.355600  1.0  -0.6373
  O  O125  1  0.613500  0.053300  0.410100  1.0  -0.6265
  O  O126  1  0.613800  0.194200  0.355600  1.0  -0.6364
  O  O127  1  0.439800  0.386500  0.410100  1.0  -0.6251
  O  O128  1  0.580400  0.386200  0.355600  1.0  -0.6371
  O  O129  1  0.946700  0.560200  0.410100  1.0  -0.6257
  O  O130  1  0.805800  0.419600  0.355600  1.0  -0.6372
  O  O131  1  0.053300  0.613500  0.910100  1.0  -0.6264
  O  O132  1  0.194200  0.613800  0.855600  1.0  -0.6369
  O  O133  1  0.386500  0.439800  0.910100  1.0  -0.6268
  O  O134  1  0.386200  0.580400  0.855600  1.0  -0.6372
  O  O135  1  0.560200  0.946700  0.910100  1.0  -0.6274
  O  O136  1  0.419600  0.805800  0.855600  1.0  -0.6372
  O  O137  1  0.946700  0.386500  0.910100  1.0  -0.6257
  O  O138  1  0.805800  0.386200  0.855600  1.0  -0.6371
  O  O139  1  0.613500  0.560200  0.910100  1.0  -0.6259
  O  O140  1  0.613800  0.419600  0.855600  1.0  -0.6372
  O  O141  1  0.439800  0.053300  0.910100  1.0  -0.6286
  O  O142  1  0.580400  0.194200  0.855600  1.0  -0.6359
  O  O143  1  0.613500  0.053300  0.589900  1.0  -0.6282
  O  O144  1  0.613800  0.194200  0.644400  1.0  -0.6366
  O  O145  1  0.439800  0.386500  0.589900  1.0  -0.6268
  O  O146  1  0.580400  0.386200  0.644400  1.0  -0.6376
  O  O147  1  0.946700  0.560200  0.589900  1.0  -0.6283
  O  O148  1  0.805800  0.419600  0.644400  1.0  -0.637
  O  O149  1  0.386500  0.946700  0.589900  1.0  -0.6294
  O  O150  1  0.386200  0.805800  0.644400  1.0  -0.6365
  O  O151  1  0.560200  0.613500  0.589900  1.0  -0.627
  O  O152  1  0.419600  0.613800  0.644400  1.0  -0.6366
  O  O153  1  0.053300  0.439800  0.589900  1.0  -0.6275
  O  O154  1  0.194200  0.580400  0.644400  1.0  -0.6366
  O  O155  1  0.764800  0.235200  0.250000  1.0  -0.3559
  O  O156  1  0.764800  0.529600  0.250000  1.0  -0.3596
  O  O157  1  0.470400  0.235200  0.250000  1.0  -0.3565
  O  O158  1  0.235200  0.764800  0.250000  1.0  -0.3572
  O  O159  1  0.235200  0.470400  0.250000  1.0  -0.3602
  O  O160  1  0.529600  0.764800  0.250000  1.0  -0.3563
  O  O161  1  0.235200  0.764800  0.750000  1.0  -0.3572
  O  O162  1  0.235200  0.470400  0.750000  1.0  -0.3602
  O  O163  1  0.529600  0.764800  0.750000  1.0  -0.3563
  O  O164  1  0.764800  0.235200  0.750000  1.0  -0.3559
  O  O165  1  0.764800  0.529600  0.750000  1.0  -0.3596
  O  O166  1  0.470400  0.235200  0.750000  1.0  -0.3565
