# generated using pymatgen
data_Eu2Cu3H24(C4O5)6
_symmetry_space_group_name_H-M   'P 1'
_cell_length_a   14.87200000
_cell_length_b   14.87200000
_cell_length_c   15.01900000
_cell_angle_alpha   90.00000000
_cell_angle_beta   90.00000000
_cell_angle_gamma   120.00000000
_symmetry_Int_Tables_number   1
_chemical_formula_structural   Eu2Cu3H24(C4O5)6
_chemical_formula_sum   'Eu4 Cu6 H48 C48 O60'
_cell_volume   2876.80485190
_cell_formula_units_Z   2
loop_
 _symmetry_equiv_pos_site_id
 _symmetry_equiv_pos_as_xyz
  1  'x, y, z'
loop_
 _atom_site_type_symbol
 _atom_site_label
 _atom_site_symmetry_multiplicity
 _atom_site_fract_x
 _atom_site_fract_y
 _atom_site_fract_z
 _atom_site_occupancy
 _atom_site_charge
  Eu  Eu1  1  0.333333  0.666667  0.250000  1.0  1.9947
  Eu  Eu2  1  0.666667  0.333333  0.250000  1.0  1.9947
  Eu  Eu3  1  0.666667  0.333333  0.750000  1.0  1.9947
  Eu  Eu4  1  0.333333  0.666667  0.750000  1.0  1.9947
  Cu  Cu5  1  0.500000  0.500000  0.000000  1.0  1.0782
  Cu  Cu6  1  0.000000  0.500000  0.000000  1.0  1.0782
  Cu  Cu7  1  0.500000  0.000000  0.000000  1.0  1.0782
  Cu  Cu8  1  0.000000  0.500000  0.500000  1.0  1.0782
  Cu  Cu9  1  0.500000  0.500000  0.500000  1.0  1.0782
  Cu  Cu10  1  0.500000  0.000000  0.500000  1.0  1.0782
  H  H11  1  0.792200  0.158100  0.838900  1.0  0.0956
  H  H12  1  0.714400  0.088400  0.764200  1.0  0.087
  H  H13  1  0.365900  0.207800  0.838900  1.0  0.0969
  H  H14  1  0.374000  0.285600  0.764200  1.0  0.087
  H  H15  1  0.841900  0.634100  0.838900  1.0  0.0974
  H  H16  1  0.911600  0.626000  0.764200  1.0  0.0874
  H  H17  1  0.207800  0.841900  0.838900  1.0  0.0953
  H  H18  1  0.285600  0.911600  0.764200  1.0  0.0876
  H  H19  1  0.634100  0.792200  0.838900  1.0  0.0962
  H  H20  1  0.626000  0.714400  0.764200  1.0  0.0868
  H  H21  1  0.158100  0.365900  0.838900  1.0  0.0974
  H  H22  1  0.088400  0.374000  0.764200  1.0  0.0868
  H  H23  1  0.634100  0.841900  0.661100  1.0  0.0963
  H  H24  1  0.626000  0.911600  0.735800  1.0  0.087
  H  H25  1  0.158100  0.792200  0.661100  1.0  0.0967
  H  H26  1  0.088400  0.714400  0.735800  1.0  0.087
  H  H27  1  0.207800  0.365900  0.661100  1.0  0.0969
  H  H28  1  0.285600  0.374000  0.735800  1.0  0.0878
  H  H29  1  0.365900  0.158100  0.661100  1.0  0.0952
  H  H30  1  0.374000  0.088400  0.735800  1.0  0.0879
  H  H31  1  0.841900  0.207800  0.661100  1.0  0.0963
  H  H32  1  0.911600  0.285600  0.735800  1.0  0.0868
  H  H33  1  0.792200  0.634100  0.661100  1.0  0.0973
  H  H34  1  0.714400  0.626000  0.735800  1.0  0.0871
  H  H35  1  0.207800  0.841900  0.161100  1.0  0.0953
  H  H36  1  0.285600  0.911600  0.235800  1.0  0.0876
  H  H37  1  0.634100  0.792200  0.161100  1.0  0.0968
  H  H38  1  0.626000  0.714400  0.235800  1.0  0.0864
  H  H39  1  0.158100  0.365900  0.161100  1.0  0.0968
  H  H40  1  0.088400  0.374000  0.235800  1.0  0.087
  H  H41  1  0.792200  0.158100  0.161100  1.0  0.0962
  H  H42  1  0.714400  0.088400  0.235800  1.0  0.0872
  H  H43  1  0.365900  0.207800  0.161100  1.0  0.096
  H  H44  1  0.374000  0.285600  0.235800  1.0  0.0871
  H  H45  1  0.841900  0.634100  0.161100  1.0  0.0976
  H  H46  1  0.911600  0.626000  0.235800  1.0  0.0874
  H  H47  1  0.365900  0.158100  0.338900  1.0  0.0956
  H  H48  1  0.374000  0.088400  0.264200  1.0  0.0876
  H  H49  1  0.841900  0.207800  0.338900  1.0  0.0963
  H  H50  1  0.911600  0.285600  0.264200  1.0  0.0869
  H  H51  1  0.792200  0.634100  0.338900  1.0  0.0973
  H  H52  1  0.714400  0.626000  0.264200  1.0  0.0873
  H  H53  1  0.634100  0.841900  0.338900  1.0  0.0954
  H  H54  1  0.626000  0.911600  0.264200  1.0  0.0873
  H  H55  1  0.158100  0.792200  0.338900  1.0  0.0968
  H  H56  1  0.088400  0.714400  0.264200  1.0  0.0873
  H  H57  1  0.207800  0.365900  0.338900  1.0  0.0973
  H  H58  1  0.285600  0.374000  0.264200  1.0  0.0874
  C  C59  1  0.129900  0.644400  0.360300  1.0  0.728
  C  C60  1  0.851800  0.265700  0.697800  1.0  -0.0511
  C  C61  1  0.514500  0.870100  0.360300  1.0  0.7267
  C  C62  1  0.413900  0.148200  0.697800  1.0  -0.0502
  C  C63  1  0.355600  0.485500  0.360300  1.0  0.7296
  C  C64  1  0.734300  0.586100  0.697800  1.0  -0.0524
  C  C65  1  0.870100  0.355600  0.360300  1.0  0.7288
  C  C66  1  0.148200  0.734300  0.697800  1.0  -0.0505
  C  C67  1  0.485500  0.129900  0.360300  1.0  0.7275
  C  C68  1  0.586100  0.851800  0.697800  1.0  -0.0511
  C  C69  1  0.644400  0.514500  0.360300  1.0  0.7289
  C  C70  1  0.265700  0.413900  0.697800  1.0  -0.0525
  C  C71  1  0.485500  0.355600  0.139700  1.0  0.7278
  C  C72  1  0.586100  0.734300  0.802200  1.0  -0.0508
  C  C73  1  0.644400  0.129900  0.139700  1.0  0.7258
  C  C74  1  0.265700  0.851800  0.802200  1.0  -0.0499
  C  C75  1  0.870100  0.514500  0.139700  1.0  0.7274
  C  C76  1  0.148200  0.413900  0.802200  1.0  -0.0527
  C  C77  1  0.514500  0.644400  0.139700  1.0  0.7275
  C  C78  1  0.413900  0.265700  0.802200  1.0  -0.0502
  C  C79  1  0.355600  0.870100  0.139700  1.0  0.7264
  C  C80  1  0.734300  0.148200  0.802200  1.0  -0.0508
  C  C81  1  0.129900  0.485500  0.139700  1.0  0.7288
  C  C82  1  0.851800  0.586100  0.802200  1.0  -0.0523
  C  C83  1  0.870100  0.355600  0.639700  1.0  0.728
  C  C84  1  0.148200  0.734300  0.302200  1.0  -0.05
  C  C85  1  0.485500  0.129900  0.639700  1.0  0.7262
  C  C86  1  0.586100  0.851800  0.302200  1.0  -0.0508
  C  C87  1  0.644400  0.514500  0.639700  1.0  0.7281
  C  C88  1  0.265700  0.413900  0.302200  1.0  -0.0524
  C  C89  1  0.129900  0.644400  0.639700  1.0  0.727
  C  C90  1  0.851800  0.265700  0.302200  1.0  -0.0506
  C  C91  1  0.514500  0.870100  0.639700  1.0  0.726
  C  C92  1  0.413900  0.148200  0.302200  1.0  -0.0499
  C  C93  1  0.355600  0.485500  0.639700  1.0  0.7284
  C  C94  1  0.734300  0.586100  0.302200  1.0  -0.0519
  C  C95  1  0.514500  0.644400  0.860300  1.0  0.7285
  C  C96  1  0.413900  0.265700  0.197800  1.0  -0.0503
  C  C97  1  0.355600  0.870100  0.860300  1.0  0.7275
  C  C98  1  0.734300  0.148200  0.197800  1.0  -0.0512
  C  C99  1  0.129900  0.485500  0.860300  1.0  0.7295
  C  C100  1  0.851800  0.586100  0.197800  1.0  -0.0525
  C  C101  1  0.485500  0.355600  0.860300  1.0  0.7284
  C  C102  1  0.586100  0.734300  0.197800  1.0  -0.0512
  C  C103  1  0.644400  0.129900  0.860300  1.0  0.7268
  C  C104  1  0.265700  0.851800  0.197800  1.0  -0.0499
  C  C105  1  0.870100  0.514500  0.860300  1.0  0.7289
  C  C106  1  0.148200  0.413900  0.197800  1.0  -0.0529
  O  O107  1  0.194000  0.613600  0.357200  1.0  -0.6835
  O  O108  1  0.050900  0.608000  0.409100  1.0  -0.6095
  O  O109  1  0.419600  0.806000  0.357200  1.0  -0.6844
  O  O110  1  0.557100  0.949100  0.409100  1.0  -0.6099
  O  O111  1  0.386400  0.580400  0.357200  1.0  -0.6853
  O  O112  1  0.392000  0.442900  0.409100  1.0  -0.6107
  O  O113  1  0.806000  0.386400  0.357200  1.0  -0.6842
  O  O114  1  0.949100  0.392000  0.409100  1.0  -0.6095
  O  O115  1  0.580400  0.194000  0.357200  1.0  -0.6833
  O  O116  1  0.442900  0.050900  0.409100  1.0  -0.61
  O  O117  1  0.613600  0.419600  0.357200  1.0  -0.6847
  O  O118  1  0.608000  0.557100  0.409100  1.0  -0.6101
  O  O119  1  0.580400  0.386400  0.142800  1.0  -0.6833
  O  O120  1  0.442900  0.392000  0.090900  1.0  -0.6086
  O  O121  1  0.613600  0.194000  0.142800  1.0  -0.6834
  O  O122  1  0.608000  0.050900  0.090900  1.0  -0.6091
  O  O123  1  0.806000  0.419600  0.142800  1.0  -0.6842
  O  O124  1  0.949100  0.557100  0.090900  1.0  -0.6103
  O  O125  1  0.419600  0.613600  0.142800  1.0  -0.6838
  O  O126  1  0.557100  0.608000  0.090900  1.0  -0.6096
  O  O127  1  0.386400  0.806000  0.142800  1.0  -0.6833
  O  O128  1  0.392000  0.949100  0.090900  1.0  -0.6103
  O  O129  1  0.194000  0.580400  0.142800  1.0  -0.6842
  O  O130  1  0.050900  0.442900  0.090900  1.0  -0.609
  O  O131  1  0.806000  0.386400  0.642800  1.0  -0.6836
  O  O132  1  0.949100  0.392000  0.590900  1.0  -0.6101
  O  O133  1  0.580400  0.194000  0.642800  1.0  -0.6834
  O  O134  1  0.442900  0.050900  0.590900  1.0  -0.61
  O  O135  1  0.613600  0.419600  0.642800  1.0  -0.684
  O  O136  1  0.608000  0.557100  0.590900  1.0  -0.6105
  O  O137  1  0.194000  0.613600  0.642800  1.0  -0.6833
  O  O138  1  0.050900  0.608000  0.590900  1.0  -0.6097
  O  O139  1  0.419600  0.806000  0.642800  1.0  -0.6837
  O  O140  1  0.557100  0.949100  0.590900  1.0  -0.6112
  O  O141  1  0.386400  0.580400  0.642800  1.0  -0.6843
  O  O142  1  0.392000  0.442900  0.590900  1.0  -0.6107
  O  O143  1  0.419600  0.613600  0.857200  1.0  -0.6845
  O  O144  1  0.557100  0.608000  0.909100  1.0  -0.6108
  O  O145  1  0.386400  0.806000  0.857200  1.0  -0.6837
  O  O146  1  0.392000  0.949100  0.909100  1.0  -0.6112
  O  O147  1  0.194000  0.580400  0.857200  1.0  -0.6855
  O  O148  1  0.050900  0.442900  0.909100  1.0  -0.6105
  O  O149  1  0.580400  0.386400  0.857200  1.0  -0.6832
  O  O150  1  0.442900  0.392000  0.909100  1.0  -0.6105
  O  O151  1  0.613600  0.194000  0.857200  1.0  -0.6837
  O  O152  1  0.608000  0.050900  0.909100  1.0  -0.6109
  O  O153  1  0.806000  0.419600  0.857200  1.0  -0.6846
  O  O154  1  0.949100  0.557100  0.909100  1.0  -0.6115
  O  O155  1  0.763400  0.236600  0.750000  1.0  -0.3367
  O  O156  1  0.473200  0.236600  0.750000  1.0  -0.3361
  O  O157  1  0.763400  0.526800  0.750000  1.0  -0.337
  O  O158  1  0.236600  0.763400  0.750000  1.0  -0.3364
  O  O159  1  0.526800  0.763400  0.750000  1.0  -0.3365
  O  O160  1  0.236600  0.473200  0.750000  1.0  -0.3364
  O  O161  1  0.236600  0.763400  0.250000  1.0  -0.3358
  O  O162  1  0.526800  0.763400  0.250000  1.0  -0.3359
  O  O163  1  0.236600  0.473200  0.250000  1.0  -0.336
  O  O164  1  0.763400  0.236600  0.250000  1.0  -0.336
  O  O165  1  0.473200  0.236600  0.250000  1.0  -0.3355
  O  O166  1  0.763400  0.526800  0.250000  1.0  -0.3363
