# generated using pymatgen
data_Y2Cu3H24(C4O5)6
_symmetry_space_group_name_H-M   'P 1'
_cell_length_a   14.59500000
_cell_length_b   14.59500000
_cell_length_c   15.26700000
_cell_angle_alpha   90.00000000
_cell_angle_beta   90.00000000
_cell_angle_gamma   120.00000000
_symmetry_Int_Tables_number   1
_chemical_formula_structural   Y2Cu3H24(C4O5)6
_chemical_formula_sum   'Y4 Cu6 H48 C48 O60'
_cell_volume   2816.38832891
_cell_formula_units_Z   2
loop_
 _symmetry_equiv_pos_site_id
 _symmetry_equiv_pos_as_xyz
  1  'x, y, z'
loop_
 _atom_site_type_symbol
 _atom_site_label
 _atom_site_symmetry_multiplicity
 _atom_site_fract_x
 _atom_site_fract_y
 _atom_site_fract_z
 _atom_site_occupancy
 _atom_site_charge
  Y  Y1  1  0.333333  0.666667  0.250000  1.0  1.8405
  Y  Y2  1  0.666667  0.333333  0.250000  1.0  1.8405
  Y  Y3  1  0.666667  0.333333  0.750000  1.0  1.8405
  Y  Y4  1  0.333333  0.666667  0.750000  1.0  1.8405
  Cu  Cu5  1  0.500000  0.500000  0.000000  1.0  1.0756
  Cu  Cu6  1  0.000000  0.500000  0.000000  1.0  1.0756
  Cu  Cu7  1  0.500000  0.000000  0.000000  1.0  1.0756
  Cu  Cu8  1  0.000000  0.500000  0.500000  1.0  1.0756
  Cu  Cu9  1  0.500000  0.500000  0.500000  1.0  1.0756
  Cu  Cu10  1  0.500000  0.000000  0.500000  1.0  1.0756
  H  H11  1  0.796500  0.162300  0.839600  1.0  0.1033
  H  H12  1  0.716800  0.087300  0.768000  1.0  0.0902
  H  H13  1  0.365800  0.203500  0.839600  1.0  0.1046
  H  H14  1  0.370500  0.283200  0.768000  1.0  0.0906
  H  H15  1  0.837700  0.634200  0.839600  1.0  0.1049
  H  H16  1  0.912700  0.629500  0.768000  1.0  0.0894
  H  H17  1  0.203500  0.837700  0.839600  1.0  0.1028
  H  H18  1  0.283200  0.912700  0.768000  1.0  0.0903
  H  H19  1  0.634200  0.796500  0.839600  1.0  0.1042
  H  H20  1  0.629500  0.716800  0.768000  1.0  0.0905
  H  H21  1  0.162300  0.365800  0.839600  1.0  0.106
  H  H22  1  0.087300  0.370500  0.768000  1.0  0.0896
  H  H23  1  0.634200  0.837700  0.660400  1.0  0.1034
  H  H24  1  0.629500  0.912700  0.732000  1.0  0.09
  H  H25  1  0.162300  0.796500  0.660400  1.0  0.1043
  H  H26  1  0.087300  0.716800  0.732000  1.0  0.0909
  H  H27  1  0.203500  0.365800  0.660400  1.0  0.1045
  H  H28  1  0.283200  0.370500  0.732000  1.0  0.0902
  H  H29  1  0.365800  0.162300  0.660400  1.0  0.1023
  H  H30  1  0.370500  0.087300  0.732000  1.0  0.0902
  H  H31  1  0.837700  0.203500  0.660400  1.0  0.104
  H  H32  1  0.912700  0.283200  0.732000  1.0  0.0906
  H  H33  1  0.796500  0.634200  0.660400  1.0  0.1055
  H  H34  1  0.716800  0.629500  0.732000  1.0  0.0895
  H  H35  1  0.203500  0.837700  0.160400  1.0  0.1023
  H  H36  1  0.283200  0.912700  0.232000  1.0  0.0898
  H  H37  1  0.634200  0.796500  0.160400  1.0  0.1046
  H  H38  1  0.629500  0.716800  0.232000  1.0  0.0904
  H  H39  1  0.162300  0.365800  0.160400  1.0  0.105
  H  H40  1  0.087300  0.370500  0.232000  1.0  0.09
  H  H41  1  0.796500  0.162300  0.160400  1.0  0.1035
  H  H42  1  0.716800  0.087300  0.232000  1.0  0.0903
  H  H43  1  0.365800  0.203500  0.160400  1.0  0.1037
  H  H44  1  0.370500  0.283200  0.232000  1.0  0.0907
  H  H45  1  0.837700  0.634200  0.160400  1.0  0.1051
  H  H46  1  0.912700  0.629500  0.232000  1.0  0.0893
  H  H47  1  0.365800  0.162300  0.339600  1.0  0.103
  H  H48  1  0.370500  0.087300  0.268000  1.0  0.0898
  H  H49  1  0.837700  0.203500  0.339600  1.0  0.1043
  H  H50  1  0.912700  0.283200  0.268000  1.0  0.0905
  H  H51  1  0.796500  0.634200  0.339600  1.0  0.1056
  H  H52  1  0.716800  0.629500  0.268000  1.0  0.0899
  H  H53  1  0.634200  0.837700  0.339600  1.0  0.1031
  H  H54  1  0.629500  0.912700  0.268000  1.0  0.0906
  H  H55  1  0.162300  0.796500  0.339600  1.0  0.1043
  H  H56  1  0.087300  0.716800  0.268000  1.0  0.0908
  H  H57  1  0.203500  0.365800  0.339600  1.0  0.1051
  H  H58  1  0.283200  0.370500  0.268000  1.0  0.0897
  C  C59  1  0.131100  0.644800  0.361100  1.0  0.7201
  C  C60  1  0.850500  0.263500  0.696400  1.0  -0.0437
  C  C61  1  0.513700  0.868900  0.361100  1.0  0.7214
  C  C62  1  0.413000  0.149500  0.696400  1.0  -0.043
  C  C63  1  0.355200  0.486300  0.361100  1.0  0.7216
  C  C64  1  0.736500  0.587000  0.696400  1.0  -0.045
  C  C65  1  0.868900  0.355200  0.361100  1.0  0.7214
  C  C66  1  0.149500  0.736500  0.696400  1.0  -0.0432
  C  C67  1  0.486300  0.131100  0.361100  1.0  0.7199
  C  C68  1  0.587000  0.850500  0.696400  1.0  -0.0439
  C  C69  1  0.644800  0.513700  0.361100  1.0  0.7212
  C  C70  1  0.263500  0.413000  0.696400  1.0  -0.0441
  C  C71  1  0.486300  0.355200  0.138900  1.0  0.721
  C  C72  1  0.587000  0.736500  0.803600  1.0  -0.044
  C  C73  1  0.644800  0.131100  0.138900  1.0  0.7213
  C  C74  1  0.263500  0.850500  0.803600  1.0  -0.0434
  C  C75  1  0.868900  0.513700  0.138900  1.0  0.7206
  C  C76  1  0.149500  0.413000  0.803600  1.0  -0.0443
  C  C77  1  0.513700  0.644800  0.138900  1.0  0.7209
  C  C78  1  0.413000  0.263500  0.803600  1.0  -0.0435
  C  C79  1  0.355200  0.868900  0.138900  1.0  0.7201
  C  C80  1  0.736500  0.149500  0.803600  1.0  -0.0435
  C  C81  1  0.131100  0.486300  0.138900  1.0  0.7222
  C  C82  1  0.850500  0.587000  0.803600  1.0  -0.0449
  C  C83  1  0.868900  0.355200  0.638900  1.0  0.7215
  C  C84  1  0.149500  0.736500  0.303600  1.0  -0.0434
  C  C85  1  0.486300  0.131100  0.638900  1.0  0.7198
  C  C86  1  0.587000  0.850500  0.303600  1.0  -0.0436
  C  C87  1  0.644800  0.513700  0.638900  1.0  0.7215
  C  C88  1  0.263500  0.413000  0.303600  1.0  -0.0442
  C  C89  1  0.131100  0.644800  0.638900  1.0  0.7204
  C  C90  1  0.850500  0.263500  0.303600  1.0  -0.0437
  C  C91  1  0.513700  0.868900  0.638900  1.0  0.7216
  C  C92  1  0.413000  0.149500  0.303600  1.0  -0.0435
  C  C93  1  0.355200  0.486300  0.638900  1.0  0.7215
  C  C94  1  0.736500  0.587000  0.303600  1.0  -0.045
  C  C95  1  0.513700  0.644800  0.861100  1.0  0.7212
  C  C96  1  0.413000  0.263500  0.196400  1.0  -0.0427
  C  C97  1  0.355200  0.868900  0.861100  1.0  0.72
  C  C98  1  0.736500  0.149500  0.196400  1.0  -0.0437
  C  C99  1  0.131100  0.486300  0.861100  1.0  0.7216
  C  C100  1  0.850500  0.587000  0.196400  1.0  -0.0449
  C  C101  1  0.486300  0.355200  0.861100  1.0  0.7203
  C  C102  1  0.587000  0.736500  0.196400  1.0  -0.0444
  C  C103  1  0.644800  0.131100  0.861100  1.0  0.7214
  C  C104  1  0.263500  0.850500  0.196400  1.0  -0.0431
  C  C105  1  0.868900  0.513700  0.861100  1.0  0.721
  C  C106  1  0.149500  0.413000  0.196400  1.0  -0.0442
  O  O107  1  0.196000  0.612300  0.354950  1.0  -0.6767
  O  O108  1  0.053600  0.610500  0.410500  1.0  -0.6035
  O  O109  1  0.416300  0.804000  0.354950  1.0  -0.6762
  O  O110  1  0.556900  0.946400  0.410500  1.0  -0.6043
  O  O111  1  0.387700  0.583700  0.354950  1.0  -0.6767
  O  O112  1  0.389500  0.443100  0.410500  1.0  -0.6041
  O  O113  1  0.804000  0.387700  0.354950  1.0  -0.6762
  O  O114  1  0.946400  0.389500  0.410500  1.0  -0.6018
  O  O115  1  0.583700  0.196000  0.354950  1.0  -0.6751
  O  O116  1  0.443100  0.053600  0.410500  1.0  -0.6039
  O  O117  1  0.612300  0.416300  0.354950  1.0  -0.677
  O  O118  1  0.610500  0.556900  0.410500  1.0  -0.6027
  O  O119  1  0.583700  0.387700  0.145050  1.0  -0.6757
  O  O120  1  0.443100  0.389500  0.089500  1.0  -0.6045
  O  O121  1  0.612300  0.196000  0.145050  1.0  -0.6743
  O  O122  1  0.610500  0.053600  0.089500  1.0  -0.606
  O  O123  1  0.804000  0.416300  0.145050  1.0  -0.6752
  O  O124  1  0.946400  0.556900  0.089500  1.0  -0.6064
  O  O125  1  0.416300  0.612300  0.145050  1.0  -0.6754
  O  O126  1  0.556900  0.610500  0.089500  1.0  -0.6039
  O  O127  1  0.387700  0.804000  0.145050  1.0  -0.6747
  O  O128  1  0.389500  0.946400  0.089500  1.0  -0.6054
  O  O129  1  0.196000  0.583700  0.145050  1.0  -0.6754
  O  O130  1  0.053600  0.443100  0.089500  1.0  -0.6039
  O  O131  1  0.804000  0.387700  0.645050  1.0  -0.6754
  O  O132  1  0.946400  0.389500  0.589500  1.0  -0.6058
  O  O133  1  0.583700  0.196000  0.645050  1.0  -0.6744
  O  O134  1  0.443100  0.053600  0.589500  1.0  -0.6067
  O  O135  1  0.612300  0.416300  0.645050  1.0  -0.6752
  O  O136  1  0.610500  0.556900  0.589500  1.0  -0.6063
  O  O137  1  0.196000  0.612300  0.645050  1.0  -0.6755
  O  O138  1  0.053600  0.610500  0.589500  1.0  -0.6048
  O  O139  1  0.416300  0.804000  0.645050  1.0  -0.6749
  O  O140  1  0.556900  0.946400  0.589500  1.0  -0.6071
  O  O141  1  0.387700  0.583700  0.645050  1.0  -0.6753
  O  O142  1  0.389500  0.443100  0.589500  1.0  -0.6061
  O  O143  1  0.416300  0.612300  0.854950  1.0  -0.6768
  O  O144  1  0.556900  0.610500  0.910500  1.0  -0.6035
  O  O145  1  0.387700  0.804000  0.854950  1.0  -0.6758
  O  O146  1  0.389500  0.946400  0.910500  1.0  -0.6058
  O  O147  1  0.196000  0.583700  0.854950  1.0  -0.6771
  O  O148  1  0.053600  0.443100  0.910500  1.0  -0.6045
  O  O149  1  0.583700  0.387700  0.854950  1.0  -0.6762
  O  O150  1  0.443100  0.389500  0.910500  1.0  -0.604
  O  O151  1  0.612300  0.196000  0.854950  1.0  -0.6753
  O  O152  1  0.610500  0.053600  0.910500  1.0  -0.6048
  O  O153  1  0.804000  0.416300  0.854950  1.0  -0.6767
  O  O154  1  0.946400  0.556900  0.910500  1.0  -0.6046
  O  O155  1  0.763800  0.236200  0.750000  1.0  -0.333
  O  O156  1  0.472400  0.236200  0.750000  1.0  -0.333
  O  O157  1  0.763800  0.527600  0.750000  1.0  -0.3336
  O  O158  1  0.236200  0.763800  0.750000  1.0  -0.333
  O  O159  1  0.527600  0.763800  0.750000  1.0  -0.3332
  O  O160  1  0.236200  0.472400  0.750000  1.0  -0.3328
  O  O161  1  0.236200  0.763800  0.250000  1.0  -0.333
  O  O162  1  0.527600  0.763800  0.250000  1.0  -0.3332
  O  O163  1  0.236200  0.472400  0.250000  1.0  -0.3328
  O  O164  1  0.763800  0.236200  0.250000  1.0  -0.333
  O  O165  1  0.472400  0.236200  0.250000  1.0  -0.333
  O  O166  1  0.763800  0.527600  0.250000  1.0  -0.3336
