# generated using pymatgen
data_Gd2Cu3H24(C4O5)6
_symmetry_space_group_name_H-M   'P 1'
_cell_length_a   14.71700000
_cell_length_b   14.71700000
_cell_length_c   15.16900000
_cell_angle_alpha   90.00000000
_cell_angle_beta   90.00000000
_cell_angle_gamma   120.00000000
_symmetry_Int_Tables_number   1
_chemical_formula_structural   Gd2Cu3H24(C4O5)6
_chemical_formula_sum   'Gd4 Cu6 H48 C48 O60'
_cell_volume   2845.28754499
_cell_formula_units_Z   2
loop_
 _symmetry_equiv_pos_site_id
 _symmetry_equiv_pos_as_xyz
  1  'x, y, z'
loop_
 _atom_site_type_symbol
 _atom_site_label
 _atom_site_symmetry_multiplicity
 _atom_site_fract_x
 _atom_site_fract_y
 _atom_site_fract_z
 _atom_site_occupancy
 _atom_site_charge
  Gd  Gd1  1  0.333333  0.666667  0.250000  1.0  2.0311
  Gd  Gd2  1  0.666667  0.333333  0.250000  1.0  2.0311
  Gd  Gd3  1  0.666667  0.333333  0.750000  1.0  2.0311
  Gd  Gd4  1  0.333333  0.666667  0.750000  1.0  2.0311
  Cu  Cu5  1  0.500000  0.500000  0.000000  1.0  1.1039
  Cu  Cu6  1  0.000000  0.500000  0.000000  1.0  1.1039
  Cu  Cu7  1  0.500000  0.000000  0.000000  1.0  1.1039
  Cu  Cu8  1  0.000000  0.500000  0.500000  1.0  1.1039
  Cu  Cu9  1  0.500000  0.500000  0.500000  1.0  1.1039
  Cu  Cu10  1  0.500000  0.000000  0.500000  1.0  1.1039
  H  H11  1  0.794300  0.158800  0.839600  1.0  0.0953
  H  H12  1  0.715200  0.086400  0.766700  1.0  0.0841
  H  H13  1  0.364500  0.205700  0.839600  1.0  0.0967
  H  H14  1  0.371200  0.284800  0.766700  1.0  0.0839
  H  H15  1  0.841200  0.635500  0.839600  1.0  0.0971
  H  H16  1  0.913600  0.628800  0.766700  1.0  0.0836
  H  H17  1  0.205700  0.841200  0.839600  1.0  0.0952
  H  H18  1  0.284800  0.913600  0.766700  1.0  0.0841
  H  H19  1  0.635500  0.794300  0.839600  1.0  0.0959
  H  H20  1  0.628800  0.715200  0.766700  1.0  0.0837
  H  H21  1  0.158800  0.364500  0.839600  1.0  0.0975
  H  H22  1  0.086400  0.371200  0.766700  1.0  0.0836
  H  H23  1  0.635500  0.841200  0.660400  1.0  0.0956
  H  H24  1  0.628800  0.913600  0.733300  1.0  0.0839
  H  H25  1  0.158800  0.794300  0.660400  1.0  0.0963
  H  H26  1  0.086400  0.715200  0.733300  1.0  0.0839
  H  H27  1  0.205700  0.364500  0.660400  1.0  0.0963
  H  H28  1  0.284800  0.371200  0.733300  1.0  0.0844
  H  H29  1  0.364500  0.158800  0.660400  1.0  0.0946
  H  H30  1  0.371200  0.086400  0.733300  1.0  0.0844
  H  H31  1  0.841200  0.205700  0.660400  1.0  0.0956
  H  H32  1  0.913600  0.284800  0.733300  1.0  0.0836
  H  H33  1  0.794300  0.635500  0.660400  1.0  0.0967
  H  H34  1  0.715200  0.628800  0.733300  1.0  0.0835
  H  H35  1  0.205700  0.841200  0.160400  1.0  0.0947
  H  H36  1  0.284800  0.913600  0.233300  1.0  0.083
  H  H37  1  0.635500  0.794300  0.160400  1.0  0.096
  H  H38  1  0.628800  0.715200  0.233300  1.0  0.0827
  H  H39  1  0.158800  0.364500  0.160400  1.0  0.0965
  H  H40  1  0.086400  0.371200  0.233300  1.0  0.0833
  H  H41  1  0.794300  0.158800  0.160400  1.0  0.0954
  H  H42  1  0.715200  0.086400  0.233300  1.0  0.084
  H  H43  1  0.364500  0.205700  0.160400  1.0  0.0958
  H  H44  1  0.371200  0.284800  0.233300  1.0  0.0834
  H  H45  1  0.841200  0.635500  0.160400  1.0  0.0967
  H  H46  1  0.913600  0.628800  0.233300  1.0  0.0829
  H  H47  1  0.364500  0.158800  0.339600  1.0  0.0954
  H  H48  1  0.371200  0.086400  0.266700  1.0  0.0837
  H  H49  1  0.841200  0.205700  0.339600  1.0  0.096
  H  H50  1  0.913600  0.284800  0.266700  1.0  0.0836
  H  H51  1  0.794300  0.635500  0.339600  1.0  0.0972
  H  H52  1  0.715200  0.628800  0.266700  1.0  0.0838
  H  H53  1  0.635500  0.841200  0.339600  1.0  0.0952
  H  H54  1  0.628800  0.913600  0.266700  1.0  0.0844
  H  H55  1  0.158800  0.794300  0.339600  1.0  0.0967
  H  H56  1  0.086400  0.715200  0.266700  1.0  0.0839
  H  H57  1  0.205700  0.364500  0.339600  1.0  0.0971
  H  H58  1  0.284800  0.371200  0.266700  1.0  0.0837
  C  C59  1  0.129600  0.644700  0.361000  1.0  0.7184
  C  C60  1  0.852400  0.264700  0.696700  1.0  -0.0515
  C  C61  1  0.515100  0.870400  0.361000  1.0  0.7183
  C  C62  1  0.412300  0.147600  0.696700  1.0  -0.0502
  C  C63  1  0.355300  0.484900  0.361000  1.0  0.72
  C  C64  1  0.735300  0.587700  0.696700  1.0  -0.0527
  C  C65  1  0.870400  0.355300  0.361000  1.0  0.7193
  C  C66  1  0.147600  0.735300  0.696700  1.0  -0.0509
  C  C67  1  0.484900  0.129600  0.361000  1.0  0.718
  C  C68  1  0.587700  0.852400  0.696700  1.0  -0.0517
  C  C69  1  0.644700  0.515100  0.361000  1.0  0.7196
  C  C70  1  0.264700  0.412300  0.696700  1.0  -0.0525
  C  C71  1  0.484900  0.355300  0.139000  1.0  0.7183
  C  C72  1  0.587700  0.735300  0.803300  1.0  -0.0513
  C  C73  1  0.644700  0.129600  0.139000  1.0  0.7174
  C  C74  1  0.264700  0.852400  0.803300  1.0  -0.0503
  C  C75  1  0.870400  0.515100  0.139000  1.0  0.7183
  C  C76  1  0.147600  0.412300  0.803300  1.0  -0.0527
  C  C77  1  0.515100  0.644700  0.139000  1.0  0.718
  C  C78  1  0.412300  0.264700  0.803300  1.0  -0.0507
  C  C79  1  0.355300  0.870400  0.139000  1.0  0.7171
  C  C80  1  0.735300  0.147600  0.803300  1.0  -0.0511
  C  C81  1  0.129600  0.484900  0.139000  1.0  0.7195
  C  C82  1  0.852400  0.587700  0.803300  1.0  -0.0526
  C  C83  1  0.870400  0.355300  0.639000  1.0  0.7184
  C  C84  1  0.147600  0.735300  0.303300  1.0  -0.0509
  C  C85  1  0.484900  0.129600  0.639000  1.0  0.7171
  C  C86  1  0.587700  0.852400  0.303300  1.0  -0.0517
  C  C87  1  0.644700  0.515100  0.639000  1.0  0.719
  C  C88  1  0.264700  0.412300  0.303300  1.0  -0.0529
  C  C89  1  0.129600  0.644700  0.639000  1.0  0.7178
  C  C90  1  0.852400  0.264700  0.303300  1.0  -0.0514
  C  C91  1  0.515100  0.870400  0.639000  1.0  0.7175
  C  C92  1  0.412300  0.147600  0.303300  1.0  -0.0506
  C  C93  1  0.355300  0.484900  0.639000  1.0  0.719
  C  C94  1  0.735300  0.587700  0.303300  1.0  -0.0527
  C  C95  1  0.515100  0.644700  0.861000  1.0  0.7189
  C  C96  1  0.412300  0.264700  0.196700  1.0  -0.0507
  C  C97  1  0.355300  0.870400  0.861000  1.0  0.718
  C  C98  1  0.735300  0.147600  0.196700  1.0  -0.0513
  C  C99  1  0.129600  0.484900  0.861000  1.0  0.7201
  C  C100  1  0.852400  0.587700  0.196700  1.0  -0.0527
  C  C101  1  0.484900  0.355300  0.861000  1.0  0.7186
  C  C102  1  0.587700  0.735300  0.196700  1.0  -0.0519
  C  C103  1  0.644700  0.129600  0.861000  1.0  0.7184
  C  C104  1  0.264700  0.852400  0.196700  1.0  -0.0503
  C  C105  1  0.870400  0.515100  0.861000  1.0  0.7194
  C  C106  1  0.147600  0.412300  0.196700  1.0  -0.0528
  O  O107  1  0.194100  0.613040  0.356580  1.0  -0.6733
  O  O108  1  0.051100  0.609700  0.410000  1.0  -0.6208
  O  O109  1  0.418940  0.805900  0.356580  1.0  -0.6733
  O  O110  1  0.558600  0.948900  0.410000  1.0  -0.6199
  O  O111  1  0.386960  0.581060  0.356580  1.0  -0.6735
  O  O112  1  0.390300  0.441400  0.410000  1.0  -0.6217
  O  O113  1  0.805900  0.386960  0.356580  1.0  -0.6728
  O  O114  1  0.948900  0.390300  0.410000  1.0  -0.6204
  O  O115  1  0.581060  0.194100  0.356580  1.0  -0.6725
  O  O116  1  0.441400  0.051100  0.410000  1.0  -0.6194
  O  O117  1  0.613040  0.418940  0.356580  1.0  -0.6739
  O  O118  1  0.609700  0.558600  0.410000  1.0  -0.6207
  O  O119  1  0.581060  0.386960  0.143420  1.0  -0.6729
  O  O120  1  0.441400  0.390300  0.090000  1.0  -0.6211
  O  O121  1  0.613040  0.194100  0.143420  1.0  -0.6724
  O  O122  1  0.609700  0.051100  0.090000  1.0  -0.6204
  O  O123  1  0.805900  0.418940  0.143420  1.0  -0.6733
  O  O124  1  0.948900  0.558600  0.090000  1.0  -0.6224
  O  O125  1  0.418940  0.613040  0.143420  1.0  -0.6727
  O  O126  1  0.558600  0.609700  0.090000  1.0  -0.6212
  O  O127  1  0.386960  0.805900  0.143420  1.0  -0.6725
  O  O128  1  0.390300  0.948900  0.090000  1.0  -0.6196
  O  O129  1  0.194100  0.581060  0.143420  1.0  -0.6726
  O  O130  1  0.051100  0.441400  0.090000  1.0  -0.6211
  O  O131  1  0.805900  0.386960  0.643420  1.0  -0.6726
  O  O132  1  0.948900  0.390300  0.590000  1.0  -0.6221
  O  O133  1  0.581060  0.194100  0.643420  1.0  -0.6727
  O  O134  1  0.441400  0.051100  0.590000  1.0  -0.621
  O  O135  1  0.613040  0.418940  0.643420  1.0  -0.6731
  O  O136  1  0.609700  0.558600  0.590000  1.0  -0.6228
  O  O137  1  0.194100  0.613040  0.643420  1.0  -0.6729
  O  O138  1  0.051100  0.609700  0.590000  1.0  -0.6214
  O  O139  1  0.418940  0.805900  0.643420  1.0  -0.6726
  O  O140  1  0.558600  0.948900  0.590000  1.0  -0.6211
  O  O141  1  0.386960  0.581060  0.643420  1.0  -0.6729
  O  O142  1  0.390300  0.441400  0.590000  1.0  -0.6222
  O  O143  1  0.418940  0.613040  0.856580  1.0  -0.6732
  O  O144  1  0.558600  0.609700  0.910000  1.0  -0.6216
  O  O145  1  0.386960  0.805900  0.856580  1.0  -0.673
  O  O146  1  0.390300  0.948900  0.910000  1.0  -0.6206
  O  O147  1  0.194100  0.581060  0.856580  1.0  -0.6736
  O  O148  1  0.051100  0.441400  0.910000  1.0  -0.6219
  O  O149  1  0.581060  0.386960  0.856580  1.0  -0.6728
  O  O150  1  0.441400  0.390300  0.910000  1.0  -0.6212
  O  O151  1  0.613040  0.194100  0.856580  1.0  -0.6724
  O  O152  1  0.609700  0.051100  0.910000  1.0  -0.6203
  O  O153  1  0.805900  0.418940  0.856580  1.0  -0.6737
  O  O154  1  0.948900  0.558600  0.910000  1.0  -0.6218
  O  O155  1  0.764100  0.235900  0.750000  1.0  -0.3336
  O  O156  1  0.471800  0.235900  0.750000  1.0  -0.3344
  O  O157  1  0.764100  0.528200  0.750000  1.0  -0.3348
  O  O158  1  0.235900  0.764100  0.750000  1.0  -0.3346
  O  O159  1  0.528200  0.764100  0.750000  1.0  -0.3335
  O  O160  1  0.235900  0.471800  0.750000  1.0  -0.3347
  O  O161  1  0.235900  0.764100  0.250000  1.0  -0.3346
  O  O162  1  0.528200  0.764100  0.250000  1.0  -0.3335
  O  O163  1  0.235900  0.471800  0.250000  1.0  -0.3347
  O  O164  1  0.764100  0.235900  0.250000  1.0  -0.3336
  O  O165  1  0.471800  0.235900  0.250000  1.0  -0.3345
  O  O166  1  0.764100  0.528200  0.250000  1.0  -0.3349
