# generated using pymatgen
data_Pr2Cu3H24(C4O5)6
_symmetry_space_group_name_H-M   'P 1'
_cell_length_a   14.58400000
_cell_length_b   15.19900000
_cell_length_c   15.19900000
_cell_angle_alpha   120.00000000
_cell_angle_beta   90.00000000
_cell_angle_gamma   90.00000000
_symmetry_Int_Tables_number   1
_chemical_formula_structural   Pr2Cu3H24(C4O5)6
_chemical_formula_sum   'Pr4 Cu6 H48 C48 O60'
_cell_volume   2917.67770864
_cell_formula_units_Z   2
loop_
 _symmetry_equiv_pos_site_id
 _symmetry_equiv_pos_as_xyz
  1  'x, y, z'
loop_
 _atom_site_type_symbol
 _atom_site_label
 _atom_site_symmetry_multiplicity
 _atom_site_fract_x
 _atom_site_fract_y
 _atom_site_fract_z
 _atom_site_occupancy
 _atom_site_charge
  Pr  Pr1  1  0.250000  0.333333  0.666667  1.0  2.1436
  Pr  Pr2  1  0.250000  0.666667  0.333333  1.0  2.1436
  Pr  Pr3  1  0.750000  0.666667  0.333333  1.0  2.1436
  Pr  Pr4  1  0.750000  0.333333  0.666667  1.0  2.1436
  Cu  Cu5  1  0.000000  0.500000  0.500000  1.0  1.043
  Cu  Cu6  1  0.000000  0.000000  0.500000  1.0  1.043
  Cu  Cu7  1  0.000000  0.500000  0.000000  1.0  1.043
  Cu  Cu8  1  0.500000  0.000000  0.500000  1.0  1.043
  Cu  Cu9  1  0.500000  0.500000  0.500000  1.0  1.043
  Cu  Cu10  1  0.500000  0.500000  0.000000  1.0  1.043
  H  H11  1  0.836800  0.786100  0.150700  1.0  0.0955
  H  H12  1  0.757400  0.710000  0.089200  1.0  0.0901
  H  H13  1  0.836800  0.364600  0.213900  1.0  0.095
  H  H14  1  0.757400  0.379200  0.290000  1.0  0.0908
  H  H15  1  0.836800  0.849300  0.635400  1.0  0.0959
  H  H16  1  0.757400  0.910800  0.620800  1.0  0.09
  H  H17  1  0.836800  0.213900  0.849300  1.0  0.0954
  H  H18  1  0.757400  0.290000  0.910800  1.0  0.0894
  H  H19  1  0.836800  0.635400  0.786100  1.0  0.0948
  H  H20  1  0.757400  0.620800  0.710000  1.0  0.091
  H  H21  1  0.836800  0.150700  0.364600  1.0  0.0959
  H  H22  1  0.757400  0.089200  0.379200  1.0  0.09
  H  H23  1  0.663200  0.635400  0.849300  1.0  0.0952
  H  H24  1  0.742600  0.620800  0.910800  1.0  0.0902
  H  H25  1  0.663200  0.150700  0.786100  1.0  0.0966
  H  H26  1  0.742600  0.089200  0.710000  1.0  0.09
  H  H27  1  0.663200  0.213900  0.364600  1.0  0.0948
  H  H28  1  0.742600  0.290000  0.379200  1.0  0.0893
  H  H29  1  0.663200  0.364600  0.150700  1.0  0.0948
  H  H30  1  0.742600  0.379200  0.089200  1.0  0.0904
  H  H31  1  0.663200  0.849300  0.213900  1.0  0.0953
  H  H32  1  0.742600  0.910800  0.290000  1.0  0.0897
  H  H33  1  0.663200  0.786100  0.635400  1.0  0.0957
  H  H34  1  0.742600  0.710000  0.620800  1.0  0.0889
  H  H35  1  0.163200  0.213900  0.849300  1.0  0.0956
  H  H36  1  0.242600  0.290000  0.910800  1.0  0.0886
  H  H37  1  0.163200  0.635400  0.786100  1.0  0.0951
  H  H38  1  0.242600  0.620800  0.710000  1.0  0.0892
  H  H39  1  0.163200  0.150700  0.364600  1.0  0.0952
  H  H40  1  0.242600  0.089200  0.379200  1.0  0.0889
  H  H41  1  0.163200  0.786100  0.150700  1.0  0.0955
  H  H42  1  0.242600  0.710000  0.089200  1.0  0.0881
  H  H43  1  0.163200  0.364600  0.213900  1.0  0.0946
  H  H44  1  0.242600  0.379200  0.290000  1.0  0.0895
  H  H45  1  0.163200  0.849300  0.635400  1.0  0.0966
  H  H46  1  0.242600  0.910800  0.620800  1.0  0.0884
  H  H47  1  0.336800  0.364600  0.150700  1.0  0.0948
  H  H48  1  0.257400  0.379200  0.089200  1.0  0.0902
  H  H49  1  0.336800  0.849300  0.213900  1.0  0.0959
  H  H50  1  0.257400  0.910800  0.290000  1.0  0.0894
  H  H51  1  0.336800  0.786100  0.635400  1.0  0.0952
  H  H52  1  0.257400  0.710000  0.620800  1.0  0.0883
  H  H53  1  0.336800  0.635400  0.849300  1.0  0.0951
  H  H54  1  0.257400  0.620800  0.910800  1.0  0.0899
  H  H55  1  0.336800  0.150700  0.786100  1.0  0.0961
  H  H56  1  0.257400  0.089200  0.710000  1.0  0.0892
  H  H57  1  0.336800  0.213900  0.364600  1.0  0.0952
  H  H58  1  0.257400  0.290000  0.379200  1.0  0.0888
  C  C59  1  0.359800  0.127500  0.643000  1.0  0.7132
  C  C60  1  0.700500  0.854400  0.269100  1.0  -0.0562
  C  C61  1  0.359800  0.515500  0.872500  1.0  0.7138
  C  C62  1  0.700500  0.414700  0.145600  1.0  -0.0566
  C  C63  1  0.359800  0.357000  0.484500  1.0  0.7136
  C  C64  1  0.700500  0.730900  0.585300  1.0  -0.0562
  C  C65  1  0.359800  0.872500  0.357000  1.0  0.7138
  C  C66  1  0.700500  0.145600  0.730900  1.0  -0.0569
  C  C67  1  0.359800  0.484500  0.127500  1.0  0.7134
  C  C68  1  0.700500  0.585300  0.854400  1.0  -0.0563
  C  C69  1  0.359800  0.643000  0.515500  1.0  0.713
  C  C70  1  0.700500  0.269100  0.414700  1.0  -0.0565
  C  C71  1  0.140200  0.484500  0.357000  1.0  0.7145
  C  C72  1  0.799500  0.585300  0.730900  1.0  -0.0563
  C  C73  1  0.140200  0.643000  0.127500  1.0  0.714
  C  C74  1  0.799500  0.269100  0.854400  1.0  -0.0555
  C  C75  1  0.140200  0.872500  0.515500  1.0  0.7146
  C  C76  1  0.799500  0.145600  0.414700  1.0  -0.0548
  C  C77  1  0.140200  0.515500  0.643000  1.0  0.7137
  C  C78  1  0.799500  0.414700  0.269100  1.0  -0.0558
  C  C79  1  0.140200  0.357000  0.872500  1.0  0.7142
  C  C80  1  0.799500  0.730900  0.145600  1.0  -0.0571
  C  C81  1  0.140200  0.127500  0.484500  1.0  0.7139
  C  C82  1  0.799500  0.854400  0.585300  1.0  -0.057
  C  C83  1  0.640200  0.872500  0.357000  1.0  0.7141
  C  C84  1  0.299500  0.145600  0.730900  1.0  -0.0563
  C  C85  1  0.640200  0.484500  0.127500  1.0  0.7143
  C  C86  1  0.299500  0.585300  0.854400  1.0  -0.056
  C  C87  1  0.640200  0.643000  0.515500  1.0  0.7137
  C  C88  1  0.299500  0.269100  0.414700  1.0  -0.0558
  C  C89  1  0.640200  0.127500  0.643000  1.0  0.7143
  C  C90  1  0.299500  0.854400  0.269100  1.0  -0.0561
  C  C91  1  0.640200  0.515500  0.872500  1.0  0.7144
  C  C92  1  0.299500  0.414700  0.145600  1.0  -0.0558
  C  C93  1  0.640200  0.357000  0.484500  1.0  0.7142
  C  C94  1  0.299500  0.730900  0.585300  1.0  -0.0559
  C  C95  1  0.859800  0.515500  0.643000  1.0  0.7126
  C  C96  1  0.200500  0.414700  0.269100  1.0  -0.0559
  C  C97  1  0.859800  0.357000  0.872500  1.0  0.7135
  C  C98  1  0.200500  0.730900  0.145600  1.0  -0.0564
  C  C99  1  0.859800  0.127500  0.484500  1.0  0.7136
  C  C100  1  0.200500  0.854400  0.585300  1.0  -0.0567
  C  C101  1  0.859800  0.484500  0.357000  1.0  0.7141
  C  C102  1  0.200500  0.585300  0.730900  1.0  -0.0557
  C  C103  1  0.859800  0.643000  0.127500  1.0  0.7135
  C  C104  1  0.200500  0.269100  0.854400  1.0  -0.0555
  C  C105  1  0.859800  0.872500  0.515500  1.0  0.7134
  C  C106  1  0.200500  0.145600  0.414700  1.0  -0.0546
  O  O107  1  0.359300  0.192000  0.614900  1.0  -0.6782
  O  O108  1  0.406400  0.048300  0.606300  1.0  -0.6082
  O  O109  1  0.359300  0.422900  0.808000  1.0  -0.678
  O  O110  1  0.406400  0.558000  0.951700  1.0  -0.6087
  O  O111  1  0.359300  0.385100  0.577100  1.0  -0.6793
  O  O112  1  0.406400  0.393700  0.442000  1.0  -0.6083
  O  O113  1  0.359300  0.808000  0.385100  1.0  -0.68
  O  O114  1  0.406400  0.951700  0.393700  1.0  -0.6084
  O  O115  1  0.359300  0.577100  0.192000  1.0  -0.6782
  O  O116  1  0.406400  0.442000  0.048300  1.0  -0.6096
  O  O117  1  0.359300  0.614900  0.422900  1.0  -0.6782
  O  O118  1  0.406400  0.606300  0.558000  1.0  -0.6087
  O  O119  1  0.140700  0.577100  0.385100  1.0  -0.6783
  O  O120  1  0.093600  0.442000  0.393700  1.0  -0.6083
  O  O121  1  0.140700  0.614900  0.192000  1.0  -0.6799
  O  O122  1  0.093600  0.606300  0.048300  1.0  -0.608
  O  O123  1  0.140700  0.808000  0.422900  1.0  -0.6797
  O  O124  1  0.093600  0.951700  0.558000  1.0  -0.6075
  O  O125  1  0.140700  0.422900  0.614900  1.0  -0.6782
  O  O126  1  0.093600  0.558000  0.606300  1.0  -0.6094
  O  O127  1  0.140700  0.385100  0.808000  1.0  -0.6785
  O  O128  1  0.093600  0.393700  0.951700  1.0  -0.6085
  O  O129  1  0.140700  0.192000  0.577100  1.0  -0.6801
  O  O130  1  0.093600  0.048300  0.442000  1.0  -0.6077
  O  O131  1  0.640700  0.808000  0.385100  1.0  -0.6801
  O  O132  1  0.593600  0.951700  0.393700  1.0  -0.6098
  O  O133  1  0.640700  0.577100  0.192000  1.0  -0.6789
  O  O134  1  0.593600  0.442000  0.048300  1.0  -0.611
  O  O135  1  0.640700  0.614900  0.422900  1.0  -0.6788
  O  O136  1  0.593600  0.606300  0.558000  1.0  -0.6102
  O  O137  1  0.640700  0.192000  0.614900  1.0  -0.6788
  O  O138  1  0.593600  0.048300  0.606300  1.0  -0.6096
  O  O139  1  0.640700  0.422900  0.808000  1.0  -0.6779
  O  O140  1  0.593600  0.558000  0.951700  1.0  -0.6106
  O  O141  1  0.640700  0.385100  0.577100  1.0  -0.6799
  O  O142  1  0.593600  0.393700  0.442000  1.0  -0.6102
  O  O143  1  0.859300  0.422900  0.614900  1.0  -0.6784
  O  O144  1  0.906400  0.558000  0.606300  1.0  -0.6111
  O  O145  1  0.859300  0.385100  0.808000  1.0  -0.6779
  O  O146  1  0.906400  0.393700  0.951700  1.0  -0.61
  O  O147  1  0.859300  0.192000  0.577100  1.0  -0.68
  O  O148  1  0.906400  0.048300  0.442000  1.0  -0.6099
  O  O149  1  0.859300  0.577100  0.385100  1.0  -0.6775
  O  O150  1  0.906400  0.442000  0.393700  1.0  -0.6108
  O  O151  1  0.859300  0.614900  0.192000  1.0  -0.6793
  O  O152  1  0.906400  0.606300  0.048300  1.0  -0.6105
  O  O153  1  0.859300  0.808000  0.422900  1.0  -0.6789
  O  O154  1  0.906400  0.951700  0.558000  1.0  -0.6098
  O  O155  1  0.750000  0.763800  0.236200  1.0  -0.3449
  O  O156  1  0.750000  0.472400  0.236200  1.0  -0.3459
  O  O157  1  0.750000  0.763800  0.527600  1.0  -0.3434
  O  O158  1  0.750000  0.236200  0.763800  1.0  -0.3433
  O  O159  1  0.750000  0.527600  0.763800  1.0  -0.3466
  O  O160  1  0.750000  0.236200  0.472400  1.0  -0.3451
  O  O161  1  0.250000  0.236200  0.763800  1.0  -0.3433
  O  O162  1  0.250000  0.527600  0.763800  1.0  -0.3466
  O  O163  1  0.250000  0.236200  0.472400  1.0  -0.3451
  O  O164  1  0.250000  0.763800  0.236200  1.0  -0.3449
  O  O165  1  0.250000  0.472400  0.236200  1.0  -0.3459
  O  O166  1  0.250000  0.763800  0.527600  1.0  -0.3434
