# generated using pymatgen
data_LaP4H17C12(NO3)4
_symmetry_space_group_name_H-M   'P 1'
_cell_length_a   14.33390000
_cell_length_b   20.76000000
_cell_length_c   21.50700000
_cell_angle_alpha   69.99200000
_cell_angle_beta   73.15400000
_cell_angle_gamma   72.35300000
_symmetry_Int_Tables_number   1
_chemical_formula_structural   LaP4H17C12(NO3)4
_chemical_formula_sum   'La8 P32 H136 C96 N32 O96'
_cell_volume   5605.52287373
_cell_formula_units_Z   8
loop_
 _symmetry_equiv_pos_site_id
 _symmetry_equiv_pos_as_xyz
  1  'x, y, z'
loop_
 _atom_site_type_symbol
 _atom_site_label
 _atom_site_symmetry_multiplicity
 _atom_site_fract_x
 _atom_site_fract_y
 _atom_site_fract_z
 _atom_site_occupancy
 _atom_site_charge
  La  La1  1  0.571380  0.885660  0.588070  1.0  2.1933
  La  La2  1  0.878200  0.517040  0.612840  1.0  2.1552
  La  La3  1  0.510100  0.910770  0.935920  1.0  2.1835
  La  La4  1  0.433090  0.548900  0.132310  1.0  2.2018
  La  La5  1  0.428620  0.114340  0.411930  1.0  2.1934
  La  La6  1  0.121800  0.482960  0.387160  1.0  2.1474
  La  La7  1  0.489900  0.089230  0.064080  1.0  2.1828
  La  La8  1  0.566910  0.451100  0.867690  1.0  2.2022
  P  P9  1  0.546290  0.939870  0.745220  1.0  1.4922
  P  P10  1  0.332190  0.931230  0.827280  1.0  1.523
  P  P11  1  0.303600  0.997790  0.060170  1.0  1.4767
  P  P12  1  0.369740  0.099790  0.925520  1.0  1.5532
  P  P13  1  0.627220  0.068970  0.514990  1.0  1.4941
  P  P14  1  0.679980  0.988440  0.411410  1.0  1.5444
  P  P15  1  0.162380  0.459540  0.562220  1.0  1.4747
  P  P16  1  0.077610  0.608270  0.490680  1.0  1.5101
  P  P17  1  0.422360  0.750970  0.066890  1.0  1.5088
  P  P18  1  0.621030  0.657420  0.097550  1.0  1.5293
  P  P19  1  0.827120  0.382100  0.778940  1.0  1.5314
  P  P20  1  0.666150  0.420520  0.699700  1.0  1.4925
  P  P21  1  0.724040  0.705590  0.566180  1.0  1.5036
  P  P22  1  0.847740  0.798890  0.575320  1.0  1.559
  P  P23  1  0.634380  0.541780  0.971540  1.0  1.524
  P  P24  1  0.653550  0.407810  0.091590  1.0  1.5406
  P  P25  1  0.453710  0.060130  0.254780  1.0  1.5008
  P  P26  1  0.667810  0.068770  0.172720  1.0  1.521
  P  P27  1  0.696400  0.002210  0.939830  1.0  1.4749
  P  P28  1  0.630260  0.900210  0.074480  1.0  1.5508
  P  P29  1  0.372780  0.931030  0.485010  1.0  1.4925
  P  P30  1  0.320020  0.011560  0.588590  1.0  1.5461
  P  P31  1  0.837620  0.540460  0.437780  1.0  1.4709
  P  P32  1  0.922390  0.391730  0.509320  1.0  1.5096
  P  P33  1  0.577640  0.249030  0.933110  1.0  1.5095
  P  P34  1  0.378970  0.342580  0.902450  1.0  1.5285
  P  P35  1  0.172880  0.617900  0.221060  1.0  1.53
  P  P36  1  0.333850  0.579480  0.300300  1.0  1.4962
  P  P37  1  0.275960  0.294410  0.433820  1.0  1.5023
  P  P38  1  0.152260  0.201110  0.424680  1.0  1.5573
  P  P39  1  0.365620  0.458220  0.028460  1.0  1.5262
  P  P40  1  0.346450  0.592190  0.908410  1.0  1.5405
  H  H41  1  0.333800  0.055800  0.798300  1.0  0.1897
  H  H42  1  0.439500  0.045700  0.793500  1.0  0.198
  H  H43  1  0.251100  0.045200  0.910500  1.0  0.1731
  H  H44  1  0.225400  0.992800  0.973000  1.0  0.1899
  H  H45  1  0.812600  0.949200  0.478100  1.0  0.178
  H  H46  1  0.804300  0.996900  0.515900  1.0  0.1567
  H  H47  1  0.257900  0.597200  0.459100  1.0  0.1749
  H  H48  1  0.296400  0.522200  0.477800  1.0  0.1778
  H  H49  1  0.426000  0.690500  0.195500  1.0  0.1739
  H  H50  1  0.522500  0.680700  0.209600  1.0  0.1736
  H  H51  1  0.888600  0.328900  0.680500  1.0  0.1861
  H  H52  1  0.806700  0.334600  0.651500  1.0  0.1542
  H  H53  1  0.840100  0.836800  0.454700  1.0  0.1584
  H  H54  1  0.746500  0.818800  0.464000  1.0  0.1949
  H  H55  1  0.807500  0.417000  0.984300  1.0  0.1816
  H  H56  1  0.821800  0.487900  0.956700  1.0  0.1867
  H  H57  1  0.390400  0.991100  0.714800  1.0  0.1142
  H  H58  1  0.429200  0.081500  0.634100  1.0  0.0993
  H  H59  1  0.418400  0.192000  0.560400  1.0  0.0884
  H  H60  1  0.376700  0.290800  0.601600  1.0  0.1064
  H  H61  1  0.346200  0.274200  0.715500  1.0  0.0967
  H  H62  1  0.216500  0.105700  0.002800  1.0  0.1387
  H  H63  1  0.063000  0.128400  0.011500  1.0  0.1101
  H  H64  1  0.900900  0.153000  0.999900  1.0  0.0925
  H  H65  1  0.857400  0.107900  0.932200  1.0  0.0973
  H  H66  1  0.975300  0.038400  0.874100  1.0  0.0808
  H  H67  1  0.742400  0.079500  0.412800  1.0  0.1401
  H  H68  1  0.883000  0.100100  0.375700  1.0  0.1095
  H  H69  1  0.049400  0.103100  0.333700  1.0  0.0974
  H  H70  1  0.174600  0.008000  0.374400  1.0  0.1133
  H  H71  1  0.130100  0.913000  0.454000  1.0  0.074
  H  H72  1  0.165900  0.564300  0.578300  1.0  0.1339
  H  H73  1  0.297500  0.552900  0.616800  1.0  0.1187
  H  H74  1  0.443100  0.564200  0.633900  1.0  0.0893
  H  H75  1  0.575500  0.588600  0.546200  1.0  0.1052
  H  H76  1  0.566200  0.598700  0.442200  1.0  0.073
  H  H77  1  0.544900  0.771500  0.104600  1.0  0.1347
  H  H78  1  0.451100  0.852500  0.150300  1.0  0.1031
  H  H79  1  0.387000  0.924600  0.220800  1.0  0.0878
  H  H80  1  0.334300  0.878800  0.336600  1.0  0.1089
  H  H81  1  0.336700  0.760900  0.379000  1.0  0.0972
  H  H82  1  0.729700  0.313800  0.773600  1.0  0.1068
  H  H83  1  0.802700  0.203400  0.796000  1.0  0.1167
  H  H84  1  0.861600  0.088100  0.794400  1.0  0.0896
  H  H85  1  0.955100  0.059100  0.694400  1.0  0.1167
  H  H86  1  0.981600  0.148800  0.599200  1.0  0.063
  H  H87  1  0.889800  0.714500  0.516500  1.0  0.1075
  H  H88  1  0.899000  0.680000  0.425700  1.0  0.0905
  H  H89  1  0.946800  0.667900  0.318100  1.0  0.0929
  H  H90  1  0.922700  0.766600  0.225200  1.0  0.1174
  H  H91  1  0.847200  0.874800  0.245000  1.0  0.0894
  H  H92  1  0.717700  0.506800  0.059300  1.0  0.1171
  H  H93  1  0.992100  0.411600  0.936400  1.0  0.1079
  H  H94  1  0.136500  0.378000  0.978700  1.0  0.0892
  H  H95  1  0.126700  0.379800  0.087700  1.0  0.0963
  H  H96  1  0.972500  0.415100  0.154400  1.0  0.0901
  H  H97  1  0.605500  0.003700  0.658500  1.0  0.3815
  H  H98  1  0.386500  0.828400  0.838600  1.0  0.4748
  H  H99  1  0.172900  0.012900  0.125700  1.0  0.4432
  H  H100  1  0.667900  0.150300  0.520800  1.0  0.4134
  H  H101  1  0.232300  0.420900  0.640100  1.0  0.4055
  H  H102  1  0.336000  0.843000  0.081800  1.0  0.3825
  H  H103  1  0.732000  0.679800  0.119500  1.0  0.3708
  H  H104  1  0.869400  0.306300  0.859500  1.0  0.4468
  H  H105  1  0.732000  0.649300  0.504600  1.0  0.387
  H  H106  1  0.873300  0.756500  0.668900  1.0  0.44
  H  H107  1  0.653500  0.637100  0.912300  1.0  0.4341
  H  H108  1  0.574200  0.400500  0.032200  1.0  0.4081
  H  H109  1  0.666200  0.944200  0.201700  1.0  0.1951
  H  H110  1  0.560500  0.954300  0.206500  1.0  0.2001
  H  H111  1  0.748900  0.954800  0.089500  1.0  0.1722
  H  H112  1  0.774600  0.007200  0.027000  1.0  0.1922
  H  H113  1  0.187400  0.050800  0.521900  1.0  0.176
  H  H114  1  0.195700  0.003100  0.484100  1.0  0.1589
  H  H115  1  0.742100  0.402800  0.540900  1.0  0.1717
  H  H116  1  0.703600  0.477800  0.522200  1.0  0.1773
  H  H117  1  0.574000  0.309500  0.804500  1.0  0.1757
  H  H118  1  0.477500  0.319300  0.790400  1.0  0.1748
  H  H119  1  0.111400  0.671100  0.319500  1.0  0.183
  H  H120  1  0.193300  0.665400  0.348500  1.0  0.1528
  H  H121  1  0.159900  0.163200  0.545300  1.0  0.1591
  H  H122  1  0.253500  0.181200  0.536000  1.0  0.1951
  H  H123  1  0.192500  0.583000  0.015700  1.0  0.1782
  H  H124  1  0.178200  0.512100  0.043300  1.0  0.183
  H  H125  1  0.609600  0.008900  0.285200  1.0  0.1156
  H  H126  1  0.570800  0.918500  0.365900  1.0  0.0994
  H  H127  1  0.581600  0.808000  0.439600  1.0  0.0888
  H  H128  1  0.623300  0.709200  0.398400  1.0  0.1072
  H  H129  1  0.653800  0.725800  0.284500  1.0  0.0963
  H  H130  1  0.783500  0.894300  0.997200  1.0  0.1371
  H  H131  1  0.937000  0.871600  0.988500  1.0  0.1112
  H  H132  1  0.099100  0.847000  0.000100  1.0  0.0918
  H  H133  1  0.142600  0.892100  0.067800  1.0  0.0976
  H  H134  1  0.024700  0.961600  0.125900  1.0  0.0799
  H  H135  1  0.257600  0.920500  0.587200  1.0  0.1391
  H  H136  1  0.117000  0.899900  0.624300  1.0  0.1081
  H  H137  1  0.950600  0.896900  0.666300  1.0  0.0981
  H  H138  1  0.825400  0.992000  0.625600  1.0  0.1143
  H  H139  1  0.869900  0.087000  0.546000  1.0  0.0742
  H  H140  1  0.834100  0.435700  0.421700  1.0  0.1334
  H  H141  1  0.702500  0.447100  0.383200  1.0  0.1191
  H  H142  1  0.556900  0.435800  0.366100  1.0  0.0895
  H  H143  1  0.424500  0.411400  0.453800  1.0  0.1054
  H  H144  1  0.433800  0.401300  0.557800  1.0  0.0734
  H  H145  1  0.455100  0.228500  0.895400  1.0  0.1347
  H  H146  1  0.548900  0.147500  0.849700  1.0  0.1038
  H  H147  1  0.613000  0.075400  0.779200  1.0  0.0866
  H  H148  1  0.665700  0.121200  0.663400  1.0  0.1086
  H  H149  1  0.663300  0.239100  0.621000  1.0  0.0971
  H  H150  1  0.270300  0.686200  0.226400  1.0  0.1048
  H  H151  1  0.197300  0.796600  0.204000  1.0  0.1162
  H  H152  1  0.138400  0.911900  0.205600  1.0  0.0897
  H  H153  1  0.044900  0.940900  0.305600  1.0  0.1158
  H  H154  1  0.018400  0.851200  0.400800  1.0  0.0631
  H  H155  1  0.110200  0.285500  0.483500  1.0  0.1081
  H  H156  1  0.101000  0.320000  0.574300  1.0  0.0901
  H  H157  1  0.053200  0.332100  0.681900  1.0  0.0931
  H  H158  1  0.077300  0.233400  0.774800  1.0  0.1179
  H  H159  1  0.152800  0.125200  0.755000  1.0  0.0899
  H  H160  1  0.282300  0.493200  0.940700  1.0  0.1176
  H  H161  1  0.007900  0.588400  0.063600  1.0  0.1084
  H  H162  1  0.863500  0.622000  0.021300  1.0  0.0892
  H  H163  1  0.873300  0.620200  0.912300  1.0  0.0951
  H  H164  1  0.027500  0.584900  0.845600  1.0  0.0899
  H  H165  1  0.394500  0.996300  0.341500  1.0  0.3814
  H  H166  1  0.613500  0.171600  0.161400  1.0  0.4746
  H  H167  1  0.827100  0.987100  0.874300  1.0  0.4466
  H  H168  1  0.332100  0.849700  0.479200  1.0  0.4137
  H  H169  1  0.767700  0.579100  0.359900  1.0  0.4049
  H  H170  1  0.664000  0.157000  0.918200  1.0  0.3841
  H  H171  1  0.268000  0.320200  0.880500  1.0  0.3738
  H  H172  1  0.130600  0.693700  0.140500  1.0  0.4464
  H  H173  1  0.268000  0.350700  0.495400  1.0  0.3868
  H  H174  1  0.126700  0.243500  0.331100  1.0  0.4384
  H  H175  1  0.346500  0.362900  0.087700  1.0  0.4356
  H  H176  1  0.425800  0.599500  0.967800  1.0  0.4055
  C  C177  1  0.412200  0.982800  0.756600  1.0  -0.0765
  C  C178  1  0.394200  0.111800  0.720900  1.0  0.3727
  C  C179  1  0.412700  0.120500  0.650300  1.0  -0.1704
  C  C180  1  0.406200  0.186200  0.606700  1.0  -0.1208
  C  C181  1  0.381100  0.245800  0.631200  1.0  -0.1654
  C  C182  1  0.363600  0.235500  0.698600  1.0  0.1622
  C  C183  1  0.264700  0.066600  0.987300  1.0  -0.0866
  C  C184  1  0.120400  0.062100  0.949300  1.0  0.3766
  C  C185  1  0.046200  0.108800  0.984400  1.0  -0.2914
  C  C186  1  0.950300  0.123600  0.976600  1.0  -0.0841
  C  C187  1  0.923700  0.096900  0.936100  1.0  -0.0673
  C  C188  1  0.993000  0.055500  0.902700  1.0  0.1481
  C  C189  1  0.723900  0.038400  0.448500  1.0  -0.0832
  C  C190  1  0.907200  0.001300  0.442300  1.0  0.3285
  C  C191  1  0.932700  0.062100  0.391800  1.0  -0.2761
  C  C192  1  0.032000  0.063600  0.367000  1.0  -0.0794
  C  C193  1  0.107500  0.006700  0.391000  1.0  -0.1593
  C  C194  1  0.080600  0.951000  0.437800  1.0  0.1329
  C  C195  1  0.174600  0.550300  0.537500  1.0  -0.1008
  C  C196  1  0.346600  0.568200  0.513900  1.0  0.3399
  C  C197  1  0.351000  0.561800  0.580800  1.0  -0.2615
  C  C198  1  0.438200  0.569100  0.590300  1.0  -0.0955
  C  C199  1  0.518200  0.583500  0.538100  1.0  -0.0856
  C  C200  1  0.511900  0.589500  0.477500  1.0  0.1641
  C  C201  1  0.517700  0.729800  0.116600  1.0  -0.0853
  C  C202  1  0.434600  0.760900  0.224600  1.0  0.3514
  C  C203  1  0.429200  0.833800  0.196500  1.0  -0.2843
  C  C204  1  0.390900  0.876500  0.238800  1.0  -0.0946
  C  C205  1  0.357700  0.849600  0.308200  1.0  -0.1532
  C  C206  1  0.360600  0.779600  0.333100  1.0  0.1548
  C  C207  1  0.763300  0.348900  0.738400  1.0  -0.1378
  C  C208  1  0.859300  0.244800  0.695900  1.0  0.3571
  C  C209  1  0.839200  0.192000  0.756200  1.0  -0.2614
  C  C210  1  0.874500  0.123700  0.754900  1.0  -0.1204
  C  C211  1  0.929900  0.105700  0.695200  1.0  -0.1629
  C  C212  1  0.944700  0.159000  0.639400  1.0  0.1421
  C  C213  1  0.828300  0.750200  0.524800  1.0  -0.0505
  C  C214  1  0.844300  0.786300  0.399600  1.0  0.3692
  C  C215  1  0.888900  0.719400  0.389000  1.0  -0.1803
  C  C216  1  0.917400  0.712200  0.324800  1.0  -0.1378
  C  C217  1  0.902800  0.771000  0.269100  1.0  -0.1438
  C  C218  1  0.858400  0.835100  0.281200  1.0  0.161
  C  C219  1  0.710300  0.479900  0.032200  1.0  -0.0682
  C  C220  1  0.895800  0.433500  0.020100  1.0  0.3348
  C  C221  1  0.988200  0.412300  0.980100  1.0  -0.1937
  C  C222  1  0.074700  0.392200  0.005500  1.0  -0.1049
  C  C223  1  0.068800  0.393200  0.070800  1.0  -0.1117
  C  C224  1  0.976400  0.414400  0.110700  1.0  0.1391
  C  C225  1  0.587800  0.017200  0.243400  1.0  -0.0764
  C  C226  1  0.605800  0.888200  0.279100  1.0  0.3715
  C  C227  1  0.587300  0.879500  0.349700  1.0  -0.1705
  C  C228  1  0.593800  0.813800  0.393300  1.0  -0.1228
  C  C229  1  0.618900  0.754200  0.368800  1.0  -0.1666
  C  C230  1  0.636400  0.764500  0.301400  1.0  0.1639
  C  C231  1  0.735300  0.933400  0.012700  1.0  -0.0879
  C  C232  1  0.879600  0.937900  0.050700  1.0  0.3739
  C  C233  1  0.953800  0.891200  0.015600  1.0  -0.2942
  C  C234  1  0.049700  0.876400  0.023400  1.0  -0.0872
  C  C235  1  0.076300  0.903100  0.063900  1.0  -0.0683
  C  C236  1  0.007000  0.944500  0.097300  1.0  0.1467
  C  C237  1  0.276100  0.961600  0.551500  1.0  -0.0829
  C  C238  1  0.092800  0.998700  0.557700  1.0  0.3317
  C  C239  1  0.067300  0.937900  0.608200  1.0  -0.2785
  C  C240  1  0.968000  0.936400  0.633000  1.0  -0.0824
  C  C241  1  0.892500  0.993300  0.609000  1.0  -0.1599
  C  C242  1  0.919400  0.049000  0.562200  1.0  0.137
  C  C243  1  0.825400  0.449700  0.462500  1.0  -0.0955
  C  C244  1  0.653400  0.431800  0.486100  1.0  0.3393
  C  C245  1  0.649000  0.438200  0.419200  1.0  -0.2597
  C  C246  1  0.561800  0.430900  0.409700  1.0  -0.0952
  C  C247  1  0.481800  0.416500  0.461900  1.0  -0.0879
  C  C248  1  0.488100  0.410500  0.522500  1.0  0.1646
  C  C249  1  0.482300  0.270200  0.883400  1.0  -0.0839
  C  C250  1  0.565400  0.239100  0.775400  1.0  0.3498
  C  C251  1  0.570800  0.166200  0.803500  1.0  -0.2861
  C  C252  1  0.609100  0.123500  0.761200  1.0  -0.0935
  C  C253  1  0.642300  0.150400  0.691800  1.0  -0.1542
  C  C254  1  0.639400  0.220400  0.666900  1.0  0.1556
  C  C255  1  0.236700  0.651100  0.261600  1.0  -0.1382
  C  C256  1  0.140700  0.755200  0.304100  1.0  0.3577
  C  C257  1  0.160800  0.808000  0.243800  1.0  -0.2592
  C  C258  1  0.125500  0.876300  0.245100  1.0  -0.1186
  C  C259  1  0.070100  0.894300  0.304800  1.0  -0.1626
  C  C260  1  0.055300  0.841000  0.360600  1.0  0.142
  C  C261  1  0.171700  0.249800  0.475200  1.0  -0.0482
  C  C262  1  0.155700  0.213700  0.600400  1.0  0.3666
  C  C263  1  0.111100  0.280600  0.611000  1.0  -0.1804
  C  C264  1  0.082600  0.287800  0.675200  1.0  -0.1343
  C  C265  1  0.097200  0.229000  0.730900  1.0  -0.1479
  C  C266  1  0.141600  0.164900  0.718800  1.0  0.1607
  C  C267  1  0.289700  0.520100  0.967800  1.0  -0.0685
  C  C268  1  0.104200  0.566500  0.979900  1.0  0.3357
  C  C269  1  0.011800  0.587700  0.019900  1.0  -0.1906
  C  C270  1  0.925300  0.607800  0.994500  1.0  -0.1038
  C  C271  1  0.931200  0.606800  0.929200  1.0  -0.1067
  C  C272  1  0.023600  0.585600  0.889300  1.0  0.1396
  N  N273  1  0.393900  0.050300  0.770000  1.0  -0.3008
  N  N274  1  0.370700  0.170100  0.742300  1.0  -0.5334
  N  N275  1  0.215800  0.039600  0.953400  1.0  -0.2835
  N  N276  1  0.091300  0.037100  0.909200  1.0  -0.5212
  N  N277  1  0.813200  0.993800  0.473800  1.0  -0.314
  N  N278  1  0.982700  0.947300  0.463300  1.0  -0.449
  N  N279  1  0.271100  0.559700  0.494400  1.0  -0.2857
  N  N280  1  0.427400  0.583000  0.462700  1.0  -0.4308
  N  N281  1  0.474400  0.712800  0.189100  1.0  -0.3093
  N  N282  1  0.397600  0.736100  0.292000  1.0  -0.5051
  N  N283  1  0.831400  0.314900  0.689500  1.0  -0.2895
  N  N284  1  0.908600  0.225900  0.639500  1.0  -0.4658
  N  N285  1  0.813000  0.801200  0.459300  1.0  -0.3123
  N  N286  1  0.830500  0.841900  0.344700  1.0  -0.4791
  N  N287  1  0.811100  0.454000  0.995700  1.0  -0.3183
  N  N288  1  0.889900  0.434500  0.085400  1.0  -0.4316
  N  N289  1  0.606100  0.949700  0.230000  1.0  -0.3033
  N  N290  1  0.629300  0.829900  0.257700  1.0  -0.5355
  N  N291  1  0.784200  0.960400  0.046600  1.0  -0.2835
  N  N292  1  0.908700  0.962900  0.090800  1.0  -0.5228
  N  N293  1  0.186800  0.006200  0.526200  1.0  -0.3144
  N  N294  1  0.017300  0.052700  0.536700  1.0  -0.4497
  N  N295  1  0.728900  0.440300  0.505600  1.0  -0.2871
  N  N296  1  0.572600  0.417000  0.537300  1.0  -0.4295
  N  N297  1  0.525600  0.287200  0.810900  1.0  -0.312
  N  N298  1  0.602400  0.263900  0.708000  1.0  -0.5041
  N  N299  1  0.168600  0.685100  0.310500  1.0  -0.2886
  N  N300  1  0.091400  0.774100  0.360500  1.0  -0.4631
  N  N301  1  0.187000  0.198800  0.540700  1.0  -0.3154
  N  N302  1  0.169500  0.158100  0.655300  1.0  -0.479
  N  N303  1  0.188900  0.546000  0.004300  1.0  -0.3154
  N  N304  1  0.110100  0.565500  0.914600  1.0  -0.431
  O  O305  1  0.600900  0.000700  0.698220  1.0  -0.6413
  O  O306  1  0.567300  0.884400  0.709500  1.0  -0.891
  O  O307  1  0.574200  0.916900  0.813030  1.0  -0.9236
  O  O308  1  0.224500  0.967800  0.825500  1.0  -0.684
  O  O309  1  0.355500  0.859300  0.811400  1.0  -0.6776
  O  O310  1  0.360600  0.922700  0.892180  1.0  -0.8951
  O  O311  1  0.359800  0.933240  0.036360  1.0  -0.8367
  O  O312  1  0.203200  0.980500  0.108800  1.0  -0.6201
  O  O313  1  0.354900  0.026300  0.092940  1.0  -0.9229
  O  O314  1  0.324900  0.160700  0.871170  1.0  -0.7142
  O  O315  1  0.422400  0.122400  0.963380  1.0  -0.8898
  O  O316  1  0.432300  0.037980  0.898040  1.0  -0.8249
  O  O317  1  0.608900  0.004030  0.571950  1.0  -0.8636
  O  O318  1  0.541100  0.115740  0.483110  1.0  -0.8778
  O  O319  1  0.674800  0.109000  0.543340  1.0  -0.6892
  O  O320  1  0.588400  0.035780  0.385030  1.0  -0.9096
  O  O321  1  0.658900  0.923610  0.468550  1.0  -0.8274
  O  O322  1  0.767600  0.968840  0.355820  1.0  -0.6942
  O  O323  1  0.247700  0.414500  0.602500  1.0  -0.6881
  O  O324  1  0.060800  0.456370  0.605100  1.0  -0.8645
  O  O325  1  0.189800  0.437180  0.498100  1.0  -0.8735
  O  O326  1  0.103100  0.585940  0.426300  1.0  -0.8799
  O  O327  1  0.090300  0.682160  0.475500  1.0  -0.7396
  O  O328  1  0.977400  0.597270  0.534700  1.0  -0.8826
  O  O329  1  0.330200  0.802200  0.099800  1.0  -0.6476
  O  O330  1  0.391400  0.683960  0.078980  1.0  -0.8997
  O  O331  1  0.461600  0.790310  0.995630  1.0  -0.8755
  O  O332  1  0.584000  0.590470  0.126400  1.0  -0.9086
  O  O333  1  0.699700  0.649400  0.139200  1.0  -0.7222
  O  O334  1  0.663700  0.678000  0.022640  1.0  -0.6596
  O  O335  1  0.749400  0.417600  0.827700  1.0  -0.8801
  O  O336  1  0.893300  0.425700  0.724200  1.0  -0.8912
  O  O337  1  0.896500  0.316200  0.819400  1.0  -0.6797
  O  O338  1  0.710800  0.484400  0.663300  1.0  -0.905
  O  O339  1  0.639400  0.393300  0.650900  1.0  -0.6699
  O  O340  1  0.580600  0.428400  0.759500  1.0  -0.8699
  O  O341  1  0.698500  0.688200  0.507900  1.0  -0.6582
  O  O342  1  0.634800  0.758800  0.589800  1.0  -0.896
  O  O343  1  0.759000  0.638060  0.617110  1.0  -0.8853
  O  O344  1  0.757200  0.856600  0.584300  1.0  -0.8551
  O  O345  1  0.860500  0.740400  0.643300  1.0  -0.6393
  O  O346  1  0.942900  0.824600  0.541900  1.0  -0.7096
  O  O347  1  0.530000  0.561700  0.011540  1.0  -0.8506
  O  O348  1  0.684200  0.607100  0.940200  1.0  -0.6538
  O  O349  1  0.645500  0.509200  0.916800  1.0  -0.8906
  O  O350  1  0.562700  0.441500  0.135100  1.0  -0.9322
  O  O351  1  0.623000  0.373900  0.047100  1.0  -0.6719
  O  O352  1  0.731400  0.353400  0.125900  1.0  -0.6652
  O  O353  1  0.399100  0.999300  0.301780  1.0  -0.6419
  O  O354  1  0.432700  0.115600  0.290500  1.0  -0.892
  O  O355  1  0.425800  0.083100  0.186970  1.0  -0.9202
  O  O356  1  0.775500  0.032200  0.174500  1.0  -0.6868
  O  O357  1  0.644500  0.140700  0.188600  1.0  -0.6768
  O  O358  1  0.639400  0.077300  0.107820  1.0  -0.8938
  O  O359  1  0.640200  0.066760  0.963640  1.0  -0.8361
  O  O360  1  0.796800  0.019500  0.891200  1.0  -0.623
  O  O361  1  0.645100  0.973700  0.907060  1.0  -0.9233
  O  O362  1  0.675100  0.839300  0.128830  1.0  -0.7155
  O  O363  1  0.577600  0.877600  0.036620  1.0  -0.8906
  O  O364  1  0.567700  0.962020  0.101960  1.0  -0.8232
  O  O365  1  0.391100  0.995970  0.428050  1.0  -0.8638
  O  O366  1  0.458900  0.884260  0.516890  1.0  -0.879
  O  O367  1  0.325200  0.891000  0.456660  1.0  -0.6899
  O  O368  1  0.411600  0.964220  0.614970  1.0  -0.9114
  O  O369  1  0.341100  0.076390  0.531450  1.0  -0.8271
  O  O370  1  0.232400  0.031160  0.644180  1.0  -0.6976
  O  O371  1  0.752300  0.585500  0.397500  1.0  -0.6898
  O  O372  1  0.939200  0.543630  0.394900  1.0  -0.8634
  O  O373  1  0.810200  0.562820  0.501900  1.0  -0.8736
  O  O374  1  0.896900  0.414060  0.573700  1.0  -0.8767
  O  O375  1  0.909700  0.317840  0.524500  1.0  -0.7374
  O  O376  1  0.022600  0.402730  0.465300  1.0  -0.8831
  O  O377  1  0.669800  0.197800  0.900200  1.0  -0.6473
  O  O378  1  0.608600  0.316040  0.921020  1.0  -0.9011
  O  O379  1  0.538400  0.209690  0.004370  1.0  -0.8679
  O  O380  1  0.416000  0.409530  0.873600  1.0  -0.9069
  O  O381  1  0.300300  0.350600  0.860800  1.0  -0.7221
  O  O382  1  0.336300  0.322000  0.977360  1.0  -0.6617
  O  O383  1  0.250600  0.582400  0.172300  1.0  -0.8801
  O  O384  1  0.106700  0.574300  0.275800  1.0  -0.8932
  O  O385  1  0.103500  0.683800  0.180600  1.0  -0.6777
  O  O386  1  0.289200  0.515600  0.336700  1.0  -0.9063
  O  O387  1  0.360600  0.606700  0.349100  1.0  -0.6685
  O  O388  1  0.419400  0.571600  0.240500  1.0  -0.869
  O  O389  1  0.301500  0.311800  0.492100  1.0  -0.6588
  O  O390  1  0.365200  0.241200  0.410200  1.0  -0.9038
  O  O391  1  0.241000  0.361940  0.382890  1.0  -0.8955
  O  O392  1  0.242800  0.143400  0.415700  1.0  -0.853
  O  O393  1  0.139500  0.259600  0.356700  1.0  -0.6405
  O  O394  1  0.057100  0.175400  0.458100  1.0  -0.7106
  O  O395  1  0.470000  0.438300  0.988460  1.0  -0.85
  O  O396  1  0.315800  0.392900  0.059800  1.0  -0.6519
  O  O397  1  0.354500  0.490800  0.083200  1.0  -0.8854
  O  O398  1  0.437300  0.558500  0.864900  1.0  -0.9321
  O  O399  1  0.377000  0.626100  0.952900  1.0  -0.6736
  O  O400  1  0.268600  0.646600  0.874100  1.0  -0.6648
