# generated using pymatgen
data_HoH9(C2O)6
_symmetry_space_group_name_H-M   'P 1'
_cell_length_a   7.62100000
_cell_length_b   9.63400000
_cell_length_c   10.50000000
_cell_angle_alpha   106.40900000
_cell_angle_beta   105.27300000
_cell_angle_gamma   100.88000000
_symmetry_Int_Tables_number   1
_chemical_formula_structural   HoH9(C2O)6
_chemical_formula_sum   'Ho2 H18 C24 O12'
_cell_volume   683.94320280
_cell_formula_units_Z   2
loop_
 _symmetry_equiv_pos_site_id
 _symmetry_equiv_pos_as_xyz
  1  'x, y, z'
loop_
 _atom_site_type_symbol
 _atom_site_label
 _atom_site_symmetry_multiplicity
 _atom_site_fract_x
 _atom_site_fract_y
 _atom_site_fract_z
 _atom_site_occupancy
 _atom_site_charge
  Ho  Ho1  1  0.753330  0.967380  0.548230  1.0  2.2497
  Ho  Ho2  1  0.246670  0.032620  0.451770  1.0  2.2503
  H  H3  1  0.537900  0.800400  0.048200  1.0  0.1088
  H  H4  1  0.815800  0.488800  0.963800  1.0  0.1147
  H  H5  1  0.548400  0.622800  0.654000  1.0  0.1137
  H  H6  1  0.363800  0.876000  0.877500  1.0  0.1501
  H  H7  1  0.261400  0.736700  0.732900  1.0  0.1483
  H  H8  1  0.635500  0.677300  0.215900  1.0  0.1293
  H  H9  1  0.767400  0.568400  0.190800  1.0  0.1294
  H  H10  1  0.850400  0.397500  0.735600  1.0  0.1341
  H  H11  1  0.775300  0.470700  0.620100  1.0  0.1379
  H  H12  1  0.462100  0.199600  0.951800  1.0  0.1084
  H  H13  1  0.184200  0.511200  0.036200  1.0  0.1148
  H  H14  1  0.451600  0.377200  0.346000  1.0  0.1134
  H  H15  1  0.636200  0.124000  0.122500  1.0  0.1505
  H  H16  1  0.738600  0.263300  0.267100  1.0  0.1471
  H  H17  1  0.364500  0.322700  0.784100  1.0  0.1269
  H  H18  1  0.232600  0.431600  0.809200  1.0  0.1281
  H  H19  1  0.149600  0.602500  0.264400  1.0  0.1336
  H  H20  1  0.224700  0.529300  0.379900  1.0  0.1382
  C  C21  1  0.522200  0.726100  0.844800  1.0  0.1508
  C  C22  1  0.577500  0.734200  0.983000  1.0  -0.2417
  C  C23  1  0.688500  0.649300  0.029700  1.0  0.1648
  C  C24  1  0.742600  0.550400  0.933500  1.0  -0.2252
  C  C25  1  0.691400  0.540400  0.794300  1.0  0.0981
  C  C26  1  0.582500  0.628500  0.749400  1.0  -0.2066
  C  C27  1  0.384700  0.811400  0.794200  1.0  -0.4012
  C  C28  1  0.443600  0.909100  0.714800  1.0  0.8051
  C  C29  1  0.743000  0.663300  0.182300  1.0  -0.3787
  C  C30  1  0.917200  0.793800  0.275000  1.0  0.786
  C  C31  1  0.739900  0.425300  0.686700  1.0  -0.3838
  C  C32  1  0.575400  0.285800  0.605900  1.0  0.7982
  C  C33  1  0.477800  0.273900  0.155200  1.0  0.1513
  C  C34  1  0.422500  0.265800  0.017000  1.0  -0.2374
  C  C35  1  0.311500  0.350700  0.970300  1.0  0.1651
  C  C36  1  0.257400  0.449600  0.066500  1.0  -0.2316
  C  C37  1  0.308600  0.459600  0.205700  1.0  0.113
  C  C38  1  0.417500  0.371500  0.250600  1.0  -0.2007
  C  C39  1  0.615300  0.188600  0.205800  1.0  -0.3994
  C  C40  1  0.556400  0.090900  0.285200  1.0  0.8063
  C  C41  1  0.257000  0.336700  0.817700  1.0  -0.3773
  C  C42  1  0.082800  0.206200  0.725000  1.0  0.7863
  C  C43  1  0.260100  0.574700  0.313300  1.0  -0.3846
  C  C44  1  0.424600  0.714200  0.394100  1.0  0.7978
  O  O45  1  0.607700  0.931800  0.708400  1.0  -0.7038
  O  O46  1  0.314700  0.960800  0.655400  1.0  -0.74
  O  O47  1  0.043900  0.833800  0.227700  1.0  -0.6429
  O  O48  1  0.936700  0.862200  0.404100  1.0  -0.8346
  O  O49  1  0.411500  0.296200  0.558500  1.0  -0.6587
  O  O50  1  0.600700  0.155000  0.583400  1.0  -0.8156
  O  O51  1  0.392300  0.068200  0.291600  1.0  -0.705
  O  O52  1  0.685300  0.039200  0.344600  1.0  -0.7413
  O  O53  1  0.956100  0.166200  0.772300  1.0  -0.6445
  O  O54  1  0.063300  0.137800  0.595900  1.0  -0.83
  O  O55  1  0.588500  0.703800  0.441500  1.0  -0.6502
  O  O56  1  0.399300  0.845000  0.416600  1.0  -0.8151
