# generated using pymatgen
data_NpH4C6NO3
_symmetry_space_group_name_H-M   'P 1'
_cell_length_a   5.74200000
_cell_length_b   8.55000000
_cell_length_c   18.51200000
_cell_angle_alpha   90.00000000
_cell_angle_beta   90.00000000
_cell_angle_gamma   90.00000000
_symmetry_Int_Tables_number   1
_chemical_formula_structural   NpH4C6NO3
_chemical_formula_sum   'Np4 H16 C24 N4 O12'
_cell_volume   908.82997920
_cell_formula_units_Z   4
loop_
 _symmetry_equiv_pos_site_id
 _symmetry_equiv_pos_as_xyz
  1  'x, y, z'
loop_
 _atom_site_type_symbol
 _atom_site_label
 _atom_site_symmetry_multiplicity
 _atom_site_fract_x
 _atom_site_fract_y
 _atom_site_fract_z
 _atom_site_occupancy
 _atom_site_charge
  Np  Np1  1  0.492100  0.080550  0.516140  1.0  1.6238
  Np  Np2  1  0.007900  0.919450  0.016140  1.0  1.6222
  Np  Np3  1  0.507900  0.580550  0.983860  1.0  1.6246
  Np  Np4  1  0.992100  0.419450  0.483860  1.0  1.6219
  H  H5  1  0.864800  0.198200  0.148000  1.0  0.0534
  H  H6  1  0.441200  0.958400  0.139700  1.0  0.0663
  H  H7  1  0.933300  0.263100  0.265700  1.0  0.0995
  H  H8  1  0.521100  0.009800  0.259600  1.0  0.1136
  H  H9  1  0.635200  0.801800  0.648000  1.0  0.052
  H  H10  1  0.058800  0.041600  0.639700  1.0  0.0661
  H  H11  1  0.566700  0.736900  0.765700  1.0  0.0992
  H  H12  1  0.978900  0.990200  0.759600  1.0  0.1129
  H  H13  1  0.135200  0.698200  0.352000  1.0  0.0527
  H  H14  1  0.558800  0.458400  0.360300  1.0  0.0669
  H  H15  1  0.066700  0.763100  0.234300  1.0  0.0992
  H  H16  1  0.478900  0.509800  0.240400  1.0  0.1128
  H  H17  1  0.364800  0.301800  0.852000  1.0  0.0535
  H  H18  1  0.941200  0.541600  0.860300  1.0  0.0665
  H  H19  1  0.433300  0.236900  0.734300  1.0  0.0995
  H  H20  1  0.021100  0.490200  0.740400  1.0  0.1131
  C  C21  1  0.997000  0.159000  0.170500  1.0  0.1762
  C  C22  1  0.336000  0.017400  0.166300  1.0  0.1675
  C  C23  1  0.040000  0.200300  0.241300  1.0  -0.1277
  C  C24  1  0.388800  0.051500  0.238000  1.0  -0.1342
  C  C25  1  0.240400  0.149000  0.276600  1.0  -0.0753
  C  C26  1  0.283100  0.186400  0.354200  1.0  0.7129
  C  C27  1  0.503000  0.841000  0.670500  1.0  0.1755
  C  C28  1  0.164000  0.982600  0.666300  1.0  0.1682
  C  C29  1  0.460000  0.799700  0.741300  1.0  -0.1281
  C  C30  1  0.111200  0.948500  0.738000  1.0  -0.1334
  C  C31  1  0.259600  0.851000  0.776600  1.0  -0.0747
  C  C32  1  0.216900  0.813600  0.854200  1.0  0.7126
  C  C33  1  0.003000  0.659000  0.329500  1.0  0.1757
  C  C34  1  0.664000  0.517400  0.333700  1.0  0.1676
  C  C35  1  0.960000  0.700300  0.258700  1.0  -0.1264
  C  C36  1  0.611200  0.551500  0.262000  1.0  -0.1329
  C  C37  1  0.759600  0.649000  0.223400  1.0  -0.0747
  C  C38  1  0.716900  0.686400  0.145800  1.0  0.7173
  C  C39  1  0.497000  0.341000  0.829500  1.0  0.1757
  C  C40  1  0.836000  0.482600  0.833700  1.0  0.1685
  C  C41  1  0.540000  0.299700  0.758700  1.0  -0.127
  C  C42  1  0.888800  0.448500  0.762000  1.0  -0.1343
  C  C43  1  0.740400  0.351000  0.723400  1.0  -0.0756
  C  C44  1  0.783100  0.313600  0.645800  1.0  0.7176
  N  N45  1  0.136500  0.066300  0.133100  1.0  -0.5207
  N  N46  1  0.363500  0.933700  0.633100  1.0  -0.5185
  N  N47  1  0.863500  0.566300  0.366900  1.0  -0.5079
  N  N48  1  0.636500  0.433700  0.866900  1.0  -0.5035
  O  O49  1  0.423100  0.103300  0.386800  1.0  -0.6414
  O  O50  1  0.178300  0.303900  0.379300  1.0  -0.666
  O  O51  1  0.253800  0.220900  0.529600  1.0  -0.856
  O  O52  1  0.076900  0.896700  0.886800  1.0  -0.639
  O  O53  1  0.321700  0.696100  0.879300  1.0  -0.6653
  O  O54  1  0.246200  0.779100  0.029600  1.0  -0.8556
  O  O55  1  0.576900  0.603300  0.113200  1.0  -0.6431
  O  O56  1  0.821700  0.803900  0.120700  1.0  -0.67
  O  O57  1  0.746200  0.720900  0.970400  1.0  -0.8556
  O  O58  1  0.923100  0.396700  0.613200  1.0  -0.6431
  O  O59  1  0.678300  0.196100  0.620700  1.0  -0.6689
  O  O60  1  0.753800  0.279100  0.470400  1.0  -0.8558
