# generated using pymatgen
data_BaVH2C4O7
_symmetry_space_group_name_H-M   'P 1'
_cell_length_a   7.79690000
_cell_length_b   8.50170000
_cell_length_c   9.01790000
_cell_angle_alpha   78.66900000
_cell_angle_beta   68.37200000
_cell_angle_gamma   83.63400000
_symmetry_Int_Tables_number   1
_chemical_formula_structural   BaVH2C4O7
_chemical_formula_sum   'Ba2 V2 H4 C8 O14'
_cell_volume   544.36724130
_cell_formula_units_Z   2
loop_
 _symmetry_equiv_pos_site_id
 _symmetry_equiv_pos_as_xyz
  1  'x, y, z'
loop_
 _atom_site_type_symbol
 _atom_site_label
 _atom_site_symmetry_multiplicity
 _atom_site_fract_x
 _atom_site_fract_y
 _atom_site_fract_z
 _atom_site_occupancy
 _atom_site_charge
  Ba  Ba1  1  0.403820  0.851070  0.271830  1.0  1.6679
  Ba  Ba2  1  0.596180  0.148930  0.728170  1.0  1.6673
  V  V3  1  0.966960  0.318520  0.882450  1.0  1.9008
  V  V4  1  0.033040  0.681480  0.117550  1.0  1.9021
  H  H5  1  0.799900  0.683000  0.717300  1.0  0.057
  H  H6  1  0.981100  0.861000  0.724800  1.0  0.0445
  H  H7  1  0.200100  0.317000  0.282700  1.0  0.0576
  H  H8  1  0.018900  0.139000  0.275200  1.0  0.0439
  C  C9  1  0.056100  0.588200  0.634200  1.0  0.7013
  C  C10  1  0.885600  0.641800  0.766700  1.0  0.0366
  C  C11  1  0.948900  0.770900  0.833100  1.0  0.0378
  C  C12  1  0.782200  0.819900  0.969700  1.0  0.6948
  C  C13  1  0.943900  0.411800  0.365800  1.0  0.7041
  C  C14  1  0.114400  0.358200  0.233300  1.0  0.0366
  C  C15  1  0.051100  0.229100  0.166900  1.0  0.0373
  C  C16  1  0.217800  0.180100  0.030300  1.0  0.6956
  O  O17  1  0.127800  0.677000  0.505900  1.0  -0.684
  O  O18  1  0.640700  0.880700  0.945400  1.0  -0.7235
  O  O19  1  0.116200  0.443300  0.670900  1.0  -0.6774
  O  O20  1  0.792300  0.783700  0.111200  1.0  -0.7305
  O  O21  1  0.811900  0.512000  0.890800  1.0  -0.7058
  O  O22  1  0.092300  0.711500  0.888500  1.0  -0.7048
  O  O23  1  0.134700  0.815600  0.156500  1.0  -0.9312
  O  O24  1  0.872200  0.323000  0.494100  1.0  -0.6749
  O  O25  1  0.359300  0.119300  0.054600  1.0  -0.7256
  O  O26  1  0.883800  0.556700  0.329100  1.0  -0.6783
  O  O27  1  0.207700  0.216300  0.888800  1.0  -0.7308
  O  O28  1  0.188100  0.488000  0.109200  1.0  -0.7079
  O  O29  1  0.907700  0.288500  0.111500  1.0  -0.6797
  O  O30  1  0.865300  0.184400  0.843500  1.0  -0.9306
