# generated using pymatgen
data_Co2(PO4)3
_symmetry_space_group_name_H-M   'P 1'
_cell_length_a   9.55100000
_cell_length_b   9.97900000
_cell_length_c   10.00000000
_cell_angle_alpha   107.67000000
_cell_angle_beta   97.92000000
_cell_angle_gamma   114.91000000
_symmetry_Int_Tables_number   1
_chemical_formula_structural   Co2(PO4)3
_chemical_formula_sum   'Co4 P6 O24'
_cell_volume   783.76823099
_cell_formula_units_Z   2
loop_
 _symmetry_equiv_pos_site_id
 _symmetry_equiv_pos_as_xyz
  1  'x, y, z'
loop_
 _atom_site_type_symbol
 _atom_site_label
 _atom_site_symmetry_multiplicity
 _atom_site_fract_x
 _atom_site_fract_y
 _atom_site_fract_z
 _atom_site_occupancy
 _atom_site_charge
  Co  Co1  1  0.685600  0.206600  0.156700  1.0  1.0926
  Co  Co2  1  0.863800  0.033000  0.612600  1.0  1.1737
  Co  Co3  1  0.314400  0.793400  0.843300  1.0  1.0932
  Co  Co4  1  0.136200  0.967000  0.387400  1.0  1.1719
  P  P5  1  0.825100  0.599300  0.270000  1.0  1.5917
  P  P6  1  0.844200  0.029200  0.306300  1.0  1.7636
  P  P7  1  0.663100  0.969500  0.838500  1.0  1.6765
  P  P8  1  0.174900  0.400700  0.730000  1.0  1.5888
  P  P9  1  0.155800  0.970800  0.693700  1.0  1.7643
  P  P10  1  0.336900  0.030500  0.161500  1.0  1.6761
  O  O11  1  0.658800  0.109400  0.949200  1.0  -0.7302
  O  O12  1  0.823000  0.159200  0.275700  1.0  -0.7214
  O  O13  1  0.829000  0.441300  0.210800  1.0  -0.6745
  O  O14  1  0.509200  0.810800  0.796600  1.0  -0.6377
  O  O15  1  0.750500  0.964600  0.403800  1.0  -0.6351
  O  O16  1  0.993500  0.736000  0.301800  1.0  -0.7415
  O  O17  1  0.693800  0.999600  0.703200  1.0  -0.6394
  O  O18  1  0.026200  0.093100  0.374200  1.0  -0.6961
  O  O19  1  0.695700  0.604400  0.168000  1.0  -0.45
  O  O20  1  0.781000  0.615600  0.419700  1.0  -0.4812
  O  O21  1  0.780900  0.882200  0.151300  1.0  -0.4647
  O  O22  1  0.813100  0.954600  0.908300  1.0  -0.4288
  O  O23  1  0.341200  0.890600  0.050800  1.0  -0.725
  O  O24  1  0.177000  0.840800  0.724300  1.0  -0.7204
  O  O25  1  0.171000  0.558700  0.789200  1.0  -0.6739
  O  O26  1  0.490800  0.189200  0.203400  1.0  -0.6359
  O  O27  1  0.249500  0.035400  0.596200  1.0  -0.6355
  O  O28  1  0.006500  0.264000  0.698200  1.0  -0.7434
  O  O29  1  0.306200  0.000400  0.296800  1.0  -0.6403
  O  O30  1  0.973800  0.906900  0.625800  1.0  -0.6955
  O  O31  1  0.304300  0.395600  0.832000  1.0  -0.4511
  O  O32  1  0.219000  0.384400  0.580300  1.0  -0.4803
  O  O33  1  0.219100  0.117800  0.848700  1.0  -0.4668
  O  O34  1  0.186900  0.045400  0.091700  1.0  -0.4237
