# generated using pymatgen
data_Zn4P3HO13
_symmetry_space_group_name_H-M   'P 1'
_cell_length_a   5.23520000
_cell_length_b   15.43700000
_cell_length_c   17.97500000
_cell_angle_alpha   90.00000000
_cell_angle_beta   91.78600000
_cell_angle_gamma   90.00000000
_symmetry_Int_Tables_number   1
_chemical_formula_structural   Zn4P3HO13
_chemical_formula_sum   'Zn16 P12 H4 O52'
_cell_volume   1451.95799279
_cell_formula_units_Z   4
loop_
 _symmetry_equiv_pos_site_id
 _symmetry_equiv_pos_as_xyz
  1  'x, y, z'
loop_
 _atom_site_type_symbol
 _atom_site_label
 _atom_site_symmetry_multiplicity
 _atom_site_fract_x
 _atom_site_fract_y
 _atom_site_fract_z
 _atom_site_occupancy
 _atom_site_charge
  Zn  Zn1  1  0.061500  0.765000  0.698780  1.0  0.9528
  Zn  Zn2  1  0.567300  0.891550  0.743380  1.0  1.1232
  Zn  Zn3  1  0.424800  0.595120  0.696300  1.0  1.1652
  Zn  Zn4  1  0.890500  0.725220  0.931840  1.0  1.1255
  Zn  Zn5  1  0.438500  0.265000  0.801220  1.0  0.9553
  Zn  Zn6  1  0.932700  0.391550  0.756620  1.0  1.1251
  Zn  Zn7  1  0.075200  0.095120  0.803700  1.0  1.1683
  Zn  Zn8  1  0.609500  0.225220  0.568160  1.0  1.1244
  Zn  Zn9  1  0.938500  0.235000  0.301220  1.0  0.9548
  Zn  Zn10  1  0.432700  0.108450  0.256620  1.0  1.1247
  Zn  Zn11  1  0.575200  0.404880  0.303700  1.0  1.168
  Zn  Zn12  1  0.109500  0.274780  0.068160  1.0  1.1245
  Zn  Zn13  1  0.561500  0.735000  0.198780  1.0  0.9524
  Zn  Zn14  1  0.067300  0.608450  0.243380  1.0  1.1227
  Zn  Zn15  1  0.924800  0.904880  0.196300  1.0  1.1655
  Zn  Zn16  1  0.390500  0.774780  0.431840  1.0  1.1254
  P  P17  1  0.539300  0.762500  0.605600  1.0  1.874
  P  P18  1  0.073300  0.885700  0.838500  1.0  1.8468
  P  P19  1  0.939300  0.599800  0.794000  1.0  1.8868
  P  P20  1  0.960700  0.262500  0.894400  1.0  1.8739
  P  P21  1  0.426700  0.385700  0.661500  1.0  1.8467
  P  P22  1  0.560700  0.099800  0.706000  1.0  1.8864
  P  P23  1  0.460700  0.237500  0.394400  1.0  1.874
  P  P24  1  0.926700  0.114300  0.161500  1.0  1.8461
  P  P25  1  0.060700  0.400200  0.206000  1.0  1.8864
  P  P26  1  0.039300  0.737500  0.105600  1.0  1.8741
  P  P27  1  0.573300  0.614300  0.338500  1.0  1.8466
  P  P28  1  0.439300  0.900200  0.294000  1.0  1.8867
  H  H29  1  0.453200  0.676900  0.913800  1.0  0.503
  H  H30  1  0.046800  0.176900  0.586200  1.0  0.5025
  H  H31  1  0.546800  0.323100  0.086200  1.0  0.5024
  H  H32  1  0.953200  0.823100  0.413800  1.0  0.5027
  O  O33  1  0.824800  0.778100  0.616700  1.0  -0.7586
  O  O34  1  0.102500  0.643900  0.732700  1.0  -0.8915
  O  O35  1  0.401200  0.808700  0.671100  1.0  -0.9037
  O  O36  1  0.917100  0.851500  0.768000  1.0  -0.9329
  O  O37  1  0.003800  0.503900  0.791000  1.0  -0.8674
  O  O38  1  0.352200  0.862800  0.827000  1.0  -0.7441
  O  O39  1  0.028000  0.982700  0.845100  1.0  -0.8443
  O  O40  1  0.659100  0.619300  0.778400  1.0  -0.8102
  O  O41  1  0.467800  0.668600  0.607800  1.0  -0.73
  O  O42  1  0.984100  0.841700  0.908200  1.0  -0.7346
  O  O43  1  0.024000  0.635800  0.869900  1.0  -0.7873
  O  O44  1  0.451100  0.805800  0.533800  1.0  -0.7554
  O  O45  1  0.511800  0.725400  0.906700  1.0  -0.7188
  O  O46  1  0.675200  0.278100  0.883300  1.0  -0.7584
  O  O47  1  0.397500  0.143900  0.767300  1.0  -0.8922
  O  O48  1  0.098800  0.308700  0.828900  1.0  -0.9034
  O  O49  1  0.582900  0.351500  0.732000  1.0  -0.9326
  O  O50  1  0.496200  0.003900  0.709000  1.0  -0.8683
  O  O51  1  0.147800  0.362800  0.673000  1.0  -0.7437
  O  O52  1  0.472000  0.482700  0.654900  1.0  -0.8437
  O  O53  1  0.840900  0.119300  0.721600  1.0  -0.8102
  O  O54  1  0.032200  0.168600  0.892200  1.0  -0.73
  O  O55  1  0.515900  0.341700  0.591800  1.0  -0.7355
  O  O56  1  0.476000  0.135800  0.630100  1.0  -0.7879
  O  O57  1  0.048900  0.305800  0.966200  1.0  -0.7544
  O  O58  1  0.988200  0.225400  0.593300  1.0  -0.7197
  O  O59  1  0.175200  0.221900  0.383300  1.0  -0.7583
  O  O60  1  0.897500  0.356100  0.267300  1.0  -0.8927
  O  O61  1  0.598800  0.191300  0.328900  1.0  -0.9032
  O  O62  1  0.082900  0.148500  0.232000  1.0  -0.932
  O  O63  1  0.996200  0.496100  0.209000  1.0  -0.8695
  O  O64  1  0.647800  0.137200  0.173000  1.0  -0.7436
  O  O65  1  0.972000  0.017300  0.154900  1.0  -0.8417
  O  O66  1  0.340900  0.380700  0.221600  1.0  -0.8103
  O  O67  1  0.532200  0.331400  0.392200  1.0  -0.7286
  O  O68  1  0.015900  0.158300  0.091800  1.0  -0.7351
  O  O69  1  0.976000  0.364200  0.130100  1.0  -0.7865
  O  O70  1  0.548900  0.194200  0.466200  1.0  -0.7526
  O  O71  1  0.488200  0.274600  0.093300  1.0  -0.7229
  O  O72  1  0.324800  0.721900  0.116700  1.0  -0.7593
  O  O73  1  0.602500  0.856100  0.232700  1.0  -0.8919
  O  O74  1  0.901200  0.691300  0.171100  1.0  -0.9041
  O  O75  1  0.417100  0.648500  0.268000  1.0  -0.9328
  O  O76  1  0.503800  0.996100  0.291000  1.0  -0.868
  O  O77  1  0.852200  0.637200  0.327000  1.0  -0.7439
  O  O78  1  0.528000  0.517300  0.345100  1.0  -0.8435
  O  O79  1  0.159100  0.880700  0.278400  1.0  -0.8102
  O  O80  1  0.967800  0.831400  0.107800  1.0  -0.7301
  O  O81  1  0.484100  0.658300  0.408200  1.0  -0.735
  O  O82  1  0.524000  0.864200  0.369900  1.0  -0.7867
  O  O83  1  0.951100  0.694200  0.033800  1.0  -0.754
  O  O84  1  0.011800  0.774600  0.406700  1.0  -0.7213
