# generated using pymatgen
data_Co2PH10C6NClO5
_symmetry_space_group_name_H-M   'P 1'
_cell_length_a   8.71420000
_cell_length_b   10.80750000
_cell_length_c   18.07400000
_cell_angle_alpha   90.00000000
_cell_angle_beta   90.00000000
_cell_angle_gamma   90.00000000
_symmetry_Int_Tables_number   1
_chemical_formula_structural   Co2PH10C6NClO5
_chemical_formula_sum   'Co8 P4 H40 C24 N4 Cl4 O20'
_cell_volume   1702.18612202
_cell_formula_units_Z   4
loop_
 _symmetry_equiv_pos_site_id
 _symmetry_equiv_pos_as_xyz
  1  'x, y, z'
loop_
 _atom_site_type_symbol
 _atom_site_label
 _atom_site_symmetry_multiplicity
 _atom_site_fract_x
 _atom_site_fract_y
 _atom_site_fract_z
 _atom_site_occupancy
 _atom_site_charge
  Co  Co1  1  0.840200  0.673450  0.879760  1.0  0.8738
  Co  Co2  1  0.838800  0.950760  0.955880  1.0  0.8237
  Co  Co3  1  0.659800  0.326550  0.379760  1.0  0.8748
  Co  Co4  1  0.661200  0.049240  0.455880  1.0  0.8273
  Co  Co5  1  0.159800  0.173450  0.620240  1.0  0.8758
  Co  Co6  1  0.161200  0.450760  0.544120  1.0  0.8248
  Co  Co7  1  0.340200  0.826550  0.120240  1.0  0.8736
  Co  Co8  1  0.338800  0.549240  0.044120  1.0  0.8274
  P  P9  1  0.841700  0.281900  0.533070  1.0  1.5913
  P  P10  1  0.658300  0.718100  0.033070  1.0  1.5912
  P  P11  1  0.158300  0.781900  0.966930  1.0  1.5905
  P  P12  1  0.341700  0.218100  0.466930  1.0  1.5905
  H  H13  1  0.823700  0.286400  0.689300  1.0  0.1328
  H  H14  1  0.561400  0.418100  0.719300  1.0  0.0863
  H  H15  1  0.683900  0.298200  0.839900  1.0  0.0737
  H  H16  1  0.509800  0.310000  0.817700  1.0  0.0706
  H  H17  1  0.518000  0.121600  0.777900  1.0  0.0657
  H  H18  1  0.696100  0.115200  0.792100  1.0  0.0808
  H  H19  1  0.548100  0.170700  0.658900  1.0  0.0749
  H  H20  1  0.709300  0.106100  0.669200  1.0  0.0707
  H  H21  1  0.737400  0.437400  0.605500  1.0  0.1471
  H  H22  1  0.610200  0.341500  0.584900  1.0  0.1504
  H  H23  1  0.676300  0.713600  0.189300  1.0  0.1335
  H  H24  1  0.938600  0.581900  0.219300  1.0  0.0875
  H  H25  1  0.816100  0.701800  0.339900  1.0  0.075
  H  H26  1  0.990200  0.690000  0.317700  1.0  0.0691
  H  H27  1  0.982000  0.878400  0.277900  1.0  0.0651
  H  H28  1  0.803900  0.884800  0.292100  1.0  0.0798
  H  H29  1  0.951900  0.829300  0.158900  1.0  0.0755
  H  H30  1  0.790700  0.893900  0.169200  1.0  0.0724
  H  H31  1  0.762600  0.562600  0.105500  1.0  0.1447
  H  H32  1  0.889800  0.658500  0.084900  1.0  0.1521
  H  H33  1  0.176300  0.786400  0.810700  1.0  0.1333
  H  H34  1  0.438600  0.918100  0.780700  1.0  0.0883
  H  H35  1  0.316100  0.798200  0.660100  1.0  0.0733
  H  H36  1  0.490200  0.810000  0.682300  1.0  0.0713
  H  H37  1  0.482000  0.621600  0.722100  1.0  0.0655
  H  H38  1  0.303900  0.615200  0.707900  1.0  0.0789
  H  H39  1  0.451900  0.670700  0.841100  1.0  0.0753
  H  H40  1  0.290700  0.606100  0.830800  1.0  0.0717
  H  H41  1  0.262600  0.937400  0.894500  1.0  0.1462
  H  H42  1  0.389800  0.841500  0.915100  1.0  0.1492
  H  H43  1  0.323700  0.213600  0.310700  1.0  0.1332
  H  H44  1  0.061400  0.081900  0.280700  1.0  0.0862
  H  H45  1  0.183900  0.201800  0.160100  1.0  0.0731
  H  H46  1  0.009800  0.190000  0.182300  1.0  0.0682
  H  H47  1  0.018000  0.378400  0.222100  1.0  0.0653
  H  H48  1  0.196100  0.384800  0.207900  1.0  0.0806
  H  H49  1  0.048100  0.329300  0.341100  1.0  0.0743
  H  H50  1  0.209300  0.393900  0.330800  1.0  0.069
  H  H51  1  0.237400  0.062600  0.394500  1.0  0.1455
  H  H52  1  0.110200  0.158500  0.415100  1.0  0.1497
  C  C53  1  0.654000  0.377900  0.738200  1.0  0.0248
  C  C54  1  0.612000  0.290800  0.799300  1.0  -0.1806
  C  C55  1  0.615000  0.162800  0.768700  1.0  -0.1903
  C  C56  1  0.643700  0.172700  0.686300  1.0  0.0068
  C  C57  1  0.765400  0.475400  0.764900  1.0  0.6837
  C  C58  1  0.715000  0.349600  0.602400  1.0  -0.5291
  C  C59  1  0.846000  0.622100  0.238200  1.0  0.0231
  C  C60  1  0.888000  0.709200  0.299300  1.0  -0.1799
  C  C61  1  0.885000  0.837200  0.268700  1.0  -0.1927
  C  C62  1  0.856300  0.827300  0.186300  1.0  0.0083
  C  C63  1  0.734600  0.524600  0.264900  1.0  0.6814
  C  C64  1  0.785000  0.650400  0.102400  1.0  -0.5293
  C  C65  1  0.346000  0.877900  0.761800  1.0  0.0238
  C  C66  1  0.388000  0.790800  0.700700  1.0  -0.1824
  C  C67  1  0.385000  0.662800  0.731300  1.0  -0.1905
  C  C68  1  0.356300  0.672700  0.813700  1.0  0.0073
  C  C69  1  0.234600  0.975400  0.735100  1.0  0.6836
  C  C70  1  0.285000  0.849600  0.897600  1.0  -0.5303
  C  C71  1  0.154000  0.122100  0.261800  1.0  0.0234
  C  C72  1  0.112000  0.209200  0.200700  1.0  -0.1822
  C  C73  1  0.115000  0.337200  0.231300  1.0  -0.1907
  C  C74  1  0.143700  0.327300  0.313700  1.0  0.0082
  C  C75  1  0.265400  0.024600  0.235100  1.0  0.6837
  C  C76  1  0.215000  0.150400  0.397600  1.0  -0.5293
  N  N77  1  0.722800  0.297500  0.678200  1.0  0.1009
  N  N78  1  0.777200  0.702500  0.178200  1.0  0.0997
  N  N79  1  0.277200  0.797500  0.821800  1.0  0.098
  N  N80  1  0.222800  0.202500  0.321800  1.0  0.1013
  Cl  Cl81  1  0.710800  0.864600  0.846100  1.0  -0.5192
  Cl  Cl82  1  0.789200  0.135400  0.346100  1.0  -0.5204
  Cl  Cl83  1  0.289200  0.364600  0.653900  1.0  -0.5189
  Cl  Cl84  1  0.210800  0.635400  0.153900  1.0  -0.5197
  O  O85  1  0.713200  0.547000  0.813900  1.0  -0.6169
  O  O86  1  0.901300  0.475800  0.740200  1.0  -0.5656
  O  O87  1  0.007600  0.296500  0.559500  1.0  -0.8634
  O  O88  1  0.799100  0.145900  0.526000  1.0  -0.7876
  O  O89  1  0.807000  0.359000  0.464500  1.0  -0.7983
  O  O90  1  0.786800  0.453000  0.313900  1.0  -0.619
  O  O91  1  0.598700  0.524200  0.240200  1.0  -0.5684
  O  O92  1  0.492400  0.703500  0.059500  1.0  -0.8625
  O  O93  1  0.700900  0.854100  0.026000  1.0  -0.7903
  O  O94  1  0.693000  0.641000  0.964500  1.0  -0.7985
  O  O95  1  0.286800  0.047000  0.686100  1.0  -0.6194
  O  O96  1  0.098700  0.975800  0.759800  1.0  -0.5689
  O  O97  1  0.992400  0.796500  0.940500  1.0  -0.8623
  O  O98  1  0.200900  0.645900  0.974000  1.0  -0.7864
  O  O99  1  0.193000  0.859000  0.035500  1.0  -0.7985
  O  O100  1  0.213200  0.953000  0.186100  1.0  -0.6186
  O  O101  1  0.401300  0.024200  0.259800  1.0  -0.5675
  O  O102  1  0.507600  0.203500  0.440500  1.0  -0.8629
  O  O103  1  0.299100  0.354100  0.474000  1.0  -0.7885
  O  O104  1  0.307000  0.141000  0.535500  1.0  -0.7995
