# generated using pymatgen
data_Co2MoH2C8(N4O)2
_symmetry_space_group_name_H-M   'P 1'
_cell_length_a   10.62610000
_cell_length_b   10.62610000
_cell_length_c   10.62610000
_cell_angle_alpha   103.64500000
_cell_angle_beta   112.46100000
_cell_angle_gamma   112.46100000
_symmetry_Int_Tables_number   1
_chemical_formula_structural   Co2MoH2C8(N4O)2
_chemical_formula_sum   'Co4 Mo2 H4 C16 N16 O4'
_cell_volume   916.55903516
_cell_formula_units_Z   2
loop_
 _symmetry_equiv_pos_site_id
 _symmetry_equiv_pos_as_xyz
  1  'x, y, z'
loop_
 _atom_site_type_symbol
 _atom_site_label
 _atom_site_symmetry_multiplicity
 _atom_site_fract_x
 _atom_site_fract_y
 _atom_site_fract_z
 _atom_site_occupancy
 _atom_site_charge
  Co  Co1  1  0.494220  0.694640  0.799580  1.0  1.0813
  Co  Co2  1  0.505780  0.305360  0.200420  1.0  1.0808
  Co  Co3  1  0.104940  0.799580  0.305360  1.0  1.0812
  Co  Co4  1  0.895060  0.200420  0.694640  1.0  1.0819
  Mo  Mo5  1  0.000000  0.749960  0.749960  1.0  0.066
  Mo  Mo6  1  0.000000  0.250040  0.250040  1.0  0.0668
  H  H7  1  0.340100  0.753100  0.587000  1.0  0.3813
  H  H8  1  0.659900  0.246900  0.413000  1.0  0.3818
  H  H9  1  0.833900  0.587000  0.246900  1.0  0.3742
  H  H10  1  0.166100  0.413000  0.753100  1.0  0.3743
  C  C11  1  0.196540  0.710490  0.804790  1.0  0.179
  C  C12  1  0.787410  0.027390  0.079360  1.0  0.1799
  C  C13  1  0.803460  0.608250  0.513950  1.0  0.1711
  C  C14  1  0.212590  0.291950  0.239980  1.0  0.1672
  C  C15  1  0.094300  0.804790  0.608250  1.0  0.177
  C  C16  1  0.051970  0.079360  0.291950  1.0  0.1787
  C  C17  1  0.905700  0.513950  0.710490  1.0  0.1739
  C  C18  1  0.948030  0.239980  0.027390  1.0  0.1757
  C  C19  1  0.803460  0.289510  0.195210  1.0  0.1773
  C  C20  1  0.212590  0.972610  0.920640  1.0  0.1768
  C  C21  1  0.196540  0.391750  0.486050  1.0  0.1702
  C  C22  1  0.787410  0.708050  0.760020  1.0  0.1672
  C  C23  1  0.905700  0.195210  0.391750  1.0  0.176
  C  C24  1  0.948030  0.920640  0.708050  1.0  0.1767
  C  C25  1  0.094300  0.486050  0.289510  1.0  0.1723
  C  C26  1  0.051970  0.760020  0.972610  1.0  0.1727
  N  N27  1  0.306380  0.698630  0.831610  1.0  -0.3936
  N  N28  1  0.671700  0.914200  0.985040  1.0  -0.383
  N  N29  1  0.693620  0.525230  0.392250  1.0  -0.3978
  N  N30  1  0.328300  0.313340  0.242500  1.0  -0.3737
  N  N31  1  0.132980  0.831610  0.525230  1.0  -0.3991
  N  N32  1  0.070840  0.985040  0.313340  1.0  -0.3827
  N  N33  1  0.867020  0.392250  0.698630  1.0  -0.3999
  N  N34  1  0.929160  0.242500  0.914200  1.0  -0.3785
  N  N35  1  0.693620  0.301370  0.168390  1.0  -0.3942
  N  N36  1  0.328300  0.085800  0.014960  1.0  -0.383
  N  N37  1  0.306380  0.474770  0.607750  1.0  -0.3981
  N  N38  1  0.671700  0.686660  0.757500  1.0  -0.3737
  N  N39  1  0.867020  0.168390  0.474770  1.0  -0.4006
  N  N40  1  0.929160  0.014960  0.686660  1.0  -0.3818
  N  N41  1  0.132980  0.607750  0.301370  1.0  -0.3995
  N  N42  1  0.070840  0.757500  0.085800  1.0  -0.3778
  O  O43  1  0.439410  0.791210  0.648200  1.0  -0.6341
  O  O44  1  0.560590  0.208790  0.351800  1.0  -0.6391
  O  O45  1  0.856990  0.648200  0.208790  1.0  -0.6365
  O  O46  1  0.143010  0.351800  0.791210  1.0  -0.635
