# generated using pymatgen
data_MnH3(C3O2)3
_symmetry_space_group_name_H-M   'P 1'
_cell_length_a   14.15000000
_cell_length_b   11.86000000
_cell_length_c   16.57400000
_cell_angle_alpha   90.00000000
_cell_angle_beta   90.00000000
_cell_angle_gamma   90.00000000
_symmetry_Int_Tables_number   1
_chemical_formula_structural   MnH3(C3O2)3
_chemical_formula_sum   'Mn8 H24 C72 O48'
_cell_volume   2781.43210600
_cell_formula_units_Z   8
loop_
 _symmetry_equiv_pos_site_id
 _symmetry_equiv_pos_as_xyz
  1  'x, y, z'
loop_
 _atom_site_type_symbol
 _atom_site_label
 _atom_site_symmetry_multiplicity
 _atom_site_fract_x
 _atom_site_fract_y
 _atom_site_fract_z
 _atom_site_occupancy
 _atom_site_charge
  Mn  Mn1  1  0.610090  0.470720  0.563530  1.0  1.1086
  Mn  Mn2  1  0.889910  0.529280  0.063530  1.0  1.1101
  Mn  Mn3  1  0.389910  0.970720  0.936470  1.0  1.1087
  Mn  Mn4  1  0.110090  0.029280  0.436470  1.0  1.1069
  Mn  Mn5  1  0.389910  0.529280  0.436470  1.0  1.1085
  Mn  Mn6  1  0.110090  0.470720  0.936470  1.0  1.1072
  Mn  Mn7  1  0.610090  0.029280  0.063530  1.0  1.1084
  Mn  Mn8  1  0.889910  0.970720  0.563530  1.0  1.1103
  H  H9  1  0.641000  0.261600  0.001500  1.0  0.1414
  H  H10  1  0.733200  0.464300  0.823900  1.0  0.1399
  H  H11  1  0.559600  0.205300  0.771500  1.0  0.1444
  H  H12  1  0.859000  0.738400  0.501500  1.0  0.1413
  H  H13  1  0.766800  0.535700  0.323900  1.0  0.1396
  H  H14  1  0.940400  0.794700  0.271500  1.0  0.1446
  H  H15  1  0.359000  0.761600  0.498500  1.0  0.1405
  H  H16  1  0.266800  0.964300  0.676100  1.0  0.1402
  H  H17  1  0.440400  0.705300  0.728500  1.0  0.1448
  H  H18  1  0.141000  0.238400  0.998500  1.0  0.1411
  H  H19  1  0.233200  0.035700  0.176100  1.0  0.1401
  H  H20  1  0.059600  0.294700  0.228500  1.0  0.1449
  H  H21  1  0.359000  0.738400  0.998500  1.0  0.1404
  H  H22  1  0.266800  0.535700  0.176100  1.0  0.1398
  H  H23  1  0.440400  0.794700  0.228500  1.0  0.1449
  H  H24  1  0.141000  0.261600  0.498500  1.0  0.141
  H  H25  1  0.233200  0.464300  0.676100  1.0  0.1403
  H  H26  1  0.059600  0.205300  0.728500  1.0  0.1447
  H  H27  1  0.641000  0.238400  0.501500  1.0  0.1416
  H  H28  1  0.733200  0.035700  0.323900  1.0  0.14
  H  H29  1  0.559600  0.294700  0.271500  1.0  0.1446
  H  H30  1  0.859000  0.761600  0.001500  1.0  0.1412
  H  H31  1  0.766800  0.964300  0.823900  1.0  0.14
  H  H32  1  0.940400  0.705300  0.771500  1.0  0.1446
  C  C33  1  0.642200  0.281600  0.947300  1.0  0.0029
  C  C34  1  0.763000  0.428400  0.979100  1.0  0.707
  C  C35  1  0.698500  0.401900  0.840500  1.0  0.0409
  C  C36  1  0.648600  0.372300  0.694500  1.0  0.7329
  C  C37  1  0.698100  0.370600  0.921400  1.0  -0.0981
  C  C38  1  0.525100  0.130100  0.918000  1.0  0.659
  C  C39  1  0.592500  0.248500  0.809000  1.0  0.0473
  C  C40  1  0.587900  0.222400  0.891800  1.0  -0.1194
  C  C41  1  0.646700  0.339400  0.784300  1.0  -0.1115
  C  C42  1  0.857800  0.718400  0.447300  1.0  0.0035
  C  C43  1  0.737000  0.571600  0.479100  1.0  0.705
  C  C44  1  0.801500  0.598100  0.340500  1.0  0.0408
  C  C45  1  0.851400  0.627700  0.194500  1.0  0.733
  C  C46  1  0.801900  0.629400  0.421400  1.0  -0.0981
  C  C47  1  0.974900  0.869900  0.418000  1.0  0.6571
  C  C48  1  0.907500  0.751500  0.309000  1.0  0.0468
  C  C49  1  0.912100  0.777600  0.391800  1.0  -0.1197
  C  C50  1  0.853300  0.660600  0.284300  1.0  -0.1121
  C  C51  1  0.357800  0.781600  0.552700  1.0  0.0027
  C  C52  1  0.237000  0.928400  0.520900  1.0  0.7058
  C  C53  1  0.301500  0.901900  0.659500  1.0  0.0405
  C  C54  1  0.351400  0.872300  0.805500  1.0  0.7336
  C  C55  1  0.301900  0.870600  0.578600  1.0  -0.0982
  C  C56  1  0.474900  0.630100  0.582000  1.0  0.6573
  C  C57  1  0.407500  0.748500  0.691000  1.0  0.0479
  C  C58  1  0.412100  0.722400  0.608200  1.0  -0.12
  C  C59  1  0.353300  0.839400  0.715700  1.0  -0.1124
  C  C60  1  0.142200  0.218400  0.052700  1.0  0.0102
  C  C61  1  0.263000  0.071600  0.020900  1.0  0.7071
  C  C62  1  0.198500  0.098100  0.159500  1.0  0.0401
  C  C63  1  0.148600  0.127700  0.305500  1.0  0.7329
  C  C64  1  0.198100  0.129400  0.078600  1.0  -0.0981
  C  C65  1  0.025100  0.369900  0.082000  1.0  0.6586
  C  C66  1  0.092500  0.251500  0.191000  1.0  0.0467
  C  C67  1  0.087900  0.277600  0.108200  1.0  -0.1199
  C  C68  1  0.146700  0.160600  0.215700  1.0  -0.1124
  C  C69  1  0.357800  0.718400  0.052700  1.0  0.0022
  C  C70  1  0.237000  0.571600  0.020900  1.0  0.7055
  C  C71  1  0.301500  0.598100  0.159500  1.0  0.0407
  C  C72  1  0.351400  0.627700  0.305500  1.0  0.7337
  C  C73  1  0.301900  0.629400  0.078600  1.0  -0.0985
  C  C74  1  0.474900  0.869900  0.082000  1.0  0.6566
  C  C75  1  0.407500  0.751500  0.191000  1.0  0.0473
  C  C76  1  0.412100  0.777600  0.108200  1.0  -0.12
  C  C77  1  0.353300  0.660600  0.215700  1.0  -0.1124
  C  C78  1  0.142200  0.281600  0.552700  1.0  0.0106
  C  C79  1  0.263000  0.428400  0.520900  1.0  0.7071
  C  C80  1  0.198500  0.401900  0.659500  1.0  0.0401
  C  C81  1  0.148600  0.372300  0.805500  1.0  0.7338
  C  C82  1  0.198100  0.370600  0.578600  1.0  -0.0981
  C  C83  1  0.025100  0.130100  0.582000  1.0  0.6589
  C  C84  1  0.092500  0.248500  0.691000  1.0  0.0472
  C  C85  1  0.087900  0.222400  0.608200  1.0  -0.1198
  C  C86  1  0.146700  0.339400  0.715700  1.0  -0.1124
  C  C87  1  0.642200  0.218400  0.447300  1.0  0.0032
  C  C88  1  0.763000  0.071600  0.479100  1.0  0.7072
  C  C89  1  0.698500  0.098100  0.340500  1.0  0.0407
  C  C90  1  0.648600  0.127700  0.194500  1.0  0.7321
  C  C91  1  0.698100  0.129400  0.421400  1.0  -0.0979
  C  C92  1  0.525100  0.369900  0.418000  1.0  0.6589
  C  C93  1  0.592500  0.251500  0.309000  1.0  0.0467
  C  C94  1  0.587900  0.277600  0.391800  1.0  -0.1192
  C  C95  1  0.646700  0.160600  0.284300  1.0  -0.112
  C  C96  1  0.857800  0.781600  0.947300  1.0  0.0033
  C  C97  1  0.737000  0.928400  0.979100  1.0  0.7051
  C  C98  1  0.801500  0.901900  0.840500  1.0  0.0407
  C  C99  1  0.851400  0.872300  0.694500  1.0  0.7328
  C  C100  1  0.801900  0.870600  0.921400  1.0  -0.0983
  C  C101  1  0.974900  0.630100  0.918000  1.0  0.6586
  C  C102  1  0.907500  0.748500  0.809000  1.0  0.0475
  C  C103  1  0.912100  0.722400  0.891800  1.0  -0.1198
  C  C104  1  0.853300  0.839400  0.784300  1.0  -0.1116
  O  O105  1  0.796700  0.523600  0.960100  1.0  -0.5469
  O  O106  1  0.787700  0.378400  0.042000  1.0  -0.5487
  O  O107  1  0.603600  0.313700  0.645200  1.0  -0.5445
  O  O108  1  0.491800  0.062300  0.864500  1.0  -0.5524
  O  O109  1  0.504500  0.119300  0.993300  1.0  -0.6518
  O  O110  1  0.693200  0.459700  0.675500  1.0  -0.55
  O  O111  1  0.703300  0.476400  0.460100  1.0  -0.5462
  O  O112  1  0.712300  0.621600  0.542000  1.0  -0.55
  O  O113  1  0.896400  0.686300  0.145200  1.0  -0.544
  O  O114  1  0.008200  0.937700  0.364500  1.0  -0.5518
  O  O115  1  0.995500  0.880700  0.493300  1.0  -0.6502
  O  O116  1  0.806800  0.540300  0.175500  1.0  -0.5499
  O  O117  1  0.203300  0.023600  0.539900  1.0  -0.5465
  O  O118  1  0.212300  0.878400  0.458000  1.0  -0.5499
  O  O119  1  0.396400  0.813700  0.854800  1.0  -0.544
  O  O120  1  0.508200  0.562300  0.635500  1.0  -0.5519
  O  O121  1  0.495500  0.619300  0.506700  1.0  -0.6506
  O  O122  1  0.306800  0.959700  0.824500  1.0  -0.5492
  O  O123  1  0.296700  0.976400  0.039900  1.0  -0.5477
  O  O124  1  0.287700  0.121600  0.958000  1.0  -0.548
  O  O125  1  0.103600  0.186300  0.354800  1.0  -0.5459
  O  O126  1  0.991800  0.437700  0.135500  1.0  -0.554
  O  O127  1  0.004500  0.380700  0.006700  1.0  -0.6531
  O  O128  1  0.193200  0.040300  0.324500  1.0  -0.5503
  O  O129  1  0.203300  0.476400  0.039900  1.0  -0.547
  O  O130  1  0.212300  0.621600  0.958000  1.0  -0.549
  O  O131  1  0.396400  0.686300  0.354800  1.0  -0.5441
  O  O132  1  0.508200  0.937700  0.135500  1.0  -0.5519
  O  O133  1  0.495500  0.880700  0.006700  1.0  -0.652
  O  O134  1  0.306800  0.540300  0.324500  1.0  -0.55
  O  O135  1  0.296700  0.523600  0.539900  1.0  -0.5474
  O  O136  1  0.287700  0.378400  0.458000  1.0  -0.5486
  O  O137  1  0.103600  0.313700  0.854800  1.0  -0.5437
  O  O138  1  0.991800  0.062300  0.635500  1.0  -0.5538
  O  O139  1  0.004500  0.119300  0.506700  1.0  -0.6517
  O  O140  1  0.193200  0.459700  0.824500  1.0  -0.5506
  O  O141  1  0.796700  0.976400  0.460100  1.0  -0.5471
  O  O142  1  0.787700  0.121600  0.542000  1.0  -0.5491
  O  O143  1  0.603600  0.186300  0.145200  1.0  -0.5447
  O  O144  1  0.491800  0.437700  0.364500  1.0  -0.5524
  O  O145  1  0.504500  0.380700  0.493300  1.0  -0.6517
  O  O146  1  0.693200  0.040300  0.175500  1.0  -0.5502
  O  O147  1  0.703300  0.023600  0.960100  1.0  -0.5457
  O  O148  1  0.712300  0.878400  0.042000  1.0  -0.5502
  O  O149  1  0.896400  0.813700  0.645200  1.0  -0.5448
  O  O150  1  0.008200  0.562300  0.864500  1.0  -0.5515
  O  O151  1  0.995500  0.619300  0.993300  1.0  -0.6504
  O  O152  1  0.806800  0.959700  0.675500  1.0  -0.5497
