# generated using pymatgen
data_MnH3(C3O2)3
_symmetry_space_group_name_H-M   'P 1'
_cell_length_a   14.14000000
_cell_length_b   11.31900000
_cell_length_c   16.60000000
_cell_angle_alpha   90.00000000
_cell_angle_beta   90.00000000
_cell_angle_gamma   90.00000000
_symmetry_Int_Tables_number   1
_chemical_formula_structural   MnH3(C3O2)3
_chemical_formula_sum   'Mn8 H24 C72 O48'
_cell_volume   2656.84095600
_cell_formula_units_Z   8
loop_
 _symmetry_equiv_pos_site_id
 _symmetry_equiv_pos_as_xyz
  1  'x, y, z'
loop_
 _atom_site_type_symbol
 _atom_site_label
 _atom_site_symmetry_multiplicity
 _atom_site_fract_x
 _atom_site_fract_y
 _atom_site_fract_z
 _atom_site_occupancy
 _atom_site_charge
  Mn  Mn1  1  0.611800  0.466100  0.556300  1.0  1.1414
  Mn  Mn2  1  0.888200  0.533900  0.056300  1.0  1.1438
  Mn  Mn3  1  0.388200  0.966100  0.943700  1.0  1.1437
  Mn  Mn4  1  0.111800  0.033900  0.443700  1.0  1.1415
  Mn  Mn5  1  0.388200  0.533900  0.443700  1.0  1.1435
  Mn  Mn6  1  0.111800  0.466100  0.943700  1.0  1.1419
  Mn  Mn7  1  0.611800  0.033900  0.056300  1.0  1.1415
  Mn  Mn8  1  0.888200  0.966100  0.556300  1.0  1.1436
  H  H9  1  0.630600  0.278600  0.994600  1.0  0.1642
  H  H10  1  0.747200  0.454700  0.809400  1.0  0.1743
  H  H11  1  0.566600  0.194300  0.765400  1.0  0.1453
  H  H12  1  0.869400  0.721400  0.494600  1.0  0.164
  H  H13  1  0.752800  0.545300  0.309400  1.0  0.1744
  H  H14  1  0.933400  0.805700  0.265400  1.0  0.1453
  H  H15  1  0.369400  0.778600  0.505400  1.0  0.1636
  H  H16  1  0.252800  0.954700  0.690600  1.0  0.1745
  H  H17  1  0.433400  0.694300  0.734600  1.0  0.1451
  H  H18  1  0.130600  0.221400  0.005400  1.0  0.164
  H  H19  1  0.247200  0.045300  0.190600  1.0  0.175
  H  H20  1  0.066600  0.305700  0.234600  1.0  0.1453
  H  H21  1  0.369400  0.721400  0.005400  1.0  0.1638
  H  H22  1  0.252800  0.545300  0.190600  1.0  0.1749
  H  H23  1  0.433400  0.805700  0.234600  1.0  0.1455
  H  H24  1  0.130600  0.278600  0.505400  1.0  0.1641
  H  H25  1  0.247200  0.454700  0.690600  1.0  0.1744
  H  H26  1  0.066600  0.194300  0.734600  1.0  0.1451
  H  H27  1  0.630600  0.221400  0.494600  1.0  0.164
  H  H28  1  0.747200  0.045300  0.309400  1.0  0.1746
  H  H29  1  0.566600  0.305700  0.265400  1.0  0.1454
  H  H30  1  0.869400  0.778600  0.994600  1.0  0.1639
  H  H31  1  0.752800  0.954700  0.809400  1.0  0.1744
  H  H32  1  0.933400  0.694300  0.765400  1.0  0.1453
  C  C33  1  0.638000  0.290000  0.939000  1.0  -0.0473
  C  C34  1  0.762000  0.423000  0.974000  1.0  0.6264
  C  C35  1  0.705000  0.398000  0.829000  1.0  0.0399
  C  C36  1  0.652000  0.368000  0.689000  1.0  0.6562
  C  C37  1  0.699000  0.371000  0.911000  1.0  -0.0801
  C  C38  1  0.519000  0.133000  0.917000  1.0  0.6356
  C  C39  1  0.596000  0.244000  0.803000  1.0  0.0375
  C  C40  1  0.586000  0.221000  0.883000  1.0  -0.0757
  C  C41  1  0.645000  0.335000  0.778000  1.0  -0.0593
  C  C42  1  0.862000  0.710000  0.439000  1.0  -0.0474
  C  C43  1  0.738000  0.577000  0.474000  1.0  0.6277
  C  C44  1  0.795000  0.602000  0.329000  1.0  0.0412
  C  C45  1  0.848000  0.632000  0.189000  1.0  0.6566
  C  C46  1  0.801000  0.629000  0.411000  1.0  -0.0808
  C  C47  1  0.981000  0.867000  0.417000  1.0  0.6349
  C  C48  1  0.904000  0.756000  0.303000  1.0  0.0377
  C  C49  1  0.914000  0.779000  0.383000  1.0  -0.0769
  C  C50  1  0.855000  0.665000  0.278000  1.0  -0.0603
  C  C51  1  0.362000  0.790000  0.561000  1.0  -0.0471
  C  C52  1  0.238000  0.923000  0.526000  1.0  0.6273
  C  C53  1  0.295000  0.898000  0.671000  1.0  0.0391
  C  C54  1  0.348000  0.868000  0.811000  1.0  0.657
  C  C55  1  0.301000  0.871000  0.589000  1.0  -0.0808
  C  C56  1  0.481000  0.633000  0.583000  1.0  0.6344
  C  C57  1  0.404000  0.744000  0.697000  1.0  0.0379
  C  C58  1  0.414000  0.721000  0.617000  1.0  -0.0771
  C  C59  1  0.355000  0.835000  0.722000  1.0  -0.0609
  C  C60  1  0.138000  0.210000  0.061000  1.0  -0.0465
  C  C61  1  0.262000  0.077000  0.026000  1.0  0.6252
  C  C62  1  0.205000  0.102000  0.171000  1.0  0.0419
  C  C63  1  0.152000  0.132000  0.311000  1.0  0.6565
  C  C64  1  0.199000  0.129000  0.089000  1.0  -0.0805
  C  C65  1  0.019000  0.367000  0.083000  1.0  0.6355
  C  C66  1  0.096000  0.256000  0.197000  1.0  0.0366
  C  C67  1  0.086000  0.279000  0.117000  1.0  -0.0762
  C  C68  1  0.145000  0.165000  0.222000  1.0  -0.0601
  C  C69  1  0.362000  0.710000  0.061000  1.0  -0.0472
  C  C70  1  0.238000  0.577000  0.026000  1.0  0.627
  C  C71  1  0.295000  0.602000  0.171000  1.0  0.0417
  C  C72  1  0.348000  0.632000  0.311000  1.0  0.6569
  C  C73  1  0.301000  0.629000  0.089000  1.0  -0.0812
  C  C74  1  0.481000  0.867000  0.083000  1.0  0.6346
  C  C75  1  0.404000  0.756000  0.197000  1.0  0.0375
  C  C76  1  0.414000  0.779000  0.117000  1.0  -0.0772
  C  C77  1  0.355000  0.665000  0.222000  1.0  -0.0605
  C  C78  1  0.138000  0.290000  0.561000  1.0  -0.0465
  C  C79  1  0.262000  0.423000  0.526000  1.0  0.6254
  C  C80  1  0.205000  0.398000  0.671000  1.0  0.0397
  C  C81  1  0.152000  0.368000  0.811000  1.0  0.6567
  C  C82  1  0.199000  0.371000  0.589000  1.0  -0.0803
  C  C83  1  0.019000  0.133000  0.583000  1.0  0.6356
  C  C84  1  0.096000  0.244000  0.697000  1.0  0.037
  C  C85  1  0.086000  0.221000  0.617000  1.0  -0.0761
  C  C86  1  0.145000  0.335000  0.722000  1.0  -0.0606
  C  C87  1  0.638000  0.210000  0.439000  1.0  -0.0469
  C  C88  1  0.762000  0.077000  0.474000  1.0  0.6262
  C  C89  1  0.705000  0.102000  0.329000  1.0  0.0415
  C  C90  1  0.652000  0.132000  0.189000  1.0  0.6558
  C  C91  1  0.699000  0.129000  0.411000  1.0  -0.0802
  C  C92  1  0.519000  0.367000  0.417000  1.0  0.6354
  C  C93  1  0.596000  0.256000  0.303000  1.0  0.0373
  C  C94  1  0.586000  0.279000  0.383000  1.0  -0.0758
  C  C95  1  0.645000  0.165000  0.278000  1.0  -0.0601
  C  C96  1  0.862000  0.790000  0.939000  1.0  -0.0475
  C  C97  1  0.738000  0.923000  0.974000  1.0  0.6279
  C  C98  1  0.795000  0.898000  0.829000  1.0  0.0391
  C  C99  1  0.848000  0.868000  0.689000  1.0  0.6569
  C  C100  1  0.801000  0.871000  0.911000  1.0  -0.0802
  C  C101  1  0.981000  0.633000  0.917000  1.0  0.635
  C  C102  1  0.904000  0.744000  0.803000  1.0  0.0381
  C  C103  1  0.914000  0.721000  0.883000  1.0  -0.0768
  C  C104  1  0.855000  0.835000  0.778000  1.0  -0.0596
  O  O105  1  0.801400  0.524000  0.947600  1.0  -0.5517
  O  O106  1  0.784200  0.381000  0.037000  1.0  -0.4877
  O  O107  1  0.609200  0.296000  0.635200  1.0  -0.5984
  O  O108  1  0.483200  0.052000  0.864400  1.0  -0.5315
  O  O109  1  0.498200  0.122000  0.991300  1.0  -0.6116
  O  O110  1  0.704200  0.448000  0.663200  1.0  -0.579
  O  O111  1  0.698600  0.476000  0.447600  1.0  -0.5526
  O  O112  1  0.715800  0.619000  0.537000  1.0  -0.4856
  O  O113  1  0.890800  0.704000  0.135200  1.0  -0.5984
  O  O114  1  0.016800  0.948000  0.364400  1.0  -0.532
  O  O115  1  0.001800  0.878000  0.491300  1.0  -0.6108
  O  O116  1  0.795800  0.552000  0.163200  1.0  -0.5793
  O  O117  1  0.198600  0.024000  0.552400  1.0  -0.5515
  O  O118  1  0.215800  0.881000  0.463000  1.0  -0.486
  O  O119  1  0.390800  0.796000  0.864800  1.0  -0.5982
  O  O120  1  0.516800  0.552000  0.635600  1.0  -0.532
  O  O121  1  0.501800  0.622000  0.508700  1.0  -0.6108
  O  O122  1  0.295800  0.948000  0.836800  1.0  -0.5791
  O  O123  1  0.301400  0.976000  0.052400  1.0  -0.5524
  O  O124  1  0.284200  0.119000  0.963000  1.0  -0.486
  O  O125  1  0.109200  0.204000  0.364800  1.0  -0.5975
  O  O126  1  0.983200  0.448000  0.135600  1.0  -0.5323
  O  O127  1  0.998200  0.378000  0.008700  1.0  -0.6114
  O  O128  1  0.204200  0.052000  0.336800  1.0  -0.5783
  O  O129  1  0.198600  0.476000  0.052400  1.0  -0.5527
  O  O130  1  0.215800  0.619000  0.963000  1.0  -0.4852
  O  O131  1  0.390800  0.704000  0.364800  1.0  -0.5973
  O  O132  1  0.516800  0.948000  0.135600  1.0  -0.5319
  O  O133  1  0.501800  0.878000  0.008700  1.0  -0.6115
  O  O134  1  0.295800  0.552000  0.336800  1.0  -0.5792
  O  O135  1  0.301400  0.524000  0.552400  1.0  -0.5515
  O  O136  1  0.284200  0.381000  0.463000  1.0  -0.4839
  O  O137  1  0.109200  0.296000  0.864800  1.0  -0.598
  O  O138  1  0.983200  0.052000  0.635600  1.0  -0.5323
  O  O139  1  0.998200  0.122000  0.508700  1.0  -0.6106
  O  O140  1  0.204200  0.448000  0.836800  1.0  -0.5785
  O  O141  1  0.801400  0.976000  0.447600  1.0  -0.5527
  O  O142  1  0.784200  0.119000  0.537000  1.0  -0.4883
  O  O143  1  0.609200  0.204000  0.135200  1.0  -0.5986
  O  O144  1  0.483200  0.448000  0.364400  1.0  -0.532
  O  O145  1  0.498200  0.378000  0.491300  1.0  -0.6111
  O  O146  1  0.704200  0.052000  0.163200  1.0  -0.5785
  O  O147  1  0.698600  0.024000  0.947600  1.0  -0.5515
  O  O148  1  0.715800  0.881000  0.037000  1.0  -0.4876
  O  O149  1  0.890800  0.796000  0.635200  1.0  -0.5984
  O  O150  1  0.016800  0.552000  0.864400  1.0  -0.5317
  O  O151  1  0.001800  0.622000  0.991300  1.0  -0.6115
  O  O152  1  0.795800  0.948000  0.663200  1.0  -0.5797
