# generated using pymatgen
data_MnH3(C3O2)3
_symmetry_space_group_name_H-M   'P 1'
_cell_length_a   14.70790000
_cell_length_b   12.39310000
_cell_length_c   16.64580000
_cell_angle_alpha   90.00000000
_cell_angle_beta   90.00000000
_cell_angle_gamma   90.00000000
_symmetry_Int_Tables_number   1
_chemical_formula_structural   MnH3(C3O2)3
_chemical_formula_sum   'Mn8 H24 C72 O48'
_cell_volume   3034.13775571
_cell_formula_units_Z   8
loop_
 _symmetry_equiv_pos_site_id
 _symmetry_equiv_pos_as_xyz
  1  'x, y, z'
loop_
 _atom_site_type_symbol
 _atom_site_label
 _atom_site_symmetry_multiplicity
 _atom_site_fract_x
 _atom_site_fract_y
 _atom_site_fract_z
 _atom_site_occupancy
 _atom_site_charge
  Mn  Mn1  1  0.604970  0.482450  0.578930  1.0  1.095
  Mn  Mn2  1  0.895030  0.517550  0.078930  1.0  1.0944
  Mn  Mn3  1  0.395030  0.982450  0.921070  1.0  1.0945
  Mn  Mn4  1  0.104970  0.017550  0.421070  1.0  1.095
  Mn  Mn5  1  0.395030  0.517550  0.421070  1.0  1.0937
  Mn  Mn6  1  0.104970  0.482450  0.921070  1.0  1.0956
  Mn  Mn7  1  0.604970  0.017550  0.078930  1.0  1.0954
  Mn  Mn8  1  0.895030  0.982450  0.578930  1.0  1.0946
  H  H9  1  0.557600  0.230500  0.787000  1.0  0.1364
  H  H10  1  0.657200  0.254100  0.013000  1.0  0.1331
  H  H11  1  0.727100  0.475200  0.845400  1.0  0.1385
  H  H12  1  0.942400  0.769500  0.287000  1.0  0.1361
  H  H13  1  0.842800  0.745900  0.513000  1.0  0.1333
  H  H14  1  0.772900  0.524800  0.345400  1.0  0.1384
  H  H15  1  0.442400  0.730500  0.713000  1.0  0.1363
  H  H16  1  0.342800  0.754100  0.487000  1.0  0.1337
  H  H17  1  0.272900  0.975200  0.654600  1.0  0.139
  H  H18  1  0.057600  0.269500  0.213000  1.0  0.1361
  H  H19  1  0.157200  0.245900  0.987000  1.0  0.1334
  H  H20  1  0.227100  0.024800  0.154600  1.0  0.1391
  H  H21  1  0.442400  0.769500  0.213000  1.0  0.1359
  H  H22  1  0.342800  0.745900  0.987000  1.0  0.1337
  H  H23  1  0.272900  0.524800  0.154600  1.0  0.1391
  H  H24  1  0.057600  0.230500  0.713000  1.0  0.1365
  H  H25  1  0.157200  0.254100  0.487000  1.0  0.1335
  H  H26  1  0.227100  0.475200  0.654600  1.0  0.1387
  H  H27  1  0.557600  0.269500  0.287000  1.0  0.1363
  H  H28  1  0.657200  0.245900  0.513000  1.0  0.1332
  H  H29  1  0.727100  0.024800  0.345400  1.0  0.1387
  H  H30  1  0.942400  0.730500  0.787000  1.0  0.1363
  H  H31  1  0.842800  0.754100  0.013000  1.0  0.1336
  H  H32  1  0.772900  0.975200  0.845400  1.0  0.1387
  C  C33  1  0.537600  0.137100  0.929100  1.0  0.722
  C  C34  1  0.593200  0.267500  0.825800  1.0  0.042
  C  C35  1  0.768700  0.425400  0.995100  1.0  0.7172
  C  C36  1  0.652800  0.281200  0.959700  1.0  -0.0106
  C  C37  1  0.703000  0.371500  0.937600  1.0  -0.1092
  C  C38  1  0.695400  0.411300  0.859900  1.0  0.0382
  C  C39  1  0.596400  0.230200  0.904700  1.0  -0.1126
  C  C40  1  0.642400  0.359200  0.803400  1.0  -0.1239
  C  C41  1  0.637700  0.398400  0.717500  1.0  0.6838
  C  C42  1  0.962400  0.862900  0.429100  1.0  0.7206
  C  C43  1  0.906800  0.732500  0.325800  1.0  0.0424
  C  C44  1  0.731300  0.574600  0.495100  1.0  0.7163
  C  C45  1  0.847200  0.718800  0.459700  1.0  -0.0097
  C  C46  1  0.797000  0.628500  0.437600  1.0  -0.1099
  C  C47  1  0.804600  0.588700  0.359900  1.0  0.0383
  C  C48  1  0.903600  0.769800  0.404700  1.0  -0.1131
  C  C49  1  0.857600  0.640800  0.303400  1.0  -0.1248
  C  C50  1  0.862300  0.601600  0.217500  1.0  0.6829
  C  C51  1  0.462400  0.637100  0.570900  1.0  0.7194
  C  C52  1  0.406800  0.767500  0.674200  1.0  0.0422
  C  C53  1  0.231300  0.925400  0.504900  1.0  0.7168
  C  C54  1  0.347200  0.781200  0.540300  1.0  -0.0107
  C  C55  1  0.297000  0.871500  0.562400  1.0  -0.1091
  C  C56  1  0.304600  0.911300  0.640100  1.0  0.0379
  C  C57  1  0.403600  0.730200  0.595300  1.0  -0.1135
  C  C58  1  0.357600  0.859200  0.696600  1.0  -0.1255
  C  C59  1  0.362300  0.898400  0.782500  1.0  0.6821
  C  C60  1  0.037600  0.362900  0.070900  1.0  0.722
  C  C61  1  0.093200  0.232500  0.174200  1.0  0.0413
  C  C62  1  0.268700  0.074600  0.004900  1.0  0.7161
  C  C63  1  0.152800  0.218800  0.040300  1.0  -0.0113
  C  C64  1  0.203000  0.128500  0.062400  1.0  -0.109
  C  C65  1  0.195400  0.088700  0.140100  1.0  0.0381
  C  C66  1  0.096400  0.269800  0.095300  1.0  -0.1123
  C  C67  1  0.142400  0.140800  0.196600  1.0  -0.1249
  C  C68  1  0.137700  0.101600  0.282500  1.0  0.6825
  C  C69  1  0.462400  0.862900  0.070900  1.0  0.7201
  C  C70  1  0.406800  0.732500  0.174200  1.0  0.0421
  C  C71  1  0.231300  0.574600  0.004900  1.0  0.716
  C  C72  1  0.347200  0.718800  0.040300  1.0  -0.0106
  C  C73  1  0.297000  0.628500  0.062400  1.0  -0.1098
  C  C74  1  0.304600  0.588700  0.140100  1.0  0.0383
  C  C75  1  0.403600  0.769800  0.095300  1.0  -0.1132
  C  C76  1  0.357600  0.640800  0.196600  1.0  -0.1255
  C  C77  1  0.362300  0.601600  0.282500  1.0  0.6823
  C  C78  1  0.037600  0.137100  0.570900  1.0  0.7216
  C  C79  1  0.093200  0.267500  0.674200  1.0  0.0416
  C  C80  1  0.268700  0.425400  0.504900  1.0  0.717
  C  C81  1  0.152800  0.281200  0.540300  1.0  -0.0113
  C  C82  1  0.203000  0.371500  0.562400  1.0  -0.1082
  C  C83  1  0.195400  0.411300  0.640100  1.0  0.0378
  C  C84  1  0.096400  0.230200  0.595300  1.0  -0.1129
  C  C85  1  0.142400  0.359200  0.696600  1.0  -0.1253
  C  C86  1  0.137700  0.398400  0.782500  1.0  0.6825
  C  C87  1  0.537600  0.362900  0.429100  1.0  0.7225
  C  C88  1  0.593200  0.232500  0.325800  1.0  0.0418
  C  C89  1  0.768700  0.074600  0.495100  1.0  0.7166
  C  C90  1  0.652800  0.218800  0.459700  1.0  -0.0101
  C  C91  1  0.703000  0.128500  0.437600  1.0  -0.1091
  C  C92  1  0.695400  0.088700  0.359900  1.0  0.0382
  C  C93  1  0.596400  0.269800  0.404700  1.0  -0.1121
  C  C94  1  0.642400  0.140800  0.303400  1.0  -0.1243
  C  C95  1  0.637700  0.101600  0.217500  1.0  0.6833
  C  C96  1  0.962400  0.637100  0.929100  1.0  0.7199
  C  C97  1  0.906800  0.767500  0.825800  1.0  0.0425
  C  C98  1  0.731300  0.925400  0.995100  1.0  0.7169
  C  C99  1  0.847200  0.781200  0.959700  1.0  -0.0102
  C  C100  1  0.797000  0.871500  0.937600  1.0  -0.1099
  C  C101  1  0.804600  0.911300  0.859900  1.0  0.0381
  C  C102  1  0.903600  0.730200  0.904700  1.0  -0.1133
  C  C103  1  0.857600  0.859200  0.803400  1.0  -0.1241
  C  C104  1  0.862300  0.898400  0.717500  1.0  0.6833
  O  O105  1  0.501410  0.080600  0.873980  1.0  -0.565
  O  O106  1  0.595200  0.346800  0.666667  1.0  -0.508
  O  O107  1  0.524220  0.120100  0.003150  1.0  -0.6415
  O  O108  1  0.674100  0.488700  0.701910  1.0  -0.5383
  O  O109  1  0.790700  0.519100  0.984690  1.0  -0.5143
  O  O110  1  0.801700  0.368700  0.051360  1.0  -0.5811
  O  O111  1  0.998590  0.919400  0.373980  1.0  -0.5637
  O  O112  1  0.904800  0.653200  0.166600  1.0  -0.5069
  O  O113  1  0.975780  0.879900  0.503150  1.0  -0.6408
  O  O114  1  0.825900  0.511300  0.201910  1.0  -0.5383
  O  O115  1  0.709300  0.480900  0.484690  1.0  -0.5127
  O  O116  1  0.698300  0.631300  0.551360  1.0  -0.5803
  O  O117  1  0.498590  0.580600  0.626020  1.0  -0.5633
  O  O118  1  0.404800  0.846800  0.833400  1.0  -0.5075
  O  O119  1  0.475780  0.620100  0.496850  1.0  -0.6414
  O  O120  1  0.325900  0.988700  0.798090  1.0  -0.5383
  O  O121  1  0.209300  0.019100  0.515310  1.0  -0.5129
  O  O122  1  0.198300  0.868700  0.448640  1.0  -0.5844
  O  O123  1  0.001410  0.419400  0.126020  1.0  -0.565
  O  O124  1  0.095200  0.153200  0.333400  1.0  -0.5071
  O  O125  1  0.024220  0.379900  0.996850  1.0  -0.6411
  O  O126  1  0.174100  0.011300  0.298090  1.0  -0.5382
  O  O127  1  0.290700  0.980900  0.015310  1.0  -0.5135
  O  O128  1  0.301700  0.131300  0.948640  1.0  -0.5815
  O  O129  1  0.498590  0.919400  0.126020  1.0  -0.563
  O  O130  1  0.404800  0.653200  0.333400  1.0  -0.5063
  O  O131  1  0.475780  0.879900  0.996850  1.0  -0.642
  O  O132  1  0.325900  0.511300  0.298090  1.0  -0.5388
  O  O133  1  0.209300  0.480900  0.015310  1.0  -0.5126
  O  O134  1  0.198300  0.631300  0.948640  1.0  -0.5807
  O  O135  1  0.001410  0.080600  0.626020  1.0  -0.5653
  O  O136  1  0.095200  0.346800  0.833400  1.0  -0.508
  O  O137  1  0.024220  0.120100  0.496850  1.0  -0.641
  O  O138  1  0.174100  0.488700  0.798090  1.0  -0.5389
  O  O139  1  0.290700  0.519100  0.515310  1.0  -0.5142
  O  O140  1  0.301700  0.368700  0.448640  1.0  -0.5822
  O  O141  1  0.501410  0.419400  0.373980  1.0  -0.5645
  O  O142  1  0.595200  0.153200  0.166600  1.0  -0.5075
  O  O143  1  0.524220  0.379900  0.503150  1.0  -0.6409
  O  O144  1  0.674100  0.011300  0.201910  1.0  -0.5383
  O  O145  1  0.790700  0.980900  0.484690  1.0  -0.5136
  O  O146  1  0.801700  0.131300  0.551360  1.0  -0.5811
  O  O147  1  0.998590  0.580600  0.873980  1.0  -0.5639
  O  O148  1  0.904800  0.846800  0.666667  1.0  -0.5077
  O  O149  1  0.975780  0.620100  0.003150  1.0  -0.641
  O  O150  1  0.825900  0.988700  0.701910  1.0  -0.5373
  O  O151  1  0.709300  0.019100  0.984690  1.0  -0.513
  O  O152  1  0.698300  0.868700  0.051360  1.0  -0.5837
