# generated using pymatgen
data_MnH3(C3O2)3
_symmetry_space_group_name_H-M   'P 1'
_cell_length_a   14.92040000
_cell_length_b   12.47370000
_cell_length_c   16.58840000
_cell_angle_alpha   90.00000000
_cell_angle_beta   90.00000000
_cell_angle_gamma   90.00000000
_symmetry_Int_Tables_number   1
_chemical_formula_structural   MnH3(C3O2)3
_chemical_formula_sum   'Mn8 H24 C72 O48'
_cell_volume   3087.31014568
_cell_formula_units_Z   8
loop_
 _symmetry_equiv_pos_site_id
 _symmetry_equiv_pos_as_xyz
  1  'x, y, z'
loop_
 _atom_site_type_symbol
 _atom_site_label
 _atom_site_symmetry_multiplicity
 _atom_site_fract_x
 _atom_site_fract_y
 _atom_site_fract_z
 _atom_site_occupancy
 _atom_site_charge
  Mn  Mn1  1  0.604000  0.485580  0.581420  1.0  1.109
  Mn  Mn2  1  0.896000  0.514420  0.081420  1.0  1.1093
  Mn  Mn3  1  0.396000  0.985580  0.918580  1.0  1.1088
  Mn  Mn4  1  0.104000  0.014420  0.418580  1.0  1.1087
  Mn  Mn5  1  0.396000  0.514420  0.418580  1.0  1.1083
  Mn  Mn6  1  0.104000  0.485580  0.918580  1.0  1.1093
  Mn  Mn7  1  0.604000  0.014420  0.081420  1.0  1.1085
  Mn  Mn8  1  0.896000  0.985580  0.581420  1.0  1.1098
  H  H9  1  0.724400  0.475000  0.850000  1.0  0.1332
  H  H10  1  0.556400  0.236400  0.791600  1.0  0.1341
  H  H11  1  0.656100  0.254100  0.014900  1.0  0.1296
  H  H12  1  0.775600  0.525000  0.350000  1.0  0.133
  H  H13  1  0.943600  0.763600  0.291600  1.0  0.1342
  H  H14  1  0.843900  0.745900  0.514900  1.0  0.1297
  H  H15  1  0.275600  0.975000  0.650000  1.0  0.1333
  H  H16  1  0.443600  0.736400  0.708400  1.0  0.1341
  H  H17  1  0.343900  0.754100  0.485100  1.0  0.13
  H  H18  1  0.224400  0.025000  0.150000  1.0  0.1331
  H  H19  1  0.056400  0.263600  0.208400  1.0  0.1342
  H  H20  1  0.156100  0.245900  0.985100  1.0  0.1294
  H  H21  1  0.275600  0.525000  0.150000  1.0  0.1333
  H  H22  1  0.443600  0.763600  0.208400  1.0  0.1341
  H  H23  1  0.343900  0.745900  0.985100  1.0  0.1296
  H  H24  1  0.224400  0.475000  0.650000  1.0  0.1332
  H  H25  1  0.056400  0.236400  0.708400  1.0  0.1344
  H  H26  1  0.156100  0.254100  0.485100  1.0  0.1297
  H  H27  1  0.724400  0.025000  0.350000  1.0  0.1329
  H  H28  1  0.556400  0.263600  0.291600  1.0  0.1342
  H  H29  1  0.656100  0.245900  0.514900  1.0  0.1295
  H  H30  1  0.775600  0.975000  0.850000  1.0  0.1332
  H  H31  1  0.943600  0.736400  0.791600  1.0  0.1341
  H  H32  1  0.843900  0.754100  0.014900  1.0  0.13
  C  C33  1  0.635300  0.402800  0.721600  1.0  0.6842
  C  C34  1  0.640400  0.361400  0.807300  1.0  -0.1329
  C  C35  1  0.694100  0.412500  0.863900  1.0  0.0528
  C  C36  1  0.592200  0.271000  0.829400  1.0  0.0522
  C  C37  1  0.703000  0.370400  0.941400  1.0  -0.1251
  C  C38  1  0.596800  0.231800  0.907500  1.0  -0.1289
  C  C39  1  0.768700  0.422300  0.999000  1.0  0.7139
  C  C40  1  0.652400  0.281000  0.962700  1.0  0.0251
  C  C41  1  0.538700  0.138900  0.932100  1.0  0.7184
  C  C42  1  0.864700  0.597200  0.221600  1.0  0.6842
  C  C43  1  0.859600  0.638600  0.307300  1.0  -0.1343
  C  C44  1  0.805900  0.587500  0.363900  1.0  0.0525
  C  C45  1  0.907800  0.729000  0.329400  1.0  0.0524
  C  C46  1  0.797000  0.629600  0.441400  1.0  -0.1253
  C  C47  1  0.903200  0.768200  0.407500  1.0  -0.1289
  C  C48  1  0.731300  0.577700  0.499000  1.0  0.7128
  C  C49  1  0.847600  0.719000  0.462700  1.0  0.0252
  C  C50  1  0.961300  0.861100  0.432100  1.0  0.7171
  C  C51  1  0.364700  0.902800  0.778400  1.0  0.6841
  C  C52  1  0.359600  0.861400  0.692700  1.0  -0.1349
  C  C53  1  0.305900  0.912500  0.636100  1.0  0.0525
  C  C54  1  0.407800  0.771000  0.670600  1.0  0.0525
  C  C55  1  0.297000  0.870400  0.558600  1.0  -0.1238
  C  C56  1  0.403200  0.731800  0.592500  1.0  -0.129
  C  C57  1  0.231300  0.922300  0.501000  1.0  0.7137
  C  C58  1  0.347600  0.781000  0.537300  1.0  0.0249
  C  C59  1  0.461300  0.638900  0.567900  1.0  0.7162
  C  C60  1  0.135300  0.097200  0.278400  1.0  0.6844
  C  C61  1  0.140400  0.138600  0.192700  1.0  -0.1345
  C  C62  1  0.194100  0.087500  0.136100  1.0  0.0527
  C  C63  1  0.092200  0.229000  0.170600  1.0  0.0516
  C  C64  1  0.203000  0.129600  0.058600  1.0  -0.1238
  C  C65  1  0.096800  0.268200  0.092500  1.0  -0.1289
  C  C66  1  0.268700  0.077700  0.001000  1.0  0.7137
  C  C67  1  0.152400  0.219000  0.037300  1.0  0.0244
  C  C68  1  0.038700  0.361100  0.067900  1.0  0.7178
  C  C69  1  0.364700  0.597200  0.278400  1.0  0.6843
  C  C70  1  0.359600  0.638600  0.192700  1.0  -0.1348
  C  C71  1  0.305900  0.587500  0.136100  1.0  0.0524
  C  C72  1  0.407800  0.729000  0.170600  1.0  0.0524
  C  C73  1  0.297000  0.629600  0.058600  1.0  -0.1245
  C  C74  1  0.403200  0.768200  0.092500  1.0  -0.1288
  C  C75  1  0.231300  0.577700  0.001000  1.0  0.7133
  C  C76  1  0.347600  0.719000  0.037300  1.0  0.0247
  C  C77  1  0.461300  0.861100  0.067900  1.0  0.7163
  C  C78  1  0.135300  0.402800  0.778400  1.0  0.6842
  C  C79  1  0.140400  0.361400  0.692700  1.0  -0.1347
  C  C80  1  0.194100  0.412500  0.636100  1.0  0.0524
  C  C81  1  0.092200  0.271000  0.670600  1.0  0.0517
  C  C82  1  0.203000  0.370400  0.558600  1.0  -0.1235
  C  C83  1  0.096800  0.231800  0.592500  1.0  -0.1292
  C  C84  1  0.268700  0.422300  0.501000  1.0  0.7142
  C  C85  1  0.152400  0.281000  0.537300  1.0  0.0248
  C  C86  1  0.038700  0.138900  0.567900  1.0  0.7176
  C  C87  1  0.635300  0.097200  0.221600  1.0  0.6842
  C  C88  1  0.640400  0.138600  0.307300  1.0  -0.134
  C  C89  1  0.694100  0.087500  0.363900  1.0  0.0529
  C  C90  1  0.592200  0.229000  0.329400  1.0  0.052
  C  C91  1  0.703000  0.129600  0.441400  1.0  -0.1248
  C  C92  1  0.596800  0.268200  0.407500  1.0  -0.1287
  C  C93  1  0.768700  0.077700  0.499000  1.0  0.7134
  C  C94  1  0.652400  0.219000  0.462700  1.0  0.0248
  C  C95  1  0.538700  0.361100  0.432100  1.0  0.7181
  C  C96  1  0.864700  0.902800  0.721600  1.0  0.6843
  C  C97  1  0.859600  0.861400  0.807300  1.0  -0.1332
  C  C98  1  0.805900  0.912500  0.863900  1.0  0.0528
  C  C99  1  0.907800  0.771000  0.829400  1.0  0.0527
  C  C100  1  0.797000  0.870400  0.941400  1.0  -0.1253
  C  C101  1  0.903200  0.731800  0.907500  1.0  -0.129
  C  C102  1  0.731300  0.922300  0.999000  1.0  0.7132
  C  C103  1  0.847600  0.781000  0.962700  1.0  0.0253
  C  C104  1  0.961300  0.638900  0.932100  1.0  0.7166
  O  O105  1  0.592800  0.352500  0.670860  1.0  -0.5239
  O  O106  1  0.670400  0.491500  0.706040  1.0  -0.5469
  O  O107  1  0.527600  0.380500  0.505710  1.0  -0.6342
  O  O108  1  0.498600  0.585400  0.623400  1.0  -0.5617
  O  O109  1  0.708200  0.484900  0.488700  1.0  -0.5342
  O  O110  1  0.698300  0.633600  0.553500  1.0  -0.5613
  O  O111  1  0.907200  0.647500  0.170860  1.0  -0.5238
  O  O112  1  0.829600  0.508500  0.206040  1.0  -0.5462
  O  O113  1  0.972400  0.619500  0.005710  1.0  -0.6332
  O  O114  1  0.001400  0.414600  0.123400  1.0  -0.5634
  O  O115  1  0.791800  0.515100  0.988700  1.0  -0.535
  O  O116  1  0.801700  0.366400  0.053500  1.0  -0.5609
  O  O117  1  0.407200  0.852500  0.829140  1.0  -0.5229
  O  O118  1  0.329600  0.991500  0.793960  1.0  -0.547
  O  O119  1  0.472400  0.880500  0.994290  1.0  -0.6343
  O  O120  1  0.501400  0.085400  0.876600  1.0  -0.564
  O  O121  1  0.291800  0.984900  0.011300  1.0  -0.5344
  O  O122  1  0.301700  0.133600  0.946500  1.0  -0.5617
  O  O123  1  0.092800  0.147500  0.329140  1.0  -0.5223
  O  O124  1  0.170400  0.008500  0.293960  1.0  -0.5467
  O  O125  1  0.027600  0.119500  0.494290  1.0  -0.6344
  O  O126  1  0.998600  0.914600  0.376600  1.0  -0.5632
  O  O127  1  0.208200  0.015100  0.511300  1.0  -0.5347
  O  O128  1  0.198300  0.866400  0.446500  1.0  -0.5616
  O  O129  1  0.407200  0.647500  0.329140  1.0  -0.5227
  O  O130  1  0.329600  0.508500  0.293960  1.0  -0.5461
  O  O131  1  0.472400  0.619500  0.494290  1.0  -0.6339
  O  O132  1  0.501400  0.414600  0.376600  1.0  -0.5642
  O  O133  1  0.291800  0.515100  0.511300  1.0  -0.5348
  O  O134  1  0.301700  0.366400  0.446500  1.0  -0.5621
  O  O135  1  0.092800  0.352500  0.829140  1.0  -0.5231
  O  O136  1  0.170400  0.491500  0.793960  1.0  -0.5473
  O  O137  1  0.027600  0.380500  0.994290  1.0  -0.6346
  O  O138  1  0.998600  0.585400  0.876600  1.0  -0.5629
  O  O139  1  0.208200  0.484900  0.011300  1.0  -0.5342
  O  O140  1  0.198300  0.633600  0.946500  1.0  -0.5611
  O  O141  1  0.592800  0.147500  0.170860  1.0  -0.5241
  O  O142  1  0.670400  0.008500  0.206040  1.0  -0.5467
  O  O143  1  0.527600  0.119500  0.005710  1.0  -0.6341
  O  O144  1  0.498600  0.914600  0.123400  1.0  -0.5619
  O  O145  1  0.708200  0.015100  0.988700  1.0  -0.5349
  O  O146  1  0.698300  0.866400  0.053500  1.0  -0.5611
  O  O147  1  0.907200  0.852500  0.670860  1.0  -0.5245
  O  O148  1  0.829600  0.991500  0.706040  1.0  -0.5466
  O  O149  1  0.972400  0.880500  0.505710  1.0  -0.6336
  O  O150  1  0.001400  0.085400  0.623400  1.0  -0.5634
  O  O151  1  0.791800  0.984900  0.488700  1.0  -0.5346
  O  O152  1  0.801700  0.133600  0.553500  1.0  -0.5613
