# generated using pymatgen
data_MnH3(C3O2)3
_symmetry_space_group_name_H-M   'P 1'
_cell_length_a   14.97730000
_cell_length_b   12.50170000
_cell_length_c   16.56290000
_cell_angle_alpha   90.00000000
_cell_angle_beta   90.00000000
_cell_angle_gamma   90.00000000
_symmetry_Int_Tables_number   1
_chemical_formula_structural   MnH3(C3O2)3
_chemical_formula_sum   'Mn8 H24 C72 O48'
_cell_volume   3101.26574191
_cell_formula_units_Z   8
loop_
 _symmetry_equiv_pos_site_id
 _symmetry_equiv_pos_as_xyz
  1  'x, y, z'
loop_
 _atom_site_type_symbol
 _atom_site_label
 _atom_site_symmetry_multiplicity
 _atom_site_fract_x
 _atom_site_fract_y
 _atom_site_fract_z
 _atom_site_occupancy
 _atom_site_charge
  Mn  Mn1  1  0.603840  0.486310  0.582390  1.0  1.0969
  Mn  Mn2  1  0.896160  0.513690  0.082390  1.0  1.0969
  Mn  Mn3  1  0.396160  0.986310  0.917610  1.0  1.0975
  Mn  Mn4  1  0.103840  0.013690  0.417610  1.0  1.0965
  Mn  Mn5  1  0.396160  0.513690  0.417610  1.0  1.0968
  Mn  Mn6  1  0.103840  0.486310  0.917610  1.0  1.0968
  Mn  Mn7  1  0.603840  0.013690  0.082390  1.0  1.0964
  Mn  Mn8  1  0.896160  0.986310  0.582390  1.0  1.0972
  H  H9  1  0.556000  0.237800  0.792700  1.0  0.132
  H  H10  1  0.656900  0.253200  0.016400  1.0  0.1261
  H  H11  1  0.724200  0.474500  0.851200  1.0  0.1325
  H  H12  1  0.944000  0.762200  0.292700  1.0  0.1318
  H  H13  1  0.843100  0.746800  0.516400  1.0  0.1263
  H  H14  1  0.775800  0.525500  0.351200  1.0  0.1322
  H  H15  1  0.444000  0.737800  0.707300  1.0  0.1315
  H  H16  1  0.343100  0.753200  0.483600  1.0  0.1265
  H  H17  1  0.275800  0.974500  0.648800  1.0  0.1325
  H  H18  1  0.056000  0.262200  0.207300  1.0  0.1319
  H  H19  1  0.156900  0.246800  0.983600  1.0  0.1261
  H  H20  1  0.224200  0.025500  0.148800  1.0  0.1328
  H  H21  1  0.444000  0.762200  0.207300  1.0  0.1317
  H  H22  1  0.343100  0.746800  0.983600  1.0  0.1261
  H  H23  1  0.275800  0.525500  0.148800  1.0  0.1326
  H  H24  1  0.056000  0.237800  0.707300  1.0  0.132
  H  H25  1  0.156900  0.253200  0.483600  1.0  0.1261
  H  H26  1  0.224200  0.474500  0.648800  1.0  0.1325
  H  H27  1  0.556000  0.262200  0.292700  1.0  0.132
  H  H28  1  0.656900  0.246800  0.516400  1.0  0.126
  H  H29  1  0.724200  0.025500  0.351200  1.0  0.1326
  H  H30  1  0.944000  0.737800  0.792700  1.0  0.1316
  H  H31  1  0.843100  0.753200  0.016400  1.0  0.1263
  H  H32  1  0.775800  0.974500  0.851200  1.0  0.1324
  C  C33  1  0.768300  0.421400  0.000800  1.0  0.7239
  C  C34  1  0.634100  0.404000  0.722800  1.0  0.683
  C  C35  1  0.591800  0.272100  0.830600  1.0  0.0451
  C  C36  1  0.538500  0.138900  0.933200  1.0  0.7217
  C  C37  1  0.702600  0.369700  0.942800  1.0  -0.1303
  C  C38  1  0.652500  0.280600  0.964300  1.0  0.0362
  C  C39  1  0.640000  0.361500  0.808400  1.0  -0.1339
  C  C40  1  0.693900  0.412200  0.865000  1.0  0.0509
  C  C41  1  0.596400  0.232500  0.909400  1.0  -0.1404
  C  C42  1  0.731700  0.578600  0.500800  1.0  0.7223
  C  C43  1  0.865900  0.596000  0.222800  1.0  0.6821
  C  C44  1  0.908200  0.727900  0.330600  1.0  0.0452
  C  C45  1  0.961500  0.861100  0.433200  1.0  0.721
  C  C46  1  0.797400  0.630300  0.442800  1.0  -0.13
  C  C47  1  0.847500  0.719400  0.464300  1.0  0.0363
  C  C48  1  0.860000  0.638500  0.308400  1.0  -0.1353
  C  C49  1  0.806100  0.587800  0.365000  1.0  0.0505
  C  C50  1  0.903600  0.767500  0.409400  1.0  -0.1409
  C  C51  1  0.231700  0.921400  0.499200  1.0  0.7228
  C  C52  1  0.365900  0.904000  0.777200  1.0  0.6823
  C  C53  1  0.408200  0.772100  0.669400  1.0  0.0453
  C  C54  1  0.461500  0.638900  0.566800  1.0  0.7197
  C  C55  1  0.297400  0.869700  0.557200  1.0  -0.1284
  C  C56  1  0.347500  0.780600  0.535700  1.0  0.0379
  C  C57  1  0.360000  0.861500  0.691600  1.0  -0.1354
  C  C58  1  0.306100  0.912200  0.635000  1.0  0.0504
  C  C59  1  0.403600  0.732500  0.590600  1.0  -0.1407
  C  C60  1  0.268300  0.078600  0.999200  1.0  0.723
  C  C61  1  0.134100  0.096000  0.277200  1.0  0.6823
  C  C62  1  0.091800  0.227900  0.169400  1.0  0.0449
  C  C63  1  0.038500  0.361100  0.066800  1.0  0.7218
  C  C64  1  0.202600  0.130300  0.057200  1.0  -0.1291
  C  C65  1  0.152500  0.219400  0.035700  1.0  0.0367
  C  C66  1  0.140000  0.138500  0.191600  1.0  -0.1349
  C  C67  1  0.193900  0.087800  0.135000  1.0  0.0513
  C  C68  1  0.096400  0.267500  0.090600  1.0  -0.1408
  C  C69  1  0.231700  0.578600  0.999200  1.0  0.7223
  C  C70  1  0.365900  0.596000  0.277200  1.0  0.682
  C  C71  1  0.408200  0.727900  0.169400  1.0  0.0451
  C  C72  1  0.461500  0.861100  0.066800  1.0  0.7204
  C  C73  1  0.297400  0.630300  0.057200  1.0  -0.129
  C  C74  1  0.347500  0.719400  0.035700  1.0  0.0374
  C  C75  1  0.360000  0.638500  0.191600  1.0  -0.1352
  C  C76  1  0.306100  0.587800  0.135000  1.0  0.0507
  C  C77  1  0.403600  0.767500  0.090600  1.0  -0.1409
  C  C78  1  0.268300  0.421400  0.499200  1.0  0.7235
  C  C79  1  0.134100  0.404000  0.777200  1.0  0.6827
  C  C80  1  0.091800  0.272100  0.669400  1.0  0.045
  C  C81  1  0.038500  0.138900  0.566800  1.0  0.7213
  C  C82  1  0.202600  0.369700  0.557200  1.0  -0.1287
  C  C83  1  0.152500  0.280600  0.535700  1.0  0.0371
  C  C84  1  0.140000  0.361500  0.691600  1.0  -0.1352
  C  C85  1  0.193900  0.412200  0.635000  1.0  0.0508
  C  C86  1  0.096400  0.232500  0.590600  1.0  -0.1408
  C  C87  1  0.768300  0.078600  0.500800  1.0  0.7235
  C  C88  1  0.634100  0.096000  0.222800  1.0  0.6825
  C  C89  1  0.591800  0.227900  0.330600  1.0  0.0451
  C  C90  1  0.538500  0.361100  0.433200  1.0  0.7221
  C  C91  1  0.702600  0.130300  0.442800  1.0  -0.1302
  C  C92  1  0.652500  0.219400  0.464300  1.0  0.036
  C  C93  1  0.640000  0.138500  0.308400  1.0  -0.135
  C  C94  1  0.693900  0.087800  0.365000  1.0  0.051
  C  C95  1  0.596400  0.267500  0.409400  1.0  -0.1406
  C  C96  1  0.731700  0.921400  0.000800  1.0  0.7226
  C  C97  1  0.865900  0.904000  0.722800  1.0  0.6827
  C  C98  1  0.908200  0.772100  0.830600  1.0  0.0453
  C  C99  1  0.961500  0.638900  0.933200  1.0  0.7202
  C  C100  1  0.797400  0.869700  0.942800  1.0  -0.1299
  C  C101  1  0.847500  0.780600  0.964300  1.0  0.0365
  C  C102  1  0.860000  0.861500  0.808400  1.0  -0.1342
  C  C103  1  0.806100  0.912200  0.865000  1.0  0.0506
  C  C104  1  0.903600  0.732500  0.909400  1.0  -0.1405
  O  O105  1  0.528100  0.119200  0.006790  1.0  -0.6353
  O  O106  1  0.500800  0.086700  0.877300  1.0  -0.5634
  O  O107  1  0.593000  0.353600  0.671700  1.0  -0.5232
  O  O108  1  0.801100  0.365500  0.054700  1.0  -0.5433
  O  O109  1  0.669500  0.492800  0.708000  1.0  -0.5322
  O  O110  1  0.792500  0.513600  0.989600  1.0  -0.5472
  O  O111  1  0.971900  0.880800  0.506790  1.0  -0.6344
  O  O112  1  0.999200  0.913300  0.377300  1.0  -0.5627
  O  O113  1  0.907000  0.646400  0.171700  1.0  -0.5229
  O  O114  1  0.698900  0.634500  0.554700  1.0  -0.5423
  O  O115  1  0.830500  0.507200  0.208000  1.0  -0.5316
  O  O116  1  0.707500  0.486400  0.489600  1.0  -0.5465
  O  O117  1  0.471900  0.619200  0.493210  1.0  -0.6343
  O  O118  1  0.499200  0.586700  0.622700  1.0  -0.5613
  O  O119  1  0.407000  0.853600  0.828300  1.0  -0.5221
  O  O120  1  0.198900  0.865500  0.445300  1.0  -0.543
  O  O121  1  0.330500  0.992800  0.792000  1.0  -0.5319
  O  O122  1  0.207500  0.013600  0.510400  1.0  -0.5469
  O  O123  1  0.028100  0.380800  0.993210  1.0  -0.6349
  O  O124  1  0.000800  0.413300  0.122700  1.0  -0.5636
  O  O125  1  0.093000  0.146400  0.328300  1.0  -0.5214
  O  O126  1  0.301100  0.134500  0.945300  1.0  -0.5426
  O  O127  1  0.169500  0.007200  0.292000  1.0  -0.5318
  O  O128  1  0.292500  0.986400  0.010400  1.0  -0.5472
  O  O129  1  0.471900  0.880800  0.993210  1.0  -0.6342
  O  O130  1  0.499200  0.913300  0.122700  1.0  -0.5619
  O  O131  1  0.407000  0.646400  0.328300  1.0  -0.5214
  O  O132  1  0.198900  0.634500  0.945300  1.0  -0.5418
  O  O133  1  0.330500  0.507200  0.292000  1.0  -0.5318
  O  O134  1  0.207500  0.486400  0.010400  1.0  -0.5467
  O  O135  1  0.028100  0.119200  0.493210  1.0  -0.635
  O  O136  1  0.000800  0.086700  0.622700  1.0  -0.5632
  O  O137  1  0.093000  0.353600  0.828300  1.0  -0.5218
  O  O138  1  0.301100  0.365500  0.445300  1.0  -0.5439
  O  O139  1  0.169500  0.492800  0.792000  1.0  -0.5321
  O  O140  1  0.292500  0.513600  0.510400  1.0  -0.5472
  O  O141  1  0.528100  0.380800  0.506790  1.0  -0.6353
  O  O142  1  0.500800  0.413300  0.377300  1.0  -0.5639
  O  O143  1  0.593000  0.146400  0.171700  1.0  -0.5229
  O  O144  1  0.801100  0.134500  0.554700  1.0  -0.5427
  O  O145  1  0.669500  0.007200  0.208000  1.0  -0.5322
  O  O146  1  0.792500  0.986400  0.489600  1.0  -0.5471
  O  O147  1  0.971900  0.619200  0.006790  1.0  -0.6342
  O  O148  1  0.999200  0.586700  0.877300  1.0  -0.5621
  O  O149  1  0.907000  0.853600  0.671700  1.0  -0.5235
  O  O150  1  0.698900  0.865500  0.054700  1.0  -0.543
  O  O151  1  0.830500  0.992800  0.708000  1.0  -0.5308
  O  O152  1  0.707500  0.013600  0.989600  1.0  -0.5469
