# generated using pymatgen
data_MnH3(C3O2)3
_symmetry_space_group_name_H-M   'P 1'
_cell_length_a   14.19850000
_cell_length_b   12.07450000
_cell_length_c   16.56160000
_cell_angle_alpha   90.00000000
_cell_angle_beta   90.00000000
_cell_angle_gamma   90.00000000
_symmetry_Int_Tables_number   1
_chemical_formula_structural   MnH3(C3O2)3
_chemical_formula_sum   'Mn8 H24 C72 O48'
_cell_volume   2839.31719708
_cell_formula_units_Z   8
loop_
 _symmetry_equiv_pos_site_id
 _symmetry_equiv_pos_as_xyz
  1  'x, y, z'
loop_
 _atom_site_type_symbol
 _atom_site_label
 _atom_site_symmetry_multiplicity
 _atom_site_fract_x
 _atom_site_fract_y
 _atom_site_fract_z
 _atom_site_occupancy
 _atom_site_charge
  Mn  Mn1  1  0.608870  0.473420  0.567740  1.0  1.0714
  Mn  Mn2  1  0.891130  0.526580  0.067740  1.0  1.0742
  Mn  Mn3  1  0.391130  0.973420  0.932260  1.0  1.0734
  Mn  Mn4  1  0.108870  0.026580  0.432260  1.0  1.0698
  Mn  Mn5  1  0.391130  0.526580  0.432260  1.0  1.0729
  Mn  Mn6  1  0.108870  0.473420  0.932260  1.0  1.0703
  Mn  Mn7  1  0.608870  0.026580  0.067740  1.0  1.071
  Mn  Mn8  1  0.891130  0.973420  0.567740  1.0  1.0746
  H  H9  1  0.642700  0.260900  0.005400  1.0  0.1365
  H  H10  1  0.728700  0.468100  0.831000  1.0  0.1345
  H  H11  1  0.559500  0.214000  0.775400  1.0  0.1371
  H  H12  1  0.857300  0.739100  0.505400  1.0  0.1366
  H  H13  1  0.771300  0.531900  0.331000  1.0  0.1346
  H  H14  1  0.940500  0.786000  0.275400  1.0  0.1374
  H  H15  1  0.357300  0.760900  0.494600  1.0  0.137
  H  H16  1  0.271300  0.968100  0.669000  1.0  0.1348
  H  H17  1  0.440500  0.714000  0.724600  1.0  0.1374
  H  H18  1  0.142700  0.239100  0.994600  1.0  0.1368
  H  H19  1  0.228700  0.031900  0.169000  1.0  0.1348
  H  H20  1  0.059500  0.286000  0.224600  1.0  0.1378
  H  H21  1  0.357300  0.739100  0.994600  1.0  0.1369
  H  H22  1  0.271300  0.531900  0.169000  1.0  0.1347
  H  H23  1  0.440500  0.786000  0.224600  1.0  0.1377
  H  H24  1  0.142700  0.260900  0.494600  1.0  0.137
  H  H25  1  0.228700  0.468100  0.669000  1.0  0.1346
  H  H26  1  0.059500  0.214000  0.724600  1.0  0.1374
  H  H27  1  0.642700  0.239100  0.505400  1.0  0.1365
  H  H28  1  0.728700  0.031900  0.331000  1.0  0.1349
  H  H29  1  0.559500  0.286000  0.275400  1.0  0.1374
  H  H30  1  0.857300  0.760900  0.005400  1.0  0.1366
  H  H31  1  0.771300  0.968100  0.831000  1.0  0.1347
  H  H32  1  0.940500  0.714000  0.775400  1.0  0.1372
  C  C33  1  0.644000  0.281600  0.951300  1.0  0.0019
  C  C34  1  0.764400  0.428200  0.984700  1.0  0.7366
  C  C35  1  0.696400  0.404600  0.846500  1.0  0.0537
  C  C36  1  0.645600  0.380400  0.702600  1.0  0.7014
  C  C37  1  0.698500  0.370100  0.927400  1.0  -0.0956
  C  C38  1  0.527700  0.131300  0.920500  1.0  0.7127
  C  C39  1  0.593400  0.254100  0.813500  1.0  0.0527
  C  C40  1  0.590500  0.222700  0.894800  1.0  -0.1218
  C  C41  1  0.646100  0.344200  0.789600  1.0  -0.121
  C  C42  1  0.856000  0.718400  0.451300  1.0  0.0017
  C  C43  1  0.735600  0.571800  0.484700  1.0  0.7367
  C  C44  1  0.803600  0.595400  0.346500  1.0  0.0539
  C  C45  1  0.854400  0.619600  0.202600  1.0  0.7014
  C  C46  1  0.801500  0.629900  0.427400  1.0  -0.0961
  C  C47  1  0.972300  0.868700  0.420500  1.0  0.7115
  C  C48  1  0.906600  0.745900  0.313500  1.0  0.0526
  C  C49  1  0.909500  0.777300  0.394800  1.0  -0.1224
  C  C50  1  0.853900  0.655800  0.289600  1.0  -0.1216
  C  C51  1  0.356000  0.781600  0.548700  1.0  0.0018
  C  C52  1  0.235600  0.928200  0.515300  1.0  0.7361
  C  C53  1  0.303600  0.904600  0.653500  1.0  0.0532
  C  C54  1  0.354400  0.880400  0.797400  1.0  0.7026
  C  C55  1  0.301500  0.870100  0.572600  1.0  -0.0955
  C  C56  1  0.472300  0.631300  0.579500  1.0  0.7113
  C  C57  1  0.406600  0.754100  0.686500  1.0  0.0527
  C  C58  1  0.409500  0.722700  0.605200  1.0  -0.1227
  C  C59  1  0.353900  0.844200  0.710400  1.0  -0.1225
  C  C60  1  0.144000  0.218400  0.048700  1.0  0.0024
  C  C61  1  0.264400  0.071800  0.015300  1.0  0.7361
  C  C62  1  0.196400  0.095400  0.153500  1.0  0.0547
  C  C63  1  0.145600  0.119600  0.297400  1.0  0.7027
  C  C64  1  0.198500  0.129900  0.072600  1.0  -0.0964
  C  C65  1  0.027700  0.368700  0.079500  1.0  0.712
  C  C66  1  0.093400  0.245900  0.186500  1.0  0.0519
  C  C67  1  0.090500  0.277300  0.105200  1.0  -0.1227
  C  C68  1  0.146100  0.155800  0.210400  1.0  -0.1222
  C  C69  1  0.356000  0.718400  0.048700  1.0  0.0019
  C  C70  1  0.235600  0.571800  0.015300  1.0  0.736
  C  C71  1  0.303600  0.595400  0.153500  1.0  0.0543
  C  C72  1  0.354400  0.619600  0.297400  1.0  0.7027
  C  C73  1  0.301500  0.629900  0.072600  1.0  -0.0963
  C  C74  1  0.472300  0.868700  0.079500  1.0  0.7111
  C  C75  1  0.406600  0.745900  0.186500  1.0  0.0524
  C  C76  1  0.409500  0.777300  0.105200  1.0  -0.1231
  C  C77  1  0.353900  0.655800  0.210400  1.0  -0.1224
  C  C78  1  0.144000  0.281600  0.548700  1.0  0.0024
  C  C79  1  0.264400  0.428200  0.515300  1.0  0.7362
  C  C80  1  0.196400  0.404600  0.653500  1.0  0.0536
  C  C81  1  0.145600  0.380400  0.797400  1.0  0.7026
  C  C82  1  0.198500  0.370100  0.572600  1.0  -0.0959
  C  C83  1  0.027700  0.131300  0.579500  1.0  0.7122
  C  C84  1  0.093400  0.254100  0.686500  1.0  0.0522
  C  C85  1  0.090500  0.222700  0.605200  1.0  -0.1226
  C  C86  1  0.146100  0.344200  0.710400  1.0  -0.1224
  C  C87  1  0.644000  0.218400  0.451300  1.0  0.0019
  C  C88  1  0.764400  0.071800  0.484700  1.0  0.7368
  C  C89  1  0.696400  0.095400  0.346500  1.0  0.0545
  C  C90  1  0.645600  0.119600  0.202600  1.0  0.7013
  C  C91  1  0.698500  0.129900  0.427400  1.0  -0.096
  C  C92  1  0.527700  0.368700  0.420500  1.0  0.7125
  C  C93  1  0.593400  0.245900  0.313500  1.0  0.0525
  C  C94  1  0.590500  0.277300  0.394800  1.0  -0.1219
  C  C95  1  0.646100  0.155800  0.289600  1.0  -0.1212
  C  C96  1  0.856000  0.781600  0.951300  1.0  0.0017
  C  C97  1  0.735600  0.928200  0.984700  1.0  0.7366
  C  C98  1  0.803600  0.904600  0.846500  1.0  0.0533
  C  C99  1  0.854400  0.880400  0.702600  1.0  0.7015
  C  C100  1  0.801500  0.870100  0.927400  1.0  -0.0955
  C  C101  1  0.972300  0.631300  0.920500  1.0  0.7117
  C  C102  1  0.906600  0.754100  0.813500  1.0  0.0529
  C  C103  1  0.909500  0.722700  0.894800  1.0  -0.1222
  C  C104  1  0.853900  0.844200  0.789600  1.0  -0.1213
  O  O105  1  0.792800  0.524100  0.967600  1.0  -0.54
  O  O106  1  0.790300  0.377400  0.045700  1.0  -0.5553
  O  O107  1  0.601900  0.322500  0.650600  1.0  -0.5393
  O  O108  1  0.496300  0.066800  0.867400  1.0  -0.5658
  O  O109  1  0.509400  0.119000  0.995400  1.0  -0.6437
  O  O110  1  0.687900  0.468000  0.683800  1.0  -0.5542
  O  O111  1  0.707200  0.475900  0.467600  1.0  -0.5389
  O  O112  1  0.709700  0.622600  0.545700  1.0  -0.5545
  O  O113  1  0.898100  0.677500  0.150600  1.0  -0.5397
  O  O114  1  0.003700  0.933200  0.367400  1.0  -0.5662
  O  O115  1  0.990600  0.881000  0.495400  1.0  -0.6427
  O  O116  1  0.812100  0.532000  0.183800  1.0  -0.553
  O  O117  1  0.207200  0.024100  0.532400  1.0  -0.5393
  O  O118  1  0.209700  0.877400  0.454300  1.0  -0.5584
  O  O119  1  0.398100  0.822500  0.849400  1.0  -0.5399
  O  O120  1  0.503700  0.566800  0.632600  1.0  -0.565
  O  O121  1  0.490600  0.619000  0.504600  1.0  -0.6436
  O  O122  1  0.312100  0.968000  0.816200  1.0  -0.5535
  O  O123  1  0.292800  0.975900  0.032400  1.0  -0.5393
  O  O124  1  0.290300  0.122600  0.954300  1.0  -0.557
  O  O125  1  0.101900  0.177500  0.349400  1.0  -0.5403
  O  O126  1  0.996300  0.433200  0.132600  1.0  -0.5658
  O  O127  1  0.009400  0.381000  0.004600  1.0  -0.6453
  O  O128  1  0.187900  0.032000  0.316200  1.0  -0.5535
  O  O129  1  0.207200  0.475900  0.032400  1.0  -0.539
  O  O130  1  0.209700  0.622600  0.954300  1.0  -0.5553
  O  O131  1  0.398100  0.677500  0.349400  1.0  -0.5415
  O  O132  1  0.503700  0.933200  0.132600  1.0  -0.5653
  O  O133  1  0.490600  0.881000  0.004600  1.0  -0.6444
  O  O134  1  0.312100  0.532000  0.316200  1.0  -0.5529
  O  O135  1  0.292800  0.524100  0.532400  1.0  -0.5401
  O  O136  1  0.290300  0.377400  0.454300  1.0  -0.5571
  O  O137  1  0.101900  0.322500  0.849400  1.0  -0.5419
  O  O138  1  0.996300  0.066800  0.632600  1.0  -0.5654
  O  O139  1  0.009400  0.119000  0.504600  1.0  -0.6442
  O  O140  1  0.187900  0.468000  0.816200  1.0  -0.5546
  O  O141  1  0.792800  0.975900  0.467600  1.0  -0.5393
  O  O142  1  0.790300  0.122600  0.545700  1.0  -0.556
  O  O143  1  0.601900  0.177500  0.150600  1.0  -0.542
  O  O144  1  0.496300  0.433200  0.367400  1.0  -0.5663
  O  O145  1  0.509400  0.381000  0.495400  1.0  -0.6437
  O  O146  1  0.687900  0.032000  0.183800  1.0  -0.5538
  O  O147  1  0.707200  0.024100  0.967600  1.0  -0.5392
  O  O148  1  0.709700  0.877400  0.045700  1.0  -0.5567
  O  O149  1  0.898100  0.822500  0.650600  1.0  -0.5418
  O  O150  1  0.003700  0.566800  0.867400  1.0  -0.5656
  O  O151  1  0.990600  0.619000  0.995400  1.0  -0.6429
  O  O152  1  0.812100  0.968000  0.683800  1.0  -0.553
