# generated using pymatgen
data_MnH3(C3O2)3
_symmetry_space_group_name_H-M   'P 1'
_cell_length_a   14.77160000
_cell_length_b   12.42600000
_cell_length_c   16.62770000
_cell_angle_alpha   90.00000000
_cell_angle_beta   90.00000000
_cell_angle_gamma   90.00000000
_symmetry_Int_Tables_number   1
_chemical_formula_structural   MnH3(C3O2)3
_chemical_formula_sum   'Mn8 H24 C72 O48'
_cell_volume   3052.04595423
_cell_formula_units_Z   8
loop_
 _symmetry_equiv_pos_site_id
 _symmetry_equiv_pos_as_xyz
  1  'x, y, z'
loop_
 _atom_site_type_symbol
 _atom_site_label
 _atom_site_symmetry_multiplicity
 _atom_site_fract_x
 _atom_site_fract_y
 _atom_site_fract_z
 _atom_site_occupancy
 _atom_site_charge
  Mn  Mn1  1  0.604760  0.483550  0.579270  1.0  1.0965
  Mn  Mn2  1  0.895240  0.516450  0.079270  1.0  1.0956
  Mn  Mn3  1  0.395240  0.983550  0.920730  1.0  1.0956
  Mn  Mn4  1  0.104760  0.016450  0.420730  1.0  1.0962
  Mn  Mn5  1  0.395240  0.516450  0.420730  1.0  1.0953
  Mn  Mn6  1  0.104760  0.483550  0.920730  1.0  1.0964
  Mn  Mn7  1  0.604760  0.016450  0.079270  1.0  1.0964
  Mn  Mn8  1  0.895240  0.983550  0.579270  1.0  1.096
  H  H9  1  0.725600  0.474400  0.846600  1.0  0.1353
  H  H10  1  0.557500  0.232600  0.788500  1.0  0.1381
  H  H11  1  0.657000  0.254200  0.012800  1.0  0.1303
  H  H12  1  0.774400  0.525600  0.346600  1.0  0.1354
  H  H13  1  0.942500  0.767400  0.288500  1.0  0.1381
  H  H14  1  0.843000  0.745800  0.512800  1.0  0.1305
  H  H15  1  0.274400  0.974400  0.653400  1.0  0.1358
  H  H16  1  0.442500  0.732600  0.711500  1.0  0.1382
  H  H17  1  0.343000  0.754200  0.487200  1.0  0.1312
  H  H18  1  0.225600  0.025600  0.153400  1.0  0.1357
  H  H19  1  0.057500  0.267400  0.211500  1.0  0.1381
  H  H20  1  0.157000  0.245800  0.987200  1.0  0.1307
  H  H21  1  0.274400  0.525600  0.153400  1.0  0.1358
  H  H22  1  0.442500  0.767400  0.211500  1.0  0.138
  H  H23  1  0.343000  0.745800  0.987200  1.0  0.1309
  H  H24  1  0.225600  0.474400  0.653400  1.0  0.1355
  H  H25  1  0.057500  0.232600  0.711500  1.0  0.1384
  H  H26  1  0.157000  0.254200  0.487200  1.0  0.1308
  H  H27  1  0.725600  0.025600  0.346600  1.0  0.1354
  H  H28  1  0.557500  0.267400  0.288500  1.0  0.1381
  H  H29  1  0.657000  0.245800  0.512800  1.0  0.1302
  H  H30  1  0.774400  0.974400  0.846600  1.0  0.1355
  H  H31  1  0.942500  0.732600  0.788500  1.0  0.138
  H  H32  1  0.843000  0.754200  0.012800  1.0  0.1307
  C  C33  1  0.636270  0.400770  0.719230  1.0  0.6619
  C  C34  1  0.641640  0.359030  0.803740  1.0  -0.1329
  C  C35  1  0.695060  0.411740  0.860660  1.0  0.0476
  C  C36  1  0.592830  0.268330  0.826350  1.0  0.0544
  C  C37  1  0.702890  0.371150  0.938500  1.0  -0.1256
  C  C38  1  0.596230  0.230290  0.905160  1.0  -0.1185
  C  C39  1  0.652740  0.280840  0.960680  1.0  0.0312
  C  C40  1  0.768520  0.422280  0.996090  1.0  0.7464
  C  C41  1  0.537830  0.136850  0.929470  1.0  0.7329
  C  C42  1  0.863730  0.599230  0.219230  1.0  0.6621
  C  C43  1  0.858360  0.640970  0.303740  1.0  -0.1337
  C  C44  1  0.804940  0.588260  0.360660  1.0  0.0469
  C  C45  1  0.907170  0.731670  0.326350  1.0  0.0549
  C  C46  1  0.797110  0.628850  0.438500  1.0  -0.1254
  C  C47  1  0.903770  0.769710  0.405160  1.0  -0.119
  C  C48  1  0.847260  0.719160  0.460680  1.0  0.0316
  C  C49  1  0.731480  0.577720  0.496090  1.0  0.7456
  C  C50  1  0.962170  0.863150  0.429470  1.0  0.7304
  C  C51  1  0.363730  0.900770  0.780770  1.0  0.6631
  C  C52  1  0.358360  0.859030  0.696260  1.0  -0.1344
  C  C53  1  0.304940  0.911740  0.639340  1.0  0.0465
  C  C54  1  0.407170  0.768330  0.673650  1.0  0.0548
  C  C55  1  0.297110  0.871150  0.561500  1.0  -0.1245
  C  C56  1  0.403770  0.730290  0.594840  1.0  -0.1193
  C  C57  1  0.347260  0.780840  0.539320  1.0  0.0311
  C  C58  1  0.231480  0.922280  0.503910  1.0  0.7459
  C  C59  1  0.462170  0.636850  0.570530  1.0  0.7301
  C  C60  1  0.136270  0.099230  0.280770  1.0  0.663
  C  C61  1  0.141640  0.140970  0.196260  1.0  -0.1338
  C  C62  1  0.195060  0.088260  0.139340  1.0  0.0479
  C  C63  1  0.092830  0.231670  0.173650  1.0  0.0544
  C  C64  1  0.202890  0.128850  0.061500  1.0  -0.1255
  C  C65  1  0.096230  0.269710  0.094840  1.0  -0.1183
  C  C66  1  0.152740  0.219160  0.039320  1.0  0.0301
  C  C67  1  0.268520  0.077720  0.003910  1.0  0.7461
  C  C68  1  0.037830  0.363150  0.070530  1.0  0.7321
  C  C69  1  0.363730  0.599230  0.280770  1.0  0.6632
  C  C70  1  0.358360  0.640970  0.196260  1.0  -0.1341
  C  C71  1  0.304940  0.588260  0.139340  1.0  0.0471
  C  C72  1  0.407170  0.731670  0.173650  1.0  0.0547
  C  C73  1  0.297110  0.628850  0.061500  1.0  -0.1253
  C  C74  1  0.403770  0.769710  0.094840  1.0  -0.119
  C  C75  1  0.347260  0.719160  0.039320  1.0  0.0309
  C  C76  1  0.231480  0.577720  0.003910  1.0  0.7457
  C  C77  1  0.462170  0.863150  0.070530  1.0  0.7301
  C  C78  1  0.136270  0.400770  0.780770  1.0  0.6629
  C  C79  1  0.141640  0.359030  0.696260  1.0  -0.134
  C  C80  1  0.195060  0.411740  0.639340  1.0  0.0473
  C  C81  1  0.092830  0.268330  0.673650  1.0  0.0545
  C  C82  1  0.202890  0.371150  0.561500  1.0  -0.1248
  C  C83  1  0.096230  0.230290  0.594840  1.0  -0.1187
  C  C84  1  0.152740  0.280840  0.539320  1.0  0.0301
  C  C85  1  0.268520  0.422280  0.503910  1.0  0.7464
  C  C86  1  0.037830  0.136850  0.570530  1.0  0.7326
  C  C87  1  0.636270  0.099230  0.219230  1.0  0.6618
  C  C88  1  0.641640  0.140970  0.303740  1.0  -0.1334
  C  C89  1  0.695060  0.088260  0.360660  1.0  0.0478
  C  C90  1  0.592830  0.231670  0.326350  1.0  0.0545
  C  C91  1  0.702890  0.128850  0.438500  1.0  -0.1256
  C  C92  1  0.596230  0.269710  0.405160  1.0  -0.1182
  C  C93  1  0.652740  0.219160  0.460680  1.0  0.0313
  C  C94  1  0.768520  0.077720  0.496090  1.0  0.7462
  C  C95  1  0.537830  0.363150  0.429470  1.0  0.7325
  C  C96  1  0.863730  0.900770  0.719230  1.0  0.6622
  C  C97  1  0.858360  0.859030  0.803740  1.0  -0.1332
  C  C98  1  0.804940  0.911740  0.860660  1.0  0.0468
  C  C99  1  0.907170  0.768330  0.826350  1.0  0.0548
  C  C100  1  0.797110  0.871150  0.938500  1.0  -0.1251
  C  C101  1  0.903770  0.730290  0.905160  1.0  -0.1193
  C  C102  1  0.847260  0.780840  0.960680  1.0  0.0315
  C  C103  1  0.731480  0.922280  0.996090  1.0  0.7457
  C  C104  1  0.962170  0.636850  0.929470  1.0  0.7307
  O  O105  1  0.593290  0.348180  0.667320  1.0  -0.5283
  O  O106  1  0.673670  0.488970  0.702500  1.0  -0.5511
  O  O107  1  0.709110  0.480890  0.485410  1.0  -0.55
  O  O108  1  0.698190  0.632370  0.551280  1.0  -0.5555
  O  O109  1  0.498450  0.581480  0.625660  1.0  -0.5711
  O  O110  1  0.525090  0.380390  0.503200  1.0  -0.6382
  O  O111  1  0.906710  0.651820  0.167320  1.0  -0.5276
  O  O112  1  0.826330  0.511030  0.202500  1.0  -0.5505
  O  O113  1  0.790890  0.519110  0.985410  1.0  -0.5514
  O  O114  1  0.801810  0.367630  0.051280  1.0  -0.5564
  O  O115  1  0.001550  0.418520  0.125660  1.0  -0.5728
  O  O116  1  0.974910  0.619610  0.003200  1.0  -0.6384
  O  O117  1  0.406710  0.848180  0.832680  1.0  -0.5273
  O  O118  1  0.326330  0.988970  0.797500  1.0  -0.5518
  O  O119  1  0.290890  0.980890  0.014590  1.0  -0.5503
  O  O120  1  0.301810  0.132370  0.948720  1.0  -0.5563
  O  O121  1  0.501550  0.081480  0.874340  1.0  -0.5725
  O  O122  1  0.474910  0.880390  0.996800  1.0  -0.6379
  O  O123  1  0.093290  0.151820  0.332680  1.0  -0.5272
  O  O124  1  0.173670  0.011030  0.297500  1.0  -0.5512
  O  O125  1  0.209110  0.019110  0.514590  1.0  -0.5502
  O  O126  1  0.198190  0.867630  0.448720  1.0  -0.5569
  O  O127  1  0.998450  0.918520  0.374340  1.0  -0.5713
  O  O128  1  0.025090  0.119610  0.496800  1.0  -0.6377
  O  O129  1  0.406710  0.651820  0.332680  1.0  -0.5268
  O  O130  1  0.326330  0.511030  0.297500  1.0  -0.5506
  O  O131  1  0.290890  0.519110  0.514590  1.0  -0.5513
  O  O132  1  0.301810  0.367630  0.448720  1.0  -0.5575
  O  O133  1  0.501550  0.418520  0.374340  1.0  -0.5723
  O  O134  1  0.474910  0.619610  0.496800  1.0  -0.6376
  O  O135  1  0.093290  0.348180  0.832680  1.0  -0.5273
  O  O136  1  0.173670  0.488970  0.797500  1.0  -0.5517
  O  O137  1  0.209110  0.480890  0.014590  1.0  -0.55
  O  O138  1  0.198190  0.632370  0.948720  1.0  -0.5557
  O  O139  1  0.998450  0.581480  0.874340  1.0  -0.5713
  O  O140  1  0.025090  0.380390  0.996800  1.0  -0.6374
  O  O141  1  0.593290  0.151820  0.167320  1.0  -0.5279
  O  O142  1  0.673670  0.011030  0.202500  1.0  -0.551
  O  O143  1  0.709110  0.019110  0.985410  1.0  -0.5502
  O  O144  1  0.698190  0.867630  0.051280  1.0  -0.5566
  O  O145  1  0.498450  0.918520  0.125660  1.0  -0.5712
  O  O146  1  0.525090  0.119610  0.003200  1.0  -0.6388
  O  O147  1  0.906710  0.848180  0.667320  1.0  -0.5279
  O  O148  1  0.826330  0.988970  0.702500  1.0  -0.5511
  O  O149  1  0.790890  0.980890  0.485410  1.0  -0.5504
  O  O150  1  0.801810  0.132370  0.551280  1.0  -0.5556
  O  O151  1  0.001550  0.081480  0.625660  1.0  -0.5729
  O  O152  1  0.974910  0.880390  0.503200  1.0  -0.6381
