# generated using pymatgen
data_MnH3(C3O2)3
_symmetry_space_group_name_H-M   'P 1'
_cell_length_a   14.13800000
_cell_length_b   11.68600000
_cell_length_c   16.58300000
_cell_angle_alpha   90.00000000
_cell_angle_beta   90.00000000
_cell_angle_gamma   90.00000000
_symmetry_Int_Tables_number   1
_chemical_formula_structural   MnH3(C3O2)3
_chemical_formula_sum   'Mn8 H24 C72 O48'
_cell_volume   2739.78800544
_cell_formula_units_Z   8
loop_
 _symmetry_equiv_pos_site_id
 _symmetry_equiv_pos_as_xyz
  1  'x, y, z'
loop_
 _atom_site_type_symbol
 _atom_site_label
 _atom_site_symmetry_multiplicity
 _atom_site_fract_x
 _atom_site_fract_y
 _atom_site_fract_z
 _atom_site_occupancy
 _atom_site_charge
  Mn  Mn1  1  0.610630  0.468600  0.560650  1.0  1.1219
  Mn  Mn2  1  0.889370  0.531400  0.060650  1.0  1.1241
  Mn  Mn3  1  0.389370  0.968600  0.939350  1.0  1.1231
  Mn  Mn4  1  0.110630  0.031400  0.439350  1.0  1.1205
  Mn  Mn5  1  0.389370  0.531400  0.439350  1.0  1.1229
  Mn  Mn6  1  0.110630  0.468600  0.939350  1.0  1.1207
  Mn  Mn7  1  0.610630  0.031400  0.060650  1.0  1.1216
  Mn  Mn8  1  0.889370  0.968600  0.560650  1.0  1.1243
  H  H9  1  0.632500  0.272100  0.998100  1.0  0.1293
  H  H10  1  0.736000  0.461900  0.817300  1.0  0.1423
  H  H11  1  0.562600  0.196700  0.768600  1.0  0.1543
  H  H12  1  0.867500  0.727900  0.498100  1.0  0.1297
  H  H13  1  0.764000  0.538100  0.317300  1.0  0.1425
  H  H14  1  0.937400  0.803300  0.268600  1.0  0.1543
  H  H15  1  0.367500  0.772100  0.501900  1.0  0.1293
  H  H16  1  0.264000  0.961900  0.682700  1.0  0.143
  H  H17  1  0.437400  0.696700  0.731400  1.0  0.1545
  H  H18  1  0.132500  0.227900  0.001900  1.0  0.1298
  H  H19  1  0.236000  0.038100  0.182700  1.0  0.1426
  H  H20  1  0.062600  0.303300  0.231400  1.0  0.155
  H  H21  1  0.367500  0.727900  0.001900  1.0  0.1296
  H  H22  1  0.264000  0.538100  0.182700  1.0  0.1428
  H  H23  1  0.437400  0.803300  0.231400  1.0  0.1547
  H  H24  1  0.132500  0.272100  0.501900  1.0  0.1295
  H  H25  1  0.236000  0.461900  0.682700  1.0  0.1426
  H  H26  1  0.062600  0.196700  0.731400  1.0  0.1547
  H  H27  1  0.632500  0.227900  0.498100  1.0  0.1295
  H  H28  1  0.736000  0.038100  0.317300  1.0  0.1423
  H  H29  1  0.562600  0.303300  0.268600  1.0  0.1547
  H  H30  1  0.867500  0.772100  0.998100  1.0  0.1293
  H  H31  1  0.764000  0.961900  0.817300  1.0  0.1427
  H  H32  1  0.937400  0.696700  0.768600  1.0  0.1542
  C  C33  1  0.639600  0.285700  0.943200  1.0  -0.0027
  C  C34  1  0.762500  0.431000  0.975000  1.0  0.7331
  C  C35  1  0.700800  0.399600  0.835200  1.0  0.0277
  C  C36  1  0.649700  0.368000  0.692800  1.0  0.7004
  C  C37  1  0.700900  0.367400  0.917800  1.0  -0.0693
  C  C38  1  0.523900  0.128000  0.914400  1.0  0.6744
  C  C39  1  0.593400  0.243000  0.805900  1.0  -0.0147
  C  C40  1  0.587500  0.222300  0.888500  1.0  -0.1151
  C  C41  1  0.647200  0.336000  0.782200  1.0  -0.0872
  C  C42  1  0.860400  0.714300  0.443200  1.0  -0.0013
  C  C43  1  0.737500  0.569000  0.475000  1.0  0.733
  C  C44  1  0.799200  0.600400  0.335200  1.0  0.0282
  C  C45  1  0.850300  0.632000  0.192800  1.0  0.7003
  C  C46  1  0.799100  0.632600  0.417800  1.0  -0.0703
  C  C47  1  0.976100  0.872000  0.414400  1.0  0.674
  C  C48  1  0.906600  0.757000  0.305900  1.0  -0.0159
  C  C49  1  0.912500  0.777700  0.388500  1.0  -0.1157
  C  C50  1  0.852800  0.664000  0.282200  1.0  -0.0879
  C  C51  1  0.360400  0.785700  0.556800  1.0  -0.0033
  C  C52  1  0.237500  0.931000  0.525000  1.0  0.7336
  C  C53  1  0.299200  0.899600  0.664800  1.0  0.0278
  C  C54  1  0.350300  0.868000  0.807200  1.0  0.7007
  C  C55  1  0.299100  0.867400  0.582200  1.0  -0.07
  C  C56  1  0.476100  0.628000  0.585600  1.0  0.6744
  C  C57  1  0.406600  0.743000  0.694100  1.0  -0.0143
  C  C58  1  0.412500  0.722300  0.611500  1.0  -0.1157
  C  C59  1  0.352800  0.836000  0.717800  1.0  -0.0878
  C  C60  1  0.139600  0.214300  0.056800  1.0  -0.0036
  C  C61  1  0.262500  0.069000  0.025000  1.0  0.7331
  C  C62  1  0.200800  0.100400  0.164800  1.0  0.0289
  C  C63  1  0.149700  0.132000  0.307200  1.0  0.7014
  C  C64  1  0.200900  0.132600  0.082200  1.0  -0.0697
  C  C65  1  0.023900  0.372000  0.085600  1.0  0.6741
  C  C66  1  0.093400  0.257000  0.194100  1.0  -0.0154
  C  C67  1  0.087500  0.277700  0.111500  1.0  -0.1154
  C  C68  1  0.147200  0.164000  0.217800  1.0  -0.0878
  C  C69  1  0.360400  0.714300  0.056800  1.0  -0.0031
  C  C70  1  0.237500  0.569000  0.025000  1.0  0.7335
  C  C71  1  0.299200  0.600400  0.164800  1.0  0.0288
  C  C72  1  0.350300  0.632000  0.307200  1.0  0.7009
  C  C73  1  0.299100  0.632600  0.082200  1.0  -0.0706
  C  C74  1  0.476100  0.872000  0.085600  1.0  0.674
  C  C75  1  0.406600  0.757000  0.194100  1.0  -0.0146
  C  C76  1  0.412500  0.777700  0.111500  1.0  -0.116
  C  C77  1  0.352800  0.664000  0.217800  1.0  -0.0879
  C  C78  1  0.139600  0.285700  0.556800  1.0  -0.0035
  C  C79  1  0.262500  0.431000  0.525000  1.0  0.7334
  C  C80  1  0.200800  0.399600  0.664800  1.0  0.0281
  C  C81  1  0.149700  0.368000  0.807200  1.0  0.7013
  C  C82  1  0.200900  0.367400  0.582200  1.0  -0.0694
  C  C83  1  0.023900  0.128000  0.585600  1.0  0.6746
  C  C84  1  0.093400  0.243000  0.694100  1.0  -0.0152
  C  C85  1  0.087500  0.222300  0.611500  1.0  -0.1153
  C  C86  1  0.147200  0.336000  0.717800  1.0  -0.0877
  C  C87  1  0.639600  0.214300  0.443200  1.0  -0.0027
  C  C88  1  0.762500  0.069000  0.475000  1.0  0.7329
  C  C89  1  0.700800  0.100400  0.335200  1.0  0.0283
  C  C90  1  0.649700  0.132000  0.192800  1.0  0.7005
  C  C91  1  0.700900  0.132600  0.417800  1.0  -0.0695
  C  C92  1  0.523900  0.372000  0.414400  1.0  0.6738
  C  C93  1  0.593400  0.257000  0.305900  1.0  -0.0153
  C  C94  1  0.587500  0.277700  0.388500  1.0  -0.115
  C  C95  1  0.647200  0.164000  0.282200  1.0  -0.0879
  C  C96  1  0.860400  0.785700  0.943200  1.0  -0.0013
  C  C97  1  0.737500  0.931000  0.975000  1.0  0.733
  C  C98  1  0.799200  0.899600  0.835200  1.0  0.0272
  C  C99  1  0.850300  0.868000  0.692800  1.0  0.7002
  C  C100  1  0.799100  0.867400  0.917800  1.0  -0.0699
  C  C101  1  0.976100  0.628000  0.914400  1.0  0.6744
  C  C102  1  0.906600  0.743000  0.805900  1.0  -0.0151
  C  C103  1  0.912500  0.722300  0.888500  1.0  -0.1156
  C  C104  1  0.852800  0.836000  0.782200  1.0  -0.0872
  O  O105  1  0.798600  0.523500  0.955200  1.0  -0.5358
  O  O106  1  0.786700  0.379300  0.039900  1.0  -0.553
  O  O107  1  0.604800  0.309300  0.641400  1.0  -0.5714
  O  O108  1  0.488900  0.058500  0.863800  1.0  -0.5564
  O  O109  1  0.502200  0.120200  0.991800  1.0  -0.6324
  O  O110  1  0.696200  0.451900  0.671700  1.0  -0.5415
  O  O111  1  0.701400  0.476500  0.455200  1.0  -0.5364
  O  O112  1  0.713300  0.620700  0.539900  1.0  -0.5546
  O  O113  1  0.895200  0.690700  0.141400  1.0  -0.5725
  O  O114  1  0.011100  0.941500  0.363800  1.0  -0.5568
  O  O115  1  0.997800  0.879800  0.491800  1.0  -0.6309
  O  O116  1  0.803800  0.548100  0.171700  1.0  -0.5426
  O  O117  1  0.201400  0.023500  0.544800  1.0  -0.5357
  O  O118  1  0.213300  0.879300  0.460100  1.0  -0.5568
  O  O119  1  0.395200  0.809300  0.858600  1.0  -0.5718
  O  O120  1  0.511100  0.558500  0.636200  1.0  -0.5564
  O  O121  1  0.497800  0.620200  0.508200  1.0  -0.6314
  O  O122  1  0.303800  0.951900  0.828300  1.0  -0.542
  O  O123  1  0.298600  0.976500  0.044800  1.0  -0.536
  O  O124  1  0.286700  0.120700  0.960100  1.0  -0.5562
  O  O125  1  0.104800  0.190700  0.358600  1.0  -0.572
  O  O126  1  0.988900  0.441500  0.136200  1.0  -0.5568
  O  O127  1  0.002200  0.379800  0.008200  1.0  -0.6333
  O  O128  1  0.196200  0.048100  0.328300  1.0  -0.542
  O  O129  1  0.201400  0.476500  0.044800  1.0  -0.537
  O  O130  1  0.213300  0.620700  0.960100  1.0  -0.5569
  O  O131  1  0.395200  0.690700  0.358600  1.0  -0.573
  O  O132  1  0.511100  0.941500  0.136200  1.0  -0.5562
  O  O133  1  0.497800  0.879800  0.008200  1.0  -0.6325
  O  O134  1  0.303800  0.548100  0.328300  1.0  -0.5427
  O  O135  1  0.298600  0.523500  0.544800  1.0  -0.5364
  O  O136  1  0.286700  0.379300  0.460100  1.0  -0.5546
  O  O137  1  0.104800  0.309300  0.858600  1.0  -0.5724
  O  O138  1  0.988900  0.058500  0.636200  1.0  -0.5572
  O  O139  1  0.002200  0.120200  0.508200  1.0  -0.6322
  O  O140  1  0.196200  0.451900  0.828300  1.0  -0.5419
  O  O141  1  0.798600  0.976500  0.455200  1.0  -0.5369
  O  O142  1  0.786700  0.120700  0.539900  1.0  -0.5543
  O  O143  1  0.604800  0.190700  0.141400  1.0  -0.5728
  O  O144  1  0.488900  0.441500  0.363800  1.0  -0.5564
  O  O145  1  0.502200  0.379800  0.491800  1.0  -0.632
  O  O146  1  0.696200  0.048100  0.171700  1.0  -0.5418
  O  O147  1  0.701400  0.023500  0.955200  1.0  -0.5359
  O  O148  1  0.713300  0.879300  0.039900  1.0  -0.555
  O  O149  1  0.895200  0.809300  0.641400  1.0  -0.573
  O  O150  1  0.011100  0.558500  0.863800  1.0  -0.5569
  O  O151  1  0.997800  0.620200  0.991800  1.0  -0.6315
  O  O152  1  0.803800  0.951900  0.671700  1.0  -0.5417
