# generated using pymatgen
data_MnH3(C3O2)3
_symmetry_space_group_name_H-M   'P 1'
_cell_length_a   14.88370000
_cell_length_b   12.45540000
_cell_length_c   16.60180000
_cell_angle_alpha   90.00000000
_cell_angle_beta   90.00000000
_cell_angle_gamma   90.00000000
_symmetry_Int_Tables_number   1
_chemical_formula_structural   MnH3(C3O2)3
_chemical_formula_sum   'Mn8 H24 C72 O48'
_cell_volume   3077.68214225
_cell_formula_units_Z   8
loop_
 _symmetry_equiv_pos_site_id
 _symmetry_equiv_pos_as_xyz
  1  'x, y, z'
loop_
 _atom_site_type_symbol
 _atom_site_label
 _atom_site_symmetry_multiplicity
 _atom_site_fract_x
 _atom_site_fract_y
 _atom_site_fract_z
 _atom_site_occupancy
 _atom_site_charge
  Mn  Mn1  1  0.604140  0.485190  0.580910  1.0  1.108
  Mn  Mn2  1  0.895860  0.514810  0.080910  1.0  1.1108
  Mn  Mn3  1  0.395860  0.985190  0.919090  1.0  1.1108
  Mn  Mn4  1  0.104140  0.014810  0.419090  1.0  1.1097
  Mn  Mn5  1  0.395860  0.514810  0.419090  1.0  1.1101
  Mn  Mn6  1  0.104140  0.485190  0.919090  1.0  1.1059
  Mn  Mn7  1  0.604140  0.014810  0.080910  1.0  1.1097
  Mn  Mn8  1  0.895860  0.985190  0.580910  1.0  1.1105
  H  H9  1  0.556800  0.235200  0.791100  1.0  0.1309
  H  H10  1  0.657400  0.254400  0.014600  1.0  0.1273
  H  H11  1  0.724600  0.474600  0.848800  1.0  0.1319
  H  H12  1  0.943200  0.764800  0.291100  1.0  0.1309
  H  H13  1  0.842600  0.745600  0.514600  1.0  0.1274
  H  H14  1  0.775400  0.525400  0.348800  1.0  0.1316
  H  H15  1  0.443200  0.735200  0.708900  1.0  0.1309
  H  H16  1  0.342600  0.754400  0.485400  1.0  0.128
  H  H17  1  0.275400  0.974600  0.651200  1.0  0.1318
  H  H18  1  0.056800  0.264800  0.208900  1.0  0.1308
  H  H19  1  0.157400  0.245600  0.985400  1.0  0.1273
  H  H20  1  0.224600  0.025400  0.151200  1.0  0.1321
  H  H21  1  0.443200  0.764800  0.208900  1.0  0.1308
  H  H22  1  0.342600  0.745600  0.985400  1.0  0.1277
  H  H23  1  0.275400  0.525400  0.151200  1.0  0.1319
  H  H24  1  0.056800  0.235200  0.708900  1.0  0.131
  H  H25  1  0.157400  0.254400  0.485400  1.0  0.1276
  H  H26  1  0.224600  0.474600  0.651200  1.0  0.1319
  H  H27  1  0.556800  0.264800  0.291100  1.0  0.1308
  H  H28  1  0.657400  0.245600  0.514600  1.0  0.1271
  H  H29  1  0.724600  0.025400  0.348800  1.0  0.132
  H  H30  1  0.943200  0.735200  0.791100  1.0  0.1309
  H  H31  1  0.842600  0.754400  0.014600  1.0  0.1277
  H  H32  1  0.775400  0.974600  0.848800  1.0  0.1317
  C  C33  1  0.769400  0.422700  0.998400  1.0  0.7129
  C  C34  1  0.592500  0.270000  0.828900  1.0  0.0509
  C  C35  1  0.635500  0.401900  0.720400  1.0  0.6861
  C  C36  1  0.703100  0.370800  0.940600  1.0  -0.1273
  C  C37  1  0.653100  0.281200  0.962500  1.0  0.0313
  C  C38  1  0.641100  0.360600  0.806300  1.0  -0.1374
  C  C39  1  0.694300  0.411900  0.862900  1.0  0.0475
  C  C40  1  0.596700  0.231100  0.906900  1.0  -0.1325
  C  C41  1  0.538600  0.138500  0.931100  1.0  0.7228
  C  C42  1  0.730600  0.577300  0.498400  1.0  0.7118
  C  C43  1  0.907500  0.730000  0.328900  1.0  0.0507
  C  C44  1  0.864500  0.598100  0.220400  1.0  0.6858
  C  C45  1  0.796900  0.629200  0.440600  1.0  -0.1269
  C  C46  1  0.846900  0.718800  0.462500  1.0  0.0314
  C  C47  1  0.858900  0.639400  0.306300  1.0  -0.1392
  C  C48  1  0.805700  0.588100  0.362900  1.0  0.049
  C  C49  1  0.903300  0.768900  0.406900  1.0  -0.1327
  C  C50  1  0.961400  0.861500  0.431100  1.0  0.7227
  C  C51  1  0.230600  0.922700  0.501600  1.0  0.713
  C  C52  1  0.407500  0.770000  0.671100  1.0  0.051
  C  C53  1  0.364500  0.901900  0.779600  1.0  0.6851
  C  C54  1  0.296900  0.870800  0.559400  1.0  -0.126
  C  C55  1  0.346900  0.781200  0.537500  1.0  0.0314
  C  C56  1  0.358900  0.860600  0.693700  1.0  -0.1385
  C  C57  1  0.305700  0.911900  0.637100  1.0  0.0467
  C  C58  1  0.403300  0.731100  0.593100  1.0  -0.1323
  C  C59  1  0.461400  0.638500  0.568900  1.0  0.7217
  C  C60  1  0.269400  0.077300  0.001600  1.0  0.7127
  C  C61  1  0.092500  0.230000  0.171100  1.0  0.0506
  C  C62  1  0.135500  0.098100  0.279600  1.0  0.6865
  C  C63  1  0.203100  0.129200  0.059400  1.0  -0.1266
  C  C64  1  0.153100  0.218800  0.037500  1.0  0.0299
  C  C65  1  0.141100  0.139400  0.193700  1.0  -0.1383
  C  C66  1  0.194300  0.088100  0.137100  1.0  0.0465
  C  C67  1  0.096700  0.268900  0.093100  1.0  -0.1324
  C  C68  1  0.038600  0.361500  0.068900  1.0  0.7223
  C  C69  1  0.230600  0.577300  0.001600  1.0  0.7117
  C  C70  1  0.407500  0.730000  0.171100  1.0  0.0509
  C  C71  1  0.364500  0.598100  0.279600  1.0  0.6862
  C  C72  1  0.296900  0.629200  0.059400  1.0  -0.1266
  C  C73  1  0.346900  0.718800  0.037500  1.0  0.0312
  C  C74  1  0.358900  0.639400  0.193700  1.0  -0.1385
  C  C75  1  0.305700  0.588100  0.137100  1.0  0.0472
  C  C76  1  0.403300  0.768900  0.093100  1.0  -0.1323
  C  C77  1  0.461400  0.861500  0.068900  1.0  0.7223
  C  C78  1  0.269400  0.422700  0.501600  1.0  0.7125
  C  C79  1  0.092500  0.270000  0.671100  1.0  0.0506
  C  C80  1  0.135500  0.401900  0.779600  1.0  0.686
  C  C81  1  0.203100  0.370800  0.559400  1.0  -0.1263
  C  C82  1  0.153100  0.281200  0.537500  1.0  0.0305
  C  C83  1  0.141100  0.360600  0.693700  1.0  -0.1382
  C  C84  1  0.194300  0.411900  0.637100  1.0  0.0448
  C  C85  1  0.096700  0.231100  0.593100  1.0  -0.1326
  C  C86  1  0.038600  0.138500  0.568900  1.0  0.7222
  C  C87  1  0.769400  0.077300  0.498400  1.0  0.7122
  C  C88  1  0.592500  0.230000  0.328900  1.0  0.0509
  C  C89  1  0.635500  0.098100  0.220400  1.0  0.6863
  C  C90  1  0.703100  0.129200  0.440600  1.0  -0.1271
  C  C91  1  0.653100  0.218800  0.462500  1.0  0.0308
  C  C92  1  0.641100  0.139400  0.306300  1.0  -0.1388
  C  C93  1  0.694300  0.088100  0.362900  1.0  0.0477
  C  C94  1  0.596700  0.268900  0.406900  1.0  -0.1325
  C  C95  1  0.538600  0.361500  0.431100  1.0  0.7228
  C  C96  1  0.730600  0.922700  0.998400  1.0  0.7132
  C  C97  1  0.907500  0.770000  0.828900  1.0  0.0509
  C  C98  1  0.864500  0.901900  0.720400  1.0  0.6852
  C  C99  1  0.796900  0.870800  0.940600  1.0  -0.1269
  C  C100  1  0.846900  0.781200  0.962500  1.0  0.0315
  C  C101  1  0.858900  0.860600  0.806300  1.0  -0.1378
  C  C102  1  0.805700  0.911900  0.862900  1.0  0.049
  C  C103  1  0.903300  0.731100  0.906900  1.0  -0.1325
  C  C104  1  0.961400  0.638500  0.931100  1.0  0.7207
  O  O105  1  0.527000  0.119500  0.005190  1.0  -0.6437
  O  O106  1  0.501100  0.084900  0.876080  1.0  -0.5689
  O  O107  1  0.593400  0.351500  0.669800  1.0  -0.5156
  O  O108  1  0.671200  0.491500  0.705100  1.0  -0.5484
  O  O109  1  0.791000  0.515900  0.987600  1.0  -0.5178
  O  O110  1  0.802300  0.366700  0.052700  1.0  -0.5613
  O  O111  1  0.973000  0.880500  0.505190  1.0  -0.6428
  O  O112  1  0.998900  0.915100  0.376080  1.0  -0.5688
  O  O113  1  0.906600  0.648500  0.169800  1.0  -0.5144
  O  O114  1  0.828800  0.508500  0.205100  1.0  -0.5481
  O  O115  1  0.709000  0.484100  0.487600  1.0  -0.5158
  O  O116  1  0.697700  0.633300  0.552700  1.0  -0.5609
  O  O117  1  0.473000  0.619500  0.494810  1.0  -0.6437
  O  O118  1  0.498900  0.584900  0.623920  1.0  -0.5671
  O  O119  1  0.406600  0.851500  0.830200  1.0  -0.5135
  O  O120  1  0.328800  0.991500  0.794900  1.0  -0.549
  O  O121  1  0.209000  0.015900  0.512400  1.0  -0.5168
  O  O122  1  0.197700  0.866700  0.447300  1.0  -0.5607
  O  O123  1  0.027000  0.380500  0.994810  1.0  -0.6441
  O  O124  1  0.001100  0.415100  0.123920  1.0  -0.5683
  O  O125  1  0.093400  0.148500  0.330200  1.0  -0.5138
  O  O126  1  0.171200  0.008500  0.294900  1.0  -0.5454
  O  O127  1  0.291000  0.984100  0.012400  1.0  -0.5165
  O  O128  1  0.302300  0.133300  0.947300  1.0  -0.562
  O  O129  1  0.473000  0.880500  0.994810  1.0  -0.644
  O  O130  1  0.498900  0.915100  0.123920  1.0  -0.5672
  O  O131  1  0.406600  0.648500  0.330200  1.0  -0.5126
  O  O132  1  0.328800  0.508500  0.294900  1.0  -0.5465
  O  O133  1  0.209000  0.484100  0.012400  1.0  -0.5158
  O  O134  1  0.197700  0.633300  0.947300  1.0  -0.5605
  O  O135  1  0.027000  0.119500  0.494810  1.0  -0.6442
  O  O136  1  0.001100  0.084900  0.623920  1.0  -0.5683
  O  O137  1  0.093400  0.351500  0.830200  1.0  -0.5137
  O  O138  1  0.171200  0.491500  0.794900  1.0  -0.5475
  O  O139  1  0.291000  0.515900  0.512400  1.0  -0.5177
  O  O140  1  0.302300  0.366700  0.447300  1.0  -0.5622
  O  O141  1  0.527000  0.380500  0.505190  1.0  -0.6433
  O  O142  1  0.501100  0.415100  0.376080  1.0  -0.5691
  O  O143  1  0.593400  0.148500  0.169800  1.0  -0.5167
  O  O144  1  0.671200  0.008500  0.205100  1.0  -0.5473
  O  O145  1  0.791000  0.984100  0.487600  1.0  -0.5166
  O  O146  1  0.802300  0.133300  0.552700  1.0  -0.5618
  O  O147  1  0.973000  0.619500  0.005190  1.0  -0.6429
  O  O148  1  0.998900  0.584900  0.876080  1.0  -0.5685
  O  O149  1  0.906600  0.851500  0.669800  1.0  -0.5149
  O  O150  1  0.828800  0.991500  0.705100  1.0  -0.549
  O  O151  1  0.709000  0.015900  0.987600  1.0  -0.5169
  O  O152  1  0.697700  0.866700  0.052700  1.0  -0.5605
