# generated using pymatgen
data_MnH3(C3O2)3
_symmetry_space_group_name_H-M   'P 1'
_cell_length_a   14.92870000
_cell_length_b   12.49900000
_cell_length_c   16.58140000
_cell_angle_alpha   90.00000000
_cell_angle_beta   90.00000000
_cell_angle_gamma   90.00000000
_symmetry_Int_Tables_number   1
_chemical_formula_structural   MnH3(C3O2)3
_chemical_formula_sum   'Mn8 H24 C72 O48'
_cell_volume   3093.98678850
_cell_formula_units_Z   8
loop_
 _symmetry_equiv_pos_site_id
 _symmetry_equiv_pos_as_xyz
  1  'x, y, z'
loop_
 _atom_site_type_symbol
 _atom_site_label
 _atom_site_symmetry_multiplicity
 _atom_site_fract_x
 _atom_site_fract_y
 _atom_site_fract_z
 _atom_site_occupancy
 _atom_site_charge
  Mn  Mn1  1  0.604100  0.485910  0.581430  1.0  1.1103
  Mn  Mn2  1  0.895900  0.514090  0.081430  1.0  1.1109
  Mn  Mn3  1  0.395900  0.985910  0.918570  1.0  1.1111
  Mn  Mn4  1  0.104100  0.014090  0.418570  1.0  1.1095
  Mn  Mn5  1  0.395900  0.514090  0.418570  1.0  1.1102
  Mn  Mn6  1  0.104100  0.485910  0.918570  1.0  1.1098
  Mn  Mn7  1  0.604100  0.014090  0.081430  1.0  1.1095
  Mn  Mn8  1  0.895900  0.985910  0.581430  1.0  1.1109
  H  H9  1  0.657600  0.253500  0.015300  1.0  0.1306
  H  H10  1  0.724500  0.474400  0.849800  1.0  0.1361
  H  H11  1  0.556600  0.236100  0.791400  1.0  0.1366
  H  H12  1  0.842400  0.746500  0.515300  1.0  0.1306
  H  H13  1  0.775500  0.525600  0.349800  1.0  0.1357
  H  H14  1  0.943400  0.763900  0.291400  1.0  0.1365
  H  H15  1  0.342400  0.753500  0.484700  1.0  0.1314
  H  H16  1  0.275500  0.974400  0.650200  1.0  0.1361
  H  H17  1  0.443400  0.736100  0.708600  1.0  0.1365
  H  H18  1  0.157600  0.246500  0.984700  1.0  0.1308
  H  H19  1  0.224500  0.025600  0.150200  1.0  0.1363
  H  H20  1  0.056600  0.263900  0.208600  1.0  0.1365
  H  H21  1  0.342400  0.746500  0.984700  1.0  0.131
  H  H22  1  0.275500  0.525600  0.150200  1.0  0.136
  H  H23  1  0.443400  0.763900  0.208600  1.0  0.1363
  H  H24  1  0.157600  0.253500  0.484700  1.0  0.1311
  H  H25  1  0.224500  0.474400  0.650200  1.0  0.1362
  H  H26  1  0.056600  0.236100  0.708600  1.0  0.137
  H  H27  1  0.657600  0.246500  0.515300  1.0  0.1306
  H  H28  1  0.724500  0.025600  0.349800  1.0  0.1361
  H  H29  1  0.556600  0.263900  0.291400  1.0  0.1365
  H  H30  1  0.842400  0.753500  0.015300  1.0  0.1309
  H  H31  1  0.775500  0.974400  0.849800  1.0  0.1359
  H  H32  1  0.943400  0.736100  0.791400  1.0  0.1364
  C  C33  1  0.652980  0.280800  0.963290  1.0  0.0303
  C  C34  1  0.768540  0.420480  0.998810  1.0  0.711
  C  C35  1  0.694020  0.412140  0.863820  1.0  0.0429
  C  C36  1  0.634080  0.403940  0.722660  1.0  0.6652
  C  C37  1  0.702630  0.370620  0.941500  1.0  -0.1328
  C  C38  1  0.538690  0.138500  0.931820  1.0  0.7295
  C  C39  1  0.592140  0.270780  0.829310  1.0  0.0536
  C  C40  1  0.596470  0.231620  0.907670  1.0  -0.1249
  C  C41  1  0.640230  0.361150  0.807070  1.0  -0.1333
  C  C42  1  0.847020  0.719200  0.463290  1.0  0.0306
  C  C43  1  0.731460  0.579520  0.498810  1.0  0.7106
  C  C44  1  0.805980  0.587860  0.363820  1.0  0.0423
  C  C45  1  0.865920  0.596060  0.222660  1.0  0.6649
  C  C46  1  0.797370  0.629380  0.441500  1.0  -0.1326
  C  C47  1  0.961310  0.861500  0.431820  1.0  0.7277
  C  C48  1  0.907860  0.729220  0.329310  1.0  0.054
  C  C49  1  0.903530  0.768380  0.407670  1.0  -0.1254
  C  C50  1  0.859770  0.638850  0.307070  1.0  -0.1342
  C  C51  1  0.347020  0.780800  0.536710  1.0  0.0306
  C  C52  1  0.231460  0.920480  0.501190  1.0  0.7108
  C  C53  1  0.305980  0.912140  0.636180  1.0  0.0424
  C  C54  1  0.365920  0.903940  0.777340  1.0  0.6661
  C  C55  1  0.297370  0.870620  0.558500  1.0  -0.1311
  C  C56  1  0.461310  0.638500  0.568180  1.0  0.7269
  C  C57  1  0.407860  0.770780  0.670690  1.0  0.0542
  C  C58  1  0.403530  0.731620  0.592330  1.0  -0.1256
  C  C59  1  0.359770  0.861150  0.692930  1.0  -0.1357
  C  C60  1  0.152980  0.219200  0.036710  1.0  0.0292
  C  C61  1  0.268540  0.079520  0.001190  1.0  0.7109
  C  C62  1  0.194020  0.087860  0.136180  1.0  0.0429
  C  C63  1  0.134080  0.096060  0.277340  1.0  0.6662
  C  C64  1  0.202630  0.129380  0.058500  1.0  -0.1318
  C  C65  1  0.038690  0.361500  0.068180  1.0  0.7289
  C  C66  1  0.092140  0.229220  0.170690  1.0  0.053
  C  C67  1  0.096470  0.268380  0.092330  1.0  -0.1249
  C  C68  1  0.140230  0.138850  0.192930  1.0  -0.1351
  C  C69  1  0.347020  0.719200  0.036710  1.0  0.0303
  C  C70  1  0.231460  0.579520  0.001190  1.0  0.7108
  C  C71  1  0.305980  0.587860  0.136180  1.0  0.0425
  C  C72  1  0.365920  0.596060  0.277340  1.0  0.6661
  C  C73  1  0.297370  0.629380  0.058500  1.0  -0.1318
  C  C74  1  0.461310  0.861500  0.068180  1.0  0.7272
  C  C75  1  0.407860  0.729220  0.170690  1.0  0.0541
  C  C76  1  0.403530  0.768380  0.092330  1.0  -0.1254
  C  C77  1  0.359770  0.638850  0.192930  1.0  -0.1354
  C  C78  1  0.152980  0.280800  0.536710  1.0  0.0294
  C  C79  1  0.268540  0.420480  0.501190  1.0  0.7109
  C  C80  1  0.194020  0.412140  0.636180  1.0  0.0425
  C  C81  1  0.134080  0.403940  0.777340  1.0  0.6661
  C  C82  1  0.202630  0.370620  0.558500  1.0  -0.1314
  C  C83  1  0.038690  0.138500  0.568180  1.0  0.729
  C  C84  1  0.092140  0.270780  0.670690  1.0  0.0532
  C  C85  1  0.096470  0.231620  0.592330  1.0  -0.1251
  C  C86  1  0.140230  0.361150  0.692930  1.0  -0.1354
  C  C87  1  0.652980  0.219200  0.463290  1.0  0.0301
  C  C88  1  0.768540  0.079520  0.498810  1.0  0.7111
  C  C89  1  0.694020  0.087860  0.363820  1.0  0.0428
  C  C90  1  0.634080  0.096060  0.222660  1.0  0.6648
  C  C91  1  0.702630  0.129380  0.441500  1.0  -0.1327
  C  C92  1  0.538690  0.361500  0.431820  1.0  0.7294
  C  C93  1  0.592140  0.229220  0.329310  1.0  0.0533
  C  C94  1  0.596470  0.268380  0.407670  1.0  -0.1248
  C  C95  1  0.640230  0.138850  0.307070  1.0  -0.1339
  C  C96  1  0.847020  0.780800  0.963290  1.0  0.0307
  C  C97  1  0.731460  0.920480  0.998810  1.0  0.7105
  C  C98  1  0.805980  0.912140  0.863820  1.0  0.0427
  C  C99  1  0.865920  0.903940  0.722660  1.0  0.6653
  C  C100  1  0.797370  0.870620  0.941500  1.0  -0.1325
  C  C101  1  0.961310  0.638500  0.931820  1.0  0.7274
  C  C102  1  0.907860  0.770780  0.829310  1.0  0.0544
  C  C103  1  0.903530  0.731620  0.907670  1.0  -0.1255
  C  C104  1  0.859770  0.861150  0.807070  1.0  -0.1337
  O  O105  1  0.791770  0.515800  0.988210  1.0  -0.5374
  O  O106  1  0.801540  0.365920  0.053580  1.0  -0.5498
  O  O107  1  0.592010  0.352450  0.670520  1.0  -0.5262
  O  O108  1  0.501450  0.085190  0.876350  1.0  -0.5657
  O  O109  1  0.527650  0.119210  0.005510  1.0  -0.6345
  O  O110  1  0.670590  0.491620  0.706150  1.0  -0.5419
  O  O111  1  0.708230  0.484200  0.488210  1.0  -0.5356
  O  O112  1  0.698460  0.634080  0.553580  1.0  -0.5503
  O  O113  1  0.907990  0.647550  0.170520  1.0  -0.5258
  O  O114  1  0.998550  0.914810  0.376350  1.0  -0.5652
  O  O115  1  0.972350  0.880790  0.505510  1.0  -0.6341
  O  O116  1  0.829410  0.508380  0.206150  1.0  -0.5407
  O  O117  1  0.208230  0.015800  0.511790  1.0  -0.5366
  O  O118  1  0.198460  0.865920  0.446420  1.0  -0.5502
  O  O119  1  0.407990  0.852450  0.829480  1.0  -0.526
  O  O120  1  0.498550  0.585190  0.623650  1.0  -0.5635
  O  O121  1  0.472350  0.619210  0.494490  1.0  -0.6347
  O  O122  1  0.329410  0.991620  0.793850  1.0  -0.5405
  O  O123  1  0.291770  0.984200  0.011790  1.0  -0.5358
  O  O124  1  0.301540  0.134080  0.946420  1.0  -0.5502
  O  O125  1  0.092010  0.147550  0.329480  1.0  -0.5259
  O  O126  1  0.001450  0.414810  0.123650  1.0  -0.5654
  O  O127  1  0.027650  0.380790  0.994490  1.0  -0.6352
  O  O128  1  0.170590  0.008380  0.293850  1.0  -0.5406
  O  O129  1  0.208230  0.484200  0.011790  1.0  -0.5357
  O  O130  1  0.198460  0.634080  0.946420  1.0  -0.5499
  O  O131  1  0.407990  0.647550  0.329480  1.0  -0.5257
  O  O132  1  0.498550  0.914810  0.123650  1.0  -0.5638
  O  O133  1  0.472350  0.880790  0.994490  1.0  -0.635
  O  O134  1  0.329410  0.508380  0.293850  1.0  -0.5409
  O  O135  1  0.291770  0.515800  0.511790  1.0  -0.5374
  O  O136  1  0.301540  0.365920  0.446420  1.0  -0.5504
  O  O137  1  0.092010  0.352450  0.829480  1.0  -0.5261
  O  O138  1  0.001450  0.085190  0.623650  1.0  -0.5652
  O  O139  1  0.027650  0.119210  0.494490  1.0  -0.6351
  O  O140  1  0.170590  0.491620  0.793850  1.0  -0.5418
  O  O141  1  0.791770  0.984200  0.488210  1.0  -0.5358
  O  O142  1  0.801540  0.134080  0.553580  1.0  -0.5503
  O  O143  1  0.592010  0.147550  0.170520  1.0  -0.5261
  O  O144  1  0.501450  0.414810  0.376350  1.0  -0.566
  O  O145  1  0.527650  0.380790  0.505510  1.0  -0.6346
  O  O146  1  0.670590  0.008380  0.206150  1.0  -0.5407
  O  O147  1  0.708230  0.015800  0.988210  1.0  -0.5366
  O  O148  1  0.698460  0.865920  0.053580  1.0  -0.55
  O  O149  1  0.907990  0.852450  0.670520  1.0  -0.5263
  O  O150  1  0.998550  0.585190  0.876350  1.0  -0.5648
  O  O151  1  0.972350  0.619210  0.005510  1.0  -0.6339
  O  O152  1  0.829410  0.991620  0.706150  1.0  -0.5399
