# generated using pymatgen
data_MnH3(C3O2)3
_symmetry_space_group_name_H-M   'P 1'
_cell_length_a   14.38470000
_cell_length_b   12.28880000
_cell_length_c   16.60290000
_cell_angle_alpha   90.00000000
_cell_angle_beta   90.00000000
_cell_angle_gamma   90.00000000
_symmetry_Int_Tables_number   1
_chemical_formula_structural   MnH3(C3O2)3
_chemical_formula_sum   'Mn8 H24 C72 O48'
_cell_volume   2934.90627761
_cell_formula_units_Z   8
loop_
 _symmetry_equiv_pos_site_id
 _symmetry_equiv_pos_as_xyz
  1  'x, y, z'
loop_
 _atom_site_type_symbol
 _atom_site_label
 _atom_site_symmetry_multiplicity
 _atom_site_fract_x
 _atom_site_fract_y
 _atom_site_fract_z
 _atom_site_occupancy
 _atom_site_charge
  Mn  Mn1  1  0.106890  0.477680  0.926150  1.0  1.0557
  Mn  Mn2  1  0.393110  0.522320  0.426150  1.0  1.056
  Mn  Mn3  1  0.893110  0.977680  0.573850  1.0  1.0562
  Mn  Mn4  1  0.606890  0.022320  0.073850  1.0  1.0566
  Mn  Mn5  1  0.893110  0.522320  0.073850  1.0  1.0542
  Mn  Mn6  1  0.606890  0.477680  0.573850  1.0  1.0541
  Mn  Mn7  1  0.106890  0.022320  0.426150  1.0  1.0535
  Mn  Mn8  1  0.393110  0.977680  0.926150  1.0  1.053
  H  H9  1  0.149700  0.257800  0.491200  1.0  0.1334
  H  H10  1  0.226400  0.471400  0.661500  1.0  0.1332
  H  H11  1  0.058900  0.222500  0.717400  1.0  0.1354
  H  H12  1  0.350300  0.742200  0.991200  1.0  0.1332
  H  H13  1  0.273600  0.528600  0.161500  1.0  0.1335
  H  H14  1  0.441100  0.777500  0.217400  1.0  0.1352
  H  H15  1  0.850300  0.757800  0.008800  1.0  0.1331
  H  H16  1  0.773600  0.971400  0.838500  1.0  0.1332
  H  H17  1  0.941100  0.722500  0.782600  1.0  0.1347
  H  H18  1  0.649700  0.242200  0.508800  1.0  0.1333
  H  H19  1  0.726400  0.028600  0.338500  1.0  0.1331
  H  H20  1  0.558900  0.277500  0.282600  1.0  0.1349
  H  H21  1  0.850300  0.742200  0.508800  1.0  0.1332
  H  H22  1  0.773600  0.528600  0.338500  1.0  0.1331
  H  H23  1  0.941100  0.777500  0.282600  1.0  0.1349
  H  H24  1  0.649700  0.257800  0.008800  1.0  0.1332
  H  H25  1  0.726400  0.471400  0.838500  1.0  0.133
  H  H26  1  0.558900  0.222500  0.782600  1.0  0.1347
  H  H27  1  0.149700  0.242200  0.991200  1.0  0.1332
  H  H28  1  0.226400  0.028600  0.161500  1.0  0.1334
  H  H29  1  0.058900  0.277500  0.217400  1.0  0.1353
  H  H30  1  0.350300  0.757800  0.491200  1.0  0.1333
  H  H31  1  0.273600  0.971400  0.661500  1.0  0.1335
  H  H32  1  0.441100  0.722500  0.717400  1.0  0.1353
  C  C33  1  0.148100  0.281600  0.544400  1.0  0.0183
  C  C34  1  0.265200  0.426600  0.509200  1.0  0.7262
  C  C35  1  0.195200  0.408300  0.646500  1.0  0.0579
  C  C36  1  0.140700  0.390500  0.788900  1.0  0.695
  C  C37  1  0.200500  0.372300  0.567000  1.0  -0.115
  C  C38  1  0.033600  0.133600  0.574200  1.0  0.7223
  C  C39  1  0.093400  0.260700  0.679400  1.0  0.0592
  C  C40  1  0.093200  0.226300  0.600300  1.0  -0.1201
  C  C41  1  0.144100  0.351500  0.703300  1.0  -0.1377
  C  C42  1  0.351900  0.718400  0.044400  1.0  0.018
  C  C43  1  0.234800  0.573400  0.009200  1.0  0.725
  C  C44  1  0.304800  0.591700  0.146500  1.0  0.0587
  C  C45  1  0.359300  0.609500  0.288900  1.0  0.6952
  C  C46  1  0.299500  0.627700  0.067000  1.0  -0.1156
  C  C47  1  0.466400  0.866400  0.074200  1.0  0.7209
  C  C48  1  0.406600  0.739300  0.179400  1.0  0.059
  C  C49  1  0.406800  0.773700  0.100300  1.0  -0.1206
  C  C50  1  0.355900  0.648500  0.203300  1.0  -0.1376
  C  C51  1  0.851900  0.781600  0.955600  1.0  0.0173
  C  C52  1  0.734800  0.926600  0.990800  1.0  0.725
  C  C53  1  0.804800  0.908300  0.853500  1.0  0.058
  C  C54  1  0.859300  0.890500  0.711100  1.0  0.695
  C  C55  1  0.799500  0.872300  0.933000  1.0  -0.1152
  C  C56  1  0.966400  0.633600  0.925800  1.0  0.7208
  C  C57  1  0.906600  0.760700  0.820600  1.0  0.0595
  C  C58  1  0.906800  0.726300  0.899700  1.0  -0.1205
  C  C59  1  0.855900  0.851500  0.796700  1.0  -0.138
  C  C60  1  0.648100  0.218400  0.455600  1.0  0.0182
  C  C61  1  0.765200  0.073400  0.490800  1.0  0.7261
  C  C62  1  0.695200  0.091700  0.353500  1.0  0.0587
  C  C63  1  0.640700  0.109500  0.211100  1.0  0.6949
  C  C64  1  0.700500  0.127700  0.433000  1.0  -0.1155
  C  C65  1  0.533600  0.366400  0.425800  1.0  0.7232
  C  C66  1  0.593400  0.239300  0.320600  1.0  0.0594
  C  C67  1  0.593200  0.273700  0.399700  1.0  -0.1201
  C  C68  1  0.644100  0.148500  0.296700  1.0  -0.1388
  C  C69  1  0.851900  0.718400  0.455600  1.0  0.0177
  C  C70  1  0.734800  0.573400  0.490800  1.0  0.7247
  C  C71  1  0.804800  0.591700  0.353500  1.0  0.0585
  C  C72  1  0.859300  0.609500  0.211100  1.0  0.695
  C  C73  1  0.799500  0.627700  0.433000  1.0  -0.1155
  C  C74  1  0.966400  0.866400  0.425800  1.0  0.7214
  C  C75  1  0.906600  0.739300  0.320600  1.0  0.0591
  C  C76  1  0.906800  0.773700  0.399700  1.0  -0.1208
  C  C77  1  0.855900  0.648500  0.296700  1.0  -0.1386
  C  C78  1  0.648100  0.281600  0.955600  1.0  0.0178
  C  C79  1  0.765200  0.426600  0.990800  1.0  0.7263
  C  C80  1  0.695200  0.408300  0.853500  1.0  0.0581
  C  C81  1  0.640700  0.390500  0.711100  1.0  0.6949
  C  C82  1  0.700500  0.372300  0.933000  1.0  -0.1155
  C  C83  1  0.533600  0.133600  0.925800  1.0  0.723
  C  C84  1  0.593400  0.260700  0.820600  1.0  0.0596
  C  C85  1  0.593200  0.226300  0.899700  1.0  -0.1199
  C  C86  1  0.644100  0.351500  0.796700  1.0  -0.1381
  C  C87  1  0.148100  0.218400  0.044400  1.0  0.0184
  C  C88  1  0.265200  0.073400  0.009200  1.0  0.7258
  C  C89  1  0.195200  0.091700  0.146500  1.0  0.0588
  C  C90  1  0.140700  0.109500  0.288900  1.0  0.6951
  C  C91  1  0.200500  0.127700  0.067000  1.0  -0.1154
  C  C92  1  0.033600  0.366400  0.074200  1.0  0.7227
  C  C93  1  0.093400  0.239300  0.179400  1.0  0.0588
  C  C94  1  0.093200  0.273700  0.100300  1.0  -0.1202
  C  C95  1  0.144100  0.148500  0.203300  1.0  -0.1376
  C  C96  1  0.351900  0.781600  0.544400  1.0  0.0178
  C  C97  1  0.234800  0.926600  0.509200  1.0  0.7253
  C  C98  1  0.304800  0.908300  0.646500  1.0  0.058
  C  C99  1  0.359300  0.890500  0.788900  1.0  0.695
  C  C100  1  0.299500  0.872300  0.567000  1.0  -0.1148
  C  C101  1  0.466400  0.633600  0.574200  1.0  0.7202
  C  C102  1  0.406600  0.760700  0.679400  1.0  0.0596
  C  C103  1  0.406800  0.726300  0.600300  1.0  -0.1203
  C  C104  1  0.355900  0.851500  0.703300  1.0  -0.1377
  O  O105  1  0.290300  0.522500  0.522500  1.0  -0.5432
  O  O106  1  0.295800  0.374000  0.450900  1.0  -0.5648
  O  O107  1  0.098500  0.334600  0.841100  1.0  -0.5287
  O  O108  1  0.999400  0.074000  0.629100  1.0  -0.568
  O  O109  1  0.017000  0.119300  0.500700  1.0  -0.6106
  O  O110  1  0.179400  0.478200  0.806200  1.0  -0.5479
  O  O111  1  0.209700  0.477500  0.022500  1.0  -0.5413
  O  O112  1  0.204200  0.626000  0.950900  1.0  -0.5643
  O  O113  1  0.401500  0.665400  0.341100  1.0  -0.5278
  O  O114  1  0.500600  0.926000  0.129100  1.0  -0.5675
  O  O115  1  0.483000  0.880700  0.000700  1.0  -0.6107
  O  O116  1  0.320600  0.521800  0.306200  1.0  -0.5459
  O  O117  1  0.709700  0.022500  0.977500  1.0  -0.5417
  O  O118  1  0.704200  0.874000  0.049100  1.0  -0.564
  O  O119  1  0.901500  0.834600  0.658900  1.0  -0.5299
  O  O120  1  0.000600  0.574000  0.870900  1.0  -0.5678
  O  O121  1  0.983000  0.619300  0.999300  1.0  -0.6109
  O  O122  1  0.820600  0.978200  0.693800  1.0  -0.5461
  O  O123  1  0.790300  0.977500  0.477500  1.0  -0.5423
  O  O124  1  0.795800  0.126000  0.549100  1.0  -0.5629
  O  O125  1  0.598500  0.165400  0.158900  1.0  -0.5289
  O  O126  1  0.499400  0.426000  0.370900  1.0  -0.5685
  O  O127  1  0.517000  0.380700  0.499300  1.0  -0.6115
  O  O128  1  0.679400  0.021800  0.193800  1.0  -0.5458
  O  O129  1  0.709700  0.477500  0.477500  1.0  -0.5415
  O  O130  1  0.704200  0.626000  0.549100  1.0  -0.5634
  O  O131  1  0.901500  0.665400  0.158900  1.0  -0.5294
  O  O132  1  0.000600  0.926000  0.370900  1.0  -0.5682
  O  O133  1  0.983000  0.880700  0.499300  1.0  -0.6111
  O  O134  1  0.820600  0.521800  0.193800  1.0  -0.5461
  O  O135  1  0.790300  0.522500  0.977500  1.0  -0.5431
  O  O136  1  0.795800  0.374000  0.049100  1.0  -0.5631
  O  O137  1  0.598500  0.334600  0.658900  1.0  -0.5299
  O  O138  1  0.499400  0.074000  0.870900  1.0  -0.5686
  O  O139  1  0.517000  0.119300  0.999300  1.0  -0.6116
  O  O140  1  0.679400  0.478200  0.693800  1.0  -0.5467
  O  O141  1  0.290300  0.977500  0.022500  1.0  -0.5421
  O  O142  1  0.295800  0.126000  0.950900  1.0  -0.564
  O  O143  1  0.098500  0.165400  0.341100  1.0  -0.5286
  O  O144  1  0.999400  0.426000  0.129100  1.0  -0.5684
  O  O145  1  0.017000  0.380700  0.000700  1.0  -0.6112
  O  O146  1  0.179400  0.021800  0.306200  1.0  -0.5461
  O  O147  1  0.209700  0.022500  0.522500  1.0  -0.5419
  O  O148  1  0.204200  0.874000  0.450900  1.0  -0.5657
  O  O149  1  0.401500  0.834600  0.841100  1.0  -0.5293
  O  O150  1  0.500600  0.574000  0.629100  1.0  -0.5675
  O  O151  1  0.483000  0.619300  0.500700  1.0  -0.61
  O  O152  1  0.320600  0.978200  0.806200  1.0  -0.5471
