# generated using pymatgen
data_Mn(C3O2)3
_symmetry_space_group_name_H-M   'P 1'
_cell_length_a   15.04010000
_cell_length_b   12.53660000
_cell_length_c   16.53200000
_cell_angle_alpha   90.00000000
_cell_angle_beta   90.00000000
_cell_angle_gamma   90.00000000
_symmetry_Int_Tables_number   1
_chemical_formula_structural   Mn(C3O2)3
_chemical_formula_sum   'Mn8 C72 O48'
_cell_volume   3117.13699636
_cell_formula_units_Z   8
loop_
 _symmetry_equiv_pos_site_id
 _symmetry_equiv_pos_as_xyz
  1  'x, y, z'
loop_
 _atom_site_type_symbol
 _atom_site_label
 _atom_site_symmetry_multiplicity
 _atom_site_fract_x
 _atom_site_fract_y
 _atom_site_fract_z
 _atom_site_occupancy
 _atom_site_charge
  Mn  Mn1  1  0.603800  0.487180  0.583500  1.0  1.1567
  Mn  Mn2  1  0.896200  0.512820  0.083500  1.0  1.1577
  Mn  Mn3  1  0.396200  0.987180  0.916500  1.0  1.1578
  Mn  Mn4  1  0.103800  0.012820  0.416500  1.0  1.1572
  Mn  Mn5  1  0.396200  0.512820  0.416500  1.0  1.1578
  Mn  Mn6  1  0.103800  0.487180  0.916500  1.0  1.1555
  Mn  Mn7  1  0.603800  0.012820  0.083500  1.0  1.1567
  Mn  Mn8  1  0.896200  0.987180  0.583500  1.0  1.1578
  C  C9  1  0.633300  0.405300  0.724600  1.0  0.7068
  C  C10  1  0.639500  0.363400  0.809800  1.0  -0.1029
  C  C11  1  0.591500  0.272900  0.832600  1.0  0.0803
  C  C12  1  0.693400  0.412500  0.867100  1.0  0.0838
  C  C13  1  0.596300  0.232300  0.910600  1.0  -0.0599
  C  C14  1  0.701800  0.369800  0.944400  1.0  -0.0734
  C  C15  1  0.538800  0.139800  0.933800  1.0  0.6453
  C  C16  1  0.652300  0.280700  0.965500  1.0  0.0909
  C  C17  1  0.768800  0.420400  0.001900  1.0  0.7042
  C  C18  1  0.866700  0.594700  0.224600  1.0  0.7066
  C  C19  1  0.860500  0.636600  0.309800  1.0  -0.1027
  C  C20  1  0.908500  0.727100  0.332600  1.0  0.0809
  C  C21  1  0.806600  0.587500  0.367100  1.0  0.083
  C  C22  1  0.903700  0.767700  0.410600  1.0  -0.0597
  C  C23  1  0.798200  0.630200  0.444400  1.0  -0.0735
  C  C24  1  0.961200  0.860200  0.433800  1.0  0.6467
  C  C25  1  0.847700  0.719300  0.465500  1.0  0.091
  C  C26  1  0.731200  0.579600  0.501900  1.0  0.7041
  C  C27  1  0.366700  0.905300  0.775400  1.0  0.7067
  C  C28  1  0.360500  0.863400  0.690200  1.0  -0.1036
  C  C29  1  0.408500  0.772900  0.667400  1.0  0.0783
  C  C30  1  0.306600  0.912500  0.632900  1.0  0.0845
  C  C31  1  0.403700  0.732300  0.589400  1.0  -0.0597
  C  C32  1  0.298200  0.869800  0.555600  1.0  -0.0747
  C  C33  1  0.461200  0.639800  0.566200  1.0  0.6466
  C  C34  1  0.347700  0.780700  0.534500  1.0  0.0902
  C  C35  1  0.231200  0.920400  0.498100  1.0  0.7028
  C  C36  1  0.133300  0.094700  0.275400  1.0  0.7073
  C  C37  1  0.139500  0.136600  0.190200  1.0  -0.1034
  C  C38  1  0.091500  0.227100  0.167400  1.0  0.0802
  C  C39  1  0.193400  0.087500  0.132900  1.0  0.0841
  C  C40  1  0.096300  0.267700  0.089400  1.0  -0.0601
  C  C41  1  0.201800  0.130200  0.055600  1.0  -0.075
  C  C42  1  0.038800  0.360200  0.066200  1.0  0.6453
  C  C43  1  0.152300  0.219300  0.034500  1.0  0.0909
  C  C44  1  0.268800  0.079600  0.998100  1.0  0.704
  C  C45  1  0.366700  0.594700  0.275400  1.0  0.7069
  C  C46  1  0.360500  0.636600  0.190200  1.0  -0.1033
  C  C47  1  0.408500  0.727100  0.167400  1.0  0.0782
  C  C48  1  0.306600  0.587500  0.132900  1.0  0.0838
  C  C49  1  0.403700  0.767700  0.089400  1.0  -0.0596
  C  C50  1  0.298200  0.630200  0.055600  1.0  -0.0743
  C  C51  1  0.461200  0.860200  0.066200  1.0  0.6469
  C  C52  1  0.347700  0.719300  0.034500  1.0  0.0905
  C  C53  1  0.231200  0.579600  0.998100  1.0  0.7033
  C  C54  1  0.133300  0.405300  0.775400  1.0  0.7071
  C  C55  1  0.139500  0.363400  0.690200  1.0  -0.1037
  C  C56  1  0.091500  0.272900  0.667400  1.0  0.0805
  C  C57  1  0.193400  0.412500  0.632900  1.0  0.0836
  C  C58  1  0.096300  0.232300  0.589400  1.0  -0.0601
  C  C59  1  0.201800  0.369800  0.555600  1.0  -0.0744
  C  C60  1  0.038800  0.139800  0.566200  1.0  0.6455
  C  C61  1  0.152300  0.280700  0.534500  1.0  0.0905
  C  C62  1  0.268800  0.420400  0.498100  1.0  0.7038
  C  C63  1  0.633300  0.094700  0.224600  1.0  0.7069
  C  C64  1  0.639500  0.136600  0.309800  1.0  -0.1028
  C  C65  1  0.591500  0.227100  0.332600  1.0  0.0795
  C  C66  1  0.693400  0.087500  0.367100  1.0  0.0834
  C  C67  1  0.596300  0.267700  0.410600  1.0  -0.0599
  C  C68  1  0.701800  0.130200  0.444400  1.0  -0.0736
  C  C69  1  0.538800  0.360200  0.433800  1.0  0.6452
  C  C70  1  0.652300  0.219300  0.465500  1.0  0.0911
  C  C71  1  0.768800  0.079600  0.501900  1.0  0.7043
  C  C72  1  0.866700  0.905300  0.724600  1.0  0.7064
  C  C73  1  0.860500  0.863400  0.809800  1.0  -0.1028
  C  C74  1  0.908500  0.772900  0.832600  1.0  0.0818
  C  C75  1  0.806600  0.912500  0.867100  1.0  0.0847
  C  C76  1  0.903700  0.732300  0.910600  1.0  -0.0597
  C  C77  1  0.798200  0.869800  0.944400  1.0  -0.0739
  C  C78  1  0.961200  0.639800  0.933800  1.0  0.6464
  C  C79  1  0.847700  0.780700  0.965500  1.0  0.0908
  C  C80  1  0.731200  0.920400  0.001900  1.0  0.7038
  O  O81  1  0.592800  0.355400  0.673400  1.0  -0.5036
  O  O82  1  0.668000  0.493300  0.709700  1.0  -0.5291
  O  O83  1  0.528700  0.380800  0.507900  1.0  -0.6006
  O  O84  1  0.499900  0.589200  0.621650  1.0  -0.5253
  O  O85  1  0.699800  0.635400  0.556900  1.0  -0.5699
  O  O86  1  0.706900  0.488800  0.490600  1.0  -0.5025
  O  O87  1  0.907200  0.644600  0.173400  1.0  -0.5033
  O  O88  1  0.832000  0.506700  0.209700  1.0  -0.5307
  O  O89  1  0.971300  0.619200  0.007900  1.0  -0.6005
  O  O90  1  0.000100  0.410800  0.121650  1.0  -0.5257
  O  O91  1  0.800200  0.364600  0.056900  1.0  -0.5683
  O  O92  1  0.793100  0.511200  0.990600  1.0  -0.5039
  O  O93  1  0.407200  0.855400  0.826600  1.0  -0.5022
  O  O94  1  0.332000  0.993300  0.790300  1.0  -0.527
  O  O95  1  0.471300  0.880800  0.992100  1.0  -0.6018
  O  O96  1  0.500100  0.089200  0.878350  1.0  -0.5278
  O  O97  1  0.300200  0.135400  0.943100  1.0  -0.5689
  O  O98  1  0.293100  0.988800  0.009400  1.0  -0.5033
  O  O99  1  0.092800  0.144600  0.326600  1.0  -0.5036
  O  O100  1  0.168000  0.006700  0.290300  1.0  -0.5265
  O  O101  1  0.028700  0.119200  0.492100  1.0  -0.602
  O  O102  1  0.999900  0.910800  0.378350  1.0  -0.5284
  O  O103  1  0.199800  0.864600  0.443100  1.0  -0.5689
  O  O104  1  0.206900  0.011200  0.509400  1.0  -0.5018
  O  O105  1  0.407200  0.644600  0.326600  1.0  -0.5029
  O  O106  1  0.332000  0.506700  0.290300  1.0  -0.5274
  O  O107  1  0.471300  0.619200  0.492100  1.0  -0.6015
  O  O108  1  0.500100  0.410800  0.378350  1.0  -0.5285
  O  O109  1  0.300200  0.364600  0.443100  1.0  -0.5686
  O  O110  1  0.293100  0.511200  0.509400  1.0  -0.5038
  O  O111  1  0.092800  0.355400  0.826600  1.0  -0.5024
  O  O112  1  0.168000  0.493300  0.790300  1.0  -0.5265
  O  O113  1  0.028700  0.380800  0.992100  1.0  -0.602
  O  O114  1  0.999900  0.589200  0.878350  1.0  -0.5282
  O  O115  1  0.199800  0.635400  0.943100  1.0  -0.5689
  O  O116  1  0.206900  0.488800  0.009400  1.0  -0.5026
  O  O117  1  0.592800  0.144600  0.173400  1.0  -0.5042
  O  O118  1  0.668000  0.006700  0.209700  1.0  -0.5291
  O  O119  1  0.528700  0.119200  0.007900  1.0  -0.6016
  O  O120  1  0.499900  0.910800  0.121650  1.0  -0.5257
  O  O121  1  0.699800  0.864600  0.056900  1.0  -0.5689
  O  O122  1  0.706900  0.011200  0.990600  1.0  -0.5018
  O  O123  1  0.907200  0.855400  0.673400  1.0  -0.5024
  O  O124  1  0.832000  0.993300  0.709700  1.0  -0.5289
  O  O125  1  0.971300  0.880800  0.507900  1.0  -0.6
  O  O126  1  0.000100  0.089200  0.621650  1.0  -0.5258
  O  O127  1  0.800200  0.135400  0.556900  1.0  -0.5696
  O  O128  1  0.793100  0.988800  0.490600  1.0  -0.5035
