# generated using pymatgen
data_Mn(C3O2)3
_symmetry_space_group_name_H-M   'P 1'
_cell_length_a   14.66660000
_cell_length_b   12.39500000
_cell_length_c   16.63510000
_cell_angle_alpha   90.00000000
_cell_angle_beta   90.00000000
_cell_angle_gamma   90.00000000
_symmetry_Int_Tables_number   1
_chemical_formula_structural   Mn(C3O2)3
_chemical_formula_sum   'Mn8 C72 O48'
_cell_volume   3024.13653320
_cell_formula_units_Z   8
loop_
 _symmetry_equiv_pos_site_id
 _symmetry_equiv_pos_as_xyz
  1  'x, y, z'
loop_
 _atom_site_type_symbol
 _atom_site_label
 _atom_site_symmetry_multiplicity
 _atom_site_fract_x
 _atom_site_fract_y
 _atom_site_fract_z
 _atom_site_occupancy
 _atom_site_charge
  Mn  Mn1  1  0.605210  0.482110  0.578580  1.0  1.1499
  Mn  Mn2  1  0.894790  0.517890  0.078580  1.0  1.1493
  Mn  Mn3  1  0.394790  0.982110  0.921420  1.0  1.1508
  Mn  Mn4  1  0.105210  0.017890  0.421420  1.0  1.1499
  Mn  Mn5  1  0.394790  0.517890  0.421420  1.0  1.1509
  Mn  Mn6  1  0.105210  0.482110  0.921420  1.0  1.1496
  Mn  Mn7  1  0.605210  0.017890  0.078580  1.0  1.1503
  Mn  Mn8  1  0.894790  0.982110  0.578580  1.0  1.149
  C  C9  1  0.637270  0.399290  0.718070  1.0  0.678
  C  C10  1  0.642370  0.358060  0.802710  1.0  -0.0716
  C  C11  1  0.695620  0.411300  0.859500  1.0  0.0954
  C  C12  1  0.593130  0.267010  0.825320  1.0  0.0847
  C  C13  1  0.702870  0.371410  0.937580  1.0  -0.0822
  C  C14  1  0.596080  0.229660  0.904290  1.0  -0.0718
  C  C15  1  0.652380  0.280920  0.959740  1.0  0.0835
  C  C16  1  0.768420  0.423280  0.995260  1.0  0.6985
  C  C17  1  0.537160  0.136150  0.928660  1.0  0.6598
  C  C18  1  0.862730  0.600710  0.218070  1.0  0.6779
  C  C19  1  0.857630  0.641940  0.302710  1.0  -0.0711
  C  C20  1  0.804380  0.588700  0.359500  1.0  0.0914
  C  C21  1  0.906870  0.732990  0.325320  1.0  0.0844
  C  C22  1  0.797130  0.628590  0.437580  1.0  -0.0805
  C  C23  1  0.903920  0.770340  0.404290  1.0  -0.0718
  C  C24  1  0.847620  0.719080  0.459740  1.0  0.0844
  C  C25  1  0.731580  0.576720  0.495260  1.0  0.6989
  C  C26  1  0.962840  0.863850  0.428660  1.0  0.6592
  C  C27  1  0.362730  0.899290  0.781930  1.0  0.6794
  C  C28  1  0.357630  0.858060  0.697290  1.0  -0.071
  C  C29  1  0.304380  0.911300  0.640500  1.0  0.0942
  C  C30  1  0.406870  0.767010  0.674680  1.0  0.0856
  C  C31  1  0.297130  0.871410  0.562420  1.0  -0.0812
  C  C32  1  0.403920  0.729660  0.595710  1.0  -0.0721
  C  C33  1  0.347620  0.780920  0.540260  1.0  0.0858
  C  C34  1  0.231580  0.923280  0.504740  1.0  0.6985
  C  C35  1  0.462840  0.636150  0.571340  1.0  0.6595
  C  C36  1  0.137270  0.100710  0.281930  1.0  0.6793
  C  C37  1  0.142370  0.141940  0.197290  1.0  -0.0711
  C  C38  1  0.195620  0.088700  0.140500  1.0  0.0942
  C  C39  1  0.093130  0.232990  0.174680  1.0  0.0867
  C  C40  1  0.202870  0.128590  0.062420  1.0  -0.0827
  C  C41  1  0.096080  0.270340  0.095710  1.0  -0.0718
  C  C42  1  0.152380  0.219080  0.040260  1.0  0.0851
  C  C43  1  0.268420  0.076720  0.004740  1.0  0.6983
  C  C44  1  0.037160  0.363850  0.071340  1.0  0.6588
  C  C45  1  0.362730  0.600710  0.281930  1.0  0.6793
  C  C46  1  0.357630  0.641940  0.197290  1.0  -0.0708
  C  C47  1  0.304380  0.588700  0.140500  1.0  0.0919
  C  C48  1  0.406870  0.732990  0.174680  1.0  0.0858
  C  C49  1  0.297130  0.628590  0.062420  1.0  -0.0811
  C  C50  1  0.403920  0.770340  0.095710  1.0  -0.072
  C  C51  1  0.347620  0.719080  0.040260  1.0  0.0858
  C  C52  1  0.231580  0.576720  0.004740  1.0  0.6986
  C  C53  1  0.462840  0.863850  0.071340  1.0  0.6593
  C  C54  1  0.137270  0.399290  0.781930  1.0  0.6794
  C  C55  1  0.142370  0.358060  0.697290  1.0  -0.0713
  C  C56  1  0.195620  0.411300  0.640500  1.0  0.0958
  C  C57  1  0.093130  0.267010  0.674680  1.0  0.0863
  C  C58  1  0.202870  0.371410  0.562420  1.0  -0.0827
  C  C59  1  0.096080  0.229660  0.595710  1.0  -0.072
  C  C60  1  0.152380  0.280920  0.540260  1.0  0.085
  C  C61  1  0.268420  0.423280  0.504740  1.0  0.6983
  C  C62  1  0.037160  0.136150  0.571340  1.0  0.6597
  C  C63  1  0.637270  0.100710  0.218070  1.0  0.6779
  C  C64  1  0.642370  0.141940  0.302710  1.0  -0.0714
  C  C65  1  0.695620  0.088700  0.359500  1.0  0.0937
  C  C66  1  0.593130  0.232990  0.325320  1.0  0.0849
  C  C67  1  0.702870  0.128590  0.437580  1.0  -0.0822
  C  C68  1  0.596080  0.270340  0.404290  1.0  -0.0715
  C  C69  1  0.652380  0.219080  0.459740  1.0  0.0836
  C  C70  1  0.768420  0.076720  0.495260  1.0  0.6985
  C  C71  1  0.537160  0.363850  0.428660  1.0  0.6594
  C  C72  1  0.862730  0.899290  0.718070  1.0  0.678
  C  C73  1  0.857630  0.858060  0.802710  1.0  -0.0713
  C  C74  1  0.804380  0.911300  0.859500  1.0  0.094
  C  C75  1  0.906870  0.767010  0.825320  1.0  0.0844
  C  C76  1  0.797130  0.871410  0.937580  1.0  -0.0806
  C  C77  1  0.903920  0.729660  0.904290  1.0  -0.0719
  C  C78  1  0.847620  0.780920  0.959740  1.0  0.0845
  C  C79  1  0.731580  0.923280  0.995260  1.0  0.6988
  C  C80  1  0.962840  0.636150  0.928660  1.0  0.6602
  O  O81  1  0.594550  0.345960  0.665850  1.0  -0.5583
  O  O82  1  0.674860  0.487980  0.701280  1.0  -0.5336
  O  O83  1  0.709050  0.479370  0.484120  1.0  -0.4988
  O  O84  1  0.698720  0.631140  0.551410  1.0  -0.5185
  O  O85  1  0.498600  0.579870  0.626310  1.0  -0.5144
  O  O86  1  0.523260  0.380120  0.502530  1.0  -0.6014
  O  O87  1  0.905450  0.654040  0.165850  1.0  -0.56
  O  O88  1  0.825140  0.512020  0.201280  1.0  -0.5349
  O  O89  1  0.790950  0.520630  0.984120  1.0  -0.4983
  O  O90  1  0.801280  0.368860  0.051410  1.0  -0.52
  O  O91  1  0.001400  0.420130  0.126310  1.0  -0.5133
  O  O92  1  0.976740  0.619880  0.002530  1.0  -0.601
  O  O93  1  0.405450  0.845960  0.834150  1.0  -0.5576
  O  O94  1  0.325140  0.987980  0.798720  1.0  -0.5358
  O  O95  1  0.290950  0.979370  0.015880  1.0  -0.4998
  O  O96  1  0.301280  0.131140  0.948590  1.0  -0.5189
  O  O97  1  0.501400  0.079870  0.873690  1.0  -0.5135
  O  O98  1  0.476740  0.880120  0.997470  1.0  -0.6024
  O  O99  1  0.094550  0.154040  0.334150  1.0  -0.5589
  O  O100  1  0.174860  0.012020  0.298720  1.0  -0.5346
  O  O101  1  0.209050  0.020630  0.515880  1.0  -0.497
  O  O102  1  0.198720  0.868860  0.448590  1.0  -0.5171
  O  O103  1  0.998600  0.920130  0.373690  1.0  -0.5144
  O  O104  1  0.023260  0.119880  0.497470  1.0  -0.6014
  O  O105  1  0.405450  0.654040  0.334150  1.0  -0.5583
  O  O106  1  0.325140  0.512020  0.298720  1.0  -0.5357
  O  O107  1  0.290950  0.520630  0.515880  1.0  -0.4985
  O  O108  1  0.301280  0.368860  0.448590  1.0  -0.5192
  O  O109  1  0.501400  0.420130  0.373690  1.0  -0.5135
  O  O110  1  0.476740  0.619880  0.497470  1.0  -0.6014
  O  O111  1  0.094550  0.345960  0.834150  1.0  -0.5577
  O  O112  1  0.174860  0.487980  0.798720  1.0  -0.5343
  O  O113  1  0.209050  0.479370  0.015880  1.0  -0.4992
  O  O114  1  0.198720  0.631140  0.948590  1.0  -0.5163
  O  O115  1  0.998600  0.579870  0.873690  1.0  -0.5145
  O  O116  1  0.023260  0.380120  0.997470  1.0  -0.6024
  O  O117  1  0.594550  0.154040  0.165850  1.0  -0.5601
  O  O118  1  0.674860  0.012020  0.201280  1.0  -0.534
  O  O119  1  0.709050  0.020630  0.984120  1.0  -0.4966
  O  O120  1  0.698720  0.868860  0.051410  1.0  -0.5185
  O  O121  1  0.498600  0.920130  0.126310  1.0  -0.5141
  O  O122  1  0.523260  0.119880  0.002530  1.0  -0.6014
  O  O123  1  0.905450  0.845960  0.665850  1.0  -0.5584
  O  O124  1  0.825140  0.987980  0.701280  1.0  -0.535
  O  O125  1  0.790950  0.979370  0.484120  1.0  -0.4996
  O  O126  1  0.801280  0.131140  0.551410  1.0  -0.5201
  O  O127  1  0.001400  0.079870  0.626310  1.0  -0.5135
  O  O128  1  0.976740  0.880120  0.502530  1.0  -0.601
