# generated using pymatgen
data_MnH3(C3O2)3
_symmetry_space_group_name_H-M   'P 1'
_cell_length_a   14.64520000
_cell_length_b   12.36720000
_cell_length_c   16.66480000
_cell_angle_alpha   90.00000000
_cell_angle_beta   90.00000000
_cell_angle_gamma   90.00000000
_symmetry_Int_Tables_number   1
_chemical_formula_structural   MnH3(C3O2)3
_chemical_formula_sum   'Mn8 H24 C72 O48'
_cell_volume   3018.33053311
_cell_formula_units_Z   8
loop_
 _symmetry_equiv_pos_site_id
 _symmetry_equiv_pos_as_xyz
  1  'x, y, z'
loop_
 _atom_site_type_symbol
 _atom_site_label
 _atom_site_symmetry_multiplicity
 _atom_site_fract_x
 _atom_site_fract_y
 _atom_site_fract_z
 _atom_site_occupancy
 _atom_site_charge
  Mn  Mn1  1  0.605170  0.481400  0.578340  1.0  1.0902
  Mn  Mn2  1  0.894830  0.518600  0.078340  1.0  1.0887
  Mn  Mn3  1  0.394830  0.981400  0.921660  1.0  1.0889
  Mn  Mn4  1  0.105170  0.018600  0.421660  1.0  1.0904
  Mn  Mn5  1  0.394830  0.518600  0.421660  1.0  1.0869
  Mn  Mn6  1  0.105170  0.481400  0.921660  1.0  1.088
  Mn  Mn7  1  0.605170  0.018600  0.078340  1.0  1.0883
  Mn  Mn8  1  0.894830  0.981400  0.578340  1.0  1.0885
  H  H9  1  0.655800  0.255400  0.012700  1.0  0.1332
  H  H10  1  0.557100  0.229900  0.787000  1.0  0.1322
  H  H11  1  0.727400  0.476100  0.844600  1.0  0.1374
  H  H12  1  0.844200  0.744600  0.512700  1.0  0.1331
  H  H13  1  0.942900  0.770100  0.287000  1.0  0.132
  H  H14  1  0.772600  0.523900  0.344600  1.0  0.1374
  H  H15  1  0.344200  0.755400  0.487300  1.0  0.1335
  H  H16  1  0.442900  0.729900  0.713000  1.0  0.1319
  H  H17  1  0.272600  0.976100  0.655400  1.0  0.1378
  H  H18  1  0.155800  0.244600  0.987300  1.0  0.1332
  H  H19  1  0.057100  0.270100  0.213000  1.0  0.132
  H  H20  1  0.227400  0.023900  0.155400  1.0  0.1377
  H  H21  1  0.344200  0.744600  0.987300  1.0  0.1334
  H  H22  1  0.442900  0.770100  0.213000  1.0  0.1317
  H  H23  1  0.272600  0.523900  0.155400  1.0  0.1378
  H  H24  1  0.155800  0.255400  0.487300  1.0  0.1335
  H  H25  1  0.057100  0.229900  0.713000  1.0  0.1323
  H  H26  1  0.227400  0.476100  0.655400  1.0  0.1374
  H  H27  1  0.655800  0.244600  0.512700  1.0  0.1331
  H  H28  1  0.557100  0.270100  0.287000  1.0  0.1323
  H  H29  1  0.727400  0.023900  0.344600  1.0  0.1375
  H  H30  1  0.844200  0.755400  0.012700  1.0  0.1334
  H  H31  1  0.942900  0.729900  0.787000  1.0  0.132
  H  H32  1  0.772600  0.976100  0.844600  1.0  0.1377
  C  C33  1  0.768600  0.426300  0.994520  1.0  0.7107
  C  C34  1  0.638420  0.397600  0.716560  1.0  0.6802
  C  C35  1  0.642700  0.358200  0.802390  1.0  -0.1285
  C  C36  1  0.537000  0.136600  0.928690  1.0  0.7252
  C  C37  1  0.652200  0.281600  0.959250  1.0  -0.0092
  C  C38  1  0.596300  0.229700  0.903950  1.0  -0.1145
  C  C39  1  0.703000  0.371900  0.936760  1.0  -0.1055
  C  C40  1  0.593300  0.267000  0.825460  1.0  0.0538
  C  C41  1  0.695900  0.411900  0.859110  1.0  0.0469
  C  C42  1  0.731400  0.573700  0.494520  1.0  0.7096
  C  C43  1  0.861580  0.602400  0.216560  1.0  0.6804
  C  C44  1  0.857300  0.641800  0.302390  1.0  -0.1295
  C  C45  1  0.963000  0.863400  0.428690  1.0  0.7236
  C  C46  1  0.847800  0.718400  0.459250  1.0  -0.0085
  C  C47  1  0.903700  0.770300  0.403950  1.0  -0.1151
  C  C48  1  0.797000  0.628100  0.436760  1.0  -0.1058
  C  C49  1  0.906700  0.733000  0.325460  1.0  0.0535
  C  C50  1  0.804100  0.588100  0.359110  1.0  0.0465
  C  C51  1  0.231400  0.926300  0.505480  1.0  0.7101
  C  C52  1  0.361580  0.897600  0.783440  1.0  0.6799
  C  C53  1  0.357300  0.858200  0.697610  1.0  -0.1301
  C  C54  1  0.463000  0.636600  0.571310  1.0  0.7232
  C  C55  1  0.347800  0.781600  0.540750  1.0  -0.0081
  C  C56  1  0.403700  0.729700  0.596050  1.0  -0.1151
  C  C57  1  0.297000  0.871900  0.563240  1.0  -0.1052
  C  C58  1  0.406700  0.767000  0.674540  1.0  0.0536
  C  C59  1  0.304100  0.911900  0.640890  1.0  0.0458
  C  C60  1  0.268600  0.073700  0.005480  1.0  0.7104
  C  C61  1  0.138420  0.102400  0.283440  1.0  0.6799
  C  C62  1  0.142700  0.141800  0.197610  1.0  -0.129
  C  C63  1  0.037000  0.363400  0.071310  1.0  0.7249
  C  C64  1  0.152200  0.218400  0.040750  1.0  -0.0083
  C  C65  1  0.096300  0.270300  0.096050  1.0  -0.1144
  C  C66  1  0.203000  0.128100  0.063240  1.0  -0.1054
  C  C67  1  0.093300  0.233000  0.174540  1.0  0.0532
  C  C68  1  0.195900  0.088100  0.140890  1.0  0.0472
  C  C69  1  0.231400  0.573700  0.005480  1.0  0.7097
  C  C70  1  0.361580  0.602400  0.283440  1.0  0.6802
  C  C71  1  0.357300  0.641800  0.197610  1.0  -0.1296
  C  C72  1  0.463000  0.863400  0.071310  1.0  0.7234
  C  C73  1  0.347800  0.718400  0.040750  1.0  -0.008
  C  C74  1  0.403700  0.770300  0.096050  1.0  -0.115
  C  C75  1  0.297000  0.628100  0.063240  1.0  -0.1059
  C  C76  1  0.406700  0.733000  0.174540  1.0  0.0533
  C  C77  1  0.304100  0.588100  0.140890  1.0  0.0467
  C  C78  1  0.268600  0.426300  0.505480  1.0  0.7108
  C  C79  1  0.138420  0.397600  0.783440  1.0  0.6797
  C  C80  1  0.142700  0.358200  0.697610  1.0  -0.1295
  C  C81  1  0.037000  0.136600  0.571310  1.0  0.725
  C  C82  1  0.152200  0.281600  0.540750  1.0  -0.0083
  C  C83  1  0.096300  0.229700  0.596050  1.0  -0.1147
  C  C84  1  0.203000  0.371900  0.563240  1.0  -0.1047
  C  C85  1  0.093300  0.267000  0.674540  1.0  0.0537
  C  C86  1  0.195900  0.411900  0.640890  1.0  0.0466
  C  C87  1  0.768600  0.073700  0.494520  1.0  0.7104
  C  C88  1  0.638420  0.102400  0.216560  1.0  0.6803
  C  C89  1  0.642700  0.141800  0.302390  1.0  -0.1291
  C  C90  1  0.537000  0.363400  0.428690  1.0  0.7251
  C  C91  1  0.652200  0.218400  0.459250  1.0  -0.0087
  C  C92  1  0.596300  0.270300  0.403950  1.0  -0.1143
  C  C93  1  0.703000  0.128100  0.436760  1.0  -0.1054
  C  C94  1  0.593300  0.233000  0.325460  1.0  0.0534
  C  C95  1  0.695900  0.088100  0.359110  1.0  0.0471
  C  C96  1  0.731400  0.926300  0.994520  1.0  0.71
  C  C97  1  0.861580  0.897600  0.716560  1.0  0.6803
  C  C98  1  0.857300  0.858200  0.802390  1.0  -0.129
  C  C99  1  0.963000  0.636600  0.928690  1.0  0.7235
  C  C100  1  0.847800  0.781600  0.959250  1.0  -0.0089
  C  C101  1  0.903700  0.729700  0.903950  1.0  -0.1151
  C  C102  1  0.797000  0.871900  0.936760  1.0  -0.1057
  C  C103  1  0.906700  0.767000  0.825460  1.0  0.0537
  C  C104  1  0.804100  0.911900  0.859110  1.0  0.0459
  O  O105  1  0.675340  0.487930  0.700850  1.0  -0.5363
  O  O106  1  0.790500  0.520910  0.983890  1.0  -0.5123
  O  O107  1  0.595210  0.345380  0.666110  1.0  -0.5129
  O  O108  1  0.801250  0.369770  0.051090  1.0  -0.5724
  O  O109  1  0.501360  0.079630  0.873770  1.0  -0.5742
  O  O110  1  0.522980  0.120240  0.002590  1.0  -0.642
  O  O111  1  0.824660  0.512070  0.200850  1.0  -0.5358
  O  O112  1  0.709500  0.479090  0.483890  1.0  -0.5116
  O  O113  1  0.904790  0.654620  0.166110  1.0  -0.5111
  O  O114  1  0.698750  0.630230  0.551090  1.0  -0.572
  O  O115  1  0.998640  0.920370  0.373770  1.0  -0.5732
  O  O116  1  0.977020  0.879760  0.502590  1.0  -0.6414
  O  O117  1  0.324660  0.987930  0.799150  1.0  -0.5363
  O  O118  1  0.209500  0.020910  0.516110  1.0  -0.5112
  O  O119  1  0.404790  0.845380  0.833890  1.0  -0.5119
  O  O120  1  0.198750  0.869770  0.448910  1.0  -0.5745
  O  O121  1  0.498640  0.579630  0.626230  1.0  -0.5725
  O  O122  1  0.477020  0.620240  0.497410  1.0  -0.642
  O  O123  1  0.175340  0.012070  0.299150  1.0  -0.5361
  O  O124  1  0.290500  0.979090  0.016110  1.0  -0.5118
  O  O125  1  0.095210  0.154620  0.333890  1.0  -0.512
  O  O126  1  0.301250  0.130230  0.948910  1.0  -0.5732
  O  O127  1  0.001360  0.420370  0.126230  1.0  -0.5739
  O  O128  1  0.022980  0.379760  0.997410  1.0  -0.6415
  O  O129  1  0.324660  0.512070  0.299150  1.0  -0.5361
  O  O130  1  0.209500  0.479090  0.016110  1.0  -0.5114
  O  O131  1  0.404790  0.654620  0.333890  1.0  -0.5115
  O  O132  1  0.198750  0.630230  0.948910  1.0  -0.572
  O  O133  1  0.498640  0.920370  0.126230  1.0  -0.5723
  O  O134  1  0.477020  0.879760  0.997410  1.0  -0.6425
  O  O135  1  0.175340  0.487930  0.799150  1.0  -0.5369
  O  O136  1  0.290500  0.520910  0.516110  1.0  -0.5121
  O  O137  1  0.095210  0.345380  0.833890  1.0  -0.5133
  O  O138  1  0.301250  0.369770  0.448910  1.0  -0.573
  O  O139  1  0.001360  0.079630  0.626230  1.0  -0.5742
  O  O140  1  0.022980  0.120240  0.497410  1.0  -0.6415
  O  O141  1  0.675340  0.012070  0.200850  1.0  -0.5363
  O  O142  1  0.790500  0.979090  0.483890  1.0  -0.5121
  O  O143  1  0.595210  0.154620  0.166110  1.0  -0.5126
  O  O144  1  0.801250  0.130230  0.551090  1.0  -0.5728
  O  O145  1  0.501360  0.420370  0.373770  1.0  -0.574
  O  O146  1  0.522980  0.379760  0.502590  1.0  -0.6413
  O  O147  1  0.824660  0.987930  0.700850  1.0  -0.535
  O  O148  1  0.709500  0.020910  0.983890  1.0  -0.5114
  O  O149  1  0.904790  0.845380  0.666110  1.0  -0.5127
  O  O150  1  0.698750  0.869770  0.051090  1.0  -0.5744
  O  O151  1  0.998640  0.579630  0.873770  1.0  -0.5732
  O  O152  1  0.977020  0.620240  0.002590  1.0  -0.6416
