# generated using pymatgen
data_MnH3(C3O2)3
_symmetry_space_group_name_H-M   'P 1'
_cell_length_a   14.79600000
_cell_length_b   12.42750000
_cell_length_c   16.62660000
_cell_angle_alpha   90.00000000
_cell_angle_beta   90.00000000
_cell_angle_gamma   90.00000000
_symmetry_Int_Tables_number   1
_chemical_formula_structural   MnH3(C3O2)3
_chemical_formula_sum   'Mn8 H24 C72 O48'
_cell_volume   3057.25414991
_cell_formula_units_Z   8
loop_
 _symmetry_equiv_pos_site_id
 _symmetry_equiv_pos_as_xyz
  1  'x, y, z'
loop_
 _atom_site_type_symbol
 _atom_site_label
 _atom_site_symmetry_multiplicity
 _atom_site_fract_x
 _atom_site_fract_y
 _atom_site_fract_z
 _atom_site_occupancy
 _atom_site_charge
  Mn  Mn1  1  0.604520  0.483810  0.579810  1.0  1.0989
  Mn  Mn2  1  0.895480  0.516190  0.079810  1.0  1.0979
  Mn  Mn3  1  0.395480  0.983810  0.920190  1.0  1.0982
  Mn  Mn4  1  0.104520  0.016190  0.420190  1.0  1.0991
  Mn  Mn5  1  0.395480  0.516190  0.420190  1.0  1.0982
  Mn  Mn6  1  0.104520  0.483810  0.920190  1.0  1.0988
  Mn  Mn7  1  0.604520  0.016190  0.079810  1.0  1.0988
  Mn  Mn8  1  0.895480  0.983810  0.579810  1.0  1.0983
  H  H9  1  0.557200  0.233100  0.788200  1.0  0.135
  H  H10  1  0.656400  0.253800  0.014400  1.0  0.1322
  H  H11  1  0.726200  0.475600  0.846900  1.0  0.1343
  H  H12  1  0.942800  0.766900  0.288200  1.0  0.135
  H  H13  1  0.843600  0.746200  0.514400  1.0  0.1323
  H  H14  1  0.773800  0.524400  0.346900  1.0  0.1344
  H  H15  1  0.442800  0.733100  0.711800  1.0  0.1348
  H  H16  1  0.343600  0.753800  0.485600  1.0  0.1328
  H  H17  1  0.273800  0.975600  0.653100  1.0  0.1351
  H  H18  1  0.057200  0.266900  0.211800  1.0  0.1347
  H  H19  1  0.156400  0.246200  0.985600  1.0  0.1325
  H  H20  1  0.226200  0.024400  0.153100  1.0  0.1346
  H  H21  1  0.442800  0.766900  0.211800  1.0  0.1346
  H  H22  1  0.343600  0.746200  0.985600  1.0  0.1326
  H  H23  1  0.273800  0.524400  0.153100  1.0  0.1349
  H  H24  1  0.057200  0.233100  0.711800  1.0  0.1349
  H  H25  1  0.156400  0.253800  0.485600  1.0  0.1325
  H  H26  1  0.226200  0.475600  0.653100  1.0  0.1345
  H  H27  1  0.557200  0.266900  0.288200  1.0  0.1349
  H  H28  1  0.656400  0.246200  0.514400  1.0  0.1322
  H  H29  1  0.726200  0.024400  0.346900  1.0  0.1343
  H  H30  1  0.942800  0.733100  0.788200  1.0  0.1352
  H  H31  1  0.843600  0.753800  0.014400  1.0  0.1324
  H  H32  1  0.773800  0.975600  0.846900  1.0  0.1348
  C  C33  1  0.769100  0.423600  0.996700  1.0  0.7177
  C  C34  1  0.596400  0.230200  0.905500  1.0  -0.1165
  C  C35  1  0.593300  0.269300  0.827000  1.0  0.0309
  C  C36  1  0.636900  0.400500  0.719100  1.0  0.6833
  C  C37  1  0.703500  0.370600  0.938800  1.0  -0.1242
  C  C38  1  0.652600  0.280700  0.961000  1.0  0.0085
  C  C39  1  0.641800  0.360100  0.804200  1.0  -0.1284
  C  C40  1  0.695100  0.411500  0.861100  1.0  0.0547
  C  C41  1  0.538000  0.137500  0.929800  1.0  0.7274
  C  C42  1  0.730900  0.576400  0.496700  1.0  0.7163
  C  C43  1  0.903600  0.769800  0.405500  1.0  -0.1168
  C  C44  1  0.906700  0.730700  0.327000  1.0  0.03
  C  C45  1  0.863100  0.599500  0.219100  1.0  0.683
  C  C46  1  0.796500  0.629400  0.438800  1.0  -0.124
  C  C47  1  0.847400  0.719300  0.461000  1.0  0.0093
  C  C48  1  0.858200  0.639900  0.304200  1.0  -0.1291
  C  C49  1  0.804900  0.588500  0.361100  1.0  0.0541
  C  C50  1  0.962000  0.862500  0.429800  1.0  0.7252
  C  C51  1  0.230900  0.923600  0.503300  1.0  0.7168
  C  C52  1  0.403600  0.730200  0.594500  1.0  -0.1172
  C  C53  1  0.406700  0.769300  0.673000  1.0  0.0308
  C  C54  1  0.363100  0.900500  0.780900  1.0  0.6831
  C  C55  1  0.296500  0.870600  0.561200  1.0  -0.1232
  C  C56  1  0.347400  0.780700  0.539000  1.0  0.009
  C  C57  1  0.358200  0.860100  0.695800  1.0  -0.1289
  C  C58  1  0.304900  0.911500  0.638900  1.0  0.0537
  C  C59  1  0.462000  0.637500  0.570200  1.0  0.7249
  C  C60  1  0.269100  0.076400  0.003300  1.0  0.7169
  C  C61  1  0.096400  0.269800  0.094500  1.0  -0.1163
  C  C62  1  0.093300  0.230700  0.173000  1.0  0.0305
  C  C63  1  0.136900  0.099500  0.280900  1.0  0.6836
  C  C64  1  0.203500  0.129400  0.061200  1.0  -0.1241
  C  C65  1  0.152600  0.219300  0.039000  1.0  0.0085
  C  C66  1  0.141800  0.139900  0.195800  1.0  -0.1283
  C  C67  1  0.195100  0.088500  0.138900  1.0  0.0552
  C  C68  1  0.038000  0.362500  0.070200  1.0  0.7268
  C  C69  1  0.230900  0.576400  0.003300  1.0  0.7162
  C  C70  1  0.403600  0.769800  0.094500  1.0  -0.1169
  C  C71  1  0.406700  0.730700  0.173000  1.0  0.0303
  C  C72  1  0.363100  0.599500  0.280900  1.0  0.6831
  C  C73  1  0.296500  0.629400  0.061200  1.0  -0.1239
  C  C74  1  0.347400  0.719300  0.039000  1.0  0.0093
  C  C75  1  0.358200  0.639900  0.195800  1.0  -0.1285
  C  C76  1  0.304900  0.588500  0.138900  1.0  0.0545
  C  C77  1  0.462000  0.862500  0.070200  1.0  0.725
  C  C78  1  0.269100  0.423600  0.503300  1.0  0.7176
  C  C79  1  0.096400  0.230200  0.594500  1.0  -0.1168
  C  C80  1  0.093300  0.269300  0.673000  1.0  0.031
  C  C81  1  0.136900  0.400500  0.780900  1.0  0.6836
  C  C82  1  0.203500  0.370600  0.561200  1.0  -0.1235
  C  C83  1  0.152600  0.280700  0.539000  1.0  0.0082
  C  C84  1  0.141800  0.360100  0.695800  1.0  -0.1286
  C  C85  1  0.195100  0.411500  0.638900  1.0  0.0546
  C  C86  1  0.038000  0.137500  0.570200  1.0  0.7271
  C  C87  1  0.769100  0.076400  0.496700  1.0  0.7172
  C  C88  1  0.596400  0.269800  0.405500  1.0  -0.1161
  C  C89  1  0.593300  0.230700  0.327000  1.0  0.0304
  C  C90  1  0.636900  0.099500  0.219100  1.0  0.6832
  C  C91  1  0.703500  0.129400  0.438800  1.0  -0.1242
  C  C92  1  0.652600  0.219300  0.461000  1.0  0.0091
  C  C93  1  0.641800  0.139900  0.304200  1.0  -0.1289
  C  C94  1  0.695100  0.088500  0.361100  1.0  0.0551
  C  C95  1  0.538000  0.362500  0.429800  1.0  0.7269
  C  C96  1  0.730900  0.923600  0.996700  1.0  0.7167
  C  C97  1  0.903600  0.730200  0.905500  1.0  -0.1171
  C  C98  1  0.906700  0.769300  0.827000  1.0  0.0305
  C  C99  1  0.863100  0.900500  0.719100  1.0  0.6831
  C  C100  1  0.796500  0.870600  0.938800  1.0  -0.1238
  C  C101  1  0.847400  0.780700  0.961000  1.0  0.0088
  C  C102  1  0.858200  0.860100  0.804200  1.0  -0.1287
  C  C103  1  0.804900  0.911500  0.861100  1.0  0.0536
  C  C104  1  0.962000  0.637500  0.929800  1.0  0.7253
  O  O105  1  0.525580  0.119800  0.004060  1.0  -0.6394
  O  O106  1  0.501400  0.082500  0.874820  1.0  -0.5699
  O  O107  1  0.594500  0.349200  0.668200  1.0  -0.5165
  O  O108  1  0.672500  0.489900  0.703680  1.0  -0.5401
  O  O109  1  0.791100  0.517200  0.986000  1.0  -0.5157
  O  O110  1  0.801600  0.367400  0.052180  1.0  -0.5735
  O  O111  1  0.974420  0.880200  0.504060  1.0  -0.6381
  O  O112  1  0.998600  0.917500  0.374820  1.0  -0.5687
  O  O113  1  0.905500  0.650800  0.168200  1.0  -0.5146
  O  O114  1  0.827500  0.510100  0.203680  1.0  -0.5391
  O  O115  1  0.708900  0.482800  0.486000  1.0  -0.5145
  O  O116  1  0.698400  0.632600  0.552180  1.0  -0.5726
  O  O117  1  0.474420  0.619800  0.495940  1.0  -0.6389
  O  O118  1  0.498600  0.582500  0.625180  1.0  -0.5687
  O  O119  1  0.405500  0.849200  0.831800  1.0  -0.5147
  O  O120  1  0.327500  0.989900  0.796320  1.0  -0.5394
  O  O121  1  0.208900  0.017200  0.514000  1.0  -0.5149
  O  O122  1  0.198400  0.867400  0.447820  1.0  -0.5741
  O  O123  1  0.025580  0.380200  0.995940  1.0  -0.639
  O  O124  1  0.001400  0.417500  0.125180  1.0  -0.5698
  O  O125  1  0.094500  0.150800  0.331800  1.0  -0.5144
  O  O126  1  0.172500  0.010100  0.296320  1.0  -0.5381
  O  O127  1  0.291100  0.982800  0.014000  1.0  -0.515
  O  O128  1  0.301600  0.132600  0.947820  1.0  -0.5746
  O  O129  1  0.474420  0.880200  0.995940  1.0  -0.6395
  O  O130  1  0.498600  0.917500  0.125180  1.0  -0.5684
  O  O131  1  0.405500  0.650800  0.331800  1.0  -0.5139
  O  O132  1  0.327500  0.510100  0.296320  1.0  -0.5392
  O  O133  1  0.208900  0.482800  0.014000  1.0  -0.5144
  O  O134  1  0.198400  0.632600  0.947820  1.0  -0.5727
  O  O135  1  0.025580  0.119800  0.495940  1.0  -0.639
  O  O136  1  0.001400  0.082500  0.625180  1.0  -0.5701
  O  O137  1  0.094500  0.349200  0.831800  1.0  -0.5159
  O  O138  1  0.172500  0.489900  0.796320  1.0  -0.54
  O  O139  1  0.291100  0.517200  0.514000  1.0  -0.5156
  O  O140  1  0.301600  0.367400  0.447820  1.0  -0.5744
  O  O141  1  0.525580  0.380200  0.504060  1.0  -0.6385
  O  O142  1  0.501400  0.417500  0.374820  1.0  -0.5695
  O  O143  1  0.594500  0.150800  0.168200  1.0  -0.5157
  O  O144  1  0.672500  0.010100  0.203680  1.0  -0.5394
  O  O145  1  0.791100  0.982800  0.486000  1.0  -0.5151
  O  O146  1  0.801600  0.132600  0.552180  1.0  -0.5739
  O  O147  1  0.974420  0.619800  0.004060  1.0  -0.6386
  O  O148  1  0.998600  0.582500  0.874820  1.0  -0.569
  O  O149  1  0.905500  0.849200  0.668200  1.0  -0.5164
  O  O150  1  0.827500  0.989900  0.703680  1.0  -0.5379
  O  O151  1  0.708900  0.017200  0.986000  1.0  -0.515
  O  O152  1  0.698400  0.867400  0.052180  1.0  -0.5736
