# generated using pymatgen
data_La2Co3H24(C4O5)6
_symmetry_space_group_name_H-M   'P 1'
_cell_length_a   15.17970000
_cell_length_b   15.30900000
_cell_length_c   15.30900000
_cell_angle_alpha   120.00000000
_cell_angle_beta   90.00000000
_cell_angle_gamma   90.00000000
_symmetry_Int_Tables_number   1
_chemical_formula_structural   La2Co3H24(C4O5)6
_chemical_formula_sum   'La4 Co6 H48 C48 O60'
_cell_volume   3080.96997766
_cell_formula_units_Z   2
loop_
 _symmetry_equiv_pos_site_id
 _symmetry_equiv_pos_as_xyz
  1  'x, y, z'
loop_
 _atom_site_type_symbol
 _atom_site_label
 _atom_site_symmetry_multiplicity
 _atom_site_fract_x
 _atom_site_fract_y
 _atom_site_fract_z
 _atom_site_occupancy
 _atom_site_charge
  La  La1  1  0.750000  0.666667  0.333333  1.0  2.0753
  La  La2  1  0.750000  0.333333  0.666667  1.0  2.0753
  La  La3  1  0.250000  0.333333  0.666667  1.0  2.0753
  La  La4  1  0.250000  0.666667  0.333333  1.0  2.0753
  Co  Co5  1  0.000000  0.500000  0.000000  1.0  1.1407
  Co  Co6  1  0.000000  0.500000  0.500000  1.0  1.1407
  Co  Co7  1  0.000000  0.000000  0.500000  1.0  1.1407
  Co  Co8  1  0.500000  0.500000  0.000000  1.0  1.1407
  Co  Co9  1  0.500000  0.000000  0.500000  1.0  1.1407
  Co  Co10  1  0.500000  0.500000  0.500000  1.0  1.1407
  H  H11  1  0.835300  0.789400  0.153700  1.0  0.0981
  H  H12  1  0.760800  0.712600  0.089600  1.0  0.0874
  H  H13  1  0.835300  0.364300  0.210600  1.0  0.0977
  H  H14  1  0.760800  0.377000  0.287400  1.0  0.0883
  H  H15  1  0.835300  0.846300  0.635700  1.0  0.0982
  H  H16  1  0.760800  0.910400  0.623000  1.0  0.0878
  H  H17  1  0.835300  0.210600  0.846300  1.0  0.0983
  H  H18  1  0.760800  0.287400  0.910400  1.0  0.0876
  H  H19  1  0.835300  0.635700  0.789400  1.0  0.0975
  H  H20  1  0.760800  0.623000  0.712600  1.0  0.0885
  H  H21  1  0.835300  0.153700  0.364300  1.0  0.0977
  H  H22  1  0.760800  0.089600  0.377000  1.0  0.0876
  H  H23  1  0.664700  0.635700  0.846300  1.0  0.0979
  H  H24  1  0.739200  0.623000  0.910400  1.0  0.0881
  H  H25  1  0.664700  0.153700  0.789400  1.0  0.0986
  H  H26  1  0.739200  0.089600  0.712600  1.0  0.0881
  H  H27  1  0.664700  0.210600  0.364300  1.0  0.0974
  H  H28  1  0.739200  0.287400  0.377000  1.0  0.0871
  H  H29  1  0.664700  0.364300  0.153700  1.0  0.0976
  H  H30  1  0.739200  0.377000  0.089600  1.0  0.0883
  H  H31  1  0.664700  0.846300  0.210600  1.0  0.0976
  H  H32  1  0.739200  0.910400  0.287400  1.0  0.0876
  H  H33  1  0.664700  0.789400  0.635700  1.0  0.0986
  H  H34  1  0.739200  0.712600  0.623000  1.0  0.0874
  H  H35  1  0.164700  0.210600  0.846300  1.0  0.0983
  H  H36  1  0.239200  0.287400  0.910400  1.0  0.0878
  H  H37  1  0.164700  0.635700  0.789400  1.0  0.0978
  H  H38  1  0.239200  0.623000  0.712600  1.0  0.0882
  H  H39  1  0.164700  0.153700  0.364300  1.0  0.0971
  H  H40  1  0.239200  0.089600  0.377000  1.0  0.0876
  H  H41  1  0.164700  0.789400  0.153700  1.0  0.0979
  H  H42  1  0.239200  0.712600  0.089600  1.0  0.0871
  H  H43  1  0.164700  0.364300  0.210600  1.0  0.0974
  H  H44  1  0.239200  0.377000  0.287400  1.0  0.0884
  H  H45  1  0.164700  0.846300  0.635700  1.0  0.0988
  H  H46  1  0.239200  0.910400  0.623000  1.0  0.0876
  H  H47  1  0.335300  0.364300  0.153700  1.0  0.0977
  H  H48  1  0.260800  0.377000  0.089600  1.0  0.0883
  H  H49  1  0.335300  0.846300  0.210600  1.0  0.098
  H  H50  1  0.260800  0.910400  0.287400  1.0  0.088
  H  H51  1  0.335300  0.789400  0.635700  1.0  0.098
  H  H52  1  0.260800  0.712600  0.623000  1.0  0.0874
  H  H53  1  0.335300  0.635700  0.846300  1.0  0.0977
  H  H54  1  0.260800  0.623000  0.910400  1.0  0.0883
  H  H55  1  0.335300  0.153700  0.789400  1.0  0.0982
  H  H56  1  0.260800  0.089600  0.712600  1.0  0.088
  H  H57  1  0.335300  0.210600  0.364300  1.0  0.0979
  H  H58  1  0.260800  0.287400  0.377000  1.0  0.0871
  C  C59  1  0.858700  0.647600  0.128800  1.0  0.7223
  C  C60  1  0.800000  0.733500  0.146800  1.0  -0.0594
  C  C61  1  0.858700  0.481200  0.352400  1.0  0.7238
  C  C62  1  0.800000  0.413300  0.266500  1.0  -0.0581
  C  C63  1  0.858700  0.871200  0.518800  1.0  0.7236
  C  C64  1  0.800000  0.853200  0.586700  1.0  -0.0585
  C  C65  1  0.858700  0.352400  0.871200  1.0  0.722
  C  C66  1  0.800000  0.266500  0.853200  1.0  -0.0579
  C  C67  1  0.858700  0.518800  0.647600  1.0  0.7231
  C  C68  1  0.800000  0.586700  0.733500  1.0  -0.0587
  C  C69  1  0.858700  0.128800  0.481200  1.0  0.7237
  C  C70  1  0.800000  0.146800  0.413300  1.0  -0.0574
  C  C71  1  0.641300  0.518800  0.871200  1.0  0.7236
  C  C72  1  0.700000  0.586700  0.853200  1.0  -0.0585
  C  C73  1  0.641300  0.128800  0.647600  1.0  0.7242
  C  C74  1  0.700000  0.146800  0.733500  1.0  -0.0576
  C  C75  1  0.641300  0.352400  0.481200  1.0  0.7229
  C  C76  1  0.700000  0.266500  0.413300  1.0  -0.0585
  C  C77  1  0.641300  0.481200  0.128800  1.0  0.7242
  C  C78  1  0.700000  0.413300  0.146800  1.0  -0.0588
  C  C79  1  0.641300  0.871200  0.352400  1.0  0.7241
  C  C80  1  0.700000  0.853200  0.266500  1.0  -0.0585
  C  C81  1  0.641300  0.647600  0.518800  1.0  0.7224
  C  C82  1  0.700000  0.733500  0.586700  1.0  -0.058
  C  C83  1  0.141300  0.352400  0.871200  1.0  0.7225
  C  C84  1  0.200000  0.266500  0.853200  1.0  -0.0578
  C  C85  1  0.141300  0.518800  0.647600  1.0  0.724
  C  C86  1  0.200000  0.586700  0.733500  1.0  -0.0582
  C  C87  1  0.141300  0.128800  0.481200  1.0  0.7241
  C  C88  1  0.200000  0.146800  0.413300  1.0  -0.0574
  C  C89  1  0.141300  0.647600  0.128800  1.0  0.7229
  C  C90  1  0.200000  0.733500  0.146800  1.0  -0.0589
  C  C91  1  0.141300  0.481200  0.352400  1.0  0.724
  C  C92  1  0.200000  0.413300  0.266500  1.0  -0.0585
  C  C93  1  0.141300  0.871200  0.518800  1.0  0.7243
  C  C94  1  0.200000  0.853200  0.586700  1.0  -0.0579
  C  C95  1  0.358700  0.481200  0.128800  1.0  0.7236
  C  C96  1  0.300000  0.413300  0.146800  1.0  -0.0584
  C  C97  1  0.358700  0.871200  0.352400  1.0  0.7237
  C  C98  1  0.300000  0.853200  0.266500  1.0  -0.0591
  C  C99  1  0.358700  0.647600  0.518800  1.0  0.7218
  C  C100  1  0.300000  0.733500  0.586700  1.0  -0.0587
  C  C101  1  0.358700  0.518800  0.871200  1.0  0.7233
  C  C102  1  0.300000  0.586700  0.853200  1.0  -0.059
  C  C103  1  0.358700  0.128800  0.647600  1.0  0.7235
  C  C104  1  0.300000  0.146800  0.733500  1.0  -0.0578
  C  C105  1  0.358700  0.352400  0.481200  1.0  0.7223
  C  C106  1  0.300000  0.266500  0.413300  1.0  -0.0587
  O  O107  1  0.904600  0.611600  0.051700  1.0  -0.6335
  O  O108  1  0.858200  0.618800  0.193100  1.0  -0.6824
  O  O109  1  0.904600  0.440100  0.388400  1.0  -0.6345
  O  O110  1  0.858200  0.574300  0.381200  1.0  -0.6799
  O  O111  1  0.904600  0.948300  0.559900  1.0  -0.6343
  O  O112  1  0.858200  0.806900  0.425700  1.0  -0.6824
  O  O113  1  0.904600  0.388400  0.948300  1.0  -0.6338
  O  O114  1  0.858200  0.381200  0.806900  1.0  -0.6819
  O  O115  1  0.904600  0.559900  0.611600  1.0  -0.6348
  O  O116  1  0.858200  0.425700  0.618800  1.0  -0.6814
  O  O117  1  0.904600  0.051700  0.440100  1.0  -0.6352
  O  O118  1  0.858200  0.193100  0.574300  1.0  -0.6839
  O  O119  1  0.595400  0.559900  0.948300  1.0  -0.6346
  O  O120  1  0.641800  0.425700  0.806900  1.0  -0.6802
  O  O121  1  0.595400  0.051700  0.611600  1.0  -0.6344
  O  O122  1  0.641800  0.193100  0.618800  1.0  -0.6823
  O  O123  1  0.595400  0.388400  0.440100  1.0  -0.6332
  O  O124  1  0.641800  0.381200  0.574300  1.0  -0.6825
  O  O125  1  0.595400  0.440100  0.051700  1.0  -0.6346
  O  O126  1  0.641800  0.574300  0.193100  1.0  -0.6817
  O  O127  1  0.595400  0.948300  0.388400  1.0  -0.6354
  O  O128  1  0.641800  0.806900  0.381200  1.0  -0.6827
  O  O129  1  0.595400  0.611600  0.559900  1.0  -0.6341
  O  O130  1  0.641800  0.618800  0.425700  1.0  -0.6822
  O  O131  1  0.095400  0.388400  0.948300  1.0  -0.634
  O  O132  1  0.141800  0.381200  0.806900  1.0  -0.6823
  O  O133  1  0.095400  0.559900  0.611600  1.0  -0.6352
  O  O134  1  0.141800  0.425700  0.618800  1.0  -0.6804
  O  O135  1  0.095400  0.051700  0.440100  1.0  -0.6353
  O  O136  1  0.141800  0.193100  0.574300  1.0  -0.6832
  O  O137  1  0.095400  0.611600  0.051700  1.0  -0.6337
  O  O138  1  0.141800  0.618800  0.193100  1.0  -0.6816
  O  O139  1  0.095400  0.440100  0.388400  1.0  -0.6346
  O  O140  1  0.141800  0.574300  0.381200  1.0  -0.6812
  O  O141  1  0.095400  0.948300  0.559900  1.0  -0.6354
  O  O142  1  0.141800  0.806900  0.425700  1.0  -0.683
  O  O143  1  0.404600  0.440100  0.051700  1.0  -0.6352
  O  O144  1  0.358200  0.574300  0.193100  1.0  -0.6805
  O  O145  1  0.404600  0.948300  0.388400  1.0  -0.6356
  O  O146  1  0.358200  0.806900  0.381200  1.0  -0.6834
  O  O147  1  0.404600  0.611600  0.559900  1.0  -0.6344
  O  O148  1  0.358200  0.618800  0.425700  1.0  -0.6816
  O  O149  1  0.404600  0.559900  0.948300  1.0  -0.6352
  O  O150  1  0.358200  0.425700  0.806900  1.0  -0.681
  O  O151  1  0.404600  0.051700  0.611600  1.0  -0.6351
  O  O152  1  0.358200  0.193100  0.618800  1.0  -0.6818
  O  O153  1  0.404600  0.388400  0.440100  1.0  -0.6342
  O  O154  1  0.358200  0.381200  0.574300  1.0  -0.6833
  O  O155  1  0.750000  0.764550  0.235450  1.0  -0.3297
  O  O156  1  0.750000  0.470900  0.235450  1.0  -0.3321
  O  O157  1  0.750000  0.764550  0.529100  1.0  -0.3293
  O  O158  1  0.750000  0.235450  0.764550  1.0  -0.329
  O  O159  1  0.750000  0.529100  0.764550  1.0  -0.3325
  O  O160  1  0.750000  0.235450  0.470900  1.0  -0.3299
  O  O161  1  0.250000  0.235450  0.764550  1.0  -0.329
  O  O162  1  0.250000  0.529100  0.764550  1.0  -0.3325
  O  O163  1  0.250000  0.235450  0.470900  1.0  -0.3299
  O  O164  1  0.250000  0.764550  0.235450  1.0  -0.3297
  O  O165  1  0.250000  0.470900  0.235450  1.0  -0.3321
  O  O166  1  0.250000  0.764550  0.529100  1.0  -0.3293
