# generated using pymatgen
data_MnH2(CO2)2
_symmetry_space_group_name_H-M   'P 1'
_cell_length_a   10.19790000
_cell_length_b   11.78430000
_cell_length_c   14.91990000
_cell_angle_alpha   91.80030000
_cell_angle_beta   90.00000000
_cell_angle_gamma   90.00000000
_symmetry_Int_Tables_number   1
_chemical_formula_structural   MnH2(CO2)2
_chemical_formula_sum   'Mn12 H24 C24 O48'
_cell_volume   1792.11563549
_cell_formula_units_Z   12
loop_
 _symmetry_equiv_pos_site_id
 _symmetry_equiv_pos_as_xyz
  1  'x, y, z'
loop_
 _atom_site_type_symbol
 _atom_site_label
 _atom_site_symmetry_multiplicity
 _atom_site_fract_x
 _atom_site_fract_y
 _atom_site_fract_z
 _atom_site_occupancy
 _atom_site_charge
  Mn  Mn1  1  0.932950  0.989810  0.562680  1.0  1.1339
  Mn  Mn2  1  0.620820  0.990270  0.618910  1.0  1.164
  Mn  Mn3  1  0.541580  0.744740  0.747800  1.0  1.1765
  Mn  Mn4  1  0.456850  0.503450  0.881270  1.0  1.1502
  Mn  Mn5  1  0.143600  0.512660  0.935480  1.0  1.1528
  Mn  Mn6  1  0.539580  0.244990  0.752370  1.0  1.1385
  Mn  Mn7  1  0.432950  0.010190  0.437320  1.0  1.1338
  Mn  Mn8  1  0.120820  0.009730  0.381090  1.0  1.1647
  Mn  Mn9  1  0.041580  0.255260  0.252200  1.0  1.1767
  Mn  Mn10  1  0.956850  0.496550  0.118730  1.0  1.1502
  Mn  Mn11  1  0.643600  0.487340  0.064520  1.0  1.153
  Mn  Mn12  1  0.039580  0.755010  0.247630  1.0  1.1397
  H  H13  1  0.783000  0.902800  0.380400  1.0  -0.0057
  H  H14  1  0.918300  0.181100  0.711000  1.0  0.0111
  H  H15  1  0.993800  0.734000  0.507700  1.0  0.0098
  H  H16  1  0.836000  0.745400  0.721700  1.0  0.0068
  H  H17  1  0.392400  0.046900  0.826700  1.0  0.0174
  H  H18  1  0.830500  0.213800  0.471900  1.0  0.0095
  H  H19  1  0.254700  0.750700  0.774700  1.0  0.004
  H  H20  1  0.695800  0.441900  0.678400  1.0  -0.0035
  H  H21  1  0.748300  0.703600  0.968600  1.0  -0.0056
  H  H22  1  0.293200  0.603100  0.114400  1.0  0.0107
  H  H23  1  0.164900  0.306900  0.789100  1.0  -0.006
  H  H24  1  0.566000  0.229300  0.014300  1.0  0.0014
  H  H25  1  0.283000  0.097200  0.619600  1.0  -0.0059
  H  H26  1  0.418300  0.818900  0.289000  1.0  0.0113
  H  H27  1  0.493800  0.266000  0.492300  1.0  0.0101
  H  H28  1  0.336000  0.254600  0.278300  1.0  0.0067
  H  H29  1  0.892400  0.953100  0.173300  1.0  0.0165
  H  H30  1  0.330500  0.786200  0.528100  1.0  0.0099
  H  H31  1  0.754700  0.249300  0.225300  1.0  0.0035
  H  H32  1  0.195800  0.558100  0.321600  1.0  -0.0035
  H  H33  1  0.248300  0.296400  0.031400  1.0  -0.004
  H  H34  1  0.793200  0.396900  0.885600  1.0  0.0116
  H  H35  1  0.664900  0.693100  0.210900  1.0  -0.0057
  H  H36  1  0.066000  0.770700  0.985700  1.0  0.0017
  C  C37  1  0.714500  0.927900  0.417100  1.0  0.7139
  C  C38  1  0.829400  0.166700  0.702900  1.0  0.6773
  C  C39  1  0.019200  0.772800  0.457200  1.0  0.6791
  C  C40  1  0.819100  0.808600  0.687800  1.0  0.7068
  C  C41  1  0.446200  0.005100  0.787600  1.0  0.687
  C  C42  1  0.899000  0.193600  0.433500  1.0  0.6784
  C  C43  1  0.268000  0.686900  0.808700  1.0  0.7015
  C  C44  1  0.639800  0.485600  0.714600  1.0  0.6995
  C  C45  1  0.682000  0.683800  0.928400  1.0  0.6974
  C  C46  1  0.361700  0.574500  0.079300  1.0  0.6855
  C  C47  1  0.253100  0.323300  0.798700  1.0  0.708
  C  C48  1  0.550200  0.267400  0.961700  1.0  0.6919
  C  C49  1  0.214500  0.072100  0.582900  1.0  0.7147
  C  C50  1  0.329400  0.833300  0.297100  1.0  0.6772
  C  C51  1  0.519200  0.227200  0.542800  1.0  0.6793
  C  C52  1  0.319100  0.191400  0.312200  1.0  0.706
  C  C53  1  0.946200  0.994900  0.212400  1.0  0.6886
  C  C54  1  0.399000  0.806400  0.566500  1.0  0.6795
  C  C55  1  0.768000  0.313100  0.191300  1.0  0.701
  C  C56  1  0.139800  0.514400  0.285400  1.0  0.6992
  C  C57  1  0.182000  0.316200  0.071600  1.0  0.6976
  C  C58  1  0.861700  0.425500  0.920700  1.0  0.6856
  C  C59  1  0.753100  0.676700  0.201300  1.0  0.7079
  C  C60  1  0.050200  0.732600  0.038300  1.0  0.6918
  O  O61  1  0.742300  0.946200  0.500000  1.0  -0.6824
  O  O62  1  0.609400  0.939600  0.381200  1.0  -0.5894
  O  O63  1  0.797200  0.092500  0.644800  1.0  -0.6602
  O  O64  1  0.748600  0.223200  0.751200  1.0  -0.6059
  O  O65  1  0.031900  0.880400  0.465100  1.0  -0.6704
  O  O66  1  0.038500  0.716400  0.386700  1.0  -0.5903
  O  O67  1  0.913000  0.852900  0.651300  1.0  -0.5905
  O  O68  1  0.698800  0.842200  0.683300  1.0  -0.6821
  O  O69  1  0.514600  0.059200  0.731700  1.0  -0.6727
  O  O70  1  0.446600  0.898700  0.793500  1.0  -0.6242
  O  O71  1  0.958600  0.101500  0.447400  1.0  -0.6645
  O  O72  1  0.925900  0.259800  0.371600  1.0  -0.6141
  O  O73  1  0.382900  0.649600  0.812100  1.0  -0.6543
  O  O74  1  0.169500  0.647300  0.846300  1.0  -0.6137
  O  O75  1  0.638900  0.587200  0.702800  1.0  -0.6035
  O  O76  1  0.571200  0.432500  0.772200  1.0  -0.6855
  O  O77  1  0.665900  0.747300  0.865600  1.0  -0.5973
  O  O78  1  0.618400  0.594300  0.944500  1.0  -0.6658
  O  O79  1  0.338700  0.554000  0.997000  1.0  -0.66
  O  O80  1  0.471400  0.559100  0.117700  1.0  -0.6177
  O  O81  1  0.277700  0.404800  0.857200  1.0  -0.6955
  O  O82  1  0.328700  0.267300  0.756000  1.0  -0.5818
  O  O83  1  0.541600  0.375800  0.968900  1.0  -0.6818
  O  O84  1  0.539900  0.208700  0.893100  1.0  -0.5916
  O  O85  1  0.242300  0.053800  0.500000  1.0  -0.682
  O  O86  1  0.109400  0.060400  0.618800  1.0  -0.5897
  O  O87  1  0.297200  0.907500  0.355200  1.0  -0.6607
  O  O88  1  0.248600  0.776800  0.248800  1.0  -0.6059
  O  O89  1  0.531900  0.119600  0.534900  1.0  -0.6708
  O  O90  1  0.538500  0.283600  0.613300  1.0  -0.5906
  O  O91  1  0.413000  0.147100  0.348700  1.0  -0.5912
  O  O92  1  0.198800  0.157800  0.316700  1.0  -0.6819
  O  O93  1  0.014600  0.940800  0.268300  1.0  -0.6724
  O  O94  1  0.946600  0.101300  0.206500  1.0  -0.6227
  O  O95  1  0.458600  0.898500  0.552600  1.0  -0.6643
  O  O96  1  0.425900  0.740200  0.628400  1.0  -0.6138
  O  O97  1  0.882900  0.350400  0.187900  1.0  -0.6534
  O  O98  1  0.669500  0.352700  0.153700  1.0  -0.6134
  O  O99  1  0.138900  0.412800  0.297200  1.0  -0.6033
  O  O100  1  0.071200  0.567500  0.227800  1.0  -0.6864
  O  O101  1  0.165900  0.252700  0.134400  1.0  -0.5979
  O  O102  1  0.118400  0.405700  0.055500  1.0  -0.6658
  O  O103  1  0.838700  0.446000  0.003000  1.0  -0.6595
  O  O104  1  0.971400  0.440900  0.882300  1.0  -0.6184
  O  O105  1  0.777700  0.595200  0.142800  1.0  -0.6958
  O  O106  1  0.828700  0.732700  0.244000  1.0  -0.5812
  O  O107  1  0.041600  0.624200  0.031100  1.0  -0.6822
  O  O108  1  0.039900  0.791300  0.106900  1.0  -0.5922
