# generated using pymatgen
data_CoH18(C10N3)2
_symmetry_space_group_name_H-M   'P 1'
_cell_length_a   24.00000000
_cell_length_b   15.52200000
_cell_length_c   16.52300000
_cell_angle_alpha   90.00000000
_cell_angle_beta   133.51700000
_cell_angle_gamma   90.00000000
_symmetry_Int_Tables_number   1
_chemical_formula_structural   CoH18(C10N3)2
_chemical_formula_sum   'Co8 H144 C160 N48'
_cell_volume   4463.62511861
_cell_formula_units_Z   8
loop_
 _symmetry_equiv_pos_site_id
 _symmetry_equiv_pos_as_xyz
  1  'x, y, z'
loop_
 _atom_site_type_symbol
 _atom_site_label
 _atom_site_symmetry_multiplicity
 _atom_site_fract_x
 _atom_site_fract_y
 _atom_site_fract_z
 _atom_site_occupancy
 _atom_site_charge
  Co  Co1  1  0.740900  0.991340  0.001120  1.0  0.451
  Co  Co2  1  0.828740  0.498980  0.586710  1.0  0.4978
  Co  Co3  1  0.240900  0.508660  0.501120  1.0  0.4516
  Co  Co4  1  0.328740  0.001020  0.086710  1.0  0.4975
  Co  Co5  1  0.240900  0.491340  0.001120  1.0  0.451
  Co  Co6  1  0.328740  0.998980  0.586710  1.0  0.4978
  Co  Co7  1  0.740900  0.008660  0.501120  1.0  0.4516
  Co  Co8  1  0.828740  0.501020  0.086710  1.0  0.4975
  H  H9  1  0.584200  0.773000  0.546000  1.0  0.211
  H  H10  1  0.556000  0.335000  0.657000  1.0  0.2201
  H  H11  1  0.990300  0.737000  0.450000  1.0  0.1984
  H  H12  1  0.004000  0.161000  0.593000  1.0  0.1878
  H  H13  1  0.807600  0.854100  0.949100  1.0  0.0485
  H  H14  1  0.770200  0.768000  0.805100  1.0  0.0993
  H  H15  1  0.567600  0.893500  0.604300  1.0  0.1068
  H  H16  1  0.609900  0.970200  0.755300  1.0  0.0552
  H  H17  1  0.836700  0.686000  0.655800  1.0  0.0548
  H  H18  1  0.775500  0.781300  0.677900  1.0  0.1106
  H  H19  1  0.589100  0.627100  0.484300  1.0  0.1236
  H  H20  1  0.657500  0.537100  0.470900  1.0  0.0474
  H  H21  1  0.730600  0.127300  0.857800  1.0  0.0513
  H  H22  1  0.661500  0.244600  0.748300  1.0  0.1131
  H  H23  1  0.519900  0.205500  0.795800  1.0  0.1056
  H  H24  1  0.594400  0.089200  0.904300  1.0  0.068
  H  H25  1  0.350300  0.375400  0.666800  1.0  0.0672
  H  H26  1  0.463300  0.303800  0.752700  1.0  0.0949
  H  H27  1  0.463400  0.419300  0.533900  1.0  0.1108
  H  H28  1  0.353700  0.488800  0.461400  1.0  0.0525
  H  H29  1  0.914400  0.944400  0.204800  1.0  0.0505
  H  H30  1  0.985300  0.860600  0.362500  1.0  0.1264
  H  H31  1  0.792000  0.730600  0.223000  1.0  0.0958
  H  H32  1  0.728200  0.816100  0.069700  1.0  0.0677
  H  H33  1  0.775700  0.657900  0.435800  1.0  0.0543
  H  H34  1  0.813900  0.747600  0.373000  1.0  0.0788
  H  H35  1  0.009200  0.610200  0.548600  1.0  0.1267
  H  H36  1  0.966800  0.528900  0.611700  1.0  0.0444
  H  H37  1  0.961400  0.380700  0.773700  1.0  0.0615
  H  H38  1  0.033900  0.266500  0.806100  1.0  0.0924
  H  H39  1  0.925700  0.274300  0.484300  1.0  0.1017
  H  H40  1  0.856500  0.387400  0.461600  1.0  0.0671
  H  H41  1  0.252100  0.173600  0.011300  1.0  0.051
  H  H42  1  0.143600  0.246400  0.866200  1.0  0.0892
  H  H43  1  0.083600  0.038300  0.676400  1.0  0.1102
  H  H44  1  0.193600  0.973700  0.826400  1.0  0.0481
  H  H45  1  0.084200  0.727000  0.046000  1.0  0.2108
  H  H46  1  0.056000  0.165000  0.157000  1.0  0.219
  H  H47  1  0.490300  0.763000  0.950000  1.0  0.1985
  H  H48  1  0.504000  0.339000  0.093000  1.0  0.1884
  H  H49  1  0.307600  0.645900  0.449100  1.0  0.0485
  H  H50  1  0.270200  0.732000  0.305100  1.0  0.0992
  H  H51  1  0.067600  0.606500  0.104300  1.0  0.1065
  H  H52  1  0.109900  0.529800  0.255300  1.0  0.0553
  H  H53  1  0.336700  0.814000  0.155800  1.0  0.055
  H  H54  1  0.275500  0.718700  0.177900  1.0  0.1105
  H  H55  1  0.089100  0.872900  0.984300  1.0  0.1232
  H  H56  1  0.157500  0.962900  0.970900  1.0  0.048
  H  H57  1  0.230600  0.372700  0.357800  1.0  0.0529
  H  H58  1  0.161500  0.255400  0.248300  1.0  0.1131
  H  H59  1  0.019900  0.294500  0.295800  1.0  0.1051
  H  H60  1  0.094400  0.410800  0.404300  1.0  0.0677
  H  H61  1  0.850300  0.124600  0.166800  1.0  0.0671
  H  H62  1  0.963300  0.196200  0.252700  1.0  0.095
  H  H63  1  0.963400  0.080700  0.033900  1.0  0.1108
  H  H64  1  0.853700  0.011200  0.961400  1.0  0.0521
  H  H65  1  0.414400  0.555600  0.704800  1.0  0.0501
  H  H66  1  0.485300  0.639400  0.862500  1.0  0.1264
  H  H67  1  0.292000  0.769400  0.723000  1.0  0.0953
  H  H68  1  0.228200  0.683900  0.569700  1.0  0.0677
  H  H69  1  0.275700  0.842100  0.935800  1.0  0.0546
  H  H70  1  0.313900  0.752400  0.873000  1.0  0.0787
  H  H71  1  0.509200  0.889800  0.048600  1.0  0.1266
  H  H72  1  0.466800  0.971100  0.111700  1.0  0.044
  H  H73  1  0.461400  0.119300  0.273700  1.0  0.0613
  H  H74  1  0.533900  0.233500  0.306100  1.0  0.0923
  H  H75  1  0.425700  0.225700  0.984300  1.0  0.1016
  H  H76  1  0.356500  0.112600  0.961600  1.0  0.067
  H  H77  1  0.752100  0.326400  0.511300  1.0  0.051
  H  H78  1  0.643600  0.253600  0.366200  1.0  0.0892
  H  H79  1  0.583600  0.461700  0.176400  1.0  0.1103
  H  H80  1  0.693600  0.526300  0.326400  1.0  0.048
  H  H81  1  0.084200  0.273000  0.546000  1.0  0.211
  H  H82  1  0.056000  0.835000  0.657000  1.0  0.2201
  H  H83  1  0.490300  0.237000  0.450000  1.0  0.1979
  H  H84  1  0.504000  0.661000  0.593000  1.0  0.186
  H  H85  1  0.307600  0.354100  0.949100  1.0  0.0485
  H  H86  1  0.270200  0.268000  0.805100  1.0  0.0993
  H  H87  1  0.067600  0.393500  0.604300  1.0  0.1068
  H  H88  1  0.109900  0.470200  0.755300  1.0  0.0552
  H  H89  1  0.336700  0.186000  0.655800  1.0  0.0548
  H  H90  1  0.275500  0.281300  0.677900  1.0  0.1106
  H  H91  1  0.089100  0.127100  0.484300  1.0  0.1236
  H  H92  1  0.157500  0.037100  0.470900  1.0  0.0474
  H  H93  1  0.230600  0.627300  0.857800  1.0  0.0513
  H  H94  1  0.161500  0.744600  0.748300  1.0  0.1131
  H  H95  1  0.019900  0.705500  0.795800  1.0  0.1056
  H  H96  1  0.094400  0.589200  0.904300  1.0  0.068
  H  H97  1  0.850300  0.875400  0.666800  1.0  0.0672
  H  H98  1  0.963300  0.803800  0.752700  1.0  0.0949
  H  H99  1  0.963400  0.919300  0.533900  1.0  0.1108
  H  H100  1  0.853700  0.988800  0.461400  1.0  0.0525
  H  H101  1  0.414400  0.444400  0.204800  1.0  0.0505
  H  H102  1  0.485300  0.360600  0.362500  1.0  0.1264
  H  H103  1  0.292000  0.230600  0.223000  1.0  0.0958
  H  H104  1  0.228200  0.316100  0.069700  1.0  0.0677
  H  H105  1  0.275700  0.157900  0.435800  1.0  0.0548
  H  H106  1  0.313900  0.247600  0.373000  1.0  0.0788
  H  H107  1  0.509200  0.110200  0.548600  1.0  0.1267
  H  H108  1  0.466800  0.028900  0.611700  1.0  0.0447
  H  H109  1  0.461400  0.880700  0.773700  1.0  0.0615
  H  H110  1  0.533900  0.766500  0.806100  1.0  0.0924
  H  H111  1  0.425700  0.774300  0.484300  1.0  0.1017
  H  H112  1  0.356500  0.887400  0.461600  1.0  0.0671
  H  H113  1  0.752100  0.673600  0.011300  1.0  0.0511
  H  H114  1  0.643600  0.746400  0.866200  1.0  0.0896
  H  H115  1  0.583600  0.538300  0.676400  1.0  0.1102
  H  H116  1  0.693600  0.473700  0.826400  1.0  0.0481
  H  H117  1  0.584200  0.227000  0.046000  1.0  0.2108
  H  H118  1  0.556000  0.665000  0.157000  1.0  0.219
  H  H119  1  0.990300  0.263000  0.950000  1.0  0.198
  H  H120  1  0.004000  0.839000  0.093000  1.0  0.1866
  H  H121  1  0.807600  0.145900  0.449100  1.0  0.0485
  H  H122  1  0.770200  0.232000  0.305100  1.0  0.0992
  H  H123  1  0.567600  0.106500  0.104300  1.0  0.1065
  H  H124  1  0.609900  0.029800  0.255300  1.0  0.0553
  H  H125  1  0.836700  0.314000  0.155800  1.0  0.055
  H  H126  1  0.775500  0.218700  0.177900  1.0  0.1105
  H  H127  1  0.589100  0.372900  0.984300  1.0  0.1232
  H  H128  1  0.657500  0.462900  0.970900  1.0  0.048
  H  H129  1  0.730600  0.872700  0.357800  1.0  0.0529
  H  H130  1  0.661500  0.755400  0.248300  1.0  0.1131
  H  H131  1  0.519900  0.794500  0.295800  1.0  0.1051
  H  H132  1  0.594400  0.910800  0.404300  1.0  0.0677
  H  H133  1  0.350300  0.624600  0.166800  1.0  0.0671
  H  H134  1  0.463300  0.696200  0.252700  1.0  0.095
  H  H135  1  0.463400  0.580700  0.033900  1.0  0.1108
  H  H136  1  0.353700  0.511200  0.961400  1.0  0.0521
  H  H137  1  0.914400  0.055600  0.704800  1.0  0.0501
  H  H138  1  0.985300  0.139400  0.862500  1.0  0.1264
  H  H139  1  0.792000  0.269400  0.723000  1.0  0.0953
  H  H140  1  0.728200  0.183900  0.569700  1.0  0.0677
  H  H141  1  0.775700  0.342100  0.935800  1.0  0.0547
  H  H142  1  0.813900  0.252400  0.873000  1.0  0.0787
  H  H143  1  0.009200  0.389800  0.048600  1.0  0.1266
  H  H144  1  0.966800  0.471100  0.111700  1.0  0.0443
  H  H145  1  0.961400  0.619300  0.273700  1.0  0.0613
  H  H146  1  0.033900  0.733500  0.306100  1.0  0.0923
  H  H147  1  0.925700  0.725700  0.984300  1.0  0.1016
  H  H148  1  0.856500  0.612600  0.961600  1.0  0.067
  H  H149  1  0.252100  0.826400  0.511300  1.0  0.0512
  H  H150  1  0.143600  0.753600  0.366200  1.0  0.0895
  H  H151  1  0.083600  0.961700  0.176400  1.0  0.1103
  H  H152  1  0.193600  0.026300  0.326400  1.0  0.048
  C  C153  1  0.758300  0.860900  0.879000  1.0  0.1574
  C  C154  1  0.736600  0.808900  0.792600  1.0  -0.278
  C  C155  1  0.663500  0.819400  0.687100  1.0  0.2697
  C  C156  1  0.616300  0.883100  0.674000  1.0  -0.2794
  C  C157  1  0.642600  0.929600  0.765100  1.0  0.1536
  C  C158  1  0.787100  0.673200  0.623100  1.0  0.1555
  C  C159  1  0.750700  0.731300  0.636500  1.0  -0.3078
  C  C160  1  0.675300  0.713400  0.586200  1.0  0.2076
  C  C161  1  0.639700  0.639800  0.521600  1.0  -0.2477
  C  C162  1  0.681800  0.586300  0.514600  1.0  0.1663
  C  C163  1  0.688000  0.143600  0.845500  1.0  0.1543
  C  C164  1  0.646700  0.213900  0.779300  1.0  -0.2898
  C  C165  1  0.581900  0.238900  0.758900  1.0  0.2414
  C  C166  1  0.562500  0.191100  0.807200  1.0  -0.2948
  C  C167  1  0.608000  0.121300  0.872600  1.0  0.1577
  C  C168  1  0.373800  0.384800  0.640500  1.0  0.1481
  C  C169  1  0.441400  0.339600  0.692000  1.0  -0.202
  C  C170  1  0.475600  0.349600  0.649200  1.0  0.1963
  C  C171  1  0.441700  0.408500  0.562700  1.0  -0.282
  C  C172  1  0.375500  0.450600  0.519900  1.0  0.1329
  C  C173  1  0.889300  0.901800  0.209200  1.0  0.1648
  C  C174  1  0.932700  0.851500  0.304700  1.0  -0.2841
  C  C175  1  0.896200  0.786800  0.312900  1.0  0.2241
  C  C176  1  0.818100  0.774100  0.221900  1.0  -0.327
  C  C177  1  0.780200  0.826400  0.130600  1.0  0.1507
  C  C178  1  0.822800  0.647900  0.458000  1.0  0.1645
  C  C179  1  0.844800  0.701200  0.418200  1.0  -0.2322
  C  C180  1  0.913700  0.686100  0.445300  1.0  0.2236
  C  C181  1  0.961100  0.620600  0.522900  1.0  -0.2807
  C  C182  1  0.934700  0.572000  0.560000  1.0  0.1515
  C  C183  1  0.953800  0.359000  0.714200  1.0  0.1532
  C  C184  1  0.998500  0.290500  0.735000  1.0  -0.2557
  C  C185  1  0.990800  0.257500  0.650500  1.0  0.222
  C  C186  1  0.934500  0.295200  0.545000  1.0  -0.2653
  C  C187  1  0.892700  0.362700  0.532100  1.0  0.1454
  C  C188  1  0.216500  0.145600  0.942900  1.0  0.1481
  C  C189  1  0.151600  0.190300  0.856400  1.0  -0.2908
  C  C190  1  0.098900  0.149900  0.754500  1.0  0.2556
  C  C191  1  0.116700  0.066800  0.744600  1.0  -0.2764
  C  C192  1  0.182600  0.028400  0.835300  1.0  0.1587
  C  C193  1  0.258300  0.639100  0.379000  1.0  0.1574
  C  C194  1  0.236600  0.691100  0.292600  1.0  -0.2776
  C  C195  1  0.163500  0.680600  0.187100  1.0  0.2688
  C  C196  1  0.116300  0.616900  0.174000  1.0  -0.2784
  C  C197  1  0.142600  0.570400  0.265100  1.0  0.1545
  C  C198  1  0.287100  0.826800  0.123100  1.0  0.1557
  C  C199  1  0.250700  0.768700  0.136500  1.0  -0.3078
  C  C200  1  0.175300  0.786600  0.086200  1.0  0.2074
  C  C201  1  0.139700  0.860200  0.021600  1.0  -0.2484
  C  C202  1  0.181800  0.913700  0.014600  1.0  0.166
  C  C203  1  0.188000  0.356400  0.345500  1.0  0.1546
  C  C204  1  0.146700  0.286100  0.279300  1.0  -0.2898
  C  C205  1  0.081900  0.261100  0.258900  1.0  0.2417
  C  C206  1  0.062500  0.308900  0.307200  1.0  -0.295
  C  C207  1  0.108000  0.378700  0.372600  1.0  0.156
  C  C208  1  0.873800  0.115200  0.140500  1.0  0.1485
  C  C209  1  0.941400  0.160400  0.192000  1.0  -0.2019
  C  C210  1  0.975600  0.150400  0.149200  1.0  0.1965
  C  C211  1  0.941700  0.091500  0.062700  1.0  -0.282
  C  C212  1  0.875500  0.049400  0.019900  1.0  0.1335
  C  C213  1  0.389300  0.598200  0.709200  1.0  0.1646
  C  C214  1  0.432700  0.648500  0.804700  1.0  -0.2832
  C  C215  1  0.396200  0.713200  0.812900  1.0  0.2239
  C  C216  1  0.318100  0.725900  0.721900  1.0  -0.3267
  C  C217  1  0.280200  0.673600  0.630600  1.0  0.1511
  C  C218  1  0.322800  0.852100  0.958000  1.0  0.165
  C  C219  1  0.344800  0.798800  0.918200  1.0  -0.2319
  C  C220  1  0.413700  0.813900  0.945300  1.0  0.2244
  C  C221  1  0.461100  0.879400  0.022900  1.0  -0.2795
  C  C222  1  0.434700  0.928000  0.060000  1.0  0.1512
  C  C223  1  0.453800  0.141000  0.214200  1.0  0.1536
  C  C224  1  0.498500  0.209500  0.235000  1.0  -0.2554
  C  C225  1  0.490800  0.242500  0.150500  1.0  0.2218
  C  C226  1  0.434500  0.204800  0.045000  1.0  -0.2654
  C  C227  1  0.392700  0.137300  0.032100  1.0  0.1455
  C  C228  1  0.716500  0.354400  0.442900  1.0  0.1477
  C  C229  1  0.651600  0.309700  0.356400  1.0  -0.2924
  C  C230  1  0.598900  0.350100  0.254500  1.0  0.2554
  C  C231  1  0.616700  0.433200  0.244600  1.0  -0.277
  C  C232  1  0.682600  0.471600  0.335300  1.0  0.1586
  C  C233  1  0.258300  0.360900  0.879000  1.0  0.1574
  C  C234  1  0.236600  0.308900  0.792600  1.0  -0.278
  C  C235  1  0.163500  0.319400  0.687100  1.0  0.2697
  C  C236  1  0.116300  0.383100  0.674000  1.0  -0.2794
  C  C237  1  0.142600  0.429600  0.765100  1.0  0.1536
  C  C238  1  0.287100  0.173200  0.623100  1.0  0.1555
  C  C239  1  0.250700  0.231300  0.636500  1.0  -0.3078
  C  C240  1  0.175300  0.213400  0.586200  1.0  0.2076
  C  C241  1  0.139700  0.139800  0.521600  1.0  -0.2477
  C  C242  1  0.181800  0.086300  0.514600  1.0  0.1663
  C  C243  1  0.188000  0.643600  0.845500  1.0  0.1543
  C  C244  1  0.146700  0.713900  0.779300  1.0  -0.2898
  C  C245  1  0.081900  0.738900  0.758900  1.0  0.2414
  C  C246  1  0.062500  0.691100  0.807200  1.0  -0.2948
  C  C247  1  0.108000  0.621300  0.872600  1.0  0.1577
  C  C248  1  0.873800  0.884800  0.640500  1.0  0.1481
  C  C249  1  0.941400  0.839600  0.692000  1.0  -0.202
  C  C250  1  0.975600  0.849600  0.649200  1.0  0.1963
  C  C251  1  0.941700  0.908500  0.562700  1.0  -0.282
  C  C252  1  0.875500  0.950600  0.519900  1.0  0.1329
  C  C253  1  0.389300  0.401800  0.209200  1.0  0.1648
  C  C254  1  0.432700  0.351500  0.304700  1.0  -0.2841
  C  C255  1  0.396200  0.286800  0.312900  1.0  0.2241
  C  C256  1  0.318100  0.274100  0.221900  1.0  -0.327
  C  C257  1  0.280200  0.326400  0.130600  1.0  0.151
  C  C258  1  0.322800  0.147900  0.458000  1.0  0.1645
  C  C259  1  0.344800  0.201200  0.418200  1.0  -0.2322
  C  C260  1  0.413700  0.186100  0.445300  1.0  0.2236
  C  C261  1  0.461100  0.120600  0.522900  1.0  -0.2807
  C  C262  1  0.434700  0.072000  0.560000  1.0  0.1515
  C  C263  1  0.453800  0.859000  0.714200  1.0  0.1532
  C  C264  1  0.498500  0.790500  0.735000  1.0  -0.2557
  C  C265  1  0.490800  0.757500  0.650500  1.0  0.222
  C  C266  1  0.434500  0.795200  0.545000  1.0  -0.2653
  C  C267  1  0.392700  0.862700  0.532100  1.0  0.1454
  C  C268  1  0.716500  0.645600  0.942900  1.0  0.1481
  C  C269  1  0.651600  0.690300  0.856400  1.0  -0.2908
  C  C270  1  0.598900  0.649900  0.754500  1.0  0.2556
  C  C271  1  0.616700  0.566800  0.744600  1.0  -0.2764
  C  C272  1  0.682600  0.528400  0.835300  1.0  0.1587
  C  C273  1  0.758300  0.139100  0.379000  1.0  0.1574
  C  C274  1  0.736600  0.191100  0.292600  1.0  -0.2776
  C  C275  1  0.663500  0.180600  0.187100  1.0  0.2688
  C  C276  1  0.616300  0.116900  0.174000  1.0  -0.2784
  C  C277  1  0.642600  0.070400  0.265100  1.0  0.1545
  C  C278  1  0.787100  0.326800  0.123100  1.0  0.1557
  C  C279  1  0.750700  0.268700  0.136500  1.0  -0.3078
  C  C280  1  0.675300  0.286600  0.086200  1.0  0.2074
  C  C281  1  0.639700  0.360200  0.021600  1.0  -0.2484
  C  C282  1  0.681800  0.413700  0.014600  1.0  0.166
  C  C283  1  0.688000  0.856400  0.345500  1.0  0.1546
  C  C284  1  0.646700  0.786100  0.279300  1.0  -0.2898
  C  C285  1  0.581900  0.761100  0.258900  1.0  0.2417
  C  C286  1  0.562500  0.808900  0.307200  1.0  -0.295
  C  C287  1  0.608000  0.878700  0.372600  1.0  0.156
  C  C288  1  0.373800  0.615200  0.140500  1.0  0.1485
  C  C289  1  0.441400  0.660400  0.192000  1.0  -0.2019
  C  C290  1  0.475600  0.650400  0.149200  1.0  0.1965
  C  C291  1  0.441700  0.591500  0.062700  1.0  -0.282
  C  C292  1  0.375500  0.549400  0.019900  1.0  0.1335
  C  C293  1  0.889300  0.098200  0.709200  1.0  0.1646
  C  C294  1  0.932700  0.148500  0.804700  1.0  -0.2832
  C  C295  1  0.896200  0.213200  0.812900  1.0  0.2239
  C  C296  1  0.818100  0.225900  0.721900  1.0  -0.3267
  C  C297  1  0.780200  0.173600  0.630600  1.0  0.1514
  C  C298  1  0.822800  0.352100  0.958000  1.0  0.165
  C  C299  1  0.844800  0.298800  0.918200  1.0  -0.2319
  C  C300  1  0.913700  0.313900  0.945300  1.0  0.2244
  C  C301  1  0.961100  0.379400  0.022900  1.0  -0.2795
  C  C302  1  0.934700  0.428000  0.060000  1.0  0.1512
  C  C303  1  0.953800  0.641000  0.214200  1.0  0.1536
  C  C304  1  0.998500  0.709500  0.235000  1.0  -0.2554
  C  C305  1  0.990800  0.742500  0.150500  1.0  0.2218
  C  C306  1  0.934500  0.704800  0.045000  1.0  -0.2654
  C  C307  1  0.892700  0.637300  0.032100  1.0  0.1455
  C  C308  1  0.216500  0.854400  0.442900  1.0  0.1477
  C  C309  1  0.151600  0.809700  0.356400  1.0  -0.2924
  C  C310  1  0.098900  0.850100  0.254500  1.0  0.2554
  C  C311  1  0.116700  0.933200  0.244600  1.0  -0.277
  C  C312  1  0.182600  0.971600  0.335300  1.0  0.1586
  N  N313  1  0.712900  0.920000  0.867600  1.0  -0.3604
  N  N314  1  0.755600  0.599200  0.565800  1.0  -0.3558
  N  N315  1  0.634800  0.769600  0.597400  1.0  -0.4205
  N  N316  1  0.670300  0.096900  0.893500  1.0  -0.3548
  N  N317  1  0.340100  0.440700  0.556200  1.0  -0.3426
  N  N318  1  0.542500  0.309500  0.690100  1.0  -0.3201
  N  N319  1  0.813700  0.892500  0.123100  1.0  -0.3549
  N  N320  1  0.865800  0.581800  0.527600  1.0  -0.3614
  N  N321  1  0.940200  0.736000  0.407800  1.0  -0.3652
  N  N322  1  0.900400  0.396400  0.615300  1.0  -0.3397
  N  N323  1  0.232400  0.064000  0.936100  1.0  -0.3173
  N  N324  1  0.031200  0.186600  0.659100  1.0  -0.3574
  N  N325  1  0.212900  0.580000  0.367600  1.0  -0.3597
  N  N326  1  0.255600  0.900800  0.065800  1.0  -0.3553
  N  N327  1  0.134800  0.730400  0.097400  1.0  -0.4206
  N  N328  1  0.170300  0.403100  0.393500  1.0  -0.3561
  N  N329  1  0.840100  0.059300  0.056200  1.0  -0.3423
  N  N330  1  0.042500  0.190500  0.190100  1.0  -0.3201
  N  N331  1  0.313700  0.607500  0.623100  1.0  -0.3556
  N  N332  1  0.365800  0.918200  0.027600  1.0  -0.3625
  N  N333  1  0.440200  0.764000  0.907800  1.0  -0.3655
  N  N334  1  0.400400  0.103600  0.115300  1.0  -0.3392
  N  N335  1  0.732400  0.436000  0.436100  1.0  -0.3174
  N  N336  1  0.531200  0.313400  0.159100  1.0  -0.3564
  N  N337  1  0.212900  0.420000  0.867600  1.0  -0.3604
  N  N338  1  0.255600  0.099200  0.565800  1.0  -0.3558
  N  N339  1  0.134800  0.269600  0.597400  1.0  -0.4205
  N  N340  1  0.170300  0.596900  0.893500  1.0  -0.3548
  N  N341  1  0.840100  0.940700  0.556200  1.0  -0.3426
  N  N342  1  0.042500  0.809500  0.690100  1.0  -0.3201
  N  N343  1  0.313700  0.392500  0.123100  1.0  -0.3549
  N  N344  1  0.365800  0.081800  0.527600  1.0  -0.3614
  N  N345  1  0.440200  0.236000  0.407800  1.0  -0.3652
  N  N346  1  0.400400  0.896400  0.615300  1.0  -0.3397
  N  N347  1  0.732400  0.564000  0.936100  1.0  -0.3173
  N  N348  1  0.531200  0.686600  0.659100  1.0  -0.3574
  N  N349  1  0.712900  0.080000  0.367600  1.0  -0.3597
  N  N350  1  0.755600  0.400800  0.065800  1.0  -0.3553
  N  N351  1  0.634800  0.230400  0.097400  1.0  -0.4206
  N  N352  1  0.670300  0.903100  0.393500  1.0  -0.3561
  N  N353  1  0.340100  0.559300  0.056200  1.0  -0.3423
  N  N354  1  0.542500  0.690500  0.190100  1.0  -0.3201
  N  N355  1  0.813700  0.107500  0.623100  1.0  -0.3556
  N  N356  1  0.865800  0.418200  0.027600  1.0  -0.3625
  N  N357  1  0.940200  0.264000  0.907800  1.0  -0.3655
  N  N358  1  0.900400  0.603600  0.115300  1.0  -0.3392
  N  N359  1  0.232400  0.936000  0.436100  1.0  -0.3174
  N  N360  1  0.031200  0.813400  0.159100  1.0  -0.3564
