# generated using pymatgen
data_CoH18(C10N3)2
_symmetry_space_group_name_H-M   'P 1'
_cell_length_a   15.16400000
_cell_length_b   16.99200000
_cell_length_c   17.48900000
_cell_angle_alpha   90.00000000
_cell_angle_beta   90.00000000
_cell_angle_gamma   90.00000000
_symmetry_Int_Tables_number   1
_chemical_formula_structural   CoH18(C10N3)2
_chemical_formula_sum   'Co8 H144 C160 N48'
_cell_volume   4506.33270643
_cell_formula_units_Z   8
loop_
 _symmetry_equiv_pos_site_id
 _symmetry_equiv_pos_as_xyz
  1  'x, y, z'
loop_
 _atom_site_type_symbol
 _atom_site_label
 _atom_site_symmetry_multiplicity
 _atom_site_fract_x
 _atom_site_fract_y
 _atom_site_fract_z
 _atom_site_occupancy
 _atom_site_charge
  Co  Co1  1  0.986960  0.817160  0.548160  1.0  0.2446
  Co  Co2  1  0.513040  0.317160  0.451840  1.0  0.2408
  Co  Co3  1  0.986960  0.317160  0.951840  1.0  0.2425
  Co  Co4  1  0.513040  0.817160  0.048160  1.0  0.2428
  Co  Co5  1  0.013040  0.682840  0.048160  1.0  0.2493
  Co  Co6  1  0.486960  0.182840  0.951840  1.0  0.2493
  Co  Co7  1  0.013040  0.182840  0.451840  1.0  0.2475
  Co  Co8  1  0.486960  0.682840  0.548160  1.0  0.2512
  H  H9  1  0.798000  0.497000  0.701400  1.0  0.272
  H  H10  1  0.177000  0.653000  0.239000  1.0  0.278
  H  H11  1  0.550100  0.361400  0.626600  1.0  0.0604
  H  H12  1  0.644800  0.438600  0.695800  1.0  0.1344
  H  H13  1  0.801900  0.448900  0.511000  1.0  0.1328
  H  H14  1  0.701100  0.372600  0.447400  1.0  0.0438
  H  H15  1  0.951600  0.716200  0.687300  1.0  0.061
  H  H16  1  0.887300  0.601600  0.726100  1.0  0.123
  H  H17  1  0.779500  0.580800  0.516700  1.0  0.1251
  H  H18  1  0.848200  0.696700  0.484600  1.0  0.0607
  H  H19  1  0.400900  0.672400  0.080700  1.0  0.0676
  H  H20  1  0.294800  0.623800  0.159600  1.0  0.1242
  H  H21  1  0.288100  0.834100  0.265500  1.0  0.1224
  H  H22  1  0.397900  0.874200  0.185300  1.0  0.057
  H  H23  1  0.164500  0.828900  0.474300  1.0  0.056
  H  H24  1  0.247400  0.795300  0.371200  1.0  0.1241
  H  H25  1  0.052000  0.649400  0.306900  1.0  0.1242
  H  H26  1  0.975200  0.689900  0.411600  1.0  0.0548
  H  H27  1  0.702000  0.997000  0.298600  1.0  0.2746
  H  H28  1  0.323000  0.153000  0.761000  1.0  0.279
  H  H29  1  0.949900  0.861400  0.373400  1.0  0.0609
  H  H30  1  0.855200  0.938600  0.304200  1.0  0.1346
  H  H31  1  0.698100  0.948900  0.489000  1.0  0.1318
  H  H32  1  0.798900  0.872600  0.552600  1.0  0.0426
  H  H33  1  0.548400  0.216200  0.312700  1.0  0.0607
  H  H34  1  0.612700  0.101600  0.273900  1.0  0.1236
  H  H35  1  0.720500  0.080800  0.483300  1.0  0.1254
  H  H36  1  0.651800  0.196700  0.515400  1.0  0.0619
  H  H37  1  0.099100  0.172400  0.919300  1.0  0.0676
  H  H38  1  0.205200  0.123800  0.840400  1.0  0.124
  H  H39  1  0.211900  0.334100  0.734500  1.0  0.1222
  H  H40  1  0.102100  0.374200  0.814700  1.0  0.0571
  H  H41  1  0.335500  0.328900  0.525700  1.0  0.0565
  H  H42  1  0.252600  0.295300  0.628800  1.0  0.1236
  H  H43  1  0.448000  0.149400  0.693100  1.0  0.1245
  H  H44  1  0.524800  0.189900  0.588400  1.0  0.055
  H  H45  1  0.798000  0.997000  0.798600  1.0  0.2746
  H  H46  1  0.177000  0.153000  0.261000  1.0  0.2783
  H  H47  1  0.550100  0.861400  0.873400  1.0  0.0607
  H  H48  1  0.644800  0.938600  0.804200  1.0  0.1347
  H  H49  1  0.801900  0.948900  0.989000  1.0  0.1326
  H  H50  1  0.701100  0.872600  0.052600  1.0  0.0426
  H  H51  1  0.951600  0.216200  0.812700  1.0  0.0606
  H  H52  1  0.887300  0.101600  0.773900  1.0  0.1236
  H  H53  1  0.779500  0.080800  0.983300  1.0  0.1254
  H  H54  1  0.848200  0.196700  0.015400  1.0  0.0621
  H  H55  1  0.400900  0.172400  0.419300  1.0  0.0677
  H  H56  1  0.294800  0.123800  0.340400  1.0  0.1245
  H  H57  1  0.288100  0.334100  0.234500  1.0  0.1225
  H  H58  1  0.397900  0.374200  0.314700  1.0  0.0571
  H  H59  1  0.164500  0.328900  0.025700  1.0  0.0562
  H  H60  1  0.247400  0.295300  0.128800  1.0  0.124
  H  H61  1  0.052000  0.149400  0.193100  1.0  0.1243
  H  H62  1  0.975200  0.189900  0.088400  1.0  0.0548
  H  H63  1  0.702000  0.497000  0.201400  1.0  0.272
  H  H64  1  0.323000  0.653000  0.739000  1.0  0.2786
  H  H65  1  0.949900  0.361400  0.126600  1.0  0.0605
  H  H66  1  0.855200  0.438600  0.195800  1.0  0.1343
  H  H67  1  0.698100  0.448900  0.011000  1.0  0.1318
  H  H68  1  0.798900  0.372600  0.947400  1.0  0.0436
  H  H69  1  0.548400  0.716200  0.187300  1.0  0.0611
  H  H70  1  0.612700  0.601600  0.226100  1.0  0.1234
  H  H71  1  0.720500  0.580800  0.016700  1.0  0.1251
  H  H72  1  0.651800  0.696700  0.984600  1.0  0.0604
  H  H73  1  0.099100  0.672400  0.580700  1.0  0.0674
  H  H74  1  0.205200  0.623800  0.659600  1.0  0.1238
  H  H75  1  0.211900  0.834100  0.765500  1.0  0.1223
  H  H76  1  0.102100  0.874200  0.685300  1.0  0.0571
  H  H77  1  0.335500  0.828900  0.974300  1.0  0.0562
  H  H78  1  0.252600  0.795300  0.871200  1.0  0.1238
  H  H79  1  0.448000  0.649400  0.806900  1.0  0.1247
  H  H80  1  0.524800  0.689900  0.911600  1.0  0.0549
  H  H81  1  0.202000  0.003000  0.201400  1.0  0.2718
  H  H82  1  0.823000  0.847000  0.739000  1.0  0.2782
  H  H83  1  0.449900  0.138600  0.126600  1.0  0.0602
  H  H84  1  0.355200  0.061400  0.195800  1.0  0.134
  H  H85  1  0.198100  0.051100  0.011000  1.0  0.1318
  H  H86  1  0.298900  0.127400  0.947400  1.0  0.0446
  H  H87  1  0.048400  0.783800  0.187300  1.0  0.0612
  H  H88  1  0.112700  0.898400  0.226100  1.0  0.1231
  H  H89  1  0.220500  0.919200  0.016700  1.0  0.1252
  H  H90  1  0.151800  0.803300  0.984600  1.0  0.0603
  H  H91  1  0.599100  0.827600  0.580700  1.0  0.0683
  H  H92  1  0.705200  0.876200  0.659600  1.0  0.1239
  H  H93  1  0.711900  0.665900  0.765500  1.0  0.1226
  H  H94  1  0.602100  0.625800  0.685300  1.0  0.0573
  H  H95  1  0.835500  0.671100  0.974300  1.0  0.0574
  H  H96  1  0.752600  0.704700  0.871200  1.0  0.1241
  H  H97  1  0.948000  0.850600  0.806900  1.0  0.1251
  H  H98  1  0.024800  0.810100  0.911600  1.0  0.0554
  H  H99  1  0.298000  0.503000  0.798600  1.0  0.2748
  H  H100  1  0.677000  0.347000  0.261000  1.0  0.278
  H  H101  1  0.050100  0.638600  0.873400  1.0  0.0603
  H  H102  1  0.144800  0.561400  0.804200  1.0  0.135
  H  H103  1  0.301900  0.551100  0.989000  1.0  0.1329
  H  H104  1  0.201100  0.627400  0.052600  1.0  0.0422
  H  H105  1  0.451600  0.283800  0.812700  1.0  0.0608
  H  H106  1  0.387300  0.398400  0.773900  1.0  0.1236
  H  H107  1  0.279500  0.419200  0.983300  1.0  0.1257
  H  H108  1  0.348200  0.303300  0.015400  1.0  0.0617
  H  H109  1  0.900900  0.327600  0.419300  1.0  0.068
  H  H110  1  0.794800  0.376200  0.340400  1.0  0.1245
  H  H111  1  0.788100  0.165900  0.234500  1.0  0.1224
  H  H112  1  0.897900  0.125800  0.314700  1.0  0.0574
  H  H113  1  0.664500  0.171100  0.025700  1.0  0.0577
  H  H114  1  0.747400  0.204700  0.128800  1.0  0.1243
  H  H115  1  0.552000  0.350600  0.193100  1.0  0.1242
  H  H116  1  0.475200  0.310100  0.088400  1.0  0.0552
  H  H117  1  0.202000  0.503000  0.298600  1.0  0.2745
  H  H118  1  0.823000  0.347000  0.761000  1.0  0.2782
  H  H119  1  0.449900  0.638600  0.373400  1.0  0.0605
  H  H120  1  0.355200  0.561400  0.304200  1.0  0.1348
  H  H121  1  0.198100  0.551100  0.489000  1.0  0.1319
  H  H122  1  0.298900  0.627400  0.552600  1.0  0.0422
  H  H123  1  0.048400  0.283800  0.312700  1.0  0.0606
  H  H124  1  0.112700  0.398400  0.273900  1.0  0.1234
  H  H125  1  0.220500  0.419200  0.483300  1.0  0.1255
  H  H126  1  0.151800  0.303300  0.515400  1.0  0.0613
  H  H127  1  0.599100  0.327600  0.919300  1.0  0.068
  H  H128  1  0.705200  0.376200  0.840400  1.0  0.124
  H  H129  1  0.711900  0.165900  0.734500  1.0  0.1221
  H  H130  1  0.602100  0.125800  0.814700  1.0  0.0572
  H  H131  1  0.835500  0.171100  0.525700  1.0  0.0577
  H  H132  1  0.752600  0.204700  0.628800  1.0  0.124
  H  H133  1  0.948000  0.350600  0.693100  1.0  0.1245
  H  H134  1  0.024800  0.310100  0.588400  1.0  0.0552
  H  H135  1  0.298000  0.003000  0.701400  1.0  0.272
  H  H136  1  0.677000  0.847000  0.239000  1.0  0.2783
  H  H137  1  0.050100  0.138600  0.626600  1.0  0.06
  H  H138  1  0.144800  0.061400  0.695800  1.0  0.1346
  H  H139  1  0.301900  0.051100  0.511000  1.0  0.1329
  H  H140  1  0.201100  0.127400  0.447400  1.0  0.0449
  H  H141  1  0.451600  0.783800  0.687300  1.0  0.0613
  H  H142  1  0.387300  0.898400  0.726100  1.0  0.1231
  H  H143  1  0.279500  0.919200  0.516700  1.0  0.1254
  H  H144  1  0.348200  0.803300  0.484600  1.0  0.061
  H  H145  1  0.900900  0.827600  0.080700  1.0  0.068
  H  H146  1  0.794800  0.876200  0.159600  1.0  0.1243
  H  H147  1  0.788100  0.665900  0.265500  1.0  0.1226
  H  H148  1  0.897900  0.625800  0.185300  1.0  0.0573
  H  H149  1  0.664500  0.671100  0.474300  1.0  0.0576
  H  H150  1  0.747400  0.704700  0.371200  1.0  0.1243
  H  H151  1  0.552000  0.850600  0.306900  1.0  0.1246
  H  H152  1  0.475200  0.810100  0.411600  1.0  0.0554
  C  C153  1  0.600800  0.380200  0.602800  1.0  0.1588
  C  C154  1  0.657000  0.427000  0.644900  1.0  -0.3122
  C  C155  1  0.732000  0.456600  0.609900  1.0  0.2474
  C  C156  1  0.750100  0.433300  0.535200  1.0  -0.2943
  C  C157  1  0.689500  0.386600  0.497800  1.0  0.1449
  C  C158  1  0.917800  0.688200  0.652200  1.0  0.1523
  C  C159  1  0.879100  0.619200  0.676200  1.0  -0.3233
  C  C160  1  0.827100  0.575400  0.625400  1.0  0.278
  C  C161  1  0.815000  0.606500  0.552200  1.0  -0.3164
  C  C162  1  0.857000  0.676600  0.533500  1.0  0.1608
  C  C163  1  0.378000  0.705200  0.118400  1.0  0.1546
  C  C164  1  0.313400  0.675700  0.165000  1.0  -0.3137
  C  C165  1  0.275300  0.724300  0.221200  1.0  0.2586
  C  C166  1  0.309500  0.800000  0.228300  1.0  -0.302
  C  C167  1  0.375700  0.823600  0.179400  1.0  0.1439
  C  C168  1  0.140900  0.793300  0.439500  1.0  0.1505
  C  C169  1  0.191700  0.773200  0.377500  1.0  -0.2992
  C  C170  1  0.159500  0.719600  0.324200  1.0  0.2581
  C  C171  1  0.076000  0.687100  0.339300  1.0  -0.3229
  C  C172  1  0.030500  0.711900  0.402900  1.0  0.15
  C  C173  1  0.899200  0.880200  0.397200  1.0  0.1595
  C  C174  1  0.843000  0.927000  0.355100  1.0  -0.3069
  C  C175  1  0.768000  0.956600  0.390100  1.0  0.2474
  C  C176  1  0.749900  0.933300  0.464800  1.0  -0.2947
  C  C177  1  0.810500  0.886600  0.502200  1.0  0.1434
  C  C178  1  0.582200  0.188200  0.347800  1.0  0.1527
  C  C179  1  0.620900  0.119200  0.323800  1.0  -0.3246
  C  C180  1  0.672900  0.075400  0.374600  1.0  0.2775
  C  C181  1  0.685000  0.106500  0.447800  1.0  -0.3148
  C  C182  1  0.643000  0.176600  0.466500  1.0  0.161
  C  C183  1  0.122000  0.205200  0.881600  1.0  0.155
  C  C184  1  0.186600  0.175700  0.835000  1.0  -0.3138
  C  C185  1  0.224700  0.224300  0.778800  1.0  0.2584
  C  C186  1  0.190500  0.300000  0.771700  1.0  -0.2993
  C  C187  1  0.124300  0.323600  0.820600  1.0  0.1432
  C  C188  1  0.359100  0.293300  0.560500  1.0  0.1503
  C  C189  1  0.308300  0.273200  0.622500  1.0  -0.2997
  C  C190  1  0.340500  0.219600  0.675800  1.0  0.2581
  C  C191  1  0.424000  0.187100  0.660700  1.0  -0.3222
  C  C192  1  0.469500  0.211900  0.597100  1.0  0.1496
  C  C193  1  0.600800  0.880200  0.897200  1.0  0.1587
  C  C194  1  0.657000  0.927000  0.855100  1.0  -0.3098
  C  C195  1  0.732000  0.956600  0.890100  1.0  0.2474
  C  C196  1  0.750100  0.933300  0.964800  1.0  -0.2939
  C  C197  1  0.689500  0.886600  0.002200  1.0  0.1432
  C  C198  1  0.917800  0.188200  0.847800  1.0  0.1522
  C  C199  1  0.879100  0.119200  0.823800  1.0  -0.3248
  C  C200  1  0.827100  0.075400  0.874600  1.0  0.2778
  C  C201  1  0.815000  0.106500  0.947800  1.0  -0.3136
  C  C202  1  0.857000  0.176600  0.966500  1.0  0.161
  C  C203  1  0.378000  0.205200  0.381600  1.0  0.1548
  C  C204  1  0.313400  0.175700  0.335000  1.0  -0.3137
  C  C205  1  0.275300  0.224300  0.278800  1.0  0.2584
  C  C206  1  0.309500  0.300000  0.271700  1.0  -0.3019
  C  C207  1  0.375700  0.323600  0.320600  1.0  0.1437
  C  C208  1  0.140900  0.293300  0.060500  1.0  0.1506
  C  C209  1  0.191700  0.273200  0.122500  1.0  -0.2994
  C  C210  1  0.159500  0.219600  0.175800  1.0  0.258
  C  C211  1  0.076000  0.187100  0.160700  1.0  -0.3232
  C  C212  1  0.030500  0.211900  0.097100  1.0  0.1499
  C  C213  1  0.899200  0.380200  0.102800  1.0  0.16
  C  C214  1  0.843000  0.427000  0.144900  1.0  -0.3106
  C  C215  1  0.768000  0.456600  0.109900  1.0  0.2474
  C  C216  1  0.749900  0.433300  0.035200  1.0  -0.2943
  C  C217  1  0.810500  0.386600  0.997800  1.0  0.1455
  C  C218  1  0.582200  0.688200  0.152200  1.0  0.1531
  C  C219  1  0.620900  0.619200  0.176200  1.0  -0.3222
  C  C220  1  0.672900  0.575400  0.125400  1.0  0.2776
  C  C221  1  0.685000  0.606500  0.052200  1.0  -0.3179
  C  C222  1  0.643000  0.676600  0.033500  1.0  0.1606
  C  C223  1  0.122000  0.705200  0.618400  1.0  0.1548
  C  C224  1  0.186600  0.675700  0.665000  1.0  -0.314
  C  C225  1  0.224700  0.724300  0.721200  1.0  0.2586
  C  C226  1  0.190500  0.800000  0.728300  1.0  -0.2996
  C  C227  1  0.124300  0.823600  0.679400  1.0  0.1435
  C  C228  1  0.359100  0.793300  0.939500  1.0  0.1501
  C  C229  1  0.308300  0.773200  0.877500  1.0  -0.2998
  C  C230  1  0.340500  0.719600  0.824200  1.0  0.2582
  C  C231  1  0.424000  0.687100  0.839300  1.0  -0.3222
  C  C232  1  0.469500  0.711900  0.902900  1.0  0.1497
  C  C233  1  0.399200  0.119800  0.102800  1.0  0.1584
  C  C234  1  0.343000  0.073000  0.144900  1.0  -0.3111
  C  C235  1  0.268000  0.043400  0.109900  1.0  0.2474
  C  C236  1  0.249900  0.066700  0.035200  1.0  -0.2944
  C  C237  1  0.310500  0.113400  0.997800  1.0  0.1445
  C  C238  1  0.082200  0.811800  0.152200  1.0  0.1531
  C  C239  1  0.120900  0.880800  0.176200  1.0  -0.3228
  C  C240  1  0.172900  0.924600  0.125400  1.0  0.2778
  C  C241  1  0.185000  0.893500  0.052200  1.0  -0.3182
  C  C242  1  0.143000  0.823400  0.033500  1.0  0.1604
  C  C243  1  0.622000  0.794800  0.618400  1.0  0.1554
  C  C244  1  0.686600  0.824300  0.665000  1.0  -0.3182
  C  C245  1  0.724700  0.775700  0.721200  1.0  0.2585
  C  C246  1  0.690500  0.700000  0.728300  1.0  -0.2988
  C  C247  1  0.624300  0.676400  0.679400  1.0  0.143
  C  C248  1  0.859100  0.706700  0.939500  1.0  0.1513
  C  C249  1  0.808300  0.726800  0.877500  1.0  -0.3001
  C  C250  1  0.840500  0.780400  0.824200  1.0  0.2581
  C  C251  1  0.924000  0.812900  0.839300  1.0  -0.3235
  C  C252  1  0.969500  0.788100  0.902900  1.0  0.1491
  C  C253  1  0.100800  0.619800  0.897200  1.0  0.1573
  C  C254  1  0.157000  0.573000  0.855100  1.0  -0.31
  C  C255  1  0.232000  0.543400  0.890100  1.0  0.2475
  C  C256  1  0.250100  0.566700  0.964800  1.0  -0.2941
  C  C257  1  0.189500  0.613400  0.002200  1.0  0.1424
  C  C258  1  0.417800  0.311800  0.847800  1.0  0.1522
  C  C259  1  0.379100  0.380800  0.823800  1.0  -0.3271
  C  C260  1  0.327100  0.424600  0.874600  1.0  0.2779
  C  C261  1  0.315000  0.393500  0.947800  1.0  -0.3139
  C  C262  1  0.357000  0.323400  0.966500  1.0  0.1609
  C  C263  1  0.878000  0.294800  0.381600  1.0  0.1552
  C  C264  1  0.813400  0.324300  0.335000  1.0  -0.3188
  C  C265  1  0.775300  0.275700  0.278800  1.0  0.2583
  C  C266  1  0.809500  0.200000  0.271700  1.0  -0.3014
  C  C267  1  0.875700  0.176400  0.320600  1.0  0.1428
  C  C268  1  0.640900  0.206700  0.060500  1.0  0.1507
  C  C269  1  0.691700  0.226800  0.122500  1.0  -0.3
  C  C270  1  0.659500  0.280400  0.175800  1.0  0.2579
  C  C271  1  0.576000  0.312900  0.160700  1.0  -0.3249
  C  C272  1  0.530500  0.288100  0.097100  1.0  0.1493
  C  C273  1  0.399200  0.619800  0.397200  1.0  0.158
  C  C274  1  0.343000  0.573000  0.355100  1.0  -0.3064
  C  C275  1  0.268000  0.543400  0.390100  1.0  0.2474
  C  C276  1  0.249900  0.566700  0.464800  1.0  -0.2948
  C  C277  1  0.310500  0.613400  0.502200  1.0  0.1424
  C  C278  1  0.082200  0.311800  0.347800  1.0  0.1526
  C  C279  1  0.120900  0.380800  0.323800  1.0  -0.3267
  C  C280  1  0.172900  0.424600  0.374600  1.0  0.2777
  C  C281  1  0.185000  0.393500  0.447800  1.0  -0.3152
  C  C282  1  0.143000  0.323400  0.466500  1.0  0.1608
  C  C283  1  0.622000  0.294800  0.881600  1.0  0.1555
  C  C284  1  0.686600  0.324300  0.835000  1.0  -0.3184
  C  C285  1  0.724700  0.275700  0.778800  1.0  0.2584
  C  C286  1  0.690500  0.200000  0.771700  1.0  -0.2987
  C  C287  1  0.624300  0.176400  0.820600  1.0  0.1424
  C  C288  1  0.859100  0.206700  0.560500  1.0  0.1509
  C  C289  1  0.808300  0.226800  0.622500  1.0  -0.3001
  C  C290  1  0.840500  0.280400  0.675800  1.0  0.258
  C  C291  1  0.924000  0.312900  0.660700  1.0  -0.3239
  C  C292  1  0.969500  0.288100  0.597100  1.0  0.1491
  C  C293  1  0.100800  0.119800  0.602800  1.0  0.1575
  C  C294  1  0.157000  0.073000  0.644900  1.0  -0.3131
  C  C295  1  0.232000  0.043400  0.609900  1.0  0.2475
  C  C296  1  0.250100  0.066700  0.535200  1.0  -0.2942
  C  C297  1  0.189500  0.113400  0.497800  1.0  0.1442
  C  C298  1  0.417800  0.811800  0.652200  1.0  0.1524
  C  C299  1  0.379100  0.880800  0.676200  1.0  -0.3242
  C  C300  1  0.327100  0.924600  0.625400  1.0  0.278
  C  C301  1  0.315000  0.893500  0.552200  1.0  -0.3168
  C  C302  1  0.357000  0.823400  0.533500  1.0  0.1608
  C  C303  1  0.878000  0.794800  0.118400  1.0  0.1552
  C  C304  1  0.813400  0.824300  0.165000  1.0  -0.3186
  C  C305  1  0.775300  0.775700  0.221200  1.0  0.2585
  C  C306  1  0.809500  0.700000  0.228300  1.0  -0.3016
  C  C307  1  0.875700  0.676400  0.179400  1.0  0.1433
  C  C308  1  0.640900  0.706700  0.439500  1.0  0.1513
  C  C309  1  0.691700  0.726800  0.377500  1.0  -0.2998
  C  C310  1  0.659500  0.780400  0.324200  1.0  0.258
  C  C311  1  0.576000  0.812900  0.339300  1.0  -0.3243
  C  C312  1  0.530500  0.788100  0.402900  1.0  0.1493
  N  N313  1  0.909600  0.717470  0.581000  1.0  -0.3159
  N  N314  1  0.614800  0.360100  0.529700  1.0  -0.331
  N  N315  1  0.787900  0.507600  0.651600  1.0  -0.396
  N  N316  1  0.059600  0.765400  0.453500  1.0  -0.3041
  N  N317  1  0.204600  0.693400  0.260400  1.0  -0.3704
  N  N318  1  0.410300  0.778600  0.123700  1.0  -0.3264
  N  N319  1  0.590400  0.217470  0.419000  1.0  -0.3167
  N  N320  1  0.885200  0.860100  0.470300  1.0  -0.3287
  N  N321  1  0.712100  0.007600  0.348400  1.0  -0.3974
  N  N322  1  0.440400  0.265400  0.546500  1.0  -0.303
  N  N323  1  0.295400  0.193400  0.739600  1.0  -0.3688
  N  N324  1  0.089700  0.278600  0.876300  1.0  -0.3271
  N  N325  1  0.909600  0.217470  0.919000  1.0  -0.3159
  N  N326  1  0.614800  0.860100  0.970300  1.0  -0.3296
  N  N327  1  0.787900  0.007600  0.848400  1.0  -0.396
  N  N328  1  0.059600  0.265400  0.046500  1.0  -0.3032
  N  N329  1  0.204600  0.193400  0.239600  1.0  -0.3698
  N  N330  1  0.410300  0.278600  0.376300  1.0  -0.3263
  N  N331  1  0.590400  0.717470  0.081000  1.0  -0.3168
  N  N332  1  0.885200  0.360100  0.029700  1.0  -0.3308
  N  N333  1  0.712100  0.507600  0.151600  1.0  -0.3972
  N  N334  1  0.440400  0.765400  0.953500  1.0  -0.303
  N  N335  1  0.295400  0.693400  0.760400  1.0  -0.3695
  N  N336  1  0.089700  0.778600  0.623700  1.0  -0.3269
  N  N337  1  0.090400  0.782530  0.081000  1.0  -0.3166
  N  N338  1  0.385200  0.139900  0.029700  1.0  -0.3304
  N  N339  1  0.212100  0.992400  0.151600  1.0  -0.3974
  N  N340  1  0.940400  0.734600  0.953500  1.0  -0.3032
  N  N341  1  0.795400  0.806600  0.760400  1.0  -0.3696
  N  N342  1  0.589700  0.721400  0.623700  1.0  -0.3271
  N  N343  1  0.409600  0.282530  0.919000  1.0  -0.3148
  N  N344  1  0.114800  0.639900  0.970300  1.0  -0.33
  N  N345  1  0.287900  0.492400  0.848400  1.0  -0.3964
  N  N346  1  0.559600  0.234600  0.046500  1.0  -0.3045
  N  N347  1  0.704600  0.306600  0.239600  1.0  -0.3703
  N  N348  1  0.910300  0.221400  0.376300  1.0  -0.3249
  N  N349  1  0.090400  0.282530  0.419000  1.0  -0.3161
  N  N350  1  0.385200  0.639900  0.470300  1.0  -0.3293
  N  N351  1  0.212100  0.492400  0.348400  1.0  -0.3979
  N  N352  1  0.940400  0.234600  0.546500  1.0  -0.304
  N  N353  1  0.795400  0.306600  0.739600  1.0  -0.3689
  N  N354  1  0.589700  0.221400  0.876300  1.0  -0.3269
  N  N355  1  0.409600  0.782530  0.581000  1.0  -0.3149
  N  N356  1  0.114800  0.139900  0.529700  1.0  -0.3303
  N  N357  1  0.287900  0.992400  0.651600  1.0  -0.3961
  N  N358  1  0.559600  0.734600  0.453500  1.0  -0.3044
  N  N359  1  0.704600  0.806600  0.260400  1.0  -0.3708
  N  N360  1  0.910300  0.721400  0.123700  1.0  -0.3254
