# generated using pymatgen
data_VH4C8O5
_symmetry_space_group_name_H-M   'P 1'
_cell_length_a   6.80910000
_cell_length_b   16.41280000
_cell_length_c   13.56740000
_cell_angle_alpha   90.00000000
_cell_angle_beta   90.00000000
_cell_angle_gamma   90.00000000
_symmetry_Int_Tables_number   1
_chemical_formula_structural   VH4C8O5
_chemical_formula_sum   'V4 H16 C32 O20'
_cell_volume   1516.24373360
_cell_formula_units_Z   4
loop_
 _symmetry_equiv_pos_site_id
 _symmetry_equiv_pos_as_xyz
  1  'x, y, z'
loop_
 _atom_site_type_symbol
 _atom_site_label
 _atom_site_symmetry_multiplicity
 _atom_site_fract_x
 _atom_site_fract_y
 _atom_site_fract_z
 _atom_site_occupancy
 _atom_site_charge
  V  V1  1  0.200200  0.250000  0.739160  1.0  1.9462
  V  V2  1  0.299800  0.750000  0.239160  1.0  1.9453
  V  V3  1  0.799800  0.750000  0.260840  1.0  1.9454
  V  V4  1  0.700200  0.250000  0.760840  1.0  1.9463
  H  H5  1  0.201500  0.055400  0.542500  1.0  0.1167
  H  H6  1  0.783000  0.054800  0.561100  1.0  0.1062
  H  H7  1  0.298500  0.944600  0.042500  1.0  0.117
  H  H8  1  0.717000  0.945200  0.061100  1.0  0.1063
  H  H9  1  0.798500  0.555400  0.457500  1.0  0.1169
  H  H10  1  0.217000  0.554800  0.438900  1.0  0.1066
  H  H11  1  0.701500  0.444600  0.957500  1.0  0.1171
  H  H12  1  0.283000  0.445200  0.938900  1.0  0.1064
  H  H13  1  0.798500  0.944600  0.457500  1.0  0.117
  H  H14  1  0.217000  0.945200  0.438900  1.0  0.1065
  H  H15  1  0.701500  0.055400  0.957500  1.0  0.1169
  H  H16  1  0.283000  0.054800  0.938900  1.0  0.1064
  H  H17  1  0.201500  0.444600  0.542500  1.0  0.1168
  H  H18  1  0.783000  0.445200  0.561100  1.0  0.1064
  H  H19  1  0.298500  0.555400  0.042500  1.0  0.1165
  H  H20  1  0.717000  0.554800  0.061100  1.0  0.1061
  C  C21  1  0.322500  0.032900  0.526100  1.0  -0.0722
  C  C22  1  0.667500  0.032300  0.536900  1.0  -0.0567
  C  C23  1  0.491100  0.064900  0.565000  1.0  -0.1319
  C  C24  1  0.478100  0.136600  0.633300  1.0  0.7166
  C  C25  1  0.177500  0.967100  0.026100  1.0  -0.072
  C  C26  1  0.832500  0.967700  0.036900  1.0  -0.0553
  C  C27  1  0.008900  0.935100  0.065000  1.0  -0.1317
  C  C28  1  0.021900  0.863400  0.133300  1.0  0.7164
  C  C29  1  0.677500  0.532900  0.473900  1.0  -0.0725
  C  C30  1  0.332500  0.532300  0.463100  1.0  -0.0564
  C  C31  1  0.508900  0.564900  0.435000  1.0  -0.1315
  C  C32  1  0.521900  0.636600  0.366700  1.0  0.7167
  C  C33  1  0.822500  0.467100  0.973900  1.0  -0.0723
  C  C34  1  0.167500  0.467700  0.963100  1.0  -0.0566
  C  C35  1  0.991100  0.435100  0.935000  1.0  -0.1325
  C  C36  1  0.978100  0.363400  0.866700  1.0  0.7163
  C  C37  1  0.677500  0.967100  0.473900  1.0  -0.0724
  C  C38  1  0.332500  0.967700  0.463100  1.0  -0.0538
  C  C39  1  0.508900  0.935100  0.435000  1.0  -0.1325
  C  C40  1  0.521900  0.863400  0.366700  1.0  0.7164
  C  C41  1  0.822500  0.032900  0.973900  1.0  -0.0725
  C  C42  1  0.167500  0.032300  0.963100  1.0  -0.0548
  C  C43  1  0.991100  0.064900  0.935000  1.0  -0.1315
  C  C44  1  0.978100  0.136600  0.866700  1.0  0.7165
  C  C45  1  0.322500  0.467100  0.526100  1.0  -0.072
  C  C46  1  0.667500  0.467700  0.536900  1.0  -0.0541
  C  C47  1  0.491100  0.435100  0.565000  1.0  -0.1317
  C  C48  1  0.478100  0.363400  0.633300  1.0  0.7163
  C  C49  1  0.177500  0.532900  0.026100  1.0  -0.0721
  C  C50  1  0.832500  0.532300  0.036900  1.0  -0.0542
  C  C51  1  0.008900  0.564900  0.065000  1.0  -0.1319
  C  C52  1  0.021900  0.636600  0.133300  1.0  0.7167
  O  O53  1  0.311800  0.163200  0.655500  1.0  -0.6355
  O  O54  1  0.641500  0.162600  0.666500  1.0  -0.6201
  O  O55  1  0.188200  0.836800  0.155500  1.0  -0.6341
  O  O56  1  0.858500  0.837400  0.166500  1.0  -0.6216
  O  O57  1  0.688200  0.663200  0.344500  1.0  -0.6353
  O  O58  1  0.358500  0.662600  0.333500  1.0  -0.6214
  O  O59  1  0.811800  0.336800  0.844500  1.0  -0.6363
  O  O60  1  0.141500  0.337400  0.833500  1.0  -0.6205
  O  O61  1  0.688200  0.836800  0.344500  1.0  -0.6354
  O  O62  1  0.358500  0.837400  0.333500  1.0  -0.6217
  O  O63  1  0.811800  0.163200  0.844500  1.0  -0.6361
  O  O64  1  0.141500  0.162600  0.833500  1.0  -0.6202
  O  O65  1  0.311800  0.336800  0.655500  1.0  -0.6354
  O  O66  1  0.641500  0.337400  0.666500  1.0  -0.6205
  O  O67  1  0.188200  0.663200  0.155500  1.0  -0.6342
  O  O68  1  0.858500  0.662600  0.166500  1.0  -0.6216
  O  O69  1  0.475100  0.250000  0.808400  1.0  -0.7956
  O  O70  1  0.024900  0.750000  0.308400  1.0  -0.7953
  O  O71  1  0.524900  0.750000  0.191600  1.0  -0.7924
  O  O72  1  0.975100  0.250000  0.691600  1.0  -0.7928
