# generated using pymatgen
data_CdH18C18(NO)4
_symmetry_space_group_name_H-M   'P 1'
_cell_length_a   12.12290000
_cell_length_b   12.60990000
_cell_length_c   14.28190000
_cell_angle_alpha   98.41000000
_cell_angle_beta   90.00000000
_cell_angle_gamma   90.00000000
_symmetry_Int_Tables_number   1
_chemical_formula_structural   CdH18C18(NO)4
_chemical_formula_sum   'Cd4 H72 C72 N16 O16'
_cell_volume   2159.77652634
_cell_formula_units_Z   4
loop_
 _symmetry_equiv_pos_site_id
 _symmetry_equiv_pos_as_xyz
  1  'x, y, z'
loop_
 _atom_site_type_symbol
 _atom_site_label
 _atom_site_symmetry_multiplicity
 _atom_site_fract_x
 _atom_site_fract_y
 _atom_site_fract_z
 _atom_site_occupancy
 _atom_site_charge
  Cd  Cd1  1  0.953660  0.465250  0.119540  1.0  0.9787
  Cd  Cd2  1  0.453660  0.534750  0.380460  1.0  0.9789
  Cd  Cd3  1  0.046340  0.534750  0.880460  1.0  0.9788
  Cd  Cd4  1  0.546340  0.465250  0.619540  1.0  0.9786
  H  H5  1  0.696800  0.517200  0.142300  1.0  0.0897
  H  H6  1  0.567100  0.650400  0.150600  1.0  0.1296
  H  H7  1  0.622800  0.826400  0.152500  1.0  0.1067
  H  H8  1  0.934700  0.722900  0.134000  1.0  0.0776
  H  H9  1  0.785400  0.061800  0.147000  1.0  0.1382
  H  H10  1  0.702900  0.999100  0.203300  1.0  0.1335
  H  H11  1  0.700000  0.982200  0.092400  1.0  0.1296
  H  H12  1  0.100300  0.864600  0.089900  1.0  0.1371
  H  H13  1  0.205700  0.931400  0.123700  1.0  0.1304
  H  H14  1  0.163900  0.927000  0.019400  1.0  0.1409
  H  H15  1  0.279800  0.096200  0.106700  1.0  0.1122
  H  H16  1  0.342400  0.269100  0.104300  1.0  0.1399
  H  H17  1  0.217800  0.406000  0.105900  1.0  0.0784
  H  H18  1  0.971700  0.208300  0.111500  1.0  0.0697
  H  H19  1  0.837900  0.227700  0.310900  1.0  0.1168
  H  H20  1  0.722000  0.240300  0.265300  1.0  0.1161
  H  H21  1  0.728100  0.285800  0.435000  1.0  0.1125
  H  H22  1  0.796900  0.387200  0.420200  1.0  0.129
  H  H23  1  0.196800  0.482800  0.357700  1.0  0.089
  H  H24  1  0.067100  0.349600  0.349400  1.0  0.1288
  H  H25  1  0.122800  0.173600  0.347500  1.0  0.1066
  H  H26  1  0.434700  0.277100  0.366000  1.0  0.0777
  H  H27  1  0.285400  0.938200  0.353000  1.0  0.1374
  H  H28  1  0.202900  0.000900  0.296700  1.0  0.134
  H  H29  1  0.200000  0.017800  0.407600  1.0  0.1286
  H  H30  1  0.600300  0.135400  0.410100  1.0  0.138
  H  H31  1  0.705700  0.068600  0.376300  1.0  0.1315
  H  H32  1  0.663900  0.073000  0.480600  1.0  0.1382
  H  H33  1  0.779800  0.903800  0.393300  1.0  0.112
  H  H34  1  0.842400  0.730900  0.395700  1.0  0.1397
  H  H35  1  0.717800  0.594000  0.394100  1.0  0.0781
  H  H36  1  0.471700  0.791700  0.388500  1.0  0.0697
  H  H37  1  0.337900  0.772300  0.189100  1.0  0.1165
  H  H38  1  0.222000  0.759700  0.234700  1.0  0.116
  H  H39  1  0.228100  0.714200  0.065000  1.0  0.1139
  H  H40  1  0.296900  0.612800  0.079800  1.0  0.1293
  H  H41  1  0.303200  0.482800  0.857700  1.0  0.0889
  H  H42  1  0.432900  0.349600  0.849400  1.0  0.1275
  H  H43  1  0.377200  0.173600  0.847500  1.0  0.1072
  H  H44  1  0.065300  0.277100  0.866000  1.0  0.0774
  H  H45  1  0.214600  0.938200  0.853000  1.0  0.1379
  H  H46  1  0.297100  0.000900  0.796700  1.0  0.134
  H  H47  1  0.300000  0.017800  0.907600  1.0  0.1287
  H  H48  1  0.899700  0.135400  0.910100  1.0  0.1373
  H  H49  1  0.794300  0.068600  0.876300  1.0  0.13
  H  H50  1  0.836100  0.073000  0.980600  1.0  0.1402
  H  H51  1  0.720200  0.903800  0.893300  1.0  0.1125
  H  H52  1  0.657600  0.730900  0.895700  1.0  0.1408
  H  H53  1  0.782200  0.594000  0.894100  1.0  0.0786
  H  H54  1  0.028300  0.791700  0.888500  1.0  0.0704
  H  H55  1  0.162100  0.772300  0.689100  1.0  0.1173
  H  H56  1  0.278000  0.759700  0.734700  1.0  0.1159
  H  H57  1  0.271900  0.714200  0.565000  1.0  0.1143
  H  H58  1  0.203100  0.612800  0.579800  1.0  0.1297
  H  H59  1  0.803200  0.517200  0.642300  1.0  0.0897
  H  H60  1  0.932900  0.650400  0.650600  1.0  0.1277
  H  H61  1  0.877200  0.826400  0.652500  1.0  0.1075
  H  H62  1  0.565300  0.722900  0.634000  1.0  0.078
  H  H63  1  0.714600  0.061800  0.647000  1.0  0.1379
  H  H64  1  0.797100  0.999100  0.703300  1.0  0.1342
  H  H65  1  0.800000  0.982200  0.592400  1.0  0.1297
  H  H66  1  0.399700  0.864600  0.589900  1.0  0.139
  H  H67  1  0.294300  0.931400  0.623700  1.0  0.1291
  H  H68  1  0.336100  0.927000  0.519400  1.0  0.1432
  H  H69  1  0.220200  0.096200  0.606700  1.0  0.112
  H  H70  1  0.157600  0.269100  0.604300  1.0  0.1413
  H  H71  1  0.282200  0.406000  0.605900  1.0  0.0788
  H  H72  1  0.528300  0.208300  0.611500  1.0  0.0701
  H  H73  1  0.662100  0.227700  0.810900  1.0  0.1168
  H  H74  1  0.778000  0.240300  0.765300  1.0  0.1162
  H  H75  1  0.771900  0.285800  0.935000  1.0  0.1123
  H  H76  1  0.703100  0.387200  0.920200  1.0  0.1299
  C  C77  1  0.719790  0.587500  0.141930  1.0  0.1758
  C  C78  1  0.641650  0.667010  0.147580  1.0  -0.1589
  C  C79  1  0.674790  0.771710  0.148690  1.0  -0.0227
  C  C80  1  0.786510  0.794810  0.144010  1.0  -0.1769
  C  C81  1  0.859630  0.708750  0.137450  1.0  0.1972
  C  C82  1  0.828750  0.905890  0.144520  1.0  0.3153
  C  C83  1  0.746900  0.995300  0.147000  1.0  -0.4179
  C  C84  1  0.071180  0.024780  0.113860  1.0  0.3223
  C  C85  1  0.141600  0.928290  0.084100  1.0  -0.423
  C  C86  1  0.117310  0.133530  0.111030  1.0  -0.159
  C  C87  1  0.229980  0.152450  0.107720  1.0  -0.008
  C  C88  1  0.267190  0.255020  0.106020  1.0  -0.1582
  C  C89  1  0.191810  0.336750  0.106950  1.0  0.1793
  C  C90  1  0.047330  0.220450  0.110710  1.0  0.2003
  C  C91  1  0.832620  0.351960  0.234150  1.0  0.6974
  C  C92  1  0.782760  0.279600  0.298330  1.0  -0.2838
  C  C93  1  0.740630  0.337750  0.392320  1.0  -0.3019
  C  C94  1  0.635440  0.399080  0.383120  1.0  0.6987
  C  C95  1  0.219790  0.412500  0.358070  1.0  0.1756
  C  C96  1  0.141650  0.332990  0.352420  1.0  -0.1591
  C  C97  1  0.174790  0.228290  0.351310  1.0  -0.0249
  C  C98  1  0.286510  0.205190  0.355990  1.0  -0.178
  C  C99  1  0.359630  0.291250  0.362550  1.0  0.1964
  C  C100  1  0.328750  0.094110  0.355480  1.0  0.3146
  C  C101  1  0.246900  0.004700  0.353000  1.0  -0.4183
  C  C102  1  0.571180  0.975220  0.386140  1.0  0.3223
  C  C103  1  0.641600  0.071710  0.415900  1.0  -0.4222
  C  C104  1  0.617310  0.866470  0.388970  1.0  -0.1579
  C  C105  1  0.729980  0.847550  0.392280  1.0  -0.0072
  C  C106  1  0.767190  0.744980  0.393980  1.0  -0.158
  C  C107  1  0.691810  0.663250  0.393050  1.0  0.1794
  C  C108  1  0.547330  0.779550  0.389290  1.0  0.1998
  C  C109  1  0.332620  0.648040  0.265850  1.0  0.697
  C  C110  1  0.282760  0.720400  0.201670  1.0  -0.2839
  C  C111  1  0.240630  0.662250  0.107680  1.0  -0.303
  C  C112  1  0.135440  0.600920  0.116880  1.0  0.7046
  C  C113  1  0.280210  0.412500  0.858070  1.0  0.1759
  C  C114  1  0.358350  0.332990  0.852420  1.0  -0.1582
  C  C115  1  0.325210  0.228290  0.851310  1.0  -0.0289
  C  C116  1  0.213490  0.205190  0.855990  1.0  -0.1769
  C  C117  1  0.140370  0.291250  0.862550  1.0  0.1965
  C  C118  1  0.171250  0.094110  0.855480  1.0  0.3144
  C  C119  1  0.253100  0.004700  0.853000  1.0  -0.4199
  C  C120  1  0.928820  0.975220  0.886140  1.0  0.3208
  C  C121  1  0.858400  0.071710  0.915900  1.0  -0.4218
  C  C122  1  0.882690  0.866470  0.888970  1.0  -0.1596
  C  C123  1  0.770020  0.847550  0.892280  1.0  -0.0103
  C  C124  1  0.732810  0.744980  0.893980  1.0  -0.1604
  C  C125  1  0.808190  0.663250  0.893050  1.0  0.1798
  C  C126  1  0.952670  0.779550  0.889290  1.0  0.1994
  C  C127  1  0.167380  0.648040  0.765850  1.0  0.6962
  C  C128  1  0.217240  0.720400  0.701670  1.0  -0.2842
  C  C129  1  0.259370  0.662250  0.607680  1.0  -0.3038
  C  C130  1  0.364560  0.600920  0.616880  1.0  0.7006
  C  C131  1  0.780210  0.587500  0.641930  1.0  0.1754
  C  C132  1  0.858350  0.667010  0.647580  1.0  -0.1578
  C  C133  1  0.825210  0.771710  0.648690  1.0  -0.0259
  C  C134  1  0.713490  0.794810  0.644010  1.0  -0.1761
  C  C135  1  0.640370  0.708750  0.637450  1.0  0.1977
  C  C136  1  0.671250  0.905890  0.644520  1.0  0.3151
  C  C137  1  0.753100  0.995300  0.647000  1.0  -0.42
  C  C138  1  0.428820  0.024780  0.613860  1.0  0.3218
  C  C139  1  0.358400  0.928290  0.584100  1.0  -0.4225
  C  C140  1  0.382690  0.133530  0.611030  1.0  -0.1608
  C  C141  1  0.270020  0.152450  0.607720  1.0  -0.0095
  C  C142  1  0.232810  0.255020  0.606020  1.0  -0.1607
  C  C143  1  0.308190  0.336750  0.606950  1.0  0.1794
  C  C144  1  0.452670  0.220450  0.610710  1.0  0.2003
  C  C145  1  0.667380  0.351960  0.734150  1.0  0.6971
  C  C146  1  0.717240  0.279600  0.798330  1.0  -0.2841
  C  C147  1  0.759370  0.337750  0.892320  1.0  -0.3055
  C  C148  1  0.864560  0.399080  0.883120  1.0  0.7064
  N  N149  1  0.828050  0.607330  0.135900  1.0  -0.3413
  N  N150  1  0.932460  0.915580  0.140460  1.0  -0.2567
  N  N151  1  0.970680  0.020970  0.140170  1.0  -0.2769
  N  N152  1  0.082320  0.320890  0.109250  1.0  -0.3468
  N  N153  1  0.328050  0.392670  0.364100  1.0  -0.3419
  N  N154  1  0.432460  0.084420  0.359540  1.0  -0.2573
  N  N155  1  0.470680  0.979030  0.359830  1.0  -0.2761
  N  N156  1  0.582320  0.679110  0.390750  1.0  -0.3471
  N  N157  1  0.171950  0.392670  0.864100  1.0  -0.3427
  N  N158  1  0.067540  0.084420  0.859540  1.0  -0.2592
  N  N159  1  0.029320  0.979030  0.859830  1.0  -0.277
  N  N160  1  0.917680  0.679110  0.890750  1.0  -0.3462
  N  N161  1  0.671950  0.607330  0.635900  1.0  -0.343
  N  N162  1  0.567540  0.915580  0.640460  1.0  -0.2593
  N  N163  1  0.529320  0.020970  0.640170  1.0  -0.2769
  N  N164  1  0.417680  0.320890  0.609250  1.0  -0.3474
  O  O165  1  0.896400  0.425850  0.268970  1.0  -0.6304
  O  O166  1  0.814840  0.333333  0.146580  1.0  -0.6385
  O  O167  1  0.602040  0.416570  0.304490  1.0  -0.5887
  O  O168  1  0.583040  0.435520  0.457450  1.0  -0.656
  O  O169  1  0.396400  0.574150  0.231030  1.0  -0.6301
  O  O170  1  0.314840  0.666667  0.353420  1.0  -0.6388
  O  O171  1  0.102040  0.583430  0.195510  1.0  -0.5905
  O  O172  1  0.083040  0.564480  0.042550  1.0  -0.6563
  O  O173  1  0.103600  0.574150  0.731030  1.0  -0.6311
  O  O174  1  0.185160  0.666667  0.853420  1.0  -0.6382
  O  O175  1  0.397960  0.583430  0.695510  1.0  -0.5884
  O  O176  1  0.416960  0.564480  0.542550  1.0  -0.6569
  O  O177  1  0.603600  0.425850  0.768970  1.0  -0.6299
  O  O178  1  0.685160  0.333333  0.646580  1.0  -0.6387
  O  O179  1  0.897960  0.416570  0.804490  1.0  -0.5879
  O  O180  1  0.916960  0.435520  0.957450  1.0  -0.6568
