# generated using pymatgen
data_CdH12C14(NO)4
_symmetry_space_group_name_H-M   'P 1'
_cell_length_a   11.59850000
_cell_length_b   13.64790000
_cell_length_c   14.24840000
_cell_angle_alpha   102.16700000
_cell_angle_beta   90.00000000
_cell_angle_gamma   115.14600000
_symmetry_Int_Tables_number   1
_chemical_formula_structural   CdH12C14(NO)4
_chemical_formula_sum   'Cd4 H48 C56 N16 O16'
_cell_volume   1985.58916303
_cell_formula_units_Z   4
loop_
 _symmetry_equiv_pos_site_id
 _symmetry_equiv_pos_as_xyz
  1  'x, y, z'
loop_
 _atom_site_type_symbol
 _atom_site_label
 _atom_site_symmetry_multiplicity
 _atom_site_fract_x
 _atom_site_fract_y
 _atom_site_fract_z
 _atom_site_occupancy
 _atom_site_charge
  Cd  Cd1  1  0.001100  0.445960  0.864250  1.0  0.9764
  Cd  Cd2  1  0.444860  0.445960  0.364250  1.0  0.9753
  Cd  Cd3  1  0.555140  0.554040  0.635750  1.0  0.9759
  Cd  Cd4  1  0.998900  0.554040  0.135750  1.0  0.9761
  H  H5  1  0.016600  0.210400  0.586000  1.0  0.1198
  H  H6  1  0.151500  0.239600  0.634900  1.0  0.1096
  H  H7  1  0.158600  0.287800  0.484400  1.0  0.1106
  H  H8  1  0.109600  0.376200  0.530000  1.0  0.1321
  H  H9  1  0.920800  0.190600  0.862300  1.0  0.0919
  H  H10  1  0.751400  0.023800  0.867200  1.0  0.1325
  H  H11  1  0.520200  0.174800  0.882100  1.0  0.1414
  H  H12  1  0.695600  0.338400  0.878200  1.0  0.0825
  H  H13  1  0.494600  0.705200  0.879800  1.0  0.138
  H  H14  1  0.310500  0.545200  0.874100  1.0  0.0936
  H  H15  1  0.099000  0.697800  0.851100  1.0  0.0774
  H  H16  1  0.276700  0.863400  0.858900  1.0  0.1346
  H  H17  1  0.193800  0.210400  0.086000  1.0  0.1205
  H  H18  1  0.088100  0.239600  0.134900  1.0  0.1096
  H  H19  1  0.129200  0.287800  0.984400  1.0  0.1107
  H  H20  1  0.266600  0.376200  0.030000  1.0  0.1322
  H  H21  1  0.269800  0.190600  0.362300  1.0  0.0915
  H  H22  1  0.272400  0.023800  0.367200  1.0  0.1325
  H  H23  1  0.654600  0.174800  0.382100  1.0  0.1424
  H  H24  1  0.642800  0.338400  0.378200  1.0  0.0823
  H  H25  1  0.210600  0.705200  0.379800  1.0  0.1396
  H  H26  1  0.234700  0.545200  0.374100  1.0  0.0933
  H  H27  1  0.598800  0.697800  0.351100  1.0  0.0761
  H  H28  1  0.586700  0.863400  0.358900  1.0  0.1346
  H  H29  1  0.806200  0.789600  0.914000  1.0  0.1178
  H  H30  1  0.911900  0.760400  0.865100  1.0  0.1098
  H  H31  1  0.870800  0.712200  0.015600  1.0  0.1106
  H  H32  1  0.733400  0.623800  0.970000  1.0  0.1314
  H  H33  1  0.730200  0.809400  0.637700  1.0  0.0922
  H  H34  1  0.727600  0.976200  0.632800  1.0  0.1322
  H  H35  1  0.345400  0.825200  0.617900  1.0  0.1415
  H  H36  1  0.357200  0.661600  0.621800  1.0  0.0823
  H  H37  1  0.789400  0.294800  0.620200  1.0  0.1381
  H  H38  1  0.765300  0.454800  0.625900  1.0  0.0933
  H  H39  1  0.401200  0.302200  0.648900  1.0  0.0772
  H  H40  1  0.413300  0.136600  0.641100  1.0  0.134
  H  H41  1  0.983400  0.789600  0.414000  1.0  0.118
  H  H42  1  0.848500  0.760400  0.365100  1.0  0.1102
  H  H43  1  0.841400  0.712200  0.515600  1.0  0.1108
  H  H44  1  0.890400  0.623800  0.470000  1.0  0.1314
  H  H45  1  0.079200  0.809400  0.137700  1.0  0.092
  H  H46  1  0.248600  0.976200  0.132800  1.0  0.1327
  H  H47  1  0.479800  0.825200  0.117900  1.0  0.1424
  H  H48  1  0.304400  0.661600  0.121800  1.0  0.0822
  H  H49  1  0.505400  0.294800  0.120200  1.0  0.1401
  H  H50  1  0.689500  0.454800  0.125900  1.0  0.0931
  H  H51  1  0.901000  0.302200  0.148900  1.0  0.0764
  H  H52  1  0.723300  0.136600  0.141100  1.0  0.134
  C  C53  1  0.070270  0.335740  0.707600  1.0  0.7015
  C  C54  1  0.096850  0.271500  0.616700  1.0  -0.2634
  C  C55  1  0.159420  0.338240  0.543900  1.0  -0.2908
  C  C56  1  0.295340  0.422880  0.577300  1.0  0.7052
  C  C57  1  0.839160  0.187120  0.866500  1.0  0.1768
  C  C58  1  0.738210  0.086820  0.869300  1.0  -0.1993
  C  C59  1  0.618020  0.082240  0.875200  1.0  0.223
  C  C60  1  0.601110  0.176620  0.878300  1.0  -0.2234
  C  C61  1  0.706930  0.274460  0.875700  1.0  0.1829
  C  C62  1  0.403920  0.801440  0.869600  1.0  0.2089
  C  C63  1  0.414850  0.705500  0.874700  1.0  -0.211
  C  C64  1  0.303790  0.610180  0.871900  1.0  0.1776
  C  C65  1  0.179710  0.700020  0.858700  1.0  0.1868
  C  C66  1  0.285780  0.799560  0.861900  1.0  -0.2331
  C  C67  1  0.265470  0.335740  0.207600  1.0  0.7019
  C  C68  1  0.174650  0.271500  0.116700  1.0  -0.2642
  C  C69  1  0.178820  0.338240  0.043900  1.0  -0.2895
  C  C70  1  0.127540  0.422880  0.077300  1.0  0.705
  C  C71  1  0.347960  0.187120  0.366500  1.0  0.176
  C  C72  1  0.348610  0.086820  0.369300  1.0  -0.2001
  C  C73  1  0.464220  0.082240  0.375200  1.0  0.2217
  C  C74  1  0.575510  0.176620  0.378300  1.0  -0.2221
  C  C75  1  0.567530  0.274460  0.375700  1.0  0.1827
  C  C76  1  0.397520  0.801440  0.369600  1.0  0.2085
  C  C77  1  0.290650  0.705500  0.374700  1.0  -0.2106
  C  C78  1  0.306390  0.610180  0.371900  1.0  0.1837
  C  C79  1  0.520310  0.700020  0.358700  1.0  0.1886
  C  C80  1  0.513780  0.799560  0.361900  1.0  -0.232
  C  C81  1  0.734530  0.664260  0.792400  1.0  0.7038
  C  C82  1  0.825350  0.728500  0.883300  1.0  -0.2643
  C  C83  1  0.821180  0.661760  0.956100  1.0  -0.2882
  C  C84  1  0.872460  0.577120  0.922700  1.0  0.7056
  C  C85  1  0.652040  0.812880  0.633500  1.0  0.1766
  C  C86  1  0.651390  0.913180  0.630700  1.0  -0.1993
  C  C87  1  0.535780  0.917760  0.624800  1.0  0.2247
  C  C88  1  0.424490  0.823380  0.621700  1.0  -0.2235
  C  C89  1  0.432470  0.725540  0.624300  1.0  0.1828
  C  C90  1  0.602480  0.198560  0.630400  1.0  0.2087
  C  C91  1  0.709350  0.294500  0.625300  1.0  -0.2111
  C  C92  1  0.693610  0.389820  0.628100  1.0  0.1844
  C  C93  1  0.479690  0.299980  0.641300  1.0  0.1874
  C  C94  1  0.486220  0.200440  0.638100  1.0  -0.2323
  C  C95  1  0.929730  0.664260  0.292400  1.0  0.7022
  C  C96  1  0.903150  0.728500  0.383300  1.0  -0.2652
  C  C97  1  0.840580  0.661760  0.456100  1.0  -0.2852
  C  C98  1  0.704660  0.577120  0.422700  1.0  0.7067
  C  C99  1  0.160840  0.812880  0.133500  1.0  0.1756
  C  C100  1  0.261790  0.913180  0.130700  1.0  -0.2
  C  C101  1  0.381980  0.917760  0.124800  1.0  0.223
  C  C102  1  0.398890  0.823380  0.121700  1.0  -0.2221
  C  C103  1  0.293070  0.725540  0.124300  1.0  0.1831
  C  C104  1  0.596080  0.198560  0.130400  1.0  0.2077
  C  C105  1  0.585150  0.294500  0.125300  1.0  -0.2102
  C  C106  1  0.696210  0.389820  0.128100  1.0  0.1782
  C  C107  1  0.820290  0.299980  0.141300  1.0  0.1895
  C  C108  1  0.714220  0.200440  0.138100  1.0  -0.2313
  N  N109  1  0.823550  0.280300  0.869800  1.0  -0.3379
  N  N110  1  0.503780  0.981960  0.875500  1.0  -0.1501
  N  N111  1  0.520710  0.900620  0.872400  1.0  -0.1347
  N  N112  1  0.187210  0.607020  0.866100  1.0  -0.3279
  N  N113  1  0.456750  0.280300  0.369800  1.0  -0.3378
  N  N114  1  0.478180  0.981960  0.375500  1.0  -0.1489
  N  N115  1  0.379910  0.900620  0.372400  1.0  -0.1358
  N  N116  1  0.419810  0.607020  0.366100  1.0  -0.3263
  N  N117  1  0.543250  0.719700  0.630200  1.0  -0.3363
  N  N118  1  0.521820  0.018040  0.624500  1.0  -0.1505
  N  N119  1  0.620090  0.099380  0.627600  1.0  -0.1355
  N  N120  1  0.580190  0.392980  0.633900  1.0  -0.3273
  N  N121  1  0.176450  0.719700  0.130200  1.0  -0.3372
  N  N122  1  0.496220  0.018040  0.124500  1.0  -0.149
  N  N123  1  0.479290  0.099380  0.127600  1.0  -0.1365
  N  N124  1  0.812790  0.392980  0.133900  1.0  -0.3275
  O  O125  1  0.017510  0.396820  0.697720  1.0  -0.6313
  O  O126  1  0.095650  0.324100  0.788800  1.0  -0.6509
  O  O127  1  0.332890  0.457580  0.664030  1.0  -0.5872
  O  O128  1  0.370850  0.456500  0.515830  1.0  -0.6698
  O  O129  1  0.379310  0.396820  0.197720  1.0  -0.6312
  O  O130  1  0.228450  0.324100  0.288800  1.0  -0.6513
  O  O131  1  0.124690  0.457580  0.164030  1.0  -0.5872
  O  O132  1  0.085650  0.456500  0.015830  1.0  -0.6707
  O  O133  1  0.620690  0.603180  0.802280  1.0  -0.6299
  O  O134  1  0.771550  0.675900  0.711200  1.0  -0.6507
  O  O135  1  0.875310  0.542420  0.835970  1.0  -0.5879
  O  O136  1  0.914350  0.543500  0.984170  1.0  -0.6695
  O  O137  1  0.982490  0.603180  0.302280  1.0  -0.6297
  O  O138  1  0.904350  0.675900  0.211200  1.0  -0.6514
  O  O139  1  0.667110  0.542420  0.335970  1.0  -0.5874
  O  O140  1  0.629150  0.543500  0.484170  1.0  -0.6701
