# generated using pymatgen
data_CdH18C18(NO)4
_symmetry_space_group_name_H-M   'P 1'
_cell_length_a   11.91440000
_cell_length_b   14.01460000
_cell_length_c   15.76860000
_cell_angle_alpha   91.90170000
_cell_angle_beta   112.19700000
_cell_angle_gamma   90.00000000
_symmetry_Int_Tables_number   1
_chemical_formula_structural   CdH18C18(NO)4
_chemical_formula_sum   'Cd4 H72 C72 N16 O16'
_cell_volume   2436.27587159
_cell_formula_units_Z   4
loop_
 _symmetry_equiv_pos_site_id
 _symmetry_equiv_pos_as_xyz
  1  'x, y, z'
loop_
 _atom_site_type_symbol
 _atom_site_label
 _atom_site_symmetry_multiplicity
 _atom_site_fract_x
 _atom_site_fract_y
 _atom_site_fract_z
 _atom_site_occupancy
 _atom_site_charge
  Cd  Cd1  1  0.447960  0.372460  0.454520  1.0  0.9792
  Cd  Cd2  1  0.993440  0.127540  0.545480  1.0  0.979
  Cd  Cd3  1  0.552040  0.627540  0.545480  1.0  0.9802
  Cd  Cd4  1  0.006560  0.872460  0.454520  1.0  0.9781
  H  H5  1  0.310600  0.409900  0.241000  1.0  0.083
  H  H6  1  0.331100  0.407500  0.102600  1.0  0.1271
  H  H7  1  0.689300  0.383100  0.237400  1.0  0.1294
  H  H8  1  0.657400  0.385900  0.371800  1.0  0.0793
  H  H9  1  0.648000  0.372400  0.000000  1.0  0.1328
  H  H10  1  0.691800  0.320800  0.093400  1.0  0.1341
  H  H11  1  0.699100  0.432400  0.092600  1.0  0.1394
  H  H12  1  0.228200  0.369700  0.899200  1.0  0.1325
  H  H13  1  0.184900  0.307300  0.808000  1.0  0.1352
  H  H14  1  0.181500  0.418900  0.804400  1.0  0.1386
  H  H15  1  0.193500  0.370300  0.661000  1.0  0.1355
  H  H16  1  0.235200  0.365300  0.531200  1.0  0.0871
  H  H17  1  0.578400  0.340000  0.671000  1.0  0.0764
  H  H18  1  0.549300  0.348500  0.805600  1.0  0.1196
  H  H19  1  0.102500  0.186100  0.284400  1.0  0.1105
  H  H20  1  0.202500  0.137300  0.256600  1.0  0.1088
  H  H21  1  0.135900  0.021600  0.324400  1.0  0.1177
  H  H22  1  0.263800  0.052200  0.396400  1.0  0.1292
  H  H23  1  0.069600  0.090100  0.759000  1.0  0.0839
  H  H24  1  0.228500  0.092500  0.897400  1.0  0.1284
  H  H25  1  0.451900  0.116900  0.762600  1.0  0.1284
  H  H26  1  0.285600  0.114100  0.628200  1.0  0.0804
  H  H27  1  0.648000  0.127600  0.000000  1.0  0.1323
  H  H28  1  0.598400  0.179200  0.906600  1.0  0.1369
  H  H29  1  0.606500  0.067600  0.907400  1.0  0.137
  H  H30  1  0.329000  0.130300  0.100800  1.0  0.1324
  H  H31  1  0.376900  0.192700  0.192000  1.0  0.1352
  H  H32  1  0.377100  0.081100  0.195600  1.0  0.1388
  H  H33  1  0.532500  0.129700  0.339000  1.0  0.1331
  H  H34  1  0.704000  0.134700  0.468800  1.0  0.0886
  H  H35  1  0.907400  0.160000  0.329000  1.0  0.0759
  H  H36  1  0.743700  0.151500  0.194400  1.0  0.1215
  H  H37  1  0.818100  0.313900  0.715600  1.0  0.1226
  H  H38  1  0.945900  0.362700  0.743400  1.0  0.1115
  H  H39  1  0.811500  0.478400  0.675600  1.0  0.1173
  H  H40  1  0.867400  0.447800  0.603600  1.0  0.1296
  H  H41  1  0.689400  0.590100  0.759000  1.0  0.0832
  H  H42  1  0.668900  0.592500  0.897400  1.0  0.1275
  H  H43  1  0.310700  0.616900  0.762600  1.0  0.1287
  H  H44  1  0.342600  0.614100  0.628200  1.0  0.0792
  H  H45  1  0.352000  0.627600  0.000000  1.0  0.131
  H  H46  1  0.308200  0.679200  0.906600  1.0  0.1359
  H  H47  1  0.300900  0.567600  0.907400  1.0  0.1379
  H  H48  1  0.771800  0.630300  0.100800  1.0  0.1338
  H  H49  1  0.815100  0.692700  0.192000  1.0  0.1361
  H  H50  1  0.818500  0.581100  0.195600  1.0  0.1372
  H  H51  1  0.806500  0.629700  0.339000  1.0  0.135
  H  H52  1  0.764800  0.634700  0.468800  1.0  0.0883
  H  H53  1  0.421600  0.660000  0.329000  1.0  0.0761
  H  H54  1  0.450700  0.651500  0.194400  1.0  0.1205
  H  H55  1  0.897500  0.813900  0.715600  1.0  0.1088
  H  H56  1  0.797500  0.862700  0.743400  1.0  0.1094
  H  H57  1  0.864100  0.978400  0.675600  1.0  0.1181
  H  H58  1  0.736200  0.947800  0.603600  1.0  0.1294
  H  H59  1  0.930400  0.909900  0.241000  1.0  0.0839
  H  H60  1  0.771500  0.907500  0.102600  1.0  0.1281
  H  H61  1  0.548100  0.883100  0.237400  1.0  0.1285
  H  H62  1  0.714400  0.885900  0.371800  1.0  0.0802
  H  H63  1  0.352000  0.872400  0.000000  1.0  0.1311
  H  H64  1  0.401600  0.820800  0.093400  1.0  0.1365
  H  H65  1  0.393500  0.932400  0.092600  1.0  0.138
  H  H66  1  0.671000  0.869700  0.899200  1.0  0.1334
  H  H67  1  0.623100  0.807300  0.808000  1.0  0.1347
  H  H68  1  0.622900  0.918900  0.804400  1.0  0.1391
  H  H69  1  0.467500  0.870300  0.661000  1.0  0.1327
  H  H70  1  0.296000  0.865300  0.531200  1.0  0.0893
  H  H71  1  0.092600  0.840000  0.671000  1.0  0.0761
  H  H72  1  0.256300  0.848500  0.805600  1.0  0.1214
  H  H73  1  0.181900  0.686100  0.284400  1.0  0.1204
  H  H74  1  0.054100  0.637300  0.256600  1.0  0.1112
  H  H75  1  0.188500  0.521600  0.324400  1.0  0.1173
  H  H76  1  0.132600  0.552200  0.396400  1.0  0.1308
  C  C77  1  0.387720  0.403000  0.239840  1.0  0.1681
  C  C78  1  0.398860  0.401400  0.156320  1.0  -0.1634
  C  C79  1  0.512610  0.390600  0.153620  1.0  0.0215
  C  C80  1  0.610840  0.386900  0.236280  1.0  -0.1917
  C  C81  1  0.590900  0.389000  0.316800  1.0  0.1803
  C  C82  1  0.527500  0.382900  0.063000  1.0  0.2991
  C  C83  1  0.652910  0.376600  0.062220  1.0  -0.4167
  C  C84  1  0.225200  0.365600  0.837400  1.0  -0.4262
  C  C85  1  0.349380  0.366900  0.838760  1.0  0.3174
  C  C86  1  0.367690  0.361100  0.749780  1.0  0.0031
  C  C87  1  0.273180  0.365300  0.665160  1.0  -0.1907
  C  C88  1  0.299410  0.362100  0.587620  1.0  0.1841
  C  C89  1  0.500090  0.347900  0.669380  1.0  0.1715
  C  C90  1  0.483280  0.351900  0.750360  1.0  -0.1717
  C  C91  1  0.274360  0.237500  0.362520  1.0  0.703
  C  C92  1  0.182960  0.159100  0.308320  1.0  -0.2645
  C  C93  1  0.181400  0.073400  0.365200  1.0  -0.2927
  C  C94  1  0.126220  0.095000  0.434640  1.0  0.709
  C  C95  1  0.147880  0.097000  0.760160  1.0  0.1648
  C  C96  1  0.242540  0.098600  0.843680  1.0  -0.1616
  C  C97  1  0.358990  0.109400  0.846380  1.0  0.0209
  C  C98  1  0.374560  0.113100  0.763720  1.0  -0.1927
  C  C99  1  0.274100  0.111000  0.683200  1.0  0.1813
  C  C100  1  0.464500  0.117100  0.937000  1.0  0.2955
  C  C101  1  0.590690  0.123400  0.937780  1.0  -0.4169
  C  C102  1  0.387800  0.134400  0.162600  1.0  -0.4276
  C  C103  1  0.510620  0.133100  0.161240  1.0  0.3179
  C  C104  1  0.617910  0.138900  0.250220  1.0  0.0031
  C  C105  1  0.608020  0.134700  0.334840  1.0  -0.1901
  C  C106  1  0.711790  0.137900  0.412380  1.0  0.1824
  C  C107  1  0.830710  0.152100  0.330620  1.0  0.1703
  C  C108  1  0.732920  0.148100  0.249640  1.0  -0.1732
  C  C109  1  0.911840  0.262500  0.637480  1.0  0.7049
  C  C110  1  0.874640  0.340900  0.691680  1.0  -0.2636
  C  C111  1  0.816200  0.426600  0.634800  1.0  -0.2918
  C  C112  1  0.691580  0.405000  0.565360  1.0  0.7104
  C  C113  1  0.612280  0.597000  0.760160  1.0  0.1673
  C  C114  1  0.601140  0.598600  0.843680  1.0  -0.1625
  C  C115  1  0.487390  0.609400  0.846380  1.0  0.022
  C  C116  1  0.389160  0.613100  0.763720  1.0  -0.191
  C  C117  1  0.409100  0.611000  0.683200  1.0  0.1811
  C  C118  1  0.472500  0.617100  0.937000  1.0  0.2987
  C  C119  1  0.347090  0.623400  0.937780  1.0  -0.4165
  C  C120  1  0.774800  0.634400  0.162600  1.0  -0.428
  C  C121  1  0.650620  0.633100  0.161240  1.0  0.3161
  C  C122  1  0.632310  0.638900  0.250220  1.0  0.0039
  C  C123  1  0.726820  0.634700  0.334840  1.0  -0.19
  C  C124  1  0.700590  0.637900  0.412380  1.0  0.1833
  C  C125  1  0.499910  0.652100  0.330620  1.0  0.1718
  C  C126  1  0.516720  0.648100  0.249640  1.0  -0.1726
  C  C127  1  0.725640  0.762500  0.637480  1.0  0.7003
  C  C128  1  0.817040  0.840900  0.691680  1.0  -0.2636
  C  C129  1  0.818600  0.926600  0.634800  1.0  -0.2943
  C  C130  1  0.873780  0.905000  0.565360  1.0  0.7159
  C  C131  1  0.852120  0.903000  0.239840  1.0  0.1648
  C  C132  1  0.757460  0.901400  0.156320  1.0  -0.1621
  C  C133  1  0.641010  0.890600  0.153620  1.0  0.0216
  C  C134  1  0.625440  0.886900  0.236280  1.0  -0.191
  C  C135  1  0.725900  0.889000  0.316800  1.0  0.179
  C  C136  1  0.535500  0.882900  0.063000  1.0  0.2975
  C  C137  1  0.409310  0.876600  0.062220  1.0  -0.4164
  C  C138  1  0.612200  0.865600  0.837400  1.0  -0.428
  C  C139  1  0.489380  0.866900  0.838760  1.0  0.315
  C  C140  1  0.382090  0.861100  0.749780  1.0  0.0022
  C  C141  1  0.391980  0.865300  0.665160  1.0  -0.1956
  C  C142  1  0.288210  0.862100  0.587620  1.0  0.1831
  C  C143  1  0.169290  0.847900  0.669380  1.0  0.1703
  C  C144  1  0.267080  0.851900  0.750360  1.0  -0.1736
  C  C145  1  0.088160  0.737500  0.362520  1.0  0.7059
  C  C146  1  0.125360  0.659100  0.308320  1.0  -0.2638
  C  C147  1  0.183800  0.573400  0.365200  1.0  -0.2923
  C  C148  1  0.308420  0.595000  0.434640  1.0  0.7088
  N  N149  1  0.481550  0.395100  0.319700  1.0  -0.34
  N  N150  1  0.427750  0.379900  0.992500  1.0  -0.2658
  N  N151  1  0.445460  0.371500  0.909120  1.0  -0.2724
  N  N152  1  0.409910  0.354600  0.588020  1.0  -0.3298
  N  N153  1  0.161850  0.104900  0.680300  1.0  -0.3394
  N  N154  1  0.435250  0.120100  0.007500  1.0  -0.2667
  N  N155  1  0.536340  0.128500  0.090880  1.0  -0.2747
  N  N156  1  0.821890  0.145400  0.411980  1.0  -0.3299
  N  N157  1  0.518450  0.604900  0.680300  1.0  -0.3392
  N  N158  1  0.572250  0.620100  0.007500  1.0  -0.2661
  N  N159  1  0.554540  0.628500  0.090880  1.0  -0.2746
  N  N160  1  0.590090  0.645400  0.411980  1.0  -0.3295
  N  N161  1  0.838150  0.895100  0.319700  1.0  -0.3384
  N  N162  1  0.564750  0.879900  0.992500  1.0  -0.2664
  N  N163  1  0.463660  0.871500  0.909120  1.0  -0.2764
  N  N164  1  0.178110  0.854600  0.588020  1.0  -0.3325
  O  O165  1  0.379380  0.213100  0.410360  1.0  -0.6263
  O  O166  1  0.243990  0.322900  0.354780  1.0  -0.6448
  O  O167  1  0.120110  0.178200  0.461820  1.0  -0.5933
  O  O168  1  0.082980  0.026900  0.462760  1.0  -0.6647
  O  O169  1  0.969020  0.286900  0.589640  1.0  -0.6252
  O  O170  1  0.889210  0.177100  0.645220  1.0  -0.645
  O  O171  1  0.658290  0.321800  0.538180  1.0  -0.5945
  O  O172  1  0.620220  0.473100  0.537240  1.0  -0.6642
  O  O173  1  0.620620  0.786900  0.589640  1.0  -0.6263
  O  O174  1  0.756010  0.677100  0.645220  1.0  -0.6461
  O  O175  1  0.879890  0.821800  0.538180  1.0  -0.5949
  O  O176  1  0.917020  0.973100  0.537240  1.0  -0.6644
  O  O177  1  0.030980  0.713100  0.410360  1.0  -0.6245
  O  O178  1  0.110790  0.822900  0.354780  1.0  -0.6433
  O  O179  1  0.341710  0.678200  0.461820  1.0  -0.5932
  O  O180  1  0.379780  0.526900  0.462760  1.0  -0.6641
