# generated using pymatgen
data_CdH3C2N4Cl
_symmetry_space_group_name_H-M   'P 1'
_cell_length_a   18.28700000
_cell_length_b   18.28700000
_cell_length_c   18.28700000
_cell_angle_alpha   105.11200000
_cell_angle_beta   105.11200000
_cell_angle_gamma   118.59400000
_symmetry_Int_Tables_number   1
_chemical_formula_structural   CdH3C2N4Cl
_chemical_formula_sum   'Cd24 H72 C48 N96 Cl24'
_cell_volume   4616.83874398
_cell_formula_units_Z   24
loop_
 _symmetry_equiv_pos_site_id
 _symmetry_equiv_pos_as_xyz
  1  'x, y, z'
loop_
 _atom_site_type_symbol
 _atom_site_label
 _atom_site_symmetry_multiplicity
 _atom_site_fract_x
 _atom_site_fract_y
 _atom_site_fract_z
 _atom_site_occupancy
 _atom_site_charge
  Cd  Cd1  1  0.701110  0.211020  0.122470  1.0  0.6872
  Cd  Cd2  1  0.528910  0.146180  0.214610  1.0  0.7952
  Cd  Cd3  1  0.329070  0.123350  0.257840  1.0  0.6758
  Cd  Cd4  1  0.134670  0.876820  0.205910  1.0  0.6715
  Cd  Cd5  1  0.068570  0.853860  0.382830  1.0  0.7912
  Cd  Cd6  1  0.911520  0.788900  0.490080  1.0  0.6897
  Cd  Cd7  1  0.088550  0.578640  0.877530  1.0  0.6881
  Cd  Cd8  1  0.931570  0.314300  0.785390  1.0  0.7962
  Cd  Cd9  1  0.865510  0.071230  0.742160  1.0  0.6747
  Cd  Cd10  1  0.670910  0.928760  0.794090  1.0  0.6722
  Cd  Cd11  1  0.471030  0.685740  0.617170  1.0  0.7886
  Cd  Cd12  1  0.298820  0.421440  0.509920  1.0  0.6871
  Cd  Cd13  1  0.421360  0.298890  0.509910  1.0  0.6853
  Cd  Cd14  1  0.685700  0.471090  0.617270  1.0  0.7916
  Cd  Cd15  1  0.928770  0.670930  0.794280  1.0  0.6744
  Cd  Cd16  1  0.071240  0.865330  0.742150  1.0  0.673
  Cd  Cd17  1  0.314260  0.931430  0.785290  1.0  0.7906
  Cd  Cd18  1  0.578560  0.088480  0.877380  1.0  0.69
  Cd  Cd19  1  0.788980  0.911450  0.490090  1.0  0.6863
  Cd  Cd20  1  0.853820  0.068430  0.382730  1.0  0.7934
  Cd  Cd21  1  0.876650  0.134490  0.205720  1.0  0.6767
  Cd  Cd22  1  0.123180  0.329090  0.257850  1.0  0.6773
  Cd  Cd23  1  0.146140  0.528970  0.214710  1.0  0.7933
  Cd  Cd24  1  0.211100  0.701180  0.122620  1.0  0.6891
  H  H25  1  0.947800  0.511100  0.174700  1.0  0.1458
  H  H26  1  0.879800  0.483400  0.216000  1.0  0.1577
  H  H27  1  0.843300  0.423600  0.119100  1.0  0.1554
  H  H28  1  0.587800  0.083400  0.365800  1.0  0.1435
  H  H29  1  0.687500  0.133200  0.439300  1.0  0.131
  H  H30  1  0.629400  0.027000  0.375800  1.0  0.146
  H  H31  1  0.256200  0.888300  0.941300  1.0  0.136
  H  H32  1  0.289700  0.972400  0.024700  1.0  0.1562
  H  H33  1  0.306900  0.897400  0.030300  1.0  0.1421
  H  H34  1  0.876700  0.737700  0.961800  1.0  0.156
  H  H35  1  0.962600  0.834800  0.981400  1.0  0.1622
  H  H36  1  0.948500  0.813600  0.056300  1.0  0.1547
  H  H37  1  0.276500  0.892400  0.498100  1.0  0.1363
  H  H38  1  0.321800  0.883500  0.577700  1.0  0.1393
  H  H39  1  0.340700  0.979600  0.587900  1.0  0.1457
  H  H40  1  0.729600  0.510900  0.395700  1.0  0.1554
  H  H41  1  0.701400  0.579600  0.416200  1.0  0.1557
  H  H42  1  0.659400  0.493100  0.434700  1.0  0.1472
  H  H43  1  0.336400  0.773100  0.825300  1.0  0.1445
  H  H44  1  0.267400  0.663800  0.784000  1.0  0.1594
  H  H45  1  0.304500  0.724200  0.880900  1.0  0.1551
  H  H46  1  0.717600  0.222000  0.634200  1.0  0.1416
  H  H47  1  0.693900  0.248200  0.560700  1.0  0.1332
  H  H48  1  0.651200  0.253600  0.624200  1.0  0.1439
  H  H49  1  0.947000  0.314900  0.058700  1.0  0.1365
  H  H50  1  0.947700  0.265000  0.975300  1.0  0.1558
  H  H51  1  0.867100  0.276600  0.969700  1.0  0.1421
  H  H52  1  0.775900  0.914900  0.038200  1.0  0.157
  H  H53  1  0.853400  0.981200  0.018600  1.0  0.1628
  H  H54  1  0.757300  0.892200  0.943700  1.0  0.157
  H  H55  1  0.394300  0.778400  0.501900  1.0  0.1358
  H  H56  1  0.305800  0.744100  0.422300  1.0  0.1384
  H  H57  1  0.391700  0.752800  0.412100  1.0  0.1452
  H  H58  1  0.115200  0.333900  0.604300  1.0  0.1582
  H  H59  1  0.163400  0.285200  0.583800  1.0  0.1588
  H  H60  1  0.058400  0.224700  0.565300  1.0  0.1494
  H  H61  1  0.226900  0.052200  0.563300  1.0  0.1445
  H  H62  1  0.336200  0.120200  0.603600  1.0  0.1547
  H  H63  1  0.275800  0.156700  0.580300  1.0  0.1576
  H  H64  1  0.778000  0.412200  0.495600  1.0  0.1392
  H  H65  1  0.751800  0.312500  0.445700  1.0  0.132
  H  H66  1  0.746400  0.370600  0.397600  1.0  0.1439
  H  H67  1  0.685100  0.743800  0.632100  1.0  0.1374
  H  H68  1  0.735000  0.710300  0.682700  1.0  0.1574
  H  H69  1  0.723400  0.693100  0.590500  1.0  0.1414
  H  H70  1  0.085100  0.123300  0.861000  1.0  0.157
  H  H71  1  0.018800  0.037400  0.872200  1.0  0.161
  H  H72  1  0.107800  0.051500  0.865100  1.0  0.157
  H  H73  1  0.221600  0.723500  0.615900  1.0  0.1353
  H  H74  1  0.255900  0.678200  0.561700  1.0  0.1387
  H  H75  1  0.247200  0.659300  0.638900  1.0  0.1447
  H  H76  1  0.666100  0.270400  0.781300  1.0  0.157
  H  H77  1  0.714800  0.298600  0.878200  1.0  0.1563
  H  H78  1  0.775300  0.340600  0.833700  1.0  0.1503
  H  H79  1  0.488900  0.663600  0.436700  1.0  0.1436
  H  H80  1  0.516600  0.732600  0.396400  1.0  0.1581
  H  H81  1  0.576400  0.695500  0.419700  1.0  0.154
  H  H82  1  0.916600  0.282400  0.504400  1.0  0.1393
  H  H83  1  0.866800  0.306100  0.554300  1.0  0.1304
  H  H84  1  0.973000  0.348800  0.602400  1.0  0.1464
  H  H85  1  0.111700  0.053000  0.367900  1.0  0.1359
  H  H86  1  0.027600  0.052300  0.317300  1.0  0.155
  H  H87  1  0.102600  0.132900  0.409500  1.0  0.1416
  H  H88  1  0.262300  0.224100  0.139000  1.0  0.1555
  H  H89  1  0.165200  0.146600  0.127800  1.0  0.1622
  H  H90  1  0.186400  0.242700  0.134900  1.0  0.1548
  H  H91  1  0.107600  0.605700  0.384100  1.0  0.1369
  H  H92  1  0.116500  0.694200  0.438300  1.0  0.1387
  H  H93  1  0.020400  0.608300  0.361100  1.0  0.1428
  H  H94  1  0.489100  0.884800  0.218700  1.0  0.1577
  H  H95  1  0.420400  0.836600  0.121800  1.0  0.1542
  H  H96  1  0.506900  0.941600  0.166300  1.0  0.1494
  C  C97  1  0.921600  0.401400  0.194400  1.0  0.4256
  C  C98  1  0.896000  0.459800  0.174400  1.0  -0.444
  C  C99  1  0.688200  0.113200  0.322000  1.0  0.3738
  C  C100  1  0.644000  0.086700  0.381500  1.0  -0.4029
  C  C101  1  0.395600  0.987300  0.999100  1.0  0.4486
  C  C102  1  0.304000  0.931400  0.998800  1.0  -0.4441
  C  C103  1  0.000200  0.747700  0.000300  1.0  0.4112
  C  C104  1  0.941300  0.787200  0.999900  1.0  -0.4252
  C  C105  1  0.209000  0.886400  0.573800  1.0  0.3609
  C  C106  1  0.295100  0.913000  0.557900  1.0  -0.4192
  C  C107  1  0.792200  0.596800  0.520000  1.0  0.4098
  C  C108  1  0.713900  0.540200  0.434300  1.0  -0.443
  C  C109  1  0.207000  0.727200  0.805600  1.0  0.4239
  C  C110  1  0.285400  0.721600  0.825600  1.0  -0.4429
  C  C111  1  0.791200  0.366200  0.678000  1.0  0.3723
  C  C112  1  0.705200  0.262500  0.618500  1.0  -0.402
  C  C113  1  0.988200  0.396500  0.000900  1.0  0.4487
  C  C114  1  0.932600  0.305200  0.001200  1.0  -0.4468
  C  C115  1  0.747400  0.999900  0.999700  1.0  0.4081
  C  C116  1  0.787300  0.941400  0.000100  1.0  -0.4247
  C  C117  1  0.312600  0.635200  0.426200  1.0  0.3652
  C  C118  1  0.355100  0.737200  0.442100  1.0  -0.42
  C  C119  1  0.076800  0.272200  0.480000  1.0  0.4119
  C  C120  1  0.105900  0.279600  0.565700  1.0  -0.4479
  C  C121  1  0.272800  0.078400  0.479800  1.0  0.4259
  C  C122  1  0.278400  0.104000  0.563800  1.0  -0.4514
  C  C123  1  0.633800  0.311800  0.425000  1.0  0.3708
  C  C124  1  0.737500  0.356000  0.442700  1.0  -0.4014
  C  C125  1  0.603500  0.604400  0.591700  1.0  0.452
  C  C126  1  0.694800  0.696000  0.627400  1.0  -0.4497
  C  C127  1  0.000100  0.999800  0.747500  1.0  0.4117
  C  C128  1  0.058600  0.058700  0.845900  1.0  -0.425
  C  C129  1  0.364800  0.791000  0.677400  1.0  0.3632
  C  C130  1  0.262800  0.704900  0.617900  1.0  -0.4202
  C  C131  1  0.727800  0.207800  0.804600  1.0  0.4109
  C  C132  1  0.720400  0.286100  0.826300  1.0  -0.4437
  C  C133  1  0.598600  0.793000  0.520200  1.0  0.4276
  C  C134  1  0.540200  0.714600  0.436200  1.0  -0.4458
  C  C135  1  0.886800  0.208800  0.575000  1.0  0.3724
  C  C136  1  0.913300  0.294800  0.557300  1.0  -0.4003
  C  C137  1  0.012700  0.011800  0.408300  1.0  0.4486
  C  C138  1  0.068600  0.067400  0.372600  1.0  -0.4477
  C  C139  1  0.252300  0.252600  0.252500  1.0  0.4121
  C  C140  1  0.212800  0.212700  0.154100  1.0  -0.4271
  C  C141  1  0.113600  0.687400  0.322600  1.0  0.3641
  C  C142  1  0.087000  0.644900  0.382100  1.0  -0.424
  C  C143  1  0.403200  0.923200  0.195400  1.0  0.4108
  C  C144  1  0.459800  0.894100  0.173700  1.0  -0.444
  N  N145  1  0.862700  0.315800  0.187100  1.0  -0.285
  N  N146  1  0.915400  0.286200  0.210600  1.0  -0.0559
  N  N147  1  0.003300  0.352000  0.232500  1.0  -0.0439
  N  N148  1  0.009200  0.425100  0.223100  1.0  -0.3299
  N  N149  1  0.653200  0.133800  0.264000  1.0  -0.3112
  N  N150  1  0.710400  0.151500  0.226100  1.0  -0.0337
  N  N151  1  0.774100  0.140700  0.261200  1.0  0.001
  N  N152  1  0.764300  0.117200  0.321900  1.0  -0.302
  N  N153  1  0.478600  0.050500  0.070300  1.0  -0.321
  N  N154  1  0.540600  0.082100  0.040700  1.0  -0.0178
  N  N155  1  0.500400  0.040900  0.959300  1.0  -0.0085
  N  N156  1  0.409000  0.981200  0.930000  1.0  -0.3096
  N  N157  1  0.064800  0.765100  0.069700  1.0  -0.291
  N  N158  1  0.100800  0.722600  0.040800  1.0  -0.0255
  N  N159  1  0.059400  0.680400  0.959200  1.0  -0.0389
  N  N160  1  0.993300  0.695200  0.930300  1.0  -0.2977
  N  N161  1  0.129700  0.866000  0.520100  1.0  -0.284
  N  N162  1  0.075600  0.849200  0.558600  1.0  -0.0527
  N  N163  1  0.121100  0.859700  0.634400  1.0  -0.002
  N  N164  1  0.204600  0.882100  0.645900  1.0  -0.2916
  N  N165  1  0.871600  0.684900  0.546700  1.0  -0.294
  N  N166  1  0.923900  0.714400  0.628700  1.0  -0.0487
  N  N167  1  0.880100  0.648200  0.652100  1.0  -0.0678
  N  N168  1  0.797700  0.575000  0.583700  1.0  -0.2967
  N  N169  1  0.128700  0.675600  0.812900  1.0  -0.2834
  N  N170  1  0.075600  0.704800  0.789400  1.0  -0.059
  N  N171  1  0.119500  0.770800  0.767500  1.0  -0.0409
  N  N172  1  0.202000  0.786100  0.776900  1.0  -0.3283
  N  N173  1  0.869800  0.389200  0.736000  1.0  -0.312
  N  N174  1  0.925400  0.484300  0.773900  1.0  -0.0351
  N  N175  1  0.879500  0.512900  0.738800  1.0  0.0006
  N  N176  1  0.795300  0.442400  0.678100  1.0  -0.3014
  N  N177  1  0.980200  0.408300  0.929700  1.0  -0.3187
  N  N178  1  0.041400  0.499900  0.959300  1.0  -0.0165
  N  N179  1  0.081600  0.541100  0.040700  1.0  -0.0113
  N  N180  1  0.051200  0.479000  0.070000  1.0  -0.3118
  N  N181  1  0.695400  0.995100  0.930300  1.0  -0.2923
  N  N182  1  0.681800  0.060000  0.959200  1.0  -0.0253
  N  N183  1  0.721200  0.100200  0.040800  1.0  -0.0402
  N  N184  1  0.764900  0.063000  0.069700  1.0  -0.2972
  N  N185  1  0.345900  0.609600  0.479900  1.0  -0.2842
  N  N186  1  0.290600  0.517000  0.441400  1.0  -0.0523
  N  N187  1  0.225300  0.486700  0.365600  1.0  -0.0033
  N  N188  1  0.236200  0.558700  0.354100  1.0  -0.2918
  N  N189  1  0.138200  0.324900  0.453300  1.0  -0.2912
  N  N190  1  0.085700  0.295200  0.371300  1.0  -0.0504
  N  N191  1  0.996100  0.228000  0.347900  1.0  -0.0672
  N  N192  1  0.991300  0.214000  0.416300  1.0  -0.2991
  N  N193  1  0.324400  0.137300  0.453100  1.0  -0.2828
  N  N194  1  0.295200  0.084600  0.370800  1.0  -0.0531
  N  N195  1  0.229200  0.996700  0.348700  1.0  -0.039
  N  N196  1  0.213900  0.990800  0.415900  1.0  -0.3308
  N  N197  1  0.610800  0.346800  0.480600  1.0  -0.3125
  N  N198  1  0.515700  0.289600  0.441100  1.0  -0.0366
  N  N199  1  0.487100  0.225900  0.366600  1.0  0.0018
  N  N200  1  0.557600  0.235700  0.352900  1.0  -0.3004
  N  N201  1  0.591700  0.521400  0.571900  1.0  -0.3191
  N  N202  1  0.500100  0.459400  0.541500  1.0  -0.0209
  N  N203  1  0.458900  0.499600  0.540500  1.0  -0.0087
  N  N204  1  0.521000  0.591000  0.572200  1.0  -0.3111
  N  N205  1  0.004900  0.935200  0.700300  1.0  -0.2961
  N  N206  1  0.940000  0.899200  0.621800  1.0  -0.0237
  N  N207  1  0.899800  0.940600  0.621000  1.0  -0.0395
  N  N208  1  0.937000  0.006700  0.701900  1.0  -0.2993
  N  N209  1  0.390400  0.870300  0.736300  1.0  -0.2832
  N  N210  1  0.483000  0.924400  0.773600  1.0  -0.0533
  N  N211  1  0.513300  0.878900  0.738600  1.0  -0.0015
  N  N212  1  0.441300  0.795400  0.677500  1.0  -0.2939
  N  N213  1  0.675100  0.128400  0.813300  1.0  -0.2931
  N  N214  1  0.704800  0.076100  0.790500  1.0  -0.0505
  N  N215  1  0.772000  0.119900  0.768100  1.0  -0.0666
  N  N216  1  0.786000  0.202300  0.777300  1.0  -0.2952
  N  N217  1  0.684200  0.871300  0.546900  1.0  -0.2855
  N  N218  1  0.713800  0.924400  0.629200  1.0  -0.0562
  N  N219  1  0.648000  0.880500  0.651300  1.0  -0.0416
  N  N220  1  0.574900  0.798000  0.584100  1.0  -0.328
  N  N221  1  0.866200  0.130200  0.519400  1.0  -0.3115
  N  N222  1  0.848500  0.074600  0.558900  1.0  -0.0361
  N  N223  1  0.859300  0.120500  0.633400  1.0  0.0003
  N  N224  1  0.882800  0.204700  0.647100  1.0  -0.3001
  N  N225  1  0.949500  0.019800  0.428100  1.0  -0.3224
  N  N226  1  0.917900  0.958600  0.458500  1.0  -0.0205
  N  N227  1  0.959100  0.918400  0.459500  1.0  -0.0121
  N  N228  1  0.018800  0.948800  0.427800  1.0  -0.3096
  N  N229  1  0.234900  0.304600  0.299700  1.0  -0.2934
  N  N230  1  0.277400  0.318200  0.378200  1.0  -0.0242
  N  N231  1  0.319600  0.278800  0.379000  1.0  -0.0395
  N  N232  1  0.304800  0.235100  0.298100  1.0  -0.3019
  N  N233  1  0.134000  0.654100  0.263700  1.0  -0.2841
  N  N234  1  0.150800  0.709400  0.226400  1.0  -0.0506
  N  N235  1  0.140300  0.774700  0.261400  1.0  -0.0019
  N  N236  1  0.117900  0.763800  0.322500  1.0  -0.2943
  N  N237  1  0.315100  0.861800  0.186700  1.0  -0.2932
  N  N238  1  0.285600  0.914300  0.209500  1.0  -0.0471
  N  N239  1  0.351800  0.003900  0.231900  1.0  -0.0671
  N  N240  1  0.425000  0.008700  0.222700  1.0  -0.301
  Cl  Cl241  1  0.653700  0.295250  0.211150  1.0  -0.4863
  Cl  Cl242  1  0.397640  0.164800  0.158440  1.0  -0.4641
  Cl  Cl243  1  0.156030  0.000000  0.156230  1.0  -0.4514
  Cl  Cl244  1  0.993560  0.835000  0.232760  1.0  -0.459
  Cl  Cl245  1  0.916200  0.704630  0.358630  1.0  -0.4825
  Cl  Cl246  1  0.745880  0.745770  0.426790  1.0  -0.4673
  Cl  Cl247  1  0.084100  0.442550  0.788850  1.0  -0.486
  Cl  Cl248  1  0.006360  0.239200  0.841560  1.0  -0.4607
  Cl  Cl249  1  0.843770  0.999800  0.843770  1.0  -0.4507
  Cl  Cl250  1  0.602240  0.760800  0.767240  1.0  -0.4609
  Cl  Cl251  1  0.346000  0.557570  0.641370  1.0  -0.4851
  Cl  Cl252  1  0.318980  0.319090  0.573210  1.0  -0.4681
  Cl  Cl253  1  0.557450  0.346300  0.641550  1.0  -0.4864
  Cl  Cl254  1  0.760800  0.602360  0.767160  1.0  -0.4649
  Cl  Cl255  1  0.000200  0.843970  0.843970  1.0  -0.4527
  Cl  Cl256  1  0.239200  0.006440  0.841440  1.0  -0.4583
  Cl  Cl257  1  0.442430  0.083800  0.788430  1.0  -0.4853
  Cl  Cl258  1  0.680910  0.254120  0.999890  1.0  -0.4639
  Cl  Cl259  1  0.704750  0.915900  0.358450  1.0  -0.4844
  Cl  Cl260  1  0.835200  0.993640  0.232840  1.0  -0.4608
  Cl  Cl261  1  0.000000  0.156230  0.156030  1.0  -0.4518
  Cl  Cl262  1  0.165000  0.397760  0.158560  1.0  -0.4603
  Cl  Cl263  1  0.295370  0.654000  0.211570  1.0  -0.4819
  Cl  Cl264  1  0.254230  0.681020  0.000110  1.0  -0.4638
