# generated using pymatgen
data_NaH6C2(SO2)2
_symmetry_space_group_name_H-M   'P 1'
_cell_length_a   5.73280000
_cell_length_b   10.91520000
_cell_length_c   11.26650000
_cell_angle_alpha   90.00000000
_cell_angle_beta   97.10600000
_cell_angle_gamma   90.00000000
_symmetry_Int_Tables_number   1
_chemical_formula_structural   NaH6C2(SO2)2
_chemical_formula_sum   'Na4 H24 C8 S8 O16'
_cell_volume   699.58229790
_cell_formula_units_Z   4
loop_
 _symmetry_equiv_pos_site_id
 _symmetry_equiv_pos_as_xyz
  1  'x, y, z'
loop_
 _atom_site_type_symbol
 _atom_site_label
 _atom_site_symmetry_multiplicity
 _atom_site_fract_x
 _atom_site_fract_y
 _atom_site_fract_z
 _atom_site_occupancy
 _atom_site_charge
  Na  Na1  1  0.772000  0.905580  0.745480  1.0  0.9514
  Na  Na2  1  0.024090  0.594680  0.765220  1.0  0.9562
  Na  Na3  1  0.272000  0.094420  0.745480  1.0  0.9526
  Na  Na4  1  0.524090  0.405320  0.765220  1.0  0.9552
  H  H5  1  0.759900  0.541500  0.045700  1.0  0.1516
  H  H6  1  0.611700  0.628600  0.122400  1.0  0.1395
  H  H7  1  0.026900  0.655100  0.170000  1.0  0.1267
  H  H8  1  0.040500  0.701700  0.036800  1.0  0.1396
  H  H9  1  0.924600  0.706300  0.389400  1.0  0.119
  H  H10  1  0.758600  0.775000  0.472100  1.0  0.1304
  H  H11  1  0.156800  0.885300  0.384700  1.0  0.1321
  H  H12  1  0.989800  0.954900  0.466800  1.0  0.1436
  H  H13  1  0.184000  0.916000  0.898000  1.0  0.4836
  H  H14  1  0.074000  0.014000  0.928000  1.0  0.4511
  H  H15  1  0.609000  0.594000  0.612000  1.0  0.4579
  H  H16  1  0.703000  0.512000  0.569000  1.0  0.4349
  H  H17  1  0.259900  0.458500  0.045700  1.0  0.1489
  H  H18  1  0.111700  0.371400  0.122400  1.0  0.1394
  H  H19  1  0.526900  0.344900  0.170000  1.0  0.1267
  H  H20  1  0.540500  0.298300  0.036800  1.0  0.1395
  H  H21  1  0.424600  0.293700  0.389400  1.0  0.1182
  H  H22  1  0.258600  0.225000  0.472100  1.0  0.1302
  H  H23  1  0.656800  0.114700  0.384700  1.0  0.1319
  H  H24  1  0.489800  0.045100  0.466800  1.0  0.145
  H  H25  1  0.684000  0.084000  0.898000  1.0  0.4824
  H  H26  1  0.574000  0.986000  0.928000  1.0  0.4517
  H  H27  1  0.109000  0.406000  0.612000  1.0  0.4562
  H  H28  1  0.203000  0.488000  0.569000  1.0  0.4377
  C  C29  1  0.716200  0.627800  0.058700  1.0  -0.4115
  C  C30  1  0.939900  0.700200  0.102200  1.0  -0.1824
  C  C31  1  0.857100  0.786800  0.406800  1.0  -0.108
  C  C32  1  0.055700  0.874100  0.449000  1.0  -0.3828
  C  C33  1  0.216200  0.372200  0.058700  1.0  -0.409
  C  C34  1  0.439900  0.299800  0.102200  1.0  -0.2244
  C  C35  1  0.357100  0.213200  0.406800  1.0  -0.115
  C  C36  1  0.555700  0.125900  0.449000  1.0  -0.3881
  S  S37  1  0.557080  0.685350  0.924150  1.0  1.4376
  S  S38  1  0.898740  0.856860  0.149690  1.0  -0.0369
  S  S39  1  0.671170  0.840170  0.273640  1.0  -0.0371
  S  S40  1  0.227680  0.816760  0.579430  1.0  1.4476
  S  S41  1  0.057080  0.314650  0.924150  1.0  1.4388
  S  S42  1  0.398740  0.143140  0.149690  1.0  -0.0355
  S  S43  1  0.171170  0.159830  0.273640  1.0  -0.0384
  S  S44  1  0.727680  0.183240  0.579430  1.0  1.4463
  O  O45  1  0.404000  0.584560  0.877860  1.0  -0.8107
  O  O46  1  0.731300  0.716140  0.844670  1.0  -0.7905
  O  O47  1  0.424000  0.791280  0.956580  1.0  -0.6728
  O  O48  1  0.063600  0.784280  0.663230  1.0  -0.7985
  O  O49  1  0.389800  0.914830  0.624520  1.0  -0.7955
  O  O50  1  0.352300  0.710000  0.539820  1.0  -0.6944
  O  O51  1  0.093500  0.966400  0.880780  1.0  -0.9985
  O  O52  1  0.693500  0.541540  0.629800  1.0  -0.9555
  O  O53  1  0.904000  0.415440  0.877860  1.0  -0.8056
  O  O54  1  0.231300  0.283860  0.844670  1.0  -0.7917
  O  O55  1  0.924000  0.208720  0.956580  1.0  -0.6727
  O  O56  1  0.563600  0.215720  0.663230  1.0  -0.7985
  O  O57  1  0.889800  0.085170  0.624520  1.0  -0.8017
  O  O58  1  0.852300  0.290000  0.539820  1.0  -0.694
  O  O59  1  0.593500  0.033600  0.880780  1.0  -0.9984
  O  O60  1  0.193500  0.458460  0.629800  1.0  -0.9553
