# generated using pymatgen
data_NiH2(C5O4)2
_symmetry_space_group_name_H-M   'P 1'
_cell_length_a   16.37240000
_cell_length_b   7.16730000
_cell_length_c   14.18570000
_cell_angle_alpha   90.00000000
_cell_angle_beta   90.00000000
_cell_angle_gamma   90.00000000
_symmetry_Int_Tables_number   1
_chemical_formula_structural   NiH2(C5O4)2
_chemical_formula_sum   'Ni4 H8 C40 O32'
_cell_volume   1664.63376938
_cell_formula_units_Z   4
loop_
 _symmetry_equiv_pos_site_id
 _symmetry_equiv_pos_as_xyz
  1  'x, y, z'
loop_
 _atom_site_type_symbol
 _atom_site_label
 _atom_site_symmetry_multiplicity
 _atom_site_fract_x
 _atom_site_fract_y
 _atom_site_fract_z
 _atom_site_occupancy
 _atom_site_charge
  Ni  Ni1  1  0.500000  0.500000  0.353240  1.0  0.8094
  Ni  Ni2  1  0.000000  0.000000  0.853240  1.0  0.8094
  Ni  Ni3  1  0.000000  0.500000  0.353240  1.0  0.8097
  Ni  Ni4  1  0.500000  0.000000  0.853240  1.0  0.8097
  H  H5  1  0.250000  0.349900  0.445900  1.0  0.1713
  H  H6  1  0.250000  0.154400  0.760600  1.0  0.1688
  H  H7  1  0.750000  0.849900  0.945900  1.0  0.1713
  H  H8  1  0.750000  0.654400  0.260600  1.0  0.1688
  H  H9  1  0.750000  0.650100  0.445900  1.0  0.1716
  H  H10  1  0.750000  0.845600  0.760600  1.0  0.1686
  H  H11  1  0.250000  0.150100  0.945900  1.0  0.1716
  H  H12  1  0.250000  0.345600  0.260600  1.0  0.1686
  C  C13  1  0.323980  0.280500  0.556100  1.0  -0.0399
  C  C14  1  0.323970  0.222900  0.650410  1.0  -0.0312
  C  C15  1  0.404600  0.305300  0.504570  1.0  0.7311
  C  C16  1  0.400050  0.212800  0.708820  1.0  0.757
  C  C17  1  0.823980  0.780500  0.056100  1.0  -0.0399
  C  C18  1  0.823970  0.722900  0.150410  1.0  -0.0312
  C  C19  1  0.904600  0.805300  0.004570  1.0  0.7311
  C  C20  1  0.900050  0.712800  0.208820  1.0  0.757
  C  C21  1  0.676020  0.719500  0.556100  1.0  -0.0402
  C  C22  1  0.676030  0.777100  0.650410  1.0  -0.0313
  C  C23  1  0.595400  0.694700  0.504570  1.0  0.7313
  C  C24  1  0.599950  0.787200  0.708820  1.0  0.7573
  C  C25  1  0.176020  0.219500  0.056100  1.0  -0.0402
  C  C26  1  0.176030  0.277100  0.150410  1.0  -0.0313
  C  C27  1  0.095400  0.194700  0.004570  1.0  0.7313
  C  C28  1  0.099950  0.287200  0.208820  1.0  0.7573
  C  C29  1  0.823980  0.719500  0.556100  1.0  -0.0402
  C  C30  1  0.823970  0.777100  0.650410  1.0  -0.0314
  C  C31  1  0.904600  0.694700  0.504570  1.0  0.731
  C  C32  1  0.900050  0.787200  0.708820  1.0  0.757
  C  C33  1  0.323980  0.219500  0.056100  1.0  -0.0402
  C  C34  1  0.323970  0.277100  0.150410  1.0  -0.0314
  C  C35  1  0.404600  0.194700  0.004570  1.0  0.731
  C  C36  1  0.400050  0.287200  0.208820  1.0  0.757
  C  C37  1  0.176020  0.280500  0.556100  1.0  -0.0404
  C  C38  1  0.176030  0.222900  0.650410  1.0  -0.0313
  C  C39  1  0.095400  0.305300  0.504570  1.0  0.7314
  C  C40  1  0.099950  0.212800  0.708820  1.0  0.7571
  C  C41  1  0.676020  0.780500  0.056100  1.0  -0.0404
  C  C42  1  0.676030  0.722900  0.150410  1.0  -0.0313
  C  C43  1  0.595400  0.805300  0.004570  1.0  0.7314
  C  C44  1  0.599950  0.712800  0.208820  1.0  0.7571
  C  C45  1  0.250000  0.309700  0.509680  1.0  0.0383
  C  C46  1  0.250000  0.194100  0.696720  1.0  0.0341
  C  C47  1  0.750000  0.809700  0.009680  1.0  0.0383
  C  C48  1  0.750000  0.694100  0.196720  1.0  0.0341
  C  C49  1  0.750000  0.690300  0.509680  1.0  0.0389
  C  C50  1  0.750000  0.805900  0.696720  1.0  0.0331
  C  C51  1  0.250000  0.190300  0.009680  1.0  0.0389
  C  C52  1  0.250000  0.305900  0.196720  1.0  0.0331
  O  O53  1  0.408670  0.439300  0.447650  1.0  -0.5312
  O  O54  1  0.460160  0.190130  0.522500  1.0  -0.463
  O  O55  1  0.415730  0.058100  0.748250  1.0  -0.5294
  O  O56  1  0.439570  0.361270  0.718260  1.0  -0.5042
  O  O57  1  0.908670  0.939300  0.947650  1.0  -0.5312
  O  O58  1  0.960160  0.690130  0.022500  1.0  -0.463
  O  O59  1  0.915730  0.558100  0.248250  1.0  -0.5294
  O  O60  1  0.939570  0.861270  0.218260  1.0  -0.5042
  O  O61  1  0.591330  0.560700  0.447650  1.0  -0.5302
  O  O62  1  0.539840  0.809870  0.522500  1.0  -0.4627
  O  O63  1  0.584270  0.941900  0.748250  1.0  -0.5304
  O  O64  1  0.560430  0.638730  0.718260  1.0  -0.5043
  O  O65  1  0.091330  0.060700  0.947650  1.0  -0.5302
  O  O66  1  0.039840  0.309870  0.022500  1.0  -0.4627
  O  O67  1  0.084270  0.441900  0.248250  1.0  -0.5304
  O  O68  1  0.060430  0.138730  0.218260  1.0  -0.5043
  O  O69  1  0.908670  0.560700  0.447650  1.0  -0.53
  O  O70  1  0.960160  0.809870  0.522500  1.0  -0.4615
  O  O71  1  0.915730  0.941900  0.748250  1.0  -0.5303
  O  O72  1  0.939570  0.638730  0.718260  1.0  -0.5044
  O  O73  1  0.408670  0.060700  0.947650  1.0  -0.53
  O  O74  1  0.460160  0.309870  0.022500  1.0  -0.4615
  O  O75  1  0.415730  0.441900  0.248250  1.0  -0.5303
  O  O76  1  0.439570  0.138730  0.218260  1.0  -0.5044
  O  O77  1  0.091330  0.439300  0.447650  1.0  -0.5311
  O  O78  1  0.039840  0.190130  0.522500  1.0  -0.4637
  O  O79  1  0.084270  0.058100  0.748250  1.0  -0.5301
  O  O80  1  0.060430  0.361270  0.718260  1.0  -0.5047
  O  O81  1  0.591330  0.939300  0.947650  1.0  -0.5311
  O  O82  1  0.539840  0.690130  0.022500  1.0  -0.4637
  O  O83  1  0.584270  0.558100  0.248250  1.0  -0.5301
  O  O84  1  0.560430  0.861270  0.218260  1.0  -0.5047
