# generated using pymatgen
data_YbH4(CO2)4
_symmetry_space_group_name_H-M   'P 1'
_cell_length_a   6.62910000
_cell_length_b   18.25490000
_cell_length_c   8.39830000
_cell_angle_alpha   90.00000000
_cell_angle_beta   90.00000000
_cell_angle_gamma   90.00000000
_symmetry_Int_Tables_number   1
_chemical_formula_structural   YbH4(CO2)4
_chemical_formula_sum   'Yb4 H16 C16 O32'
_cell_volume   1016.30816071
_cell_formula_units_Z   4
loop_
 _symmetry_equiv_pos_site_id
 _symmetry_equiv_pos_as_xyz
  1  'x, y, z'
loop_
 _atom_site_type_symbol
 _atom_site_label
 _atom_site_symmetry_multiplicity
 _atom_site_fract_x
 _atom_site_fract_y
 _atom_site_fract_z
 _atom_site_occupancy
 _atom_site_charge
  Yb  Yb1  1  0.500000  0.142780  0.750000  1.0  1.2166
  Yb  Yb2  1  0.000000  0.642780  0.750000  1.0  1.2166
  Yb  Yb3  1  0.500000  0.857220  0.250000  1.0  1.207
  Yb  Yb4  1  0.000000  0.357220  0.250000  1.0  1.207
  H  H5  1  0.279400  0.282700  0.952700  1.0  0.0884
  H  H6  1  0.779400  0.782700  0.952700  1.0  0.0884
  H  H7  1  0.720600  0.717300  0.452700  1.0  0.0879
  H  H8  1  0.220600  0.217300  0.452700  1.0  0.0879
  H  H9  1  0.720600  0.282700  0.547300  1.0  0.0874
  H  H10  1  0.220600  0.782700  0.547300  1.0  0.0874
  H  H11  1  0.279400  0.717300  0.047300  1.0  0.088
  H  H12  1  0.779400  0.217300  0.047300  1.0  0.088
  H  H13  1  0.000000  0.177300  0.750000  1.0  0.1102
  H  H14  1  0.500000  0.677300  0.750000  1.0  0.1102
  H  H15  1  0.000000  0.822700  0.250000  1.0  0.1103
  H  H16  1  0.500000  0.322700  0.250000  1.0  0.1103
  H  H17  1  0.283900  0.000000  0.500000  1.0  0.116
  H  H18  1  0.783900  0.500000  0.500000  1.0  0.116
  H  H19  1  0.716100  0.000000  0.000000  1.0  0.1167
  H  H20  1  0.216100  0.500000  0.000000  1.0  0.1167
  C  C21  1  0.262900  0.244100  0.023800  1.0  0.6909
  C  C22  1  0.762900  0.744100  0.023800  1.0  0.6909
  C  C23  1  0.737100  0.755900  0.523800  1.0  0.6905
  C  C24  1  0.237100  0.255900  0.523800  1.0  0.6905
  C  C25  1  0.737100  0.244100  0.476200  1.0  0.6908
  C  C26  1  0.237100  0.744100  0.476200  1.0  0.6908
  C  C27  1  0.262900  0.755900  0.976200  1.0  0.6908
  C  C28  1  0.762900  0.255900  0.976200  1.0  0.6908
  C  C29  1  0.000000  0.126400  0.750000  1.0  0.6781
  C  C30  1  0.500000  0.626400  0.750000  1.0  0.6781
  C  C31  1  0.000000  0.873600  0.250000  1.0  0.6787
  C  C32  1  0.500000  0.373600  0.250000  1.0  0.6787
  C  C33  1  0.424200  0.000000  0.500000  1.0  0.813
  C  C34  1  0.924200  0.500000  0.500000  1.0  0.813
  C  C35  1  0.575800  0.000000  0.000000  1.0  0.8114
  C  C36  1  0.075800  0.500000  0.000000  1.0  0.8114
  O  O37  1  0.165400  0.095000  0.729900  1.0  -0.5517
  O  O38  1  0.511600  0.050230  0.570500  1.0  -0.5731
  O  O39  1  0.326500  0.183710  0.980700  1.0  -0.5472
  O  O40  1  0.179100  0.258690  0.152300  1.0  -0.5699
  O  O41  1  0.665400  0.595000  0.729900  1.0  -0.5517
  O  O42  1  0.011600  0.550230  0.570500  1.0  -0.5731
  O  O43  1  0.826500  0.683710  0.980700  1.0  -0.5472
  O  O44  1  0.679100  0.758690  0.152300  1.0  -0.5699
  O  O45  1  0.834600  0.905000  0.229900  1.0  -0.5511
  O  O46  1  0.488400  0.949770  0.070500  1.0  -0.5747
  O  O47  1  0.673500  0.816290  0.480700  1.0  -0.5482
  O  O48  1  0.820900  0.741310  0.652300  1.0  -0.5701
  O  O49  1  0.334600  0.405000  0.229900  1.0  -0.5511
  O  O50  1  0.988400  0.449770  0.070500  1.0  -0.5747
  O  O51  1  0.173500  0.316290  0.480700  1.0  -0.5482
  O  O52  1  0.320900  0.241310  0.652300  1.0  -0.5701
  O  O53  1  0.834600  0.095000  0.770100  1.0  -0.5525
  O  O54  1  0.488400  0.050230  0.929500  1.0  -0.5736
  O  O55  1  0.673500  0.183710  0.519300  1.0  -0.5481
  O  O56  1  0.820900  0.258690  0.347700  1.0  -0.5693
  O  O57  1  0.334600  0.595000  0.770100  1.0  -0.5525
  O  O58  1  0.988400  0.550230  0.929500  1.0  -0.5736
  O  O59  1  0.173500  0.683710  0.519300  1.0  -0.5481
  O  O60  1  0.320900  0.758690  0.347700  1.0  -0.5693
  O  O61  1  0.165400  0.905000  0.270100  1.0  -0.5527
  O  O62  1  0.511600  0.949770  0.429500  1.0  -0.5738
  O  O63  1  0.326500  0.816290  0.019300  1.0  -0.548
  O  O64  1  0.179100  0.741310  0.847700  1.0  -0.5689
  O  O65  1  0.665400  0.405000  0.270100  1.0  -0.5527
  O  O66  1  0.011600  0.449770  0.429500  1.0  -0.5738
  O  O67  1  0.826500  0.316290  0.019300  1.0  -0.548
  O  O68  1  0.679100  0.241310  0.847700  1.0  -0.5689
