# generated using pymatgen
data_TbH4(CO2)4
_symmetry_space_group_name_H-M   'P 1'
_cell_length_a   6.69860000
_cell_length_b   18.51790000
_cell_length_c   8.49340000
_cell_angle_alpha   90.00000000
_cell_angle_beta   90.00000000
_cell_angle_gamma   90.00000000
_symmetry_Int_Tables_number   1
_chemical_formula_structural   TbH4(CO2)4
_chemical_formula_sum   'Tb4 H16 C16 O32'
_cell_volume   1053.55535156
_cell_formula_units_Z   4
loop_
 _symmetry_equiv_pos_site_id
 _symmetry_equiv_pos_as_xyz
  1  'x, y, z'
loop_
 _atom_site_type_symbol
 _atom_site_label
 _atom_site_symmetry_multiplicity
 _atom_site_fract_x
 _atom_site_fract_y
 _atom_site_fract_z
 _atom_site_occupancy
 _atom_site_charge
  Tb  Tb1  1  0.500000  0.857340  0.750000  1.0  2.2313
  Tb  Tb2  1  0.000000  0.357340  0.750000  1.0  2.2313
  Tb  Tb3  1  0.500000  0.142660  0.250000  1.0  2.234
  Tb  Tb4  1  0.000000  0.642660  0.250000  1.0  2.234
  H  H5  1  0.714100  0.718700  0.541500  1.0  0.0283
  H  H6  1  0.214100  0.218700  0.541500  1.0  0.0283
  H  H7  1  0.285900  0.281300  0.041500  1.0  0.0276
  H  H8  1  0.785900  0.781300  0.041500  1.0  0.0276
  H  H9  1  0.285900  0.718700  0.958500  1.0  0.0275
  H  H10  1  0.785900  0.218700  0.958500  1.0  0.0275
  H  H11  1  0.714100  0.281300  0.458500  1.0  0.0284
  H  H12  1  0.214100  0.781300  0.458500  1.0  0.0284
  H  H13  1  0.287300  0.000000  0.500000  1.0  0.0476
  H  H14  1  0.787300  0.500000  0.500000  1.0  0.0476
  H  H15  1  0.712700  0.000000  0.000000  1.0  0.0482
  H  H16  1  0.212700  0.500000  0.000000  1.0  0.0482
  H  H17  1  0.000000  0.824800  0.750000  1.0  0.0269
  H  H18  1  0.500000  0.324800  0.750000  1.0  0.0269
  H  H19  1  0.000000  0.175200  0.250000  1.0  0.0276
  H  H20  1  0.500000  0.675200  0.250000  1.0  0.0276
  C  C21  1  0.735200  0.757000  0.472700  1.0  0.6699
  C  C22  1  0.235200  0.257000  0.472700  1.0  0.6699
  C  C23  1  0.264800  0.243000  0.972700  1.0  0.6697
  C  C24  1  0.764800  0.743000  0.972700  1.0  0.6697
  C  C25  1  0.264800  0.757000  0.027300  1.0  0.6695
  C  C26  1  0.764800  0.257000  0.027300  1.0  0.6695
  C  C27  1  0.735200  0.243000  0.527300  1.0  0.6694
  C  C28  1  0.235200  0.743000  0.527300  1.0  0.6694
  C  C29  1  0.426100  0.000000  0.500000  1.0  0.7487
  C  C30  1  0.926100  0.500000  0.500000  1.0  0.7487
  C  C31  1  0.573900  0.000000  0.000000  1.0  0.7472
  C  C32  1  0.073900  0.500000  0.000000  1.0  0.7472
  C  C33  1  0.000000  0.875000  0.750000  1.0  0.6082
  C  C34  1  0.500000  0.375000  0.750000  1.0  0.6082
  C  C35  1  0.000000  0.125000  0.250000  1.0  0.6079
  C  C36  1  0.500000  0.625000  0.250000  1.0  0.6079
  O  O37  1  0.819200  0.742530  0.347000  1.0  -0.6322
  O  O38  1  0.676100  0.817060  0.516600  1.0  -0.6266
  O  O39  1  0.513000  0.950320  0.569000  1.0  -0.6464
  O  O40  1  0.836600  0.905820  0.770600  1.0  -0.6232
  O  O41  1  0.319200  0.242530  0.347000  1.0  -0.6322
  O  O42  1  0.176100  0.317060  0.516600  1.0  -0.6266
  O  O43  1  0.013000  0.450320  0.569000  1.0  -0.6464
  O  O44  1  0.336600  0.405820  0.770600  1.0  -0.6232
  O  O45  1  0.180800  0.257470  0.847000  1.0  -0.6335
  O  O46  1  0.323900  0.182940  0.016600  1.0  -0.6275
  O  O47  1  0.487000  0.049680  0.069000  1.0  -0.6443
  O  O48  1  0.163400  0.094180  0.270600  1.0  -0.6241
  O  O49  1  0.680800  0.757470  0.847000  1.0  -0.6335
  O  O50  1  0.823900  0.682940  0.016600  1.0  -0.6275
  O  O51  1  0.987000  0.549680  0.069000  1.0  -0.6443
  O  O52  1  0.663400  0.594180  0.270600  1.0  -0.6241
  O  O53  1  0.180800  0.742530  0.153000  1.0  -0.6335
  O  O54  1  0.323900  0.817060  0.983400  1.0  -0.6271
  O  O55  1  0.487000  0.950320  0.931000  1.0  -0.6451
  O  O56  1  0.163400  0.905820  0.729400  1.0  -0.625
  O  O57  1  0.680800  0.242530  0.153000  1.0  -0.6335
  O  O58  1  0.823900  0.317060  0.983400  1.0  -0.6271
  O  O59  1  0.987000  0.450320  0.931000  1.0  -0.6451
  O  O60  1  0.663400  0.405820  0.729400  1.0  -0.625
  O  O61  1  0.819200  0.257470  0.653000  1.0  -0.6328
  O  O62  1  0.676100  0.182940  0.483400  1.0  -0.6269
  O  O63  1  0.513000  0.049680  0.431000  1.0  -0.6458
  O  O64  1  0.836600  0.094180  0.229400  1.0  -0.6237
  O  O65  1  0.319200  0.757470  0.653000  1.0  -0.6328
  O  O66  1  0.176100  0.682940  0.483400  1.0  -0.6269
  O  O67  1  0.013000  0.549680  0.431000  1.0  -0.6458
  O  O68  1  0.336600  0.594180  0.229400  1.0  -0.6237
