# generated using pymatgen
data_EuH4(CO2)4
_symmetry_space_group_name_H-M   'P 1'
_cell_length_a   6.74270000
_cell_length_b   18.65300000
_cell_length_c   8.54600000
_cell_angle_alpha   90.00000000
_cell_angle_beta   90.00000000
_cell_angle_gamma   90.00000000
_symmetry_Int_Tables_number   1
_chemical_formula_structural   EuH4(CO2)4
_chemical_formula_sum   'Eu4 H16 C16 O32'
_cell_volume   1074.84394917
_cell_formula_units_Z   4
loop_
 _symmetry_equiv_pos_site_id
 _symmetry_equiv_pos_as_xyz
  1  'x, y, z'
loop_
 _atom_site_type_symbol
 _atom_site_label
 _atom_site_symmetry_multiplicity
 _atom_site_fract_x
 _atom_site_fract_y
 _atom_site_fract_z
 _atom_site_occupancy
 _atom_site_charge
  Eu  Eu1  1  0.500000  0.642500  0.250000  1.0  2.0836
  Eu  Eu2  1  0.000000  0.142500  0.250000  1.0  2.0836
  Eu  Eu3  1  0.500000  0.357500  0.750000  1.0  2.08
  Eu  Eu4  1  0.000000  0.857500  0.750000  1.0  2.08
  H  H5  1  0.790000  0.719700  0.958500  1.0  0.0262
  H  H6  1  0.290000  0.219700  0.958500  1.0  0.0262
  H  H7  1  0.210000  0.280300  0.458500  1.0  0.0264
  H  H8  1  0.710000  0.780300  0.458500  1.0  0.0264
  H  H9  1  0.210000  0.719700  0.541500  1.0  0.025
  H  H10  1  0.710000  0.219700  0.541500  1.0  0.025
  H  H11  1  0.790000  0.280300  0.041500  1.0  0.0241
  H  H12  1  0.290000  0.780300  0.041500  1.0  0.0241
  H  H13  1  0.000000  0.673800  0.250000  1.0  0.0392
  H  H14  1  0.500000  0.173800  0.250000  1.0  0.0392
  H  H15  1  0.000000  0.326200  0.750000  1.0  0.0381
  H  H16  1  0.500000  0.826200  0.750000  1.0  0.0381
  H  H17  1  0.290300  0.500000  0.500000  1.0  0.0453
  H  H18  1  0.790300  0.000000  0.500000  1.0  0.0453
  H  H19  1  0.709700  0.500000  0.000000  1.0  0.047
  H  H20  1  0.209700  0.000000  0.000000  1.0  0.047
  C  C21  1  0.766900  0.757600  0.026800  1.0  0.6966
  C  C22  1  0.266900  0.257600  0.026800  1.0  0.6966
  C  C23  1  0.233100  0.242400  0.526800  1.0  0.697
  C  C24  1  0.733100  0.742400  0.526800  1.0  0.697
  C  C25  1  0.233100  0.757600  0.473200  1.0  0.6971
  C  C26  1  0.733100  0.257600  0.473200  1.0  0.6971
  C  C27  1  0.766900  0.242400  0.973200  1.0  0.6971
  C  C28  1  0.266900  0.742400  0.973200  1.0  0.6971
  C  C29  1  0.000000  0.623900  0.250000  1.0  0.6043
  C  C30  1  0.500000  0.123900  0.250000  1.0  0.6043
  C  C31  1  0.000000  0.376100  0.750000  1.0  0.605
  C  C32  1  0.500000  0.876100  0.750000  1.0  0.605
  C  C33  1  0.428200  0.500000  0.500000  1.0  0.7843
  C  C34  1  0.928200  0.000000  0.500000  1.0  0.7843
  C  C35  1  0.571800  0.500000  0.000000  1.0  0.7828
  C  C36  1  0.071800  0.000000  0.000000  1.0  0.7828
  O  O37  1  0.837100  0.593320  0.228500  1.0  -0.6275
  O  O38  1  0.822800  0.817170  0.984400  1.0  -0.6104
  O  O39  1  0.681800  0.742960  0.153000  1.0  -0.6416
  O  O40  1  0.512100  0.549230  0.432100  1.0  -0.6201
  O  O41  1  0.337100  0.093320  0.228500  1.0  -0.6275
  O  O42  1  0.322800  0.317170  0.984400  1.0  -0.6104
  O  O43  1  0.181800  0.242960  0.153000  1.0  -0.6416
  O  O44  1  0.012100  0.049230  0.432100  1.0  -0.6201
  O  O45  1  0.162900  0.406680  0.728500  1.0  -0.6287
  O  O46  1  0.177200  0.182830  0.484400  1.0  -0.6111
  O  O47  1  0.318200  0.257040  0.653000  1.0  -0.6398
  O  O48  1  0.487900  0.450770  0.932100  1.0  -0.6215
  O  O49  1  0.662900  0.906680  0.728500  1.0  -0.6287
  O  O50  1  0.677200  0.682830  0.484400  1.0  -0.6111
  O  O51  1  0.818200  0.757040  0.653000  1.0  -0.6398
  O  O52  1  0.987900  0.950770  0.932100  1.0  -0.6215
  O  O53  1  0.162900  0.593320  0.271500  1.0  -0.6277
  O  O54  1  0.177200  0.817170  0.515600  1.0  -0.6091
  O  O55  1  0.318200  0.742960  0.347000  1.0  -0.6397
  O  O56  1  0.487900  0.549230  0.067900  1.0  -0.621
  O  O57  1  0.662900  0.093320  0.271500  1.0  -0.6277
  O  O58  1  0.677200  0.317170  0.515600  1.0  -0.6091
  O  O59  1  0.818200  0.242960  0.347000  1.0  -0.6397
  O  O60  1  0.987900  0.049230  0.067900  1.0  -0.621
  O  O61  1  0.837100  0.406680  0.771500  1.0  -0.6274
  O  O62  1  0.822800  0.182830  0.015600  1.0  -0.612
  O  O63  1  0.681800  0.257040  0.847000  1.0  -0.641
  O  O64  1  0.512100  0.450770  0.567900  1.0  -0.6209
  O  O65  1  0.337100  0.906680  0.771500  1.0  -0.6274
  O  O66  1  0.322800  0.682830  0.015600  1.0  -0.612
  O  O67  1  0.181800  0.757040  0.847000  1.0  -0.641
  O  O68  1  0.012100  0.950770  0.567900  1.0  -0.6209
