# generated using pymatgen
data_YH4(CO2)4
_symmetry_space_group_name_H-M   'P 1'
_cell_length_a   6.67540000
_cell_length_b   18.39430000
_cell_length_c   8.45710000
_cell_angle_alpha   90.00000000
_cell_angle_beta   90.00000000
_cell_angle_gamma   90.00000000
_symmetry_Int_Tables_number   1
_chemical_formula_structural   YH4(CO2)4
_chemical_formula_sum   'Y4 H16 C16 O32'
_cell_volume   1038.44147546
_cell_formula_units_Z   4
loop_
 _symmetry_equiv_pos_site_id
 _symmetry_equiv_pos_as_xyz
  1  'x, y, z'
loop_
 _atom_site_type_symbol
 _atom_site_label
 _atom_site_symmetry_multiplicity
 _atom_site_fract_x
 _atom_site_fract_y
 _atom_site_fract_z
 _atom_site_occupancy
 _atom_site_charge
  Y  Y1  1  0.500000  0.142610  0.750000  1.0  2.0013
  Y  Y2  1  0.000000  0.642600  0.750000  1.0  2.0012
  Y  Y3  1  0.500000  0.857400  0.250000  1.0  1.9989
  Y  Y4  1  0.000000  0.357390  0.250000  1.0  1.9989
  H  H5  1  0.218500  0.217800  0.045300  1.0  0.0326
  H  H6  1  0.718500  0.717800  0.045300  1.0  0.0326
  H  H7  1  0.781500  0.782200  0.545300  1.0  0.0321
  H  H8  1  0.281500  0.282200  0.545300  1.0  0.0321
  H  H9  1  0.781500  0.217800  0.454700  1.0  0.0335
  H  H10  1  0.281500  0.717800  0.454700  1.0  0.0335
  H  H11  1  0.218500  0.782200  0.954700  1.0  0.0334
  H  H12  1  0.718500  0.282200  0.954700  1.0  0.0334
  H  H13  1  0.000000  0.176000  0.750000  1.0  0.0573
  H  H14  1  0.500000  0.676000  0.750000  1.0  0.0573
  H  H15  1  0.000000  0.824000  0.250000  1.0  0.0569
  H  H16  1  0.500000  0.324000  0.250000  1.0  0.0568
  H  H17  1  0.714200  0.000000  0.500000  1.0  0.038
  H  H18  1  0.214200  0.500000  0.500000  1.0  0.038
  H  H19  1  0.285800  0.000000  0.000000  1.0  0.0361
  H  H20  1  0.785800  0.500000  0.000000  1.0  0.0361
  C  C21  1  0.236700  0.256300  0.975400  1.0  0.6837
  C  C22  1  0.736700  0.756300  0.975400  1.0  0.6837
  C  C23  1  0.763300  0.743700  0.475400  1.0  0.6845
  C  C24  1  0.263300  0.243700  0.475400  1.0  0.6845
  C  C25  1  0.763300  0.256300  0.524600  1.0  0.6837
  C  C26  1  0.263300  0.756300  0.524600  1.0  0.6837
  C  C27  1  0.236700  0.743700  0.024600  1.0  0.6843
  C  C28  1  0.736700  0.243700  0.024600  1.0  0.6843
  C  C29  1  0.000000  0.125400  0.750000  1.0  0.6459
  C  C30  1  0.500000  0.625400  0.750000  1.0  0.6459
  C  C31  1  0.000000  0.874600  0.250000  1.0  0.6467
  C  C32  1  0.500000  0.374600  0.250000  1.0  0.6467
  C  C33  1  0.574900  0.000000  0.500000  1.0  0.7786
  C  C34  1  0.074900  0.500000  0.500000  1.0  0.7787
  C  C35  1  0.425100  0.000000  0.000000  1.0  0.7802
  C  C36  1  0.925100  0.500000  0.000000  1.0  0.7803
  O  O37  1  0.164100  0.094380  0.769500  1.0  -0.6069
  O  O38  1  0.490000  0.050210  0.569800  1.0  -0.6346
  O  O39  1  0.175500  0.316510  0.018700  1.0  -0.6059
  O  O40  1  0.320200  0.241920  0.848000  1.0  -0.6273
  O  O41  1  0.664100  0.594380  0.769500  1.0  -0.6069
  O  O42  1  0.990000  0.550210  0.569800  1.0  -0.6346
  O  O43  1  0.675500  0.816510  0.018700  1.0  -0.6059
  O  O44  1  0.820200  0.741920  0.848000  1.0  -0.6273
  O  O45  1  0.835900  0.905620  0.269500  1.0  -0.606
  O  O46  1  0.510000  0.949790  0.069800  1.0  -0.6366
  O  O47  1  0.824500  0.683490  0.518700  1.0  -0.607
  O  O48  1  0.679800  0.758080  0.348000  1.0  -0.6282
  O  O49  1  0.335900  0.405620  0.269500  1.0  -0.606
  O  O50  1  0.010000  0.449790  0.069800  1.0  -0.6366
  O  O51  1  0.324500  0.183490  0.518700  1.0  -0.607
  O  O52  1  0.179800  0.258080  0.348000  1.0  -0.6282
  O  O53  1  0.835900  0.094380  0.730500  1.0  -0.6066
  O  O54  1  0.510000  0.050210  0.930200  1.0  -0.6364
  O  O55  1  0.824500  0.316510  0.481300  1.0  -0.6067
  O  O56  1  0.679800  0.241920  0.652000  1.0  -0.6298
  O  O57  1  0.335900  0.594380  0.730500  1.0  -0.6066
  O  O58  1  0.010000  0.550210  0.930200  1.0  -0.6364
  O  O59  1  0.324500  0.816510  0.481300  1.0  -0.6067
  O  O60  1  0.179800  0.741920  0.652000  1.0  -0.6298
  O  O61  1  0.164100  0.905620  0.230500  1.0  -0.6074
  O  O62  1  0.490000  0.949790  0.430200  1.0  -0.635
  O  O63  1  0.175500  0.683490  0.981300  1.0  -0.6054
  O  O64  1  0.320200  0.758080  0.152000  1.0  -0.6279
  O  O65  1  0.664100  0.405620  0.230500  1.0  -0.6074
  O  O66  1  0.990000  0.449790  0.430200  1.0  -0.635
  O  O67  1  0.675500  0.183490  0.981300  1.0  -0.6054
  O  O68  1  0.820200  0.258080  0.152000  1.0  -0.6279
