# generated using pymatgen
data_GdH4(CO2)4
_symmetry_space_group_name_H-M   'P 1'
_cell_length_a   6.69160000
_cell_length_b   18.58100000
_cell_length_c   8.49100000
_cell_angle_alpha   90.00000000
_cell_angle_beta   90.00000000
_cell_angle_gamma   90.00000000
_symmetry_Int_Tables_number   1
_chemical_formula_structural   GdH4(CO2)4
_chemical_formula_sum   'Gd4 H16 C16 O32'
_cell_volume   1055.74223702
_cell_formula_units_Z   4
loop_
 _symmetry_equiv_pos_site_id
 _symmetry_equiv_pos_as_xyz
  1  'x, y, z'
loop_
 _atom_site_type_symbol
 _atom_site_label
 _atom_site_symmetry_multiplicity
 _atom_site_fract_x
 _atom_site_fract_y
 _atom_site_fract_z
 _atom_site_occupancy
 _atom_site_charge
  Gd  Gd1  1  0.500000  0.357300  0.250000  1.0  2.1687
  Gd  Gd2  1  0.000000  0.857300  0.250000  1.0  2.1687
  Gd  Gd3  1  0.500000  0.642700  0.750000  1.0  2.1709
  Gd  Gd4  1  0.000000  0.142700  0.750000  1.0  2.1709
  H  H5  1  0.292300  0.219300  0.040400  1.0  0.0314
  H  H6  1  0.792300  0.719300  0.040400  1.0  0.0314
  H  H7  1  0.707700  0.780700  0.540400  1.0  0.0304
  H  H8  1  0.207700  0.280700  0.540400  1.0  0.0304
  H  H9  1  0.707700  0.219300  0.459600  1.0  0.0308
  H  H10  1  0.207700  0.719300  0.459600  1.0  0.0308
  H  H11  1  0.292300  0.780700  0.959600  1.0  0.0309
  H  H12  1  0.792300  0.280700  0.959600  1.0  0.0309
  H  H13  1  0.000000  0.325600  0.250000  1.0  0.0415
  H  H14  1  0.500000  0.825600  0.250000  1.0  0.0415
  H  H15  1  0.000000  0.674400  0.750000  1.0  0.043
  H  H16  1  0.500000  0.174400  0.750000  1.0  0.043
  H  H17  1  0.711000  0.500000  0.000000  1.0  0.0851
  H  H18  1  0.211000  0.000000  0.000000  1.0  0.0851
  H  H19  1  0.289000  0.500000  0.500000  1.0  0.0831
  H  H20  1  0.789000  0.000000  0.500000  1.0  0.0831
  C  C21  1  0.267500  0.257600  0.972500  1.0  0.6756
  C  C22  1  0.767500  0.757600  0.972500  1.0  0.6756
  C  C23  1  0.732500  0.742400  0.472500  1.0  0.6755
  C  C24  1  0.232500  0.242400  0.472500  1.0  0.6755
  C  C25  1  0.732500  0.257600  0.527500  1.0  0.6752
  C  C26  1  0.232500  0.757600  0.527500  1.0  0.6752
  C  C27  1  0.267500  0.742400  0.027500  1.0  0.6752
  C  C28  1  0.767500  0.242400  0.027500  1.0  0.6752
  C  C29  1  0.000000  0.375700  0.250000  1.0  0.6014
  C  C30  1  0.500000  0.875700  0.250000  1.0  0.6014
  C  C31  1  0.000000  0.624300  0.750000  1.0  0.601
  C  C32  1  0.500000  0.124300  0.750000  1.0  0.601
  C  C33  1  0.573500  0.500000  0.000000  1.0  0.7209
  C  C34  1  0.073500  0.000000  0.000000  1.0  0.7209
  C  C35  1  0.426500  0.500000  0.500000  1.0  0.7225
  C  C36  1  0.926500  0.000000  0.500000  1.0  0.7225
  O  O37  1  0.485000  0.450090  0.067700  1.0  -0.6434
  O  O38  1  0.322500  0.318010  0.015600  1.0  -0.6159
  O  O39  1  0.163000  0.406200  0.273500  1.0  -0.6168
  O  O40  1  0.181600  0.243510  0.845900  1.0  -0.6396
  O  O41  1  0.985000  0.950090  0.067700  1.0  -0.6434
  O  O42  1  0.822500  0.818010  0.015600  1.0  -0.6159
  O  O43  1  0.663000  0.906200  0.273500  1.0  -0.6168
  O  O44  1  0.681600  0.743510  0.845900  1.0  -0.6396
  O  O45  1  0.515000  0.549910  0.567700  1.0  -0.6448
  O  O46  1  0.677500  0.681990  0.515600  1.0  -0.6174
  O  O47  1  0.837000  0.593800  0.773500  1.0  -0.616
  O  O48  1  0.818400  0.756490  0.345900  1.0  -0.6386
  O  O49  1  0.015000  0.049910  0.567700  1.0  -0.6448
  O  O50  1  0.177500  0.181990  0.515600  1.0  -0.6174
  O  O51  1  0.337000  0.093800  0.773500  1.0  -0.616
  O  O52  1  0.318400  0.256490  0.345900  1.0  -0.6386
  O  O53  1  0.515000  0.450090  0.432300  1.0  -0.6459
  O  O54  1  0.677500  0.318010  0.484400  1.0  -0.6156
  O  O55  1  0.837000  0.406200  0.226500  1.0  -0.6148
  O  O56  1  0.818400  0.243510  0.654100  1.0  -0.639
  O  O57  1  0.015000  0.950090  0.432300  1.0  -0.6459
  O  O58  1  0.177500  0.818010  0.484400  1.0  -0.6156
  O  O59  1  0.337000  0.906200  0.226500  1.0  -0.6148
  O  O60  1  0.318400  0.743510  0.654100  1.0  -0.639
  O  O61  1  0.485000  0.549910  0.932300  1.0  -0.643
  O  O62  1  0.322500  0.681990  0.984400  1.0  -0.6166
  O  O63  1  0.163000  0.593800  0.726500  1.0  -0.6158
  O  O64  1  0.181600  0.756490  0.154100  1.0  -0.6398
  O  O65  1  0.985000  0.049910  0.932300  1.0  -0.643
  O  O66  1  0.822500  0.181990  0.984400  1.0  -0.6166
  O  O67  1  0.663000  0.093800  0.726500  1.0  -0.6158
  O  O68  1  0.681600  0.256490  0.154100  1.0  -0.6398
