# generated using pymatgen
data_MnH2(CO2)2
_symmetry_space_group_name_H-M   'P 1'
_cell_length_a   10.20720000
_cell_length_b   11.75610000
_cell_length_c   14.96140000
_cell_angle_alpha   91.86390000
_cell_angle_beta   90.00000000
_cell_angle_gamma   90.00000000
_symmetry_Int_Tables_number   1
_chemical_formula_structural   MnH2(CO2)2
_chemical_formula_sum   'Mn12 H24 C24 O48'
_cell_volume   1794.37118882
_cell_formula_units_Z   12
loop_
 _symmetry_equiv_pos_site_id
 _symmetry_equiv_pos_as_xyz
  1  'x, y, z'
loop_
 _atom_site_type_symbol
 _atom_site_label
 _atom_site_symmetry_multiplicity
 _atom_site_fract_x
 _atom_site_fract_y
 _atom_site_fract_z
 _atom_site_occupancy
 _atom_site_charge
  Mn  Mn1  1  0.919310  0.756790  0.131650  1.0  1.1586
  Mn  Mn2  1  0.106880  0.739160  0.312820  1.0  1.144
  Mn  Mn3  1  0.419310  0.743210  0.368350  1.0  1.1587
  Mn  Mn4  1  0.606880  0.760840  0.187180  1.0  1.1442
  Mn  Mn5  1  0.080690  0.243210  0.868350  1.0  1.1587
  Mn  Mn6  1  0.893120  0.260840  0.687180  1.0  1.144
  Mn  Mn7  1  0.580690  0.256790  0.631650  1.0  1.1585
  Mn  Mn8  1  0.393120  0.239160  0.812820  1.0  1.1439
  Mn  Mn9  1  0.000000  0.500000  0.000000  1.0  1.1561
  Mn  Mn10  1  0.500000  0.000000  0.500000  1.0  1.1561
  Mn  Mn11  1  0.000000  0.000000  0.000000  1.0  1.1644
  Mn  Mn12  1  0.500000  0.500000  0.500000  1.0  1.1644
  H  H13  1  0.753000  0.846800  0.370800  1.0  0.0174
  H  H14  1  0.034000  0.483300  0.265300  1.0  0.0136
  H  H15  1  0.615000  0.566100  0.041100  1.0  0.0108
  H  H16  1  0.214000  0.961800  0.223800  1.0  0.0149
  H  H17  1  0.153000  0.696800  0.925800  1.0  -0.003
  H  H18  1  0.707000  0.996300  0.027300  1.0  0.0084
  H  H19  1  0.253000  0.653200  0.129200  1.0  0.0177
  H  H20  1  0.534000  0.016700  0.234700  1.0  0.0138
  H  H21  1  0.115000  0.933900  0.458900  1.0  0.0101
  H  H22  1  0.714000  0.538200  0.276200  1.0  0.016
  H  H23  1  0.653000  0.803200  0.574200  1.0  -0.0026
  H  H24  1  0.207000  0.503700  0.472700  1.0  0.006
  H  H25  1  0.247000  0.153200  0.629200  1.0  0.0175
  H  H26  1  0.966000  0.516700  0.734700  1.0  0.0138
  H  H27  1  0.385000  0.433900  0.958900  1.0  0.0108
  H  H28  1  0.786000  0.038200  0.776200  1.0  0.0151
  H  H29  1  0.847000  0.303200  0.074200  1.0  -0.0027
  H  H30  1  0.293000  0.003700  0.972700  1.0  0.0046
  H  H31  1  0.747000  0.346800  0.870800  1.0  0.0172
  H  H32  1  0.466000  0.983300  0.765300  1.0  0.0134
  H  H33  1  0.885000  0.066100  0.541100  1.0  0.0109
  H  H34  1  0.286000  0.461800  0.723800  1.0  0.015
  H  H35  1  0.347000  0.196800  0.425800  1.0  -0.0031
  H  H36  1  0.793000  0.496300  0.527300  1.0  0.0072
  C  C37  1  0.825400  0.824060  0.331460  1.0  0.6656
  C  C38  1  0.018600  0.519890  0.208590  1.0  0.6754
  C  C39  1  0.712400  0.576890  0.049990  1.0  0.6649
  C  C40  1  0.140400  0.941080  0.180480  1.0  0.6588
  C  C41  1  0.097100  0.740530  0.964130  1.0  0.6958
  C  C42  1  0.724500  0.936790  0.059690  1.0  0.722
  C  C43  1  0.325400  0.675940  0.168540  1.0  0.6655
  C  C44  1  0.518600  0.980110  0.291410  1.0  0.6742
  C  C45  1  0.212400  0.923110  0.450010  1.0  0.6645
  C  C46  1  0.640400  0.558920  0.319520  1.0  0.6599
  C  C47  1  0.597100  0.759470  0.535870  1.0  0.6954
  C  C48  1  0.224500  0.563210  0.440310  1.0  0.7222
  C  C49  1  0.174600  0.175940  0.668540  1.0  0.6657
  C  C50  1  0.981400  0.480110  0.791410  1.0  0.6745
  C  C51  1  0.287600  0.423110  0.950010  1.0  0.6636
  C  C52  1  0.859600  0.058920  0.819520  1.0  0.6592
  C  C53  1  0.902900  0.259470  0.035870  1.0  0.695
  C  C54  1  0.275500  0.063210  0.940310  1.0  0.7213
  C  C55  1  0.674600  0.324060  0.831460  1.0  0.6663
  C  C56  1  0.481400  0.019890  0.708590  1.0  0.6757
  C  C57  1  0.787600  0.076890  0.549990  1.0  0.6654
  C  C58  1  0.359600  0.441080  0.680480  1.0  0.6577
  C  C59  1  0.402900  0.240530  0.464130  1.0  0.6955
  C  C60  1  0.775500  0.436790  0.559690  1.0  0.7213
  O  O61  1  0.799340  0.803930  0.249180  1.0  -0.6617
  O  O62  1  0.933100  0.811760  0.367810  1.0  -0.5992
  O  O63  1  0.007510  0.627680  0.216290  1.0  -0.6757
  O  O64  1  0.002100  0.461970  0.139880  1.0  -0.5894
  O  O65  1  0.742110  0.655190  0.107120  1.0  -0.6692
  O  O66  1  0.790020  0.520160  0.003310  1.0  -0.5795
  O  O67  1  0.080660  0.849000  0.196040  1.0  -0.6656
  O  O68  1  0.118900  0.004570  0.118600  1.0  -0.5926
  O  O69  1  0.028900  0.686660  0.020760  1.0  -0.6834
  O  O70  1  0.098360  0.844130  0.955660  1.0  -0.6076
  O  O71  1  0.842420  0.902920  0.064360  1.0  -0.6737
  O  O72  1  0.628930  0.895140  0.097190  1.0  -0.6076
  O  O73  1  0.299340  0.696070  0.250820  1.0  -0.6615
  O  O74  1  0.433100  0.688240  0.132190  1.0  -0.5989
  O  O75  1  0.507510  0.872320  0.283710  1.0  -0.6758
  O  O76  1  0.502100  0.038030  0.360120  1.0  -0.5896
  O  O77  1  0.242110  0.844810  0.392880  1.0  -0.6688
  O  O78  1  0.290020  0.979840  0.496690  1.0  -0.5785
  O  O79  1  0.580660  0.651000  0.303960  1.0  -0.6661
  O  O80  1  0.618900  0.495430  0.381400  1.0  -0.5939
  O  O81  1  0.528900  0.813340  0.479240  1.0  -0.6839
  O  O82  1  0.598360  0.655870  0.544340  1.0  -0.6077
  O  O83  1  0.342420  0.597080  0.435640  1.0  -0.6734
  O  O84  1  0.128930  0.604860  0.402810  1.0  -0.6068
  O  O85  1  0.200660  0.196070  0.750820  1.0  -0.6617
  O  O86  1  0.066900  0.188240  0.632190  1.0  -0.5978
  O  O87  1  0.992490  0.372320  0.783710  1.0  -0.6759
  O  O88  1  0.997900  0.538030  0.860120  1.0  -0.5892
  O  O89  1  0.257890  0.344810  0.892880  1.0  -0.6686
  O  O90  1  0.209980  0.479840  0.996690  1.0  -0.5789
  O  O91  1  0.919340  0.151000  0.803960  1.0  -0.6661
  O  O92  1  0.881100  0.995430  0.881400  1.0  -0.5934
  O  O93  1  0.971100  0.313340  0.979240  1.0  -0.6842
  O  O94  1  0.901640  0.155870  0.044340  1.0  -0.6079
  O  O95  1  0.157580  0.097080  0.935640  1.0  -0.6736
  O  O96  1  0.371070  0.104860  0.902810  1.0  -0.608
  O  O97  1  0.700660  0.303930  0.749180  1.0  -0.6619
  O  O98  1  0.566900  0.311760  0.867810  1.0  -0.5983
  O  O99  1  0.492490  0.127680  0.716290  1.0  -0.6756
  O  O100  1  0.497900  0.961970  0.639880  1.0  -0.5894
  O  O101  1  0.757890  0.155190  0.607120  1.0  -0.6687
  O  O102  1  0.709980  0.020160  0.503310  1.0  -0.5797
  O  O103  1  0.419340  0.349000  0.696040  1.0  -0.6656
  O  O104  1  0.381100  0.504570  0.618600  1.0  -0.5928
  O  O105  1  0.471100  0.186660  0.520760  1.0  -0.6831
  O  O106  1  0.401640  0.344130  0.455660  1.0  -0.6075
  O  O107  1  0.657580  0.402920  0.564360  1.0  -0.6736
  O  O108  1  0.871070  0.395140  0.597190  1.0  -0.6087
