# generated using pymatgen
data_MnH2(CO2)2
_symmetry_space_group_name_H-M   'P 1'
_cell_length_a   10.19590000
_cell_length_b   11.78560000
_cell_length_c   14.92240000
_cell_angle_alpha   91.85590000
_cell_angle_beta   90.00000000
_cell_angle_gamma   90.00000000
_symmetry_Int_Tables_number   1
_chemical_formula_structural   MnH2(CO2)2
_chemical_formula_sum   'Mn12 H24 C24 O48'
_cell_volume   1792.20658230
_cell_formula_units_Z   12
loop_
 _symmetry_equiv_pos_site_id
 _symmetry_equiv_pos_as_xyz
  1  'x, y, z'
loop_
 _atom_site_type_symbol
 _atom_site_label
 _atom_site_symmetry_multiplicity
 _atom_site_fract_x
 _atom_site_fract_y
 _atom_site_fract_z
 _atom_site_occupancy
 _atom_site_charge
  Mn  Mn1  1  0.066930  0.010170  0.437270  1.0  1.1328
  Mn  Mn2  1  0.379250  0.009710  0.381150  1.0  1.163
  Mn  Mn3  1  0.458460  0.255260  0.252210  1.0  1.174
  Mn  Mn4  1  0.543230  0.496480  0.118760  1.0  1.1637
  Mn  Mn5  1  0.856530  0.487430  0.064440  1.0  1.1437
  Mn  Mn6  1  0.459960  0.754940  0.247990  1.0  1.1527
  Mn  Mn7  1  0.566930  0.989830  0.562730  1.0  1.1327
  Mn  Mn8  1  0.879250  0.990290  0.618850  1.0  1.1638
  Mn  Mn9  1  0.958460  0.744740  0.747790  1.0  1.1744
  Mn  Mn10  1  0.043230  0.503520  0.881240  1.0  1.1638
  Mn  Mn11  1  0.356530  0.512570  0.935560  1.0  1.1438
  Mn  Mn12  1  0.959960  0.245060  0.752010  1.0  1.1526
  H  H13  1  0.217300  0.098300  0.619600  1.0  -0.004
  H  H14  1  0.082400  0.817900  0.288500  1.0  0.0084
  H  H15  1  0.003300  0.266200  0.490900  1.0  0.0333
  H  H16  1  0.162400  0.253500  0.277100  1.0  0.0097
  H  H17  1  0.608900  0.952800  0.174000  1.0  0.0238
  H  H18  1  0.168000  0.785100  0.527400  1.0  0.0003
  H  H19  1  0.742900  0.249300  0.225800  1.0  -0.0023
  H  H20  1  0.307200  0.558300  0.323900  1.0  -0.003
  H  H21  1  0.250800  0.295900  0.032000  1.0  -0.0082
  H  H22  1  0.706600  0.395700  0.885700  1.0  0.0081
  H  H23  1  0.836100  0.693300  0.208700  1.0  -0.0035
  H  H24  1  0.432700  0.770900  0.986600  1.0  -0.0011
  H  H25  1  0.717300  0.901700  0.380400  1.0  -0.0031
  H  H26  1  0.582400  0.182100  0.711500  1.0  0.0078
  H  H27  1  0.503300  0.733800  0.509100  1.0  0.033
  H  H28  1  0.662400  0.746500  0.722900  1.0  0.0105
  H  H29  1  0.108900  0.047200  0.826000  1.0  0.025
  H  H30  1  0.668000  0.214900  0.472600  1.0  -0.0002
  H  H31  1  0.242900  0.750700  0.774200  1.0  -0.0018
  H  H32  1  0.807200  0.441700  0.676100  1.0  -0.0029
  H  H33  1  0.750800  0.704100  0.968000  1.0  -0.0096
  H  H34  1  0.206600  0.604300  0.114300  1.0  0.0076
  H  H35  1  0.336100  0.306700  0.791300  1.0  -0.0037
  H  H36  1  0.932700  0.229100  0.013400  1.0  -0.0016
  C  C37  1  0.285500  0.072800  0.582900  1.0  0.7033
  C  C38  1  0.171300  0.832700  0.296800  1.0  0.686
  C  C39  1  0.979600  0.227400  0.541700  1.0  0.6615
  C  C40  1  0.179900  0.190900  0.311600  1.0  0.6983
  C  C41  1  0.554100  0.994400  0.212700  1.0  0.6826
  C  C42  1  0.100900  0.806200  0.566600  1.0  0.6883
  C  C43  1  0.730100  0.312800  0.191500  1.0  0.7048
  C  C44  1  0.360500  0.514100  0.286000  1.0  0.7081
  C  C45  1  0.317900  0.315400  0.071800  1.0  0.7071
  C  C46  1  0.638300  0.425100  0.920600  1.0  0.6848
  C  C47  1  0.747700  0.676300  0.200300  1.0  0.7191
  C  C48  1  0.449400  0.732600  0.038900  1.0  0.6924
  C  C49  1  0.785500  0.927200  0.417100  1.0  0.7032
  C  C50  1  0.671300  0.167300  0.703200  1.0  0.6858
  C  C51  1  0.479600  0.772600  0.458300  1.0  0.6613
  C  C52  1  0.679900  0.809100  0.688400  1.0  0.6989
  C  C53  1  0.054100  0.005600  0.787300  1.0  0.6816
  C  C54  1  0.600900  0.193800  0.433400  1.0  0.6885
  C  C55  1  0.230100  0.687200  0.808500  1.0  0.7049
  C  C56  1  0.860500  0.485900  0.714000  1.0  0.7088
  C  C57  1  0.817900  0.684600  0.928200  1.0  0.707
  C  C58  1  0.138300  0.574900  0.079400  1.0  0.685
  C  C59  1  0.247700  0.323700  0.799700  1.0  0.7192
  C  C60  1  0.949400  0.267400  0.961100  1.0  0.6925
  O  O61  1  0.257600  0.053800  0.499700  1.0  -0.6894
  O  O62  1  0.391500  0.061000  0.618600  1.0  -0.5929
  O  O63  1  0.201900  0.907700  0.355100  1.0  -0.6656
  O  O64  1  0.251100  0.775900  0.248600  1.0  -0.6051
  O  O65  1  0.968000  0.119700  0.534900  1.0  -0.6717
  O  O66  1  0.960700  0.283600  0.613300  1.0  -0.5997
  O  O67  1  0.086100  0.146700  0.348700  1.0  -0.5943
  O  O68  1  0.301500  0.158000  0.316500  1.0  -0.6846
  O  O69  1  0.485300  0.940500  0.268000  1.0  -0.6727
  O  O70  1  0.552600  0.101400  0.207000  1.0  -0.6329
  O  O71  1  0.041800  0.898500  0.552200  1.0  -0.667
  O  O72  1  0.076500  0.741400  0.629100  1.0  -0.6086
  O  O73  1  0.616800  0.350300  0.187700  1.0  -0.6523
  O  O74  1  0.829900  0.352700  0.153600  1.0  -0.6321
  O  O75  1  0.359800  0.412700  0.296600  1.0  -0.5995
  O  O76  1  0.428500  0.567200  0.227100  1.0  -0.6732
  O  O77  1  0.335700  0.252000  0.133800  1.0  -0.5987
  O  O78  1  0.381700  0.405200  0.056000  1.0  -0.67
  O  O79  1  0.661500  0.445800  0.002600  1.0  -0.6588
  O  O80  1  0.529600  0.441200  0.882200  1.0  -0.6079
  O  O81  1  0.721400  0.595500  0.143000  1.0  -0.6902
  O  O82  1  0.671700  0.732100  0.244000  1.0  -0.587
  O  O83  1  0.458800  0.624100  0.031100  1.0  -0.6828
  O  O84  1  0.459900  0.791000  0.107400  1.0  -0.593
  O  O85  1  0.757600  0.946200  0.500300  1.0  -0.6879
  O  O86  1  0.891500  0.939000  0.381400  1.0  -0.5935
  O  O87  1  0.701900  0.092300  0.644900  1.0  -0.6659
  O  O88  1  0.751100  0.224100  0.751400  1.0  -0.6049
  O  O89  1  0.468000  0.880300  0.465100  1.0  -0.6716
  O  O90  1  0.460700  0.716400  0.386700  1.0  -0.5992
  O  O91  1  0.586100  0.853300  0.651300  1.0  -0.5936
  O  O92  1  0.801500  0.842000  0.683500  1.0  -0.6842
  O  O93  1  0.985300  0.059500  0.732000  1.0  -0.6724
  O  O94  1  0.052600  0.898600  0.793000  1.0  -0.6343
  O  O95  1  0.541800  0.101500  0.447800  1.0  -0.667
  O  O96  1  0.576500  0.258600  0.370900  1.0  -0.6087
  O  O97  1  0.116800  0.649700  0.812300  1.0  -0.6523
  O  O98  1  0.329900  0.647300  0.846400  1.0  -0.6328
  O  O99  1  0.859800  0.587300  0.703400  1.0  -0.5988
  O  O100  1  0.928500  0.432800  0.772900  1.0  -0.6703
  O  O101  1  0.835700  0.748000  0.866200  1.0  -0.5985
  O  O102  1  0.881700  0.594800  0.944000  1.0  -0.6697
  O  O103  1  0.161500  0.554200  0.997400  1.0  -0.6589
  O  O104  1  0.029600  0.558800  0.117800  1.0  -0.6087
  O  O105  1  0.221400  0.404500  0.857000  1.0  -0.6901
  O  O106  1  0.171700  0.267900  0.756000  1.0  -0.5878
  O  O107  1  0.958800  0.375900  0.968900  1.0  -0.6824
  O  O108  1  0.959900  0.209000  0.892600  1.0  -0.5926
