# generated using pymatgen
data_ZnH14C20N(O2F3)2
_symmetry_space_group_name_H-M   'P 1'
_cell_length_a   19.09030000
_cell_length_b   19.09030000
_cell_length_c   27.42950000
_cell_angle_alpha   110.36400000
_cell_angle_beta   110.36400000
_cell_angle_gamma   90.00010000
_symmetry_Int_Tables_number   1
_chemical_formula_structural   ZnH14C20N(O2F3)2
_chemical_formula_sum   'Zn8 H112 C160 N8 O32 F48'
_cell_volume   8702.11941605
_cell_formula_units_Z   8
loop_
 _symmetry_equiv_pos_site_id
 _symmetry_equiv_pos_as_xyz
  1  'x, y, z'
loop_
 _atom_site_type_symbol
 _atom_site_label
 _atom_site_symmetry_multiplicity
 _atom_site_fract_x
 _atom_site_fract_y
 _atom_site_fract_z
 _atom_site_occupancy
 _atom_site_charge
  Zn  Zn1  1  0.505760  0.430930  0.511510  1.0  0.8965
  Zn  Zn2  1  0.430930  0.505760  0.011510  1.0  0.8932
  Zn  Zn3  1  0.505760  0.080580  0.511520  1.0  0.8941
  Zn  Zn4  1  0.919420  0.494240  0.988480  1.0  0.8933
  Zn  Zn5  1  0.080580  0.505760  0.011520  1.0  0.8939
  Zn  Zn6  1  0.569070  0.494240  0.988490  1.0  0.8946
  Zn  Zn7  1  0.494240  0.569070  0.488490  1.0  0.8942
  Zn  Zn8  1  0.494240  0.919420  0.488480  1.0  0.8947
  H  H9  1  0.766400  0.520900  0.916800  1.0  0.0757
  H  H10  1  0.742200  0.820900  0.189400  1.0  0.1192
  H  H11  1  0.585300  0.312200  0.381200  1.0  0.1036
  H  H12  1  0.257800  0.631500  0.810600  1.0  0.1218
  H  H13  1  0.650400  0.520900  0.916800  1.0  0.0754
  H  H14  1  0.161400  0.346300  0.202200  1.0  0.1102
  H  H15  1  0.383200  0.795500  0.475000  1.0  0.0854
  H  H16  1  0.320500  0.408200  0.025000  1.0  0.0854
  H  H17  1  0.520900  0.766400  0.416800  1.0  0.0763
  H  H18  1  0.742200  0.368500  0.189400  1.0  0.1216
  H  H19  1  0.679500  0.383200  0.975000  1.0  0.088
  H  H20  1  0.408200  0.204500  0.525000  1.0  0.0797
  H  H21  1  0.740100  0.145100  0.633000  1.0  0.1195
  H  H22  1  0.259900  0.512100  0.367000  1.0  0.1182
  H  H23  1  0.179100  0.257800  0.310600  1.0  0.1189
  H  H24  1  0.540800  0.855900  0.202200  1.0  0.1125
  H  H25  1  0.414700  0.931000  0.618800  1.0  0.1044
  H  H26  1  0.616800  0.320500  0.525000  1.0  0.085
  H  H27  1  0.650400  0.395900  0.916800  1.0  0.077
  H  H28  1  0.854900  0.259900  0.867000  1.0  0.1193
  H  H29  1  0.204500  0.616800  0.025000  1.0  0.088
  H  H30  1  0.723800  0.488900  0.061600  1.0  0.0906
  H  H31  1  0.487900  0.392900  0.133000  1.0  0.1202
  H  H32  1  0.488900  0.837800  0.561600  1.0  0.0818
  H  H33  1  0.487900  0.740100  0.133000  1.0  0.1177
  H  H34  1  0.368500  0.742200  0.689400  1.0  0.1212
  H  H35  1  0.855900  0.540800  0.702200  1.0  0.112
  H  H36  1  0.820900  0.947200  0.689400  1.0  0.1204
  H  H37  1  0.346300  0.540800  0.702200  1.0  0.1124
  H  H38  1  0.679500  0.591800  0.975000  1.0  0.0877
  H  H39  1  0.408200  0.320500  0.525000  1.0  0.0804
  H  H40  1  0.837800  0.488900  0.061600  1.0  0.0827
  H  H41  1  0.145100  0.392900  0.133000  1.0  0.1187
  H  H42  1  0.838600  0.144100  0.797800  1.0  0.1121
  H  H43  1  0.931000  0.414700  0.118800  1.0  0.1039
  H  H44  1  0.854900  0.607100  0.867000  1.0  0.1185
  H  H45  1  0.591800  0.795500  0.475000  1.0  0.0845
  H  H46  1  0.312200  0.295900  0.881200  1.0  0.1036
  H  H47  1  0.052800  0.631500  0.810600  1.0  0.1208
  H  H48  1  0.704100  0.931000  0.618800  1.0  0.1045
  H  H49  1  0.604100  0.233600  0.583200  1.0  0.0767
  H  H50  1  0.144100  0.838600  0.297800  1.0  0.1107
  H  H51  1  0.276200  0.511100  0.938400  1.0  0.0895
  H  H52  1  0.520900  0.650400  0.416800  1.0  0.0759
  H  H53  1  0.479100  0.349600  0.583200  1.0  0.0773
  H  H54  1  0.607100  0.854900  0.367000  1.0  0.1185
  H  H55  1  0.931000  0.704100  0.118800  1.0  0.104
  H  H56  1  0.383200  0.679500  0.475000  1.0  0.0852
  H  H57  1  0.795500  0.591800  0.975000  1.0  0.091
  H  H58  1  0.459200  0.144100  0.797800  1.0  0.1117
  H  H59  1  0.162200  0.427300  0.938400  1.0  0.0822
  H  H60  1  0.838600  0.653700  0.797800  1.0  0.1105
  H  H61  1  0.459200  0.653700  0.797800  1.0  0.1115
  H  H62  1  0.820900  0.742200  0.689400  1.0  0.1188
  H  H63  1  0.837800  0.572700  0.061600  1.0  0.0851
  H  H64  1  0.947200  0.820900  0.189400  1.0  0.1187
  H  H65  1  0.653700  0.838600  0.297800  1.0  0.11
  H  H66  1  0.855900  0.161400  0.702200  1.0  0.111
  H  H67  1  0.144100  0.459200  0.297800  1.0  0.1125
  H  H68  1  0.511100  0.162200  0.438400  1.0  0.0819
  H  H69  1  0.427300  0.162200  0.438400  1.0  0.0812
  H  H70  1  0.259900  0.854900  0.367000  1.0  0.1197
  H  H71  1  0.069000  0.585300  0.881200  1.0  0.1035
  H  H72  1  0.704100  0.687800  0.618800  1.0  0.1043
  H  H73  1  0.295900  0.312200  0.381200  1.0  0.1041
  H  H74  1  0.349600  0.604100  0.083200  1.0  0.0782
  H  H75  1  0.179100  0.052800  0.310600  1.0  0.1202
  H  H76  1  0.488900  0.723800  0.561600  1.0  0.0904
  H  H77  1  0.052800  0.179100  0.810600  1.0  0.12
  H  H78  1  0.295900  0.069000  0.381200  1.0  0.1045
  H  H79  1  0.591800  0.679500  0.475000  1.0  0.0787
  H  H80  1  0.687800  0.704100  0.118800  1.0  0.1037
  H  H81  1  0.368500  0.947200  0.689400  1.0  0.1201
  H  H82  1  0.161400  0.855900  0.202200  1.0  0.1118
  H  H83  1  0.540800  0.346300  0.202200  1.0  0.1124
  H  H84  1  0.631500  0.257800  0.310600  1.0  0.1221
  H  H85  1  0.257800  0.179100  0.810600  1.0  0.1192
  H  H86  1  0.392900  0.487900  0.633000  1.0  0.1205
  H  H87  1  0.145100  0.740100  0.133000  1.0  0.1189
  H  H88  1  0.069000  0.295900  0.881200  1.0  0.1041
  H  H89  1  0.604100  0.349600  0.583200  1.0  0.0783
  H  H90  1  0.795500  0.383200  0.975000  1.0  0.0877
  H  H91  1  0.947200  0.368500  0.189400  1.0  0.1193
  H  H92  1  0.512100  0.607100  0.867000  1.0  0.1199
  H  H93  1  0.511100  0.276200  0.438400  1.0  0.0909
  H  H94  1  0.204500  0.408200  0.025000  1.0  0.0881
  H  H95  1  0.607100  0.512100  0.367000  1.0  0.1202
  H  H96  1  0.723800  0.572700  0.061600  1.0  0.0894
  H  H97  1  0.427300  0.276200  0.438400  1.0  0.0816
  H  H98  1  0.312200  0.585300  0.881200  1.0  0.1032
  H  H99  1  0.585300  0.069000  0.381200  1.0  0.104
  H  H100  1  0.233600  0.479100  0.083200  1.0  0.0759
  H  H101  1  0.162200  0.511100  0.938400  1.0  0.0838
  H  H102  1  0.631500  0.052800  0.310600  1.0  0.1199
  H  H103  1  0.479100  0.233600  0.583200  1.0  0.0765
  H  H104  1  0.395900  0.766400  0.416800  1.0  0.076
  H  H105  1  0.766400  0.395900  0.916800  1.0  0.0783
  H  H106  1  0.653700  0.459200  0.297800  1.0  0.112
  H  H107  1  0.687800  0.414700  0.118800  1.0  0.1028
  H  H108  1  0.572700  0.837800  0.561600  1.0  0.0847
  H  H109  1  0.276200  0.427300  0.938400  1.0  0.0813
  H  H110  1  0.740100  0.487900  0.633000  1.0  0.1184
  H  H111  1  0.616800  0.204500  0.525000  1.0  0.0867
  H  H112  1  0.233600  0.604100  0.083200  1.0  0.0781
  H  H113  1  0.395900  0.650400  0.416800  1.0  0.0766
  H  H114  1  0.349600  0.479100  0.083200  1.0  0.0758
  H  H115  1  0.392900  0.145100  0.633000  1.0  0.119
  H  H116  1  0.572700  0.723800  0.561600  1.0  0.0852
  H  H117  1  0.512100  0.259900  0.867000  1.0  0.1178
  H  H118  1  0.346300  0.161400  0.702200  1.0  0.1095
  H  H119  1  0.414700  0.687800  0.618800  1.0  0.1031
  H  H120  1  0.320500  0.616800  0.025000  1.0  0.0873
  C  C121  1  0.055920  0.355120  0.204680  1.0  0.0811
  C  C122  1  0.658370  0.236670  0.222140  1.0  0.5991
  C  C123  1  0.978970  0.734500  0.136600  1.0  -0.0367
  C  C124  1  0.265500  0.342370  0.363400  1.0  -0.0401
  C  C125  1  0.756020  0.540260  0.644980  1.0  -0.0542
  C  C126  1  0.583620  0.231240  0.544040  1.0  -0.0226
  C  C127  1  0.236670  0.063770  0.722140  1.0  0.6013
  C  C128  1  0.063770  0.985470  0.222140  1.0  0.6029
  C  C129  1  0.195540  0.011540  0.321280  1.0  -0.1806
  C  C130  1  0.341630  0.763330  0.777860  1.0  0.5999
  C  C131  1  0.231240  0.583620  0.044040  1.0  -0.0197
  C  C132  1  0.588380  0.415560  0.379660  1.0  -0.1445
  C  C133  1  0.014530  0.936230  0.277860  1.0  0.6021
  C  C134  1  0.011540  0.625740  0.821280  1.0  -0.1786
  C  C135  1  0.985470  0.063770  0.722140  1.0  0.6004
  C  C136  1  0.644880  0.351240  0.295320  1.0  0.0812
  C  C137  1  0.035900  0.411620  0.120340  1.0  -0.1398
  C  C138  1  0.231240  0.460420  0.044040  1.0  -0.0204
  C  C139  1  0.351240  0.150440  0.795320  1.0  0.0825
  C  C140  1  0.597900  0.342370  0.363400  1.0  -0.0446
  C  C141  1  0.824410  0.114250  0.685920  1.0  -0.1551
  C  C142  1  0.540260  0.388960  0.144980  1.0  -0.051
  C  C143  1  0.584440  0.708720  0.120340  1.0  -0.1434
  C  C144  1  0.368330  0.450100  0.424460  1.0  0.6972
  C  C145  1  0.312800  0.460420  0.044040  1.0  -0.0187
  C  C146  1  0.708720  0.584440  0.620340  1.0  -0.1439
  C  C147  1  0.460420  0.231240  0.544040  1.0  -0.0199
  C  C148  1  0.025640  0.631670  0.075540  1.0  0.705
  C  C149  1  0.763330  0.341630  0.277860  1.0  0.5975
  C  C150  1  0.025640  0.443870  0.075540  1.0  0.7094
  C  C151  1  0.189410  0.479310  0.958620  1.0  -0.0137
  C  C152  1  0.035900  0.708720  0.120340  1.0  -0.1449
  C  C153  1  0.460420  0.312800  0.544040  1.0  -0.0177
  C  C154  1  0.351240  0.644880  0.795320  1.0  0.0813
  C  C155  1  0.944080  0.644880  0.795320  1.0  0.0806
  C  C156  1  0.416380  0.768760  0.455960  1.0  -0.0233
  C  C157  1  0.195540  0.309740  0.321280  1.0  -0.1813
  C  C158  1  0.988460  0.804460  0.178720  1.0  -0.1808
  C  C159  1  0.450100  0.368330  0.924460  1.0  0.6984
  C  C160  1  0.269210  0.479310  0.958620  1.0  -0.0197
  C  C161  1  0.011540  0.195540  0.821280  1.0  -0.1788
  C  C162  1  0.687200  0.539580  0.955960  1.0  -0.0184
  C  C163  1  0.368330  0.974360  0.424460  1.0  0.7045
  C  C164  1  0.625740  0.309740  0.321280  1.0  -0.1793
  C  C165  1  0.459740  0.611040  0.855020  1.0  -0.052
  C  C166  1  0.571670  0.824410  0.185920  1.0  -0.1476
  C  C167  1  0.114250  0.824410  0.185920  1.0  -0.1547
  C  C168  1  0.631670  0.549900  0.575540  1.0  0.6983
  C  C169  1  0.638490  0.428330  0.314080  1.0  -0.1525
  C  C170  1  0.459740  0.243980  0.855020  1.0  -0.0509
  C  C171  1  0.763330  0.936230  0.277860  1.0  0.5968
  C  C172  1  0.243980  0.459740  0.355020  1.0  -0.0532
  C  C173  1  0.309740  0.195540  0.821280  1.0  -0.1778
  C  C174  1  0.388960  0.104720  0.644980  1.0  -0.0579
  C  C175  1  0.588380  0.964100  0.379660  1.0  -0.1418
  C  C176  1  0.657630  0.734500  0.136600  1.0  -0.0401
  C  C177  1  0.104720  0.388960  0.144980  1.0  -0.0528
  C  C178  1  0.450100  0.556130  0.924460  1.0  0.7049
  C  C179  1  0.309740  0.625740  0.821280  1.0  -0.1791
  C  C180  1  0.644880  0.944080  0.295320  1.0  0.0821
  C  C181  1  0.342370  0.597900  0.863400  1.0  -0.0438
  C  C182  1  0.988460  0.374260  0.178720  1.0  -0.1775
  C  C183  1  0.611040  0.459740  0.355020  1.0  -0.0533
  C  C184  1  0.734500  0.978970  0.636600  1.0  -0.0369
  C  C185  1  0.611040  0.895280  0.355020  1.0  -0.0579
  C  C186  1  0.804460  0.690260  0.678720  1.0  -0.1792
  C  C187  1  0.072300  0.322300  0.250000  1.0  -0.1893
  C  C188  1  0.443870  0.025640  0.575540  1.0  0.7063
  C  C189  1  0.402100  0.657630  0.636600  1.0  -0.045
  C  C190  1  0.355120  0.055920  0.704680  1.0  0.0825
  C  C191  1  0.415560  0.588380  0.879660  1.0  -0.1454
  C  C192  1  0.597900  0.021030  0.363400  1.0  -0.0398
  C  C193  1  0.936230  0.763330  0.777860  1.0  0.6005
  C  C194  1  0.768760  0.416380  0.955960  1.0  -0.0201
  C  C195  1  0.657630  0.402100  0.136600  1.0  -0.044
  C  C196  1  0.374260  0.988460  0.678720  1.0  -0.1797
  C  C197  1  0.114250  0.361510  0.185920  1.0  -0.1514
  C  C198  1  0.687200  0.416380  0.955960  1.0  -0.0241
  C  C199  1  0.824410  0.571670  0.685920  1.0  -0.1524
  C  C200  1  0.974360  0.368330  0.924460  1.0  0.7049
  C  C201  1  0.411620  0.035900  0.620340  1.0  -0.1395
  C  C202  1  0.804460  0.988460  0.678720  1.0  -0.1806
  C  C203  1  0.927700  0.072300  0.750000  1.0  -0.1882
  C  C204  1  0.428330  0.175590  0.814080  1.0  -0.1509
  C  C205  1  0.388960  0.540260  0.644980  1.0  -0.0533
  C  C206  1  0.411620  0.584440  0.620340  1.0  -0.1425
  C  C207  1  0.849560  0.055920  0.704680  1.0  0.0806
  C  C208  1  0.638490  0.885750  0.314080  1.0  -0.1581
  C  C209  1  0.648760  0.355120  0.204680  1.0  0.0814
  C  C210  1  0.768760  0.539580  0.955960  1.0  -0.021
  C  C211  1  0.556130  0.974360  0.424460  1.0  0.7096
  C  C212  1  0.985470  0.658370  0.722140  1.0  0.6004
  C  C213  1  0.964100  0.588380  0.879660  1.0  -0.141
  C  C214  1  0.539580  0.768760  0.455960  1.0  -0.0203
  C  C215  1  0.964100  0.291280  0.879660  1.0  -0.1444
  C  C216  1  0.756020  0.104720  0.644980  1.0  -0.0553
  C  C217  1  0.549900  0.443870  0.075540  1.0  0.7049
  C  C218  1  0.549900  0.631670  0.075540  1.0  0.7014
  C  C219  1  0.944080  0.150440  0.795320  1.0  0.081
  C  C220  1  0.936230  0.014530  0.777860  1.0  0.6025
  C  C221  1  0.974360  0.556130  0.924460  1.0  0.7085
  C  C222  1  0.236670  0.658370  0.722140  1.0  0.6
  C  C223  1  0.583620  0.312800  0.544040  1.0  -0.0217
  C  C224  1  0.322300  0.072300  0.750000  1.0  -0.1893
  C  C225  1  0.443870  0.549900  0.575540  1.0  0.7032
  C  C226  1  0.021030  0.597900  0.863400  1.0  -0.0378
  C  C227  1  0.265500  0.021030  0.363400  1.0  -0.0361
  C  C228  1  0.291280  0.415560  0.379660  1.0  -0.1445
  C  C229  1  0.063770  0.236670  0.222140  1.0  0.5996
  C  C230  1  0.648760  0.849560  0.204680  1.0  0.0822
  C  C231  1  0.690260  0.374260  0.178720  1.0  -0.1774
  C  C232  1  0.625740  0.011540  0.321280  1.0  -0.1789
  C  C233  1  0.104720  0.756020  0.144980  1.0  -0.0549
  C  C234  1  0.355120  0.648760  0.704680  1.0  0.0819
  C  C235  1  0.556130  0.450100  0.424460  1.0  0.7039
  C  C236  1  0.520690  0.730790  0.541380  1.0  -0.0154
  C  C237  1  0.322300  0.677700  0.750000  1.0  -0.1891
  C  C238  1  0.571670  0.361510  0.185920  1.0  -0.1478
  C  C239  1  0.361510  0.571670  0.685920  1.0  -0.1527
  C  C240  1  0.708720  0.035900  0.620340  1.0  -0.1454
  C  C241  1  0.520690  0.810590  0.541380  1.0  -0.0151
  C  C242  1  0.479310  0.269210  0.458620  1.0  -0.0157
  C  C243  1  0.055920  0.849560  0.204680  1.0  0.0816
  C  C244  1  0.415560  0.291280  0.879660  1.0  -0.1449
  C  C245  1  0.895280  0.611040  0.855020  1.0  -0.0522
  C  C246  1  0.479310  0.189410  0.458620  1.0  -0.0156
  C  C247  1  0.658370  0.985470  0.222140  1.0  0.6019
  C  C248  1  0.361510  0.114250  0.685920  1.0  -0.1524
  C  C249  1  0.584440  0.411620  0.120340  1.0  -0.1442
  C  C250  1  0.885750  0.638490  0.814080  1.0  -0.152
  C  C251  1  0.885750  0.175590  0.814080  1.0  -0.1528
  C  C252  1  0.677700  0.927700  0.250000  1.0  -0.1898
  C  C253  1  0.539580  0.687200  0.455960  1.0  -0.0165
  C  C254  1  0.175590  0.428330  0.314080  1.0  -0.1524
  C  C255  1  0.014530  0.341630  0.277860  1.0  0.6018
  C  C256  1  0.416380  0.687200  0.455960  1.0  -0.0248
  C  C257  1  0.895280  0.243980  0.855020  1.0  -0.0523
  C  C258  1  0.730790  0.520690  0.041380  1.0  -0.017
  C  C259  1  0.374260  0.690260  0.678720  1.0  -0.1797
  C  C260  1  0.428330  0.638490  0.814080  1.0  -0.1524
  C  C261  1  0.540260  0.756020  0.144980  1.0  -0.0511
  C  C262  1  0.342370  0.265500  0.863400  1.0  -0.0406
  C  C263  1  0.243980  0.895280  0.355020  1.0  -0.0545
  C  C264  1  0.072300  0.927700  0.250000  1.0  -0.1891
  C  C265  1  0.021030  0.265500  0.863400  1.0  -0.0374
  C  C266  1  0.341630  0.014530  0.777860  1.0  0.5991
  C  C267  1  0.150440  0.351240  0.295320  1.0  0.0797
  C  C268  1  0.978970  0.402100  0.136600  1.0  -0.0381
  C  C269  1  0.291280  0.964100  0.379660  1.0  -0.1447
  C  C270  1  0.927700  0.677700  0.750000  1.0  -0.1898
  C  C271  1  0.677700  0.322300  0.250000  1.0  -0.1882
  C  C272  1  0.810590  0.520690  0.041380  1.0  -0.0122
  C  C273  1  0.734500  0.657630  0.636600  1.0  -0.0413
  C  C274  1  0.150440  0.944080  0.295320  1.0  0.0799
  C  C275  1  0.631670  0.025640  0.575540  1.0  0.7058
  C  C276  1  0.402100  0.978970  0.636600  1.0  -0.0393
  C  C277  1  0.175590  0.885750  0.314080  1.0  -0.1584
  C  C278  1  0.312800  0.583620  0.044040  1.0  -0.0223
  C  C279  1  0.849560  0.648760  0.704680  1.0  0.0801
  C  C280  1  0.690260  0.804460  0.178720  1.0  -0.1779
  N  N281  1  0.507860  0.189600  0.515720  1.0  -0.2411
  N  N282  1  0.810400  0.492140  0.984280  1.0  -0.2415
  N  N283  1  0.492140  0.810400  0.484280  1.0  -0.2427
  N  N284  1  0.326120  0.507860  0.015720  1.0  -0.253
  N  N285  1  0.189600  0.507860  0.015720  1.0  -0.2425
  N  N286  1  0.507860  0.326120  0.515720  1.0  -0.254
  N  N287  1  0.492140  0.673880  0.484280  1.0  -0.2527
  N  N288  1  0.673880  0.492140  0.984280  1.0  -0.2552
  O  O289  1  0.402430  0.039990  0.450280  1.0  -0.5969
  O  O290  1  0.589710  0.452150  0.049720  1.0  -0.5972
  O  O291  1  0.402430  0.410290  0.450280  1.0  -0.5974
  O  O292  1  0.083280  0.459040  0.067920  1.0  -0.5833
  O  O293  1  0.916720  0.391120  0.932080  1.0  -0.5777
  O  O294  1  0.608880  0.083280  0.567920  1.0  -0.5793
  O  O295  1  0.540960  0.515360  0.432080  1.0  -0.5877
  O  O296  1  0.515360  0.391120  0.932080  1.0  -0.5742
  O  O297  1  0.960010  0.597570  0.049720  1.0  -0.5942
  O  O298  1  0.547850  0.039990  0.450280  1.0  -0.5983
  O  O299  1  0.452150  0.960010  0.549720  1.0  -0.5985
  O  O300  1  0.597570  0.960010  0.549720  1.0  -0.5977
  O  O301  1  0.515360  0.540960  0.932080  1.0  -0.584
  O  O302  1  0.039990  0.547850  0.950280  1.0  -0.598
  O  O303  1  0.459040  0.484640  0.567920  1.0  -0.5887
  O  O304  1  0.589710  0.597570  0.049720  1.0  -0.5956
  O  O305  1  0.039990  0.402430  0.950280  1.0  -0.5954
  O  O306  1  0.608880  0.484640  0.567920  1.0  -0.5791
  O  O307  1  0.391120  0.515360  0.432080  1.0  -0.5779
  O  O308  1  0.597570  0.589710  0.549720  1.0  -0.5969
  O  O309  1  0.540960  0.916720  0.432080  1.0  -0.5848
  O  O310  1  0.484640  0.459040  0.067920  1.0  -0.5843
  O  O311  1  0.410290  0.402430  0.950280  1.0  -0.5964
  O  O312  1  0.484640  0.608880  0.067920  1.0  -0.5747
  O  O313  1  0.960010  0.452150  0.049720  1.0  -0.5968
  O  O314  1  0.410290  0.547850  0.950280  1.0  -0.5982
  O  O315  1  0.391120  0.916720  0.432080  1.0  -0.5807
  O  O316  1  0.083280  0.608880  0.067920  1.0  -0.578
  O  O317  1  0.459040  0.083280  0.567920  1.0  -0.5852
  O  O318  1  0.916720  0.540960  0.932080  1.0  -0.5834
  O  O319  1  0.547850  0.410290  0.450280  1.0  -0.5976
  O  O320  1  0.452150  0.589710  0.549720  1.0  -0.5972
  F  F321  1  0.695350  0.055570  0.254120  1.0  -0.1939
  F  F322  1  0.322130  0.035600  0.824300  1.0  -0.1682
  F  F323  1  0.035600  0.322130  0.324300  1.0  -0.1668
  F  F324  1  0.009880  0.881470  0.298480  1.0  -0.1804
  F  F325  1  0.990120  0.118530  0.701520  1.0  -0.1802
  F  F326  1  0.941230  0.944430  0.745880  1.0  -0.196
  F  F327  1  0.997830  0.964400  0.175700  1.0  -0.1699
  F  F328  1  0.322130  0.788700  0.824300  1.0  -0.1711
  F  F329  1  0.997830  0.211300  0.175700  1.0  -0.164
  F  F330  1  0.964400  0.997830  0.675700  1.0  -0.1722
  F  F331  1  0.304650  0.944430  0.745880  1.0  -0.1933
  F  F332  1  0.944430  0.304650  0.245880  1.0  -0.1921
  F  F333  1  0.058770  0.198550  0.254120  1.0  -0.1935
  F  F334  1  0.055570  0.695350  0.754120  1.0  -0.1912
  F  F335  1  0.118530  0.990120  0.201520  1.0  -0.1809
  F  F336  1  0.801450  0.941230  0.245880  1.0  -0.1925
  F  F337  1  0.211300  0.997830  0.675700  1.0  -0.1643
  F  F338  1  0.677870  0.964400  0.175700  1.0  -0.1704
  F  F339  1  0.002170  0.035600  0.824300  1.0  -0.1714
  F  F340  1  0.941230  0.801450  0.745880  1.0  -0.1942
  F  F341  1  0.788600  0.881470  0.298480  1.0  -0.1821
  F  F342  1  0.002170  0.788700  0.824300  1.0  -0.1657
  F  F343  1  0.582990  0.990120  0.201520  1.0  -0.1761
  F  F344  1  0.990120  0.582990  0.701520  1.0  -0.1785
  F  F345  1  0.695350  0.198550  0.254120  1.0  -0.1933
  F  F346  1  0.055570  0.058770  0.754120  1.0  -0.1933
  F  F347  1  0.944430  0.941230  0.245880  1.0  -0.1929
  F  F348  1  0.304650  0.801450  0.745880  1.0  -0.1915
  F  F349  1  0.198550  0.695350  0.754120  1.0  -0.1906
  F  F350  1  0.801450  0.304650  0.245880  1.0  -0.1896
  F  F351  1  0.788600  0.417010  0.298480  1.0  -0.1745
  F  F352  1  0.198550  0.058770  0.754120  1.0  -0.1902
  F  F353  1  0.058770  0.055570  0.254120  1.0  -0.1942
  F  F354  1  0.964400  0.677870  0.675700  1.0  -0.1686
  F  F355  1  0.788700  0.322130  0.324300  1.0  -0.1711
  F  F356  1  0.211400  0.582990  0.701520  1.0  -0.1749
  F  F357  1  0.118530  0.211400  0.201520  1.0  -0.1822
  F  F358  1  0.417010  0.788600  0.798480  1.0  -0.1754
  F  F359  1  0.035600  0.002170  0.324300  1.0  -0.172
  F  F360  1  0.677870  0.211300  0.175700  1.0  -0.1734
  F  F361  1  0.211300  0.677870  0.675700  1.0  -0.173
  F  F362  1  0.417010  0.009880  0.798480  1.0  -0.1779
  F  F363  1  0.881470  0.788600  0.798480  1.0  -0.1796
  F  F364  1  0.582990  0.211400  0.201520  1.0  -0.1749
  F  F365  1  0.881470  0.009880  0.798480  1.0  -0.1799
  F  F366  1  0.211400  0.118530  0.701520  1.0  -0.1802
  F  F367  1  0.009880  0.417010  0.298480  1.0  -0.1784
  F  F368  1  0.788700  0.002170  0.324300  1.0  -0.1655
