# generated using pymatgen
data_Zn3H14C14(N2O3)3
_symmetry_space_group_name_H-M   'P 1'
_cell_length_a   11.69000000
_cell_length_b   14.17300000
_cell_length_c   17.99800000
_cell_angle_alpha   90.00000000
_cell_angle_beta   90.00000000
_cell_angle_gamma   111.01300000
_symmetry_Int_Tables_number   1
_chemical_formula_structural   Zn3H14C14(N2O3)3
_chemical_formula_sum   'Zn12 H56 C56 N24 O36'
_cell_volume   2783.64882460
_cell_formula_units_Z   4
loop_
 _symmetry_equiv_pos_site_id
 _symmetry_equiv_pos_as_xyz
  1  'x, y, z'
loop_
 _atom_site_type_symbol
 _atom_site_label
 _atom_site_symmetry_multiplicity
 _atom_site_fract_x
 _atom_site_fract_y
 _atom_site_fract_z
 _atom_site_occupancy
 _atom_site_charge
  Zn  Zn1  1  0.936590  0.113340  0.166580  1.0  0.909
  Zn  Zn2  1  0.849060  0.861250  0.144860  1.0  1.0229
  Zn  Zn3  1  0.871850  0.394120  0.405810  1.0  0.905
  Zn  Zn4  1  0.563410  0.386660  0.666580  1.0  0.9089
  Zn  Zn5  1  0.650940  0.638750  0.644860  1.0  1.0236
  Zn  Zn6  1  0.628150  0.105880  0.905810  1.0  0.9067
  Zn  Zn7  1  0.063410  0.886660  0.833420  1.0  0.9077
  Zn  Zn8  1  0.150940  0.138750  0.855140  1.0  1.0235
  Zn  Zn9  1  0.128150  0.605880  0.594190  1.0  0.9073
  Zn  Zn10  1  0.436590  0.613340  0.333420  1.0  0.9083
  Zn  Zn11  1  0.349060  0.361250  0.355140  1.0  1.0227
  Zn  Zn12  1  0.371850  0.894120  0.094190  1.0  0.9051
  H  H13  1  0.912500  0.984000  0.245100  1.0  0.4239
  H  H14  1  0.803500  0.253100  0.252200  1.0  0.0583
  H  H15  1  0.991200  0.575400  0.424400  1.0  0.2865
  H  H16  1  0.801700  0.575200  0.444500  1.0  0.089
  H  H17  1  0.776200  0.561800  0.359000  1.0  0.0798
  H  H18  1  0.141700  0.118700  0.038100  1.0  0.0614
  H  H19  1  0.939500  0.547700  0.276000  1.0  0.0847
  H  H20  1  0.063900  0.553300  0.311900  1.0  0.1033
  H  H21  1  0.819200  0.728000  0.389800  1.0  0.1094
  H  H22  1  0.944000  0.734700  0.426100  1.0  0.1014
  H  H23  1  0.110500  0.722000  0.341900  1.0  0.0913
  H  H24  1  0.082000  0.708000  0.256400  1.0  0.1094
  H  H25  1  0.979000  0.799700  0.311200  1.0  0.2865
  H  H26  1  0.892300  0.708200  0.278200  1.0  0.2884
  H  H27  1  0.587500  0.516000  0.745100  1.0  0.4235
  H  H28  1  0.696500  0.246900  0.752200  1.0  0.0585
  H  H29  1  0.508800  0.924600  0.924400  1.0  0.2859
  H  H30  1  0.698300  0.924800  0.944500  1.0  0.0891
  H  H31  1  0.723800  0.938200  0.859000  1.0  0.0803
  H  H32  1  0.358300  0.381300  0.538100  1.0  0.0625
  H  H33  1  0.560500  0.952300  0.776000  1.0  0.0851
  H  H34  1  0.436100  0.946700  0.811900  1.0  0.1026
  H  H35  1  0.680800  0.772000  0.889800  1.0  0.1092
  H  H36  1  0.556000  0.765300  0.926100  1.0  0.1025
  H  H37  1  0.389500  0.778000  0.841900  1.0  0.0942
  H  H38  1  0.418000  0.792000  0.756400  1.0  0.1108
  H  H39  1  0.521000  0.700300  0.811200  1.0  0.3032
  H  H40  1  0.607700  0.791800  0.778200  1.0  0.2882
  H  H41  1  0.087500  0.016000  0.754900  1.0  0.426
  H  H42  1  0.196500  0.746900  0.747800  1.0  0.0582
  H  H43  1  0.008800  0.424600  0.575600  1.0  0.2857
  H  H44  1  0.198300  0.424800  0.555500  1.0  0.0888
  H  H45  1  0.223800  0.438200  0.641000  1.0  0.0792
  H  H46  1  0.858300  0.881300  0.961900  1.0  0.0623
  H  H47  1  0.060500  0.452300  0.724000  1.0  0.0852
  H  H48  1  0.936100  0.446700  0.688100  1.0  0.1023
  H  H49  1  0.180800  0.272000  0.610200  1.0  0.1094
  H  H50  1  0.056000  0.265300  0.573900  1.0  0.1034
  H  H51  1  0.889500  0.278000  0.658100  1.0  0.0917
  H  H52  1  0.918000  0.292000  0.743600  1.0  0.1113
  H  H53  1  0.021000  0.200300  0.688800  1.0  0.3017
  H  H54  1  0.107700  0.291800  0.721800  1.0  0.287
  H  H55  1  0.412500  0.484000  0.254900  1.0  0.4248
  H  H56  1  0.303500  0.753100  0.247800  1.0  0.0579
  H  H57  1  0.491200  0.075400  0.075600  1.0  0.2864
  H  H58  1  0.301700  0.075200  0.055500  1.0  0.0892
  H  H59  1  0.276200  0.061800  0.141000  1.0  0.0793
  H  H60  1  0.641700  0.618700  0.461900  1.0  0.0614
  H  H61  1  0.439500  0.047700  0.224000  1.0  0.0849
  H  H62  1  0.563900  0.053300  0.188100  1.0  0.1027
  H  H63  1  0.319200  0.228000  0.110200  1.0  0.1103
  H  H64  1  0.444000  0.234700  0.073900  1.0  0.1038
  H  H65  1  0.610500  0.222000  0.158100  1.0  0.0894
  H  H66  1  0.582000  0.208000  0.243600  1.0  0.1104
  H  H67  1  0.479000  0.299700  0.188800  1.0  0.2849
  H  H68  1  0.392300  0.208200  0.221800  1.0  0.2871
  C  C69  1  0.057400  0.249000  0.285300  1.0  -0.034
  C  C70  1  0.880000  0.260700  0.271600  1.0  0.2927
  C  C71  1  0.104700  0.360900  0.408400  1.0  0.6594
  C  C72  1  0.038200  0.309700  0.341400  1.0  -0.0091
  C  C73  1  0.897500  0.144400  0.863800  1.0  0.6746
  C  C74  1  0.937100  0.134700  0.941100  1.0  -0.0278
  C  C75  1  0.839300  0.591800  0.395900  1.0  -0.0147
  C  C76  1  0.154300  0.210900  0.261300  1.0  0.6692
  C  C77  1  0.069900  0.122800  0.018600  1.0  0.2923
  C  C78  1  0.997000  0.578300  0.315700  1.0  -0.014
  C  C79  1  0.886600  0.703500  0.386500  1.0  -0.0641
  C  C80  1  0.046500  0.691400  0.305600  1.0  -0.0636
  C  C81  1  0.775900  0.135100  0.046200  1.0  0.6724
  C  C82  1  0.889200  0.128800  0.011800  1.0  -0.0271
  C  C83  1  0.442600  0.251000  0.785300  1.0  -0.0345
  C  C84  1  0.620000  0.239300  0.771600  1.0  0.2927
  C  C85  1  0.395300  0.139100  0.908400  1.0  0.661
  C  C86  1  0.461800  0.190300  0.841400  1.0  -0.0093
  C  C87  1  0.602500  0.355600  0.363800  1.0  0.6737
  C  C88  1  0.562900  0.365300  0.441100  1.0  -0.0293
  C  C89  1  0.660700  0.908200  0.895900  1.0  -0.0146
  C  C90  1  0.345700  0.289100  0.761300  1.0  0.6702
  C  C91  1  0.430100  0.377200  0.518600  1.0  0.2926
  C  C92  1  0.503000  0.921700  0.815700  1.0  -0.0133
  C  C93  1  0.613400  0.796500  0.886500  1.0  -0.0627
  C  C94  1  0.453500  0.808600  0.805600  1.0  -0.0642
  C  C95  1  0.724100  0.364900  0.546200  1.0  0.6751
  C  C96  1  0.610800  0.371200  0.511800  1.0  -0.0289
  C  C97  1  0.942600  0.751000  0.714700  1.0  -0.0346
  C  C98  1  0.120000  0.739300  0.728400  1.0  0.2925
  C  C99  1  0.895300  0.639100  0.591600  1.0  0.6622
  C  C100  1  0.961800  0.690300  0.658600  1.0  -0.0099
  C  C101  1  0.102500  0.855600  0.136200  1.0  0.6747
  C  C102  1  0.062900  0.865300  0.058900  1.0  -0.0295
  C  C103  1  0.160700  0.408200  0.604100  1.0  -0.0142
  C  C104  1  0.845700  0.789100  0.738700  1.0  0.6699
  C  C105  1  0.930100  0.877200  0.981400  1.0  0.2923
  C  C106  1  0.003000  0.421700  0.684300  1.0  -0.0143
  C  C107  1  0.113400  0.296500  0.613500  1.0  -0.0618
  C  C108  1  0.953500  0.308600  0.694400  1.0  -0.0631
  C  C109  1  0.224100  0.864900  0.953800  1.0  0.6746
  C  C110  1  0.110800  0.871200  0.988200  1.0  -0.0285
  C  C111  1  0.557400  0.749000  0.214700  1.0  -0.0341
  C  C112  1  0.380000  0.760700  0.228400  1.0  0.2929
  C  C113  1  0.604700  0.860900  0.091600  1.0  0.6593
  C  C114  1  0.538200  0.809700  0.158600  1.0  -0.0094
  C  C115  1  0.397500  0.644400  0.636200  1.0  0.6748
  C  C116  1  0.437100  0.634700  0.558900  1.0  -0.0281
  C  C117  1  0.339300  0.091800  0.104100  1.0  -0.0142
  C  C118  1  0.654300  0.710900  0.238700  1.0  0.6692
  C  C119  1  0.569900  0.622800  0.481400  1.0  0.2911
  C  C120  1  0.497000  0.078300  0.184300  1.0  -0.0146
  C  C121  1  0.386600  0.203500  0.113500  1.0  -0.0624
  C  C122  1  0.546500  0.191400  0.194400  1.0  -0.0621
  C  C123  1  0.275900  0.635100  0.453800  1.0  0.673
  C  C124  1  0.389200  0.628800  0.488200  1.0  -0.0265
  N  N125  1  0.954300  0.218100  0.241500  1.0  -0.42
  N  N126  1  0.051500  0.130700  0.946900  1.0  -0.4317
  N  N127  1  0.925800  0.314700  0.331800  1.0  -0.4108
  N  N128  1  0.934300  0.546900  0.388600  1.0  -0.406
  N  N129  1  0.947600  0.731900  0.314800  1.0  -0.1436
  N  N130  1  0.975100  0.121300  0.059800  1.0  -0.4192
  N  N131  1  0.545700  0.281900  0.741500  1.0  -0.4206
  N  N132  1  0.448500  0.369300  0.446900  1.0  -0.4301
  N  N133  1  0.574200  0.185300  0.831800  1.0  -0.4107
  N  N134  1  0.565700  0.953100  0.888600  1.0  -0.4019
  N  N135  1  0.552400  0.768100  0.814800  1.0  -0.1434
  N  N136  1  0.524900  0.378700  0.559800  1.0  -0.4187
  N  N137  1  0.045700  0.781900  0.758500  1.0  -0.4213
  N  N138  1  0.948500  0.869300  0.053100  1.0  -0.4303
  N  N139  1  0.074200  0.685300  0.668200  1.0  -0.4117
  N  N140  1  0.065700  0.453100  0.611400  1.0  -0.3986
  N  N141  1  0.052400  0.268100  0.685200  1.0  -0.1436
  N  N142  1  0.024900  0.878700  0.940200  1.0  -0.4174
  N  N143  1  0.454300  0.718100  0.258500  1.0  -0.421
  N  N144  1  0.551500  0.630700  0.553100  1.0  -0.4311
  N  N145  1  0.425800  0.814700  0.168200  1.0  -0.4108
  N  N146  1  0.434300  0.046900  0.111400  1.0  -0.4044
  N  N147  1  0.447600  0.231900  0.185200  1.0  -0.1443
  N  N148  1  0.475100  0.621300  0.440200  1.0  -0.4175
  O  O149  1  0.867600  0.977800  0.206500  1.0  -0.9242
  O  O150  1  0.129100  0.150100  0.208800  1.0  -0.5842
  O  O151  1  0.207400  0.356900  0.423400  1.0  -0.6116
  O  O152  1  0.048600  0.400700  0.449100  1.0  -0.5667
  O  O153  1  0.690800  0.143200  0.007200  1.0  -0.6272
  O  O154  1  0.259100  0.240800  0.293500  1.0  -0.6552
  O  O155  1  0.792000  0.141700  0.849500  1.0  -0.6169
  O  O156  1  0.976600  0.153400  0.813800  1.0  -0.6431
  O  O157  1  0.772700  0.131500  0.114700  1.0  -0.5755
  O  O158  1  0.632400  0.522200  0.706500  1.0  -0.9222
  O  O159  1  0.370900  0.349900  0.708800  1.0  -0.5835
  O  O160  1  0.292600  0.143100  0.923400  1.0  -0.612
  O  O161  1  0.451400  0.099300  0.949100  1.0  -0.5674
  O  O162  1  0.809200  0.356800  0.507200  1.0  -0.627
  O  O163  1  0.240900  0.259200  0.793500  1.0  -0.6544
  O  O164  1  0.708000  0.358300  0.349500  1.0  -0.6173
  O  O165  1  0.523400  0.346600  0.313800  1.0  -0.6417
  O  O166  1  0.727300  0.368500  0.614700  1.0  -0.5754
  O  O167  1  0.132400  0.022200  0.793500  1.0  -0.9212
  O  O168  1  0.870900  0.849900  0.791200  1.0  -0.5838
  O  O169  1  0.792600  0.643100  0.576600  1.0  -0.6123
  O  O170  1  0.951400  0.599300  0.550900  1.0  -0.567
  O  O171  1  0.309200  0.856800  0.992800  1.0  -0.6274
  O  O172  1  0.740900  0.759200  0.706500  1.0  -0.6542
  O  O173  1  0.208000  0.858300  0.150500  1.0  -0.617
  O  O174  1  0.023400  0.846600  0.186200  1.0  -0.6421
  O  O175  1  0.227300  0.868500  0.885300  1.0  -0.576
  O  O176  1  0.367600  0.477800  0.293500  1.0  -0.9235
  O  O177  1  0.629100  0.650100  0.291200  1.0  -0.5842
  O  O178  1  0.707400  0.856900  0.076600  1.0  -0.6115
  O  O179  1  0.548600  0.900700  0.050900  1.0  -0.566
  O  O180  1  0.190800  0.643200  0.492800  1.0  -0.6277
  O  O181  1  0.759100  0.740800  0.206500  1.0  -0.655
  O  O182  1  0.292000  0.641700  0.650500  1.0  -0.617
  O  O183  1  0.476600  0.653400  0.686200  1.0  -0.6437
  O  O184  1  0.272700  0.631500  0.385300  1.0  -0.5753
