# generated using pymatgen
data_Zn5H30C56(N2O9)2
_symmetry_space_group_name_H-M   'P 1'
_cell_length_a   22.89730000
_cell_length_b   26.50610000
_cell_length_c   31.64720000
_cell_angle_alpha   90.00000000
_cell_angle_beta   90.00000000
_cell_angle_gamma   90.00000000
_symmetry_Int_Tables_number   1
_chemical_formula_structural   Zn5H30C56(N2O9)2
_chemical_formula_sum   'Zn20 H120 C224 N16 O72'
_cell_volume   19207.25923898
_cell_formula_units_Z   4
loop_
 _symmetry_equiv_pos_site_id
 _symmetry_equiv_pos_as_xyz
  1  'x, y, z'
loop_
 _atom_site_type_symbol
 _atom_site_label
 _atom_site_symmetry_multiplicity
 _atom_site_fract_x
 _atom_site_fract_y
 _atom_site_fract_z
 _atom_site_occupancy
 _atom_site_charge
  Zn  Zn1  1  0.719040  0.656400  0.680910  1.0  1.0459
  Zn  Zn2  1  0.616650  0.717500  0.733330  1.0  0.9821
  Zn  Zn3  1  0.780960  0.843600  0.680910  1.0  1.0461
  Zn  Zn4  1  0.883350  0.782500  0.733330  1.0  0.9846
  Zn  Zn5  1  0.280960  0.156400  0.819090  1.0  1.0463
  Zn  Zn6  1  0.383350  0.217500  0.766670  1.0  0.9845
  Zn  Zn7  1  0.219040  0.343600  0.819090  1.0  1.046
  Zn  Zn8  1  0.116650  0.282500  0.766670  1.0  0.985
  Zn  Zn9  1  0.280960  0.343600  0.319090  1.0  1.0463
  Zn  Zn10  1  0.383350  0.282500  0.266670  1.0  0.9861
  Zn  Zn11  1  0.219040  0.156400  0.319090  1.0  1.0458
  Zn  Zn12  1  0.116650  0.217500  0.266670  1.0  0.9833
  Zn  Zn13  1  0.719040  0.843600  0.180910  1.0  1.0457
  Zn  Zn14  1  0.616650  0.782500  0.233330  1.0  0.983
  Zn  Zn15  1  0.780960  0.656400  0.180910  1.0  1.0465
  Zn  Zn16  1  0.883350  0.717500  0.233330  1.0  0.9821
  Zn  Zn17  1  0.750000  0.750000  0.751100  1.0  1.0187
  Zn  Zn18  1  0.250000  0.250000  0.748900  1.0  1.0177
  Zn  Zn19  1  0.250000  0.250000  0.248900  1.0  1.0177
  Zn  Zn20  1  0.750000  0.750000  0.251100  1.0  1.0187
  H  H21  1  0.912500  0.467700  0.735700  1.0  0.3267
  H  H22  1  0.737100  0.672700  0.453600  1.0  0.3338
  H  H23  1  0.692100  0.741300  0.689400  1.0  0.3775
  H  H24  1  0.897600  0.669900  0.792000  1.0  0.0774
  H  H25  1  0.978300  0.625300  0.814200  1.0  0.099
  H  H26  1  0.839700  0.549300  0.727000  1.0  0.1095
  H  H27  1  0.062300  0.548300  0.832900  1.0  0.1021
  H  H28  1  0.117800  0.476000  0.833200  1.0  0.0939
  H  H29  1  0.004300  0.406900  0.756500  1.0  0.1073
  H  H30  1  0.874200  0.733700  0.592400  1.0  0.0931
  H  H31  1  0.911600  0.753900  0.527100  1.0  0.1134
  H  H32  1  0.735000  0.667500  0.540200  1.0  0.109
  H  H33  1  0.932400  0.761800  0.437600  1.0  0.1009
  H  H34  1  0.927200  0.759400  0.365000  1.0  0.0982
  H  H35  1  0.770000  0.691200  0.371400  1.0  0.1096
  H  H36  1  0.587500  0.032300  0.735700  1.0  0.3269
  H  H37  1  0.762900  0.827300  0.453600  1.0  0.3378
  H  H38  1  0.807900  0.758700  0.689400  1.0  0.3771
  H  H39  1  0.602400  0.830100  0.792000  1.0  0.0783
  H  H40  1  0.521700  0.874700  0.814200  1.0  0.0997
  H  H41  1  0.660300  0.950700  0.727000  1.0  0.1096
  H  H42  1  0.437700  0.951700  0.832900  1.0  0.1051
  H  H43  1  0.382200  0.024000  0.833200  1.0  0.0934
  H  H44  1  0.495700  0.093100  0.756500  1.0  0.1081
  H  H45  1  0.625800  0.766300  0.592400  1.0  0.0934
  H  H46  1  0.588400  0.746100  0.527100  1.0  0.1129
  H  H47  1  0.765000  0.832500  0.540200  1.0  0.109
  H  H48  1  0.567600  0.738200  0.437600  1.0  0.1025
  H  H49  1  0.572800  0.740600  0.365000  1.0  0.0971
  H  H50  1  0.730000  0.808800  0.371400  1.0  0.1092
  H  H51  1  0.087500  0.967700  0.764300  1.0  0.3282
  H  H52  1  0.262900  0.172700  0.046400  1.0  0.3363
  H  H53  1  0.307900  0.241300  0.810600  1.0  0.3771
  H  H54  1  0.102400  0.169900  0.708000  1.0  0.0784
  H  H55  1  0.021700  0.125300  0.685800  1.0  0.098
  H  H56  1  0.160300  0.049300  0.773000  1.0  0.1093
  H  H57  1  0.937700  0.048300  0.667100  1.0  0.1062
  H  H58  1  0.882200  0.976000  0.666800  1.0  0.093
  H  H59  1  0.995700  0.906900  0.743500  1.0  0.1064
  H  H60  1  0.125800  0.233700  0.907600  1.0  0.0936
  H  H61  1  0.088400  0.253900  0.972900  1.0  0.1127
  H  H62  1  0.265000  0.167500  0.959800  1.0  0.1083
  H  H63  1  0.067600  0.261800  0.062400  1.0  0.1006
  H  H64  1  0.072800  0.259400  0.135000  1.0  0.0973
  H  H65  1  0.230000  0.191200  0.128600  1.0  0.1094
  H  H66  1  0.412500  0.532300  0.764300  1.0  0.329
  H  H67  1  0.237100  0.327300  0.046400  1.0  0.3359
  H  H68  1  0.192100  0.258700  0.810600  1.0  0.378
  H  H69  1  0.397600  0.330100  0.708000  1.0  0.0789
  H  H70  1  0.478300  0.374700  0.685800  1.0  0.0989
  H  H71  1  0.339700  0.450700  0.773000  1.0  0.1093
  H  H72  1  0.562300  0.451700  0.667100  1.0  0.1054
  H  H73  1  0.617800  0.524000  0.666800  1.0  0.0938
  H  H74  1  0.504300  0.593100  0.743500  1.0  0.1086
  H  H75  1  0.374200  0.266300  0.907600  1.0  0.0931
  H  H76  1  0.411600  0.246100  0.972900  1.0  0.1121
  H  H77  1  0.235000  0.332500  0.959800  1.0  0.109
  H  H78  1  0.432400  0.238200  0.062400  1.0  0.1021
  H  H79  1  0.427200  0.240600  0.135000  1.0  0.0976
  H  H80  1  0.270000  0.308800  0.128600  1.0  0.1088
  H  H81  1  0.087500  0.532300  0.264300  1.0  0.3272
  H  H82  1  0.262900  0.327300  0.546400  1.0  0.3356
  H  H83  1  0.307900  0.258700  0.310600  1.0  0.3776
  H  H84  1  0.102400  0.330100  0.208000  1.0  0.0789
  H  H85  1  0.021700  0.374700  0.185800  1.0  0.0991
  H  H86  1  0.160300  0.450700  0.273000  1.0  0.1095
  H  H87  1  0.937700  0.451700  0.167100  1.0  0.1014
  H  H88  1  0.882200  0.524000  0.166800  1.0  0.0936
  H  H89  1  0.995700  0.593100  0.243500  1.0  0.1079
  H  H90  1  0.125800  0.266300  0.407600  1.0  0.0932
  H  H91  1  0.088400  0.246100  0.472900  1.0  0.114
  H  H92  1  0.265000  0.332500  0.459800  1.0  0.1088
  H  H93  1  0.067600  0.238200  0.562400  1.0  0.1014
  H  H94  1  0.072800  0.240600  0.635000  1.0  0.0975
  H  H95  1  0.230000  0.308800  0.628600  1.0  0.1086
  H  H96  1  0.412500  0.967700  0.264300  1.0  0.3286
  H  H97  1  0.237100  0.172700  0.546400  1.0  0.336
  H  H98  1  0.192100  0.241300  0.310600  1.0  0.3768
  H  H99  1  0.397600  0.169900  0.208000  1.0  0.0788
  H  H100  1  0.478300  0.125300  0.185800  1.0  0.099
  H  H101  1  0.339700  0.049300  0.273000  1.0  0.1097
  H  H102  1  0.562300  0.048300  0.167100  1.0  0.1057
  H  H103  1  0.617800  0.976000  0.166800  1.0  0.0935
  H  H104  1  0.504300  0.906900  0.243500  1.0  0.108
  H  H105  1  0.374200  0.233700  0.407600  1.0  0.0929
  H  H106  1  0.411600  0.253900  0.472900  1.0  0.112
  H  H107  1  0.235000  0.167500  0.459800  1.0  0.1091
  H  H108  1  0.432400  0.261800  0.562400  1.0  0.1024
  H  H109  1  0.427200  0.259400  0.635000  1.0  0.0974
  H  H110  1  0.270000  0.191200  0.628600  1.0  0.1096
  H  H111  1  0.912500  0.032300  0.235700  1.0  0.3282
  H  H112  1  0.737100  0.827300  0.953600  1.0  0.337
  H  H113  1  0.692100  0.758700  0.189400  1.0  0.3768
  H  H114  1  0.897600  0.830100  0.292000  1.0  0.0785
  H  H115  1  0.978300  0.874700  0.314200  1.0  0.0986
  H  H116  1  0.839700  0.950700  0.227000  1.0  0.1093
  H  H117  1  0.062300  0.951700  0.332900  1.0  0.1052
  H  H118  1  0.117800  0.024000  0.333200  1.0  0.0936
  H  H119  1  0.004300  0.093100  0.256500  1.0  0.1074
  H  H120  1  0.874200  0.766300  0.092400  1.0  0.0934
  H  H121  1  0.911600  0.746100  0.027100  1.0  0.1124
  H  H122  1  0.735000  0.832500  0.040200  1.0  0.1087
  H  H123  1  0.932400  0.738200  0.937600  1.0  0.1014
  H  H124  1  0.927200  0.740600  0.865000  1.0  0.098
  H  H125  1  0.770000  0.808800  0.871400  1.0  0.1094
  H  H126  1  0.587500  0.467700  0.235700  1.0  0.3275
  H  H127  1  0.762900  0.672700  0.953600  1.0  0.3349
  H  H128  1  0.807900  0.741300  0.189400  1.0  0.3784
  H  H129  1  0.602400  0.669900  0.292000  1.0  0.0783
  H  H130  1  0.521700  0.625300  0.314200  1.0  0.0993
  H  H131  1  0.660300  0.549300  0.227000  1.0  0.1095
  H  H132  1  0.437700  0.548300  0.332900  1.0  0.1063
  H  H133  1  0.382200  0.476000  0.333200  1.0  0.0935
  H  H134  1  0.495700  0.406900  0.256500  1.0  0.1073
  H  H135  1  0.625800  0.733700  0.092400  1.0  0.0935
  H  H136  1  0.588400  0.753900  0.027100  1.0  0.1121
  H  H137  1  0.765000  0.667500  0.040200  1.0  0.1082
  H  H138  1  0.567600  0.761800  0.937600  1.0  0.1019
  H  H139  1  0.572800  0.759400  0.865000  1.0  0.0972
  H  H140  1  0.730000  0.691200  0.871400  1.0  0.1095
  C  C141  1  0.810330  0.644330  0.740910  1.0  0.7006
  C  C142  1  0.860720  0.613920  0.757050  1.0  -0.1418
  C  C143  1  0.902480  0.636550  0.783550  1.0  -0.0628
  C  C144  1  0.950550  0.609860  0.797060  1.0  -0.1122
  C  C145  1  0.957620  0.559700  0.785000  1.0  -0.0476
  C  C146  1  0.915390  0.537830  0.759060  1.0  0.1149
  C  C147  1  0.867060  0.564490  0.744590  1.0  -0.0434
  C  C148  1  0.000300  0.521880  0.793570  1.0  0.0158
  C  C149  1  0.050670  0.520390  0.817250  1.0  -0.1343
  C  C150  1  0.083540  0.476880  0.817400  1.0  -0.0542
  C  C151  1  0.067220  0.434330  0.794700  1.0  -0.1575
  C  C152  1  0.016310  0.435090  0.771660  1.0  -0.0473
  C  C153  1  0.983120  0.479120  0.771530  1.0  0.2456
  C  C154  1  0.104810  0.387970  0.795260  1.0  0.7028
  C  C155  1  0.779900  0.686770  0.615900  1.0  0.6559
  C  C156  1  0.801290  0.698040  0.572740  1.0  -0.1859
  C  C157  1  0.853820  0.724170  0.568200  1.0  -0.039
  C  C158  1  0.876590  0.736360  0.529300  1.0  -0.1167
  C  C159  1  0.846060  0.721790  0.493190  1.0  -0.0623
  C  C160  1  0.792260  0.696150  0.498220  1.0  0.1526
  C  C161  1  0.770360  0.684460  0.537560  1.0  -0.0519
  C  C162  1  0.855680  0.727420  0.448350  1.0  -0.0864
  C  C163  1  0.900140  0.747320  0.424400  1.0  -0.0818
  C  C164  1  0.897000  0.745910  0.381120  1.0  -0.041
  C  C165  1  0.847990  0.724020  0.360980  1.0  -0.1358
  C  C166  1  0.802930  0.704490  0.384470  1.0  -0.0441
  C  C167  1  0.807690  0.705090  0.428160  1.0  0.0432
  C  C168  1  0.845310  0.721810  0.313820  1.0  0.6957
  C  C169  1  0.689670  0.855670  0.740910  1.0  0.7011
  C  C170  1  0.639280  0.886080  0.757050  1.0  -0.1411
  C  C171  1  0.597520  0.863450  0.783550  1.0  -0.0628
  C  C172  1  0.549450  0.890140  0.797060  1.0  -0.1126
  C  C173  1  0.542380  0.940300  0.785000  1.0  -0.0468
  C  C174  1  0.584610  0.962170  0.759060  1.0  0.1141
  C  C175  1  0.632940  0.935510  0.744590  1.0  -0.0427
  C  C176  1  0.499700  0.978120  0.793570  1.0  0.0161
  C  C177  1  0.449330  0.979610  0.817250  1.0  -0.133
  C  C178  1  0.416460  0.023120  0.817400  1.0  -0.0546
  C  C179  1  0.432780  0.065670  0.794700  1.0  -0.1578
  C  C180  1  0.483690  0.064910  0.771660  1.0  -0.047
  C  C181  1  0.516880  0.020880  0.771530  1.0  0.2508
  C  C182  1  0.395190  0.112030  0.795260  1.0  0.7026
  C  C183  1  0.720100  0.813230  0.615900  1.0  0.6549
  C  C184  1  0.698710  0.801960  0.572740  1.0  -0.1867
  C  C185  1  0.646180  0.775830  0.568200  1.0  -0.0396
  C  C186  1  0.623410  0.763640  0.529300  1.0  -0.1127
  C  C187  1  0.653940  0.778210  0.493190  1.0  -0.0578
  C  C188  1  0.707740  0.803850  0.498220  1.0  0.1519
  C  C189  1  0.729640  0.815540  0.537560  1.0  -0.0549
  C  C190  1  0.644320  0.772580  0.448350  1.0  -0.0836
  C  C191  1  0.599860  0.752680  0.424400  1.0  -0.0789
  C  C192  1  0.603000  0.754090  0.381120  1.0  -0.0404
  C  C193  1  0.652010  0.775980  0.360980  1.0  -0.1376
  C  C194  1  0.697070  0.795510  0.384470  1.0  -0.0431
  C  C195  1  0.692310  0.794910  0.428160  1.0  0.0443
  C  C196  1  0.654690  0.778190  0.313820  1.0  0.6967
  C  C197  1  0.189670  0.144330  0.759090  1.0  0.7007
  C  C198  1  0.139280  0.113920  0.742950  1.0  -0.1417
  C  C199  1  0.097520  0.136550  0.716450  1.0  -0.0643
  C  C200  1  0.049450  0.109860  0.702940  1.0  -0.1138
  C  C201  1  0.042380  0.059700  0.715000  1.0  -0.0484
  C  C202  1  0.084610  0.037830  0.740940  1.0  0.1137
  C  C203  1  0.132940  0.064490  0.755410  1.0  -0.0423
  C  C204  1  0.999700  0.021880  0.706430  1.0  0.0166
  C  C205  1  0.949330  0.020390  0.682750  1.0  -0.1355
  C  C206  1  0.916460  0.976880  0.682600  1.0  -0.0547
  C  C207  1  0.932780  0.934330  0.705300  1.0  -0.1579
  C  C208  1  0.983690  0.935090  0.728340  1.0  -0.046
  C  C209  1  0.016880  0.979120  0.728470  1.0  0.2453
  C  C210  1  0.895190  0.887970  0.704740  1.0  0.7031
  C  C211  1  0.220100  0.186770  0.884100  1.0  0.6552
  C  C212  1  0.198710  0.198040  0.927260  1.0  -0.1856
  C  C213  1  0.146180  0.224170  0.931800  1.0  -0.0414
  C  C214  1  0.123410  0.236360  0.970700  1.0  -0.1137
  C  C215  1  0.153940  0.221790  0.006810  1.0  -0.0596
  C  C216  1  0.207740  0.196150  0.001780  1.0  0.1478
  C  C217  1  0.229640  0.184460  0.962440  1.0  -0.057
  C  C218  1  0.144320  0.227420  0.051650  1.0  -0.0776
  C  C219  1  0.099860  0.247320  0.075600  1.0  -0.0787
  C  C220  1  0.103000  0.245910  0.118880  1.0  -0.0414
  C  C221  1  0.152010  0.224020  0.139020  1.0  -0.1367
  C  C222  1  0.197070  0.204490  0.115530  1.0  -0.0437
  C  C223  1  0.192310  0.205090  0.071840  1.0  0.0484
  C  C224  1  0.154690  0.221810  0.186180  1.0  0.6949
  C  C225  1  0.310330  0.355670  0.759090  1.0  0.7019
  C  C226  1  0.360720  0.386080  0.742950  1.0  -0.1416
  C  C227  1  0.402480  0.363450  0.716450  1.0  -0.0639
  C  C228  1  0.450550  0.390140  0.702940  1.0  -0.1134
  C  C229  1  0.457620  0.440300  0.715000  1.0  -0.0474
  C  C230  1  0.415390  0.462170  0.740940  1.0  0.1136
  C  C231  1  0.367060  0.435510  0.755410  1.0  -0.0422
  C  C232  1  0.500300  0.478120  0.706430  1.0  0.0146
  C  C233  1  0.550670  0.479610  0.682750  1.0  -0.1346
  C  C234  1  0.583540  0.523120  0.682600  1.0  -0.0551
  C  C235  1  0.567220  0.565670  0.705300  1.0  -0.1576
  C  C236  1  0.516310  0.564910  0.728340  1.0  -0.0469
  C  C237  1  0.483120  0.520880  0.728470  1.0  0.2512
  C  C238  1  0.604810  0.612030  0.704740  1.0  0.7027
  C  C239  1  0.279900  0.313230  0.884100  1.0  0.6555
  C  C240  1  0.301290  0.301960  0.927260  1.0  -0.1846
  C  C241  1  0.353820  0.275830  0.931800  1.0  -0.0393
  C  C242  1  0.376590  0.263640  0.970700  1.0  -0.1166
  C  C243  1  0.346060  0.278210  0.006810  1.0  -0.0577
  C  C244  1  0.292260  0.303850  0.001780  1.0  0.1525
  C  C245  1  0.270360  0.315540  0.962440  1.0  -0.0507
  C  C246  1  0.355680  0.272580  0.051650  1.0  -0.0857
  C  C247  1  0.400140  0.252680  0.075600  1.0  -0.0817
  C  C248  1  0.397000  0.254090  0.118880  1.0  -0.0408
  C  C249  1  0.347990  0.275980  0.139020  1.0  -0.1378
  C  C250  1  0.302930  0.295510  0.115530  1.0  -0.0452
  C  C251  1  0.307690  0.294910  0.071840  1.0  0.0405
  C  C252  1  0.345310  0.278190  0.186180  1.0  0.6957
  C  C253  1  0.189670  0.355670  0.259090  1.0  0.7015
  C  C254  1  0.139280  0.386080  0.242950  1.0  -0.1413
  C  C255  1  0.097520  0.363450  0.216450  1.0  -0.0637
  C  C256  1  0.049450  0.390140  0.202940  1.0  -0.1135
  C  C257  1  0.042380  0.440300  0.215000  1.0  -0.048
  C  C258  1  0.084610  0.462170  0.240940  1.0  0.113
  C  C259  1  0.132940  0.435510  0.255410  1.0  -0.0419
  C  C260  1  0.999700  0.478120  0.206430  1.0  0.0147
  C  C261  1  0.949330  0.479610  0.182750  1.0  -0.1334
  C  C262  1  0.916460  0.523120  0.182600  1.0  -0.0548
  C  C263  1  0.932780  0.565670  0.205300  1.0  -0.1578
  C  C264  1  0.983690  0.564910  0.228340  1.0  -0.0456
  C  C265  1  0.016880  0.520880  0.228470  1.0  0.246
  C  C266  1  0.895190  0.612030  0.204740  1.0  0.7028
  C  C267  1  0.220100  0.313230  0.384100  1.0  0.6553
  C  C268  1  0.198710  0.301960  0.427260  1.0  -0.185
  C  C269  1  0.146180  0.275830  0.431800  1.0  -0.0403
  C  C270  1  0.123410  0.263640  0.470700  1.0  -0.1153
  C  C271  1  0.153940  0.278210  0.506810  1.0  -0.0615
  C  C272  1  0.207740  0.303850  0.501780  1.0  0.1537
  C  C273  1  0.229640  0.315540  0.462440  1.0  -0.0494
  C  C274  1  0.144320  0.272580  0.551650  1.0  -0.084
  C  C275  1  0.099860  0.252680  0.575600  1.0  -0.0779
  C  C276  1  0.103000  0.254090  0.618880  1.0  -0.0408
  C  C277  1  0.152010  0.275980  0.639020  1.0  -0.1369
  C  C278  1  0.197070  0.295510  0.615530  1.0  -0.044
  C  C279  1  0.192310  0.294910  0.571840  1.0  0.0425
  C  C280  1  0.154690  0.278190  0.686180  1.0  0.6954
  C  C281  1  0.310330  0.144330  0.259090  1.0  0.7008
  C  C282  1  0.360720  0.113920  0.242950  1.0  -0.1421
  C  C283  1  0.402480  0.136550  0.216450  1.0  -0.0644
  C  C284  1  0.450550  0.109860  0.202940  1.0  -0.1135
  C  C285  1  0.457620  0.059700  0.215000  1.0  -0.048
  C  C286  1  0.415390  0.037830  0.240940  1.0  0.1142
  C  C287  1  0.367060  0.064490  0.255410  1.0  -0.0423
  C  C288  1  0.500300  0.021880  0.206430  1.0  0.016
  C  C289  1  0.550670  0.020390  0.182750  1.0  -0.1367
  C  C290  1  0.583540  0.976880  0.182600  1.0  -0.0551
  C  C291  1  0.567220  0.934330  0.205300  1.0  -0.1576
  C  C292  1  0.516310  0.935090  0.228340  1.0  -0.0468
  C  C293  1  0.483120  0.979120  0.228470  1.0  0.25
  C  C294  1  0.604810  0.887970  0.204740  1.0  0.703
  C  C295  1  0.279900  0.186770  0.384100  1.0  0.6558
  C  C296  1  0.301290  0.198040  0.427260  1.0  -0.1855
  C  C297  1  0.353820  0.224170  0.431800  1.0  -0.04
  C  C298  1  0.376590  0.236360  0.470700  1.0  -0.1138
  C  C299  1  0.346060  0.221790  0.506810  1.0  -0.0581
  C  C300  1  0.292260  0.196150  0.501780  1.0  0.1511
  C  C301  1  0.270360  0.184460  0.462440  1.0  -0.0579
  C  C302  1  0.355680  0.227420  0.551650  1.0  -0.0857
  C  C303  1  0.400140  0.247320  0.575600  1.0  -0.0813
  C  C304  1  0.397000  0.245910  0.618880  1.0  -0.0409
  C  C305  1  0.347990  0.224020  0.639020  1.0  -0.1373
  C  C306  1  0.302930  0.204490  0.615530  1.0  -0.0447
  C  C307  1  0.307690  0.205090  0.571840  1.0  0.0414
  C  C308  1  0.345310  0.221810  0.686180  1.0  0.6956
  C  C309  1  0.810330  0.855670  0.240910  1.0  0.7018
  C  C310  1  0.860720  0.886080  0.257050  1.0  -0.1413
  C  C311  1  0.902480  0.863450  0.283550  1.0  -0.0631
  C  C312  1  0.950550  0.890140  0.297060  1.0  -0.1117
  C  C313  1  0.957620  0.940300  0.285000  1.0  -0.0462
  C  C314  1  0.915390  0.962170  0.259060  1.0  0.1144
  C  C315  1  0.867060  0.935510  0.244590  1.0  -0.0429
  C  C316  1  0.000300  0.978120  0.293570  1.0  0.0157
  C  C317  1  0.050670  0.979610  0.317250  1.0  -0.133
  C  C318  1  0.083540  0.023120  0.317400  1.0  -0.0545
  C  C319  1  0.067220  0.065670  0.294700  1.0  -0.1575
  C  C320  1  0.016310  0.064910  0.271660  1.0  -0.0477
  C  C321  1  0.983120  0.020880  0.271530  1.0  0.2467
  C  C322  1  0.104810  0.112030  0.295260  1.0  0.7025
  C  C323  1  0.779900  0.813230  0.115900  1.0  0.6553
  C  C324  1  0.801290  0.801960  0.072740  1.0  -0.1863
  C  C325  1  0.853820  0.775830  0.068200  1.0  -0.0387
  C  C326  1  0.876590  0.763640  0.029300  1.0  -0.1167
  C  C327  1  0.846060  0.778210  0.993190  1.0  -0.0601
  C  C328  1  0.792260  0.803850  0.998220  1.0  0.146
  C  C329  1  0.770360  0.815540  0.037560  1.0  -0.0572
  C  C330  1  0.855680  0.772580  0.948350  1.0  -0.0806
  C  C331  1  0.900140  0.752680  0.924400  1.0  -0.0821
  C  C332  1  0.897000  0.754090  0.881120  1.0  -0.041
  C  C333  1  0.847990  0.775980  0.860980  1.0  -0.1363
  C  C334  1  0.802930  0.795510  0.884470  1.0  -0.0444
  C  C335  1  0.807690  0.794910  0.928160  1.0  0.0488
  C  C336  1  0.845310  0.778190  0.813820  1.0  0.6959
  C  C337  1  0.689670  0.644330  0.240910  1.0  0.7004
  C  C338  1  0.639280  0.613920  0.257050  1.0  -0.1413
  C  C339  1  0.597520  0.636550  0.283550  1.0  -0.0628
  C  C340  1  0.549450  0.609860  0.297060  1.0  -0.1134
  C  C341  1  0.542380  0.559700  0.285000  1.0  -0.0479
  C  C342  1  0.584610  0.537830  0.259060  1.0  0.1145
  C  C343  1  0.632940  0.564490  0.244590  1.0  -0.0436
  C  C344  1  0.499700  0.521880  0.293570  1.0  0.0165
  C  C345  1  0.449330  0.520390  0.317250  1.0  -0.1348
  C  C346  1  0.416460  0.476880  0.317400  1.0  -0.0545
  C  C347  1  0.432780  0.434330  0.294700  1.0  -0.158
  C  C348  1  0.483690  0.435090  0.271660  1.0  -0.0471
  C  C349  1  0.516880  0.479120  0.271530  1.0  0.2502
  C  C350  1  0.395190  0.387970  0.295260  1.0  0.7028
  C  C351  1  0.720100  0.686770  0.115900  1.0  0.6553
  C  C352  1  0.698710  0.698040  0.072740  1.0  -0.1858
  C  C353  1  0.646180  0.724170  0.068200  1.0  -0.0404
  C  C354  1  0.623410  0.736360  0.029300  1.0  -0.1154
  C  C355  1  0.653940  0.721790  0.993190  1.0  -0.0576
  C  C356  1  0.707740  0.696150  0.998220  1.0  0.1536
  C  C357  1  0.729640  0.684460  0.037560  1.0  -0.051
  C  C358  1  0.644320  0.727420  0.948350  1.0  -0.0839
  C  C359  1  0.599860  0.747320  0.924400  1.0  -0.0799
  C  C360  1  0.603000  0.745910  0.881120  1.0  -0.0409
  C  C361  1  0.652010  0.724020  0.860980  1.0  -0.1372
  C  C362  1  0.697070  0.704490  0.884470  1.0  -0.0433
  C  C363  1  0.692310  0.705090  0.928160  1.0  0.044
  C  C364  1  0.654690  0.721810  0.813820  1.0  0.6961
  N  N365  1  0.931590  0.488780  0.751050  1.0  -0.2484
  N  N366  1  0.769900  0.687240  0.458630  1.0  -0.2568
  N  N367  1  0.568410  0.011220  0.751050  1.0  -0.2564
  N  N368  1  0.730100  0.812760  0.458630  1.0  -0.2562
  N  N369  1  0.068410  0.988780  0.748950  1.0  -0.2495
  N  N370  1  0.230100  0.187240  0.041370  1.0  -0.2541
  N  N371  1  0.431590  0.511220  0.748950  1.0  -0.2562
  N  N372  1  0.269900  0.312760  0.041370  1.0  -0.2563
  N  N373  1  0.068410  0.511220  0.248950  1.0  -0.2477
  N  N374  1  0.230100  0.312760  0.541370  1.0  -0.2555
  N  N375  1  0.431590  0.988780  0.248950  1.0  -0.2579
  N  N376  1  0.269900  0.187240  0.541370  1.0  -0.2574
  N  N377  1  0.931590  0.011220  0.251050  1.0  -0.2482
  N  N378  1  0.769900  0.812760  0.958630  1.0  -0.2529
  N  N379  1  0.568410  0.488780  0.251050  1.0  -0.2575
  N  N380  1  0.730100  0.687240  0.958630  1.0  -0.2572
  O  O381  1  0.808370  0.690050  0.751330  1.0  -0.6302
  O  O382  1  0.773900  0.621980  0.717390  1.0  -0.5963
  O  O383  1  0.151560  0.389860  0.815890  1.0  -0.6205
  O  O384  1  0.085760  0.350460  0.774790  1.0  -0.6446
  O  O385  1  0.806870  0.703210  0.647470  1.0  -0.6319
  O  O386  1  0.734460  0.659760  0.619900  1.0  -0.6043
  O  O387  1  0.797470  0.711500  0.296650  1.0  -0.6268
  O  O388  1  0.892440  0.729920  0.293410  1.0  -0.6163
  O  O389  1  0.692050  0.721060  0.704810  1.0  -1.003
  O  O390  1  0.691630  0.809950  0.751330  1.0  -0.6308
  O  O391  1  0.726100  0.878020  0.717390  1.0  -0.5986
  O  O392  1  0.348440  0.110140  0.815890  1.0  -0.6203
  O  O393  1  0.414240  0.149540  0.774790  1.0  -0.644
  O  O394  1  0.693130  0.796790  0.647470  1.0  -0.6305
  O  O395  1  0.765540  0.840240  0.619900  1.0  -0.6062
  O  O396  1  0.702530  0.788500  0.296650  1.0  -0.6274
  O  O397  1  0.607560  0.770080  0.293410  1.0  -0.6184
  O  O398  1  0.807950  0.778940  0.704810  1.0  -1.0024
  O  O399  1  0.191630  0.190050  0.748670  1.0  -0.6311
  O  O400  1  0.226100  0.121980  0.782610  1.0  -0.5975
  O  O401  1  0.848440  0.889860  0.684110  1.0  -0.619
  O  O402  1  0.914240  0.850460  0.725210  1.0  -0.6424
  O  O403  1  0.193130  0.203210  0.852530  1.0  -0.6303
  O  O404  1  0.265540  0.159760  0.880100  1.0  -0.6035
  O  O405  1  0.202530  0.211500  0.203350  1.0  -0.6277
  O  O406  1  0.107560  0.229920  0.206590  1.0  -0.6183
  O  O407  1  0.307950  0.221060  0.795190  1.0  -1.0051
  O  O408  1  0.308370  0.309950  0.748670  1.0  -0.6302
  O  O409  1  0.273900  0.378020  0.782610  1.0  -0.5977
  O  O410  1  0.651560  0.610140  0.684110  1.0  -0.6196
  O  O411  1  0.585760  0.649540  0.725210  1.0  -0.6438
  O  O412  1  0.306870  0.296790  0.852530  1.0  -0.6291
  O  O413  1  0.234460  0.340240  0.880100  1.0  -0.6034
  O  O414  1  0.297470  0.288500  0.203350  1.0  -0.626
  O  O415  1  0.392440  0.270080  0.206590  1.0  -0.6158
  O  O416  1  0.192050  0.278940  0.795190  1.0  -1.0053
  O  O417  1  0.191630  0.309950  0.248670  1.0  -0.6305
  O  O418  1  0.226100  0.378020  0.282610  1.0  -0.5987
  O  O419  1  0.848440  0.610140  0.184110  1.0  -0.6193
  O  O420  1  0.914240  0.649540  0.225210  1.0  -0.6431
  O  O421  1  0.193130  0.296790  0.352530  1.0  -0.6291
  O  O422  1  0.265540  0.340240  0.380100  1.0  -0.6035
  O  O423  1  0.202530  0.288500  0.703350  1.0  -0.6276
  O  O424  1  0.107560  0.270080  0.706590  1.0  -0.6185
  O  O425  1  0.307950  0.278940  0.295190  1.0  -1.0046
  O  O426  1  0.308370  0.190050  0.248670  1.0  -0.6305
  O  O427  1  0.273900  0.121980  0.282610  1.0  -0.5963
  O  O428  1  0.651560  0.889860  0.184110  1.0  -0.62
  O  O429  1  0.585760  0.850460  0.225210  1.0  -0.643
  O  O430  1  0.306870  0.203210  0.352530  1.0  -0.6306
  O  O431  1  0.234460  0.159760  0.380100  1.0  -0.6038
  O  O432  1  0.297470  0.211500  0.703350  1.0  -0.627
  O  O433  1  0.392440  0.229920  0.706590  1.0  -0.616
  O  O434  1  0.192050  0.221060  0.295190  1.0  -1.006
  O  O435  1  0.808370  0.809950  0.251330  1.0  -0.6307
  O  O436  1  0.773900  0.878020  0.217390  1.0  -0.5975
  O  O437  1  0.151560  0.110140  0.315890  1.0  -0.6202
  O  O438  1  0.085760  0.149540  0.274790  1.0  -0.6443
  O  O439  1  0.806870  0.796790  0.147470  1.0  -0.6308
  O  O440  1  0.734460  0.840240  0.119900  1.0  -0.6053
  O  O441  1  0.797470  0.788500  0.796650  1.0  -0.6258
  O  O442  1  0.892440  0.770080  0.793410  1.0  -0.6166
  O  O443  1  0.692050  0.778940  0.204810  1.0  -1.0037
  O  O444  1  0.691630  0.690050  0.251330  1.0  -0.6308
  O  O445  1  0.726100  0.621980  0.217390  1.0  -0.5973
  O  O446  1  0.348440  0.389860  0.315890  1.0  -0.6202
  O  O447  1  0.414240  0.350460  0.274790  1.0  -0.6425
  O  O448  1  0.693130  0.703210  0.147470  1.0  -0.6314
  O  O449  1  0.765540  0.659760  0.119900  1.0  -0.604
  O  O450  1  0.702530  0.711500  0.796650  1.0  -0.6277
  O  O451  1  0.607560  0.729920  0.793410  1.0  -0.6192
  O  O452  1  0.807950  0.721060  0.204810  1.0  -1.0023
