# generated using pymatgen
data_ZnH13C17(NO2)2
_symmetry_space_group_name_H-M   'P 1'
_cell_length_a   39.82600000
_cell_length_b   14.01200000
_cell_length_c   29.26900000
_cell_angle_alpha   90.00000000
_cell_angle_beta   123.20600000
_cell_angle_gamma   90.00000000
_symmetry_Int_Tables_number   1
_chemical_formula_structural   ZnH13C17(NO2)2
_chemical_formula_sum   'Zn16 H208 C272 N32 O64'
_cell_volume   13666.20995562
_cell_formula_units_Z   16
loop_
 _symmetry_equiv_pos_site_id
 _symmetry_equiv_pos_as_xyz
  1  'x, y, z'
loop_
 _atom_site_type_symbol
 _atom_site_label
 _atom_site_symmetry_multiplicity
 _atom_site_fract_x
 _atom_site_fract_y
 _atom_site_fract_z
 _atom_site_occupancy
 _atom_site_charge
  Zn  Zn1  1  0.989510  0.471690  0.945100  1.0  0.862
  Zn  Zn2  1  0.906350  0.391570  0.676270  1.0  0.8082
  Zn  Zn3  1  0.489510  0.971690  0.945100  1.0  0.862
  Zn  Zn4  1  0.406350  0.891570  0.676270  1.0  0.8082
  Zn  Zn5  1  0.010490  0.471690  0.554900  1.0  0.8627
  Zn  Zn6  1  0.093650  0.391570  0.823730  1.0  0.8073
  Zn  Zn7  1  0.510490  0.971690  0.554900  1.0  0.8627
  Zn  Zn8  1  0.593650  0.891570  0.823730  1.0  0.8073
  Zn  Zn9  1  0.010490  0.528310  0.054900  1.0  0.8625
  Zn  Zn10  1  0.093650  0.608430  0.323730  1.0  0.8063
  Zn  Zn11  1  0.510490  0.028310  0.054900  1.0  0.8625
  Zn  Zn12  1  0.593650  0.108430  0.323730  1.0  0.8063
  Zn  Zn13  1  0.989510  0.528310  0.445100  1.0  0.8623
  Zn  Zn14  1  0.906350  0.608430  0.176270  1.0  0.8077
  Zn  Zn15  1  0.489510  0.028310  0.445100  1.0  0.8623
  Zn  Zn16  1  0.406350  0.108430  0.176270  1.0  0.8077
  H  H17  1  0.936500  0.324400  0.861400  1.0  0.0603
  H  H18  1  0.978100  0.305200  0.868800  1.0  0.0698
  H  H19  1  0.017600  0.433300  0.870800  1.0  0.0645
  H  H20  1  0.999000  0.536100  0.854000  1.0  0.0667
  H  H21  1  0.934600  0.567700  0.839000  1.0  0.0686
  H  H22  1  0.908500  0.482200  0.837400  1.0  0.0669
  H  H23  1  0.944900  0.275300  0.780200  1.0  0.0645
  H  H24  1  0.904400  0.310800  0.771700  1.0  0.0536
  H  H25  1  0.976000  0.500600  0.769400  1.0  0.0672
  H  H26  1  0.991100  0.395100  0.785600  1.0  0.0738
  H  H27  1  0.883300  0.467400  0.749700  1.0  0.0599
  H  H28  1  0.912700  0.545500  0.752700  1.0  0.0565
  H  H29  1  0.110900  0.381500  0.985700  1.0  0.1195
  H  H30  1  0.129200  0.435800  0.132000  1.0  0.0813
  H  H31  1  0.971500  0.169900  0.959500  1.0  0.0896
  H  H32  1  0.989200  0.253900  0.102200  1.0  0.1106
  H  H33  1  0.191600  0.378700  0.175500  1.0  0.1126
  H  H34  1  0.955900  0.017000  0.971100  1.0  0.1164
  H  H35  1  0.178600  0.311800  0.995500  1.0  0.2937
  H  H36  1  0.976900  0.104200  0.154500  1.0  0.3488
  H  H37  1  0.254300  0.234400  0.036900  1.0  0.0969
  H  H38  1  0.268400  0.287200  0.203800  1.0  0.0994
  H  H39  1  0.946800  0.844100  0.015500  1.0  0.1043
  H  H40  1  0.958800  0.934500  0.177500  1.0  0.1163
  H  H41  1  0.322200  0.226900  0.202300  1.0  0.1113
  H  H42  1  0.938100  0.730400  0.066100  1.0  0.1031
  H  H43  1  0.436500  0.824400  0.861400  1.0  0.0603
  H  H44  1  0.478100  0.805200  0.868800  1.0  0.0698
  H  H45  1  0.517600  0.933300  0.870800  1.0  0.0645
  H  H46  1  0.499000  0.036100  0.854000  1.0  0.0667
  H  H47  1  0.434600  0.067700  0.839000  1.0  0.0686
  H  H48  1  0.408500  0.982200  0.837400  1.0  0.0669
  H  H49  1  0.444900  0.775300  0.780200  1.0  0.0645
  H  H50  1  0.404400  0.810800  0.771700  1.0  0.0536
  H  H51  1  0.476000  0.000600  0.769400  1.0  0.0672
  H  H52  1  0.491100  0.895100  0.785600  1.0  0.0738
  H  H53  1  0.383300  0.967400  0.749700  1.0  0.0608
  H  H54  1  0.412700  0.045500  0.752700  1.0  0.0565
  H  H55  1  0.610900  0.881500  0.985700  1.0  0.1195
  H  H56  1  0.629200  0.935800  0.132000  1.0  0.0813
  H  H57  1  0.471500  0.669900  0.959500  1.0  0.0896
  H  H58  1  0.489200  0.753900  0.102200  1.0  0.1106
  H  H59  1  0.691600  0.878700  0.175500  1.0  0.1126
  H  H60  1  0.455900  0.517000  0.971100  1.0  0.1164
  H  H61  1  0.678600  0.811800  0.995500  1.0  0.2937
  H  H62  1  0.476900  0.604200  0.154500  1.0  0.3488
  H  H63  1  0.754300  0.734400  0.036900  1.0  0.0959
  H  H64  1  0.768400  0.787200  0.203800  1.0  0.0994
  H  H65  1  0.446800  0.344100  0.015500  1.0  0.1043
  H  H66  1  0.458800  0.434500  0.177500  1.0  0.1163
  H  H67  1  0.822200  0.726900  0.202300  1.0  0.1113
  H  H68  1  0.438100  0.230400  0.066100  1.0  0.1031
  H  H69  1  0.063500  0.324400  0.638600  1.0  0.0601
  H  H70  1  0.021900  0.305200  0.631200  1.0  0.0687
  H  H71  1  0.982400  0.433300  0.629200  1.0  0.064
  H  H72  1  0.001000  0.536100  0.646000  1.0  0.0679
  H  H73  1  0.065400  0.567700  0.661000  1.0  0.0678
  H  H74  1  0.091500  0.482200  0.662600  1.0  0.0681
  H  H75  1  0.055100  0.275300  0.719800  1.0  0.0654
  H  H76  1  0.095600  0.310800  0.728300  1.0  0.0542
  H  H77  1  0.024000  0.500600  0.730600  1.0  0.0658
  H  H78  1  0.008900  0.395100  0.714400  1.0  0.0743
  H  H79  1  0.116700  0.467400  0.750300  1.0  0.058
  H  H80  1  0.087300  0.545500  0.747300  1.0  0.0557
  H  H81  1  0.889100  0.381500  0.514300  1.0  0.1197
  H  H82  1  0.870800  0.435800  0.368000  1.0  0.0801
  H  H83  1  0.028500  0.169900  0.540500  1.0  0.0891
  H  H84  1  0.010800  0.253900  0.397800  1.0  0.1101
  H  H85  1  0.808400  0.378700  0.324500  1.0  0.1121
  H  H86  1  0.044100  0.017000  0.528900  1.0  0.1161
  H  H87  1  0.821400  0.311800  0.504500  1.0  0.2944
  H  H88  1  0.023100  0.104200  0.345500  1.0  0.3488
  H  H89  1  0.745700  0.234400  0.463100  1.0  0.0964
  H  H90  1  0.731600  0.287200  0.296200  1.0  0.0998
  H  H91  1  0.053200  0.844100  0.484500  1.0  0.1035
  H  H92  1  0.041200  0.934500  0.322500  1.0  0.1155
  H  H93  1  0.677800  0.226900  0.297700  1.0  0.1108
  H  H94  1  0.061900  0.730400  0.433900  1.0  0.1031
  H  H95  1  0.563500  0.824400  0.638600  1.0  0.0601
  H  H96  1  0.521900  0.805200  0.631200  1.0  0.0687
  H  H97  1  0.482400  0.933300  0.629200  1.0  0.064
  H  H98  1  0.501000  0.036100  0.646000  1.0  0.0679
  H  H99  1  0.565400  0.067700  0.661000  1.0  0.0678
  H  H100  1  0.591500  0.982200  0.662600  1.0  0.0681
  H  H101  1  0.555100  0.775300  0.719800  1.0  0.0654
  H  H102  1  0.595600  0.810800  0.728300  1.0  0.0542
  H  H103  1  0.524000  0.000600  0.730600  1.0  0.0658
  H  H104  1  0.508900  0.895100  0.714400  1.0  0.0743
  H  H105  1  0.616700  0.967400  0.750300  1.0  0.0579
  H  H106  1  0.587300  0.045500  0.747300  1.0  0.0557
  H  H107  1  0.389100  0.881500  0.514300  1.0  0.1197
  H  H108  1  0.370800  0.935800  0.368000  1.0  0.0801
  H  H109  1  0.528500  0.669900  0.540500  1.0  0.0891
  H  H110  1  0.510800  0.753900  0.397800  1.0  0.1101
  H  H111  1  0.308400  0.878700  0.324500  1.0  0.1121
  H  H112  1  0.544100  0.517000  0.528900  1.0  0.1161
  H  H113  1  0.321400  0.811800  0.504500  1.0  0.2944
  H  H114  1  0.523100  0.604200  0.345500  1.0  0.3488
  H  H115  1  0.245700  0.734400  0.463100  1.0  0.0971
  H  H116  1  0.231600  0.787200  0.296200  1.0  0.0998
  H  H117  1  0.553200  0.344100  0.484500  1.0  0.1035
  H  H118  1  0.541200  0.434500  0.322500  1.0  0.1155
  H  H119  1  0.177800  0.726900  0.297700  1.0  0.1108
  H  H120  1  0.561900  0.230400  0.433900  1.0  0.1031
  H  H121  1  0.063500  0.675600  0.138600  1.0  0.0599
  H  H122  1  0.021900  0.694800  0.131200  1.0  0.0688
  H  H123  1  0.982400  0.566700  0.129200  1.0  0.064
  H  H124  1  0.001000  0.463900  0.146000  1.0  0.0666
  H  H125  1  0.065400  0.432300  0.161000  1.0  0.0667
  H  H126  1  0.091500  0.517800  0.162600  1.0  0.0679
  H  H127  1  0.055100  0.724700  0.219800  1.0  0.0658
  H  H128  1  0.095600  0.689200  0.228300  1.0  0.0549
  H  H129  1  0.024000  0.499400  0.230600  1.0  0.0685
  H  H130  1  0.008900  0.604900  0.214400  1.0  0.0742
  H  H131  1  0.116700  0.532600  0.250300  1.0  0.0579
  H  H132  1  0.087300  0.454500  0.247300  1.0  0.0572
  H  H133  1  0.889100  0.618500  0.014300  1.0  0.1205
  H  H134  1  0.870800  0.564200  0.868000  1.0  0.0804
  H  H135  1  0.028500  0.830100  0.040500  1.0  0.0891
  H  H136  1  0.010800  0.746100  0.897800  1.0  0.1108
  H  H137  1  0.808400  0.621300  0.824500  1.0  0.1122
  H  H138  1  0.044100  0.983000  0.028900  1.0  0.1162
  H  H139  1  0.821400  0.688200  0.004500  1.0  0.2945
  H  H140  1  0.023100  0.895800  0.845500  1.0  0.3487
  H  H141  1  0.745700  0.765600  0.963100  1.0  0.0971
  H  H142  1  0.731600  0.712800  0.796200  1.0  0.0998
  H  H143  1  0.053200  0.155900  0.984500  1.0  0.1039
  H  H144  1  0.041200  0.065500  0.822500  1.0  0.1159
  H  H145  1  0.677800  0.773100  0.797700  1.0  0.1106
  H  H146  1  0.061900  0.269600  0.933900  1.0  0.103
  H  H147  1  0.563500  0.175600  0.138600  1.0  0.0599
  H  H148  1  0.521900  0.194800  0.131200  1.0  0.0688
  H  H149  1  0.482400  0.066700  0.129200  1.0  0.064
  H  H150  1  0.501000  0.963900  0.146000  1.0  0.0666
  H  H151  1  0.565400  0.932300  0.161000  1.0  0.0667
  H  H152  1  0.591500  0.017800  0.162600  1.0  0.0679
  H  H153  1  0.555100  0.224700  0.219800  1.0  0.0658
  H  H154  1  0.595600  0.189200  0.228300  1.0  0.0549
  H  H155  1  0.524000  0.999400  0.230600  1.0  0.0685
  H  H156  1  0.508900  0.104900  0.214400  1.0  0.0742
  H  H157  1  0.616700  0.032600  0.250300  1.0  0.0595
  H  H158  1  0.587300  0.954500  0.247300  1.0  0.0572
  H  H159  1  0.389100  0.118500  0.014300  1.0  0.1205
  H  H160  1  0.370800  0.064200  0.868000  1.0  0.0804
  H  H161  1  0.528500  0.330100  0.040500  1.0  0.0891
  H  H162  1  0.510800  0.246100  0.897800  1.0  0.1108
  H  H163  1  0.308400  0.121300  0.824500  1.0  0.1122
  H  H164  1  0.544100  0.483000  0.028900  1.0  0.1162
  H  H165  1  0.321400  0.188200  0.004500  1.0  0.2945
  H  H166  1  0.523100  0.395800  0.845500  1.0  0.3487
  H  H167  1  0.245700  0.265600  0.963100  1.0  0.0959
  H  H168  1  0.231600  0.212800  0.796200  1.0  0.0998
  H  H169  1  0.553200  0.655900  0.984500  1.0  0.1039
  H  H170  1  0.541200  0.565500  0.822500  1.0  0.1159
  H  H171  1  0.177800  0.273100  0.797700  1.0  0.1106
  H  H172  1  0.561900  0.769600  0.933900  1.0  0.103
  H  H173  1  0.936500  0.675600  0.361400  1.0  0.0588
  H  H174  1  0.978100  0.694800  0.368800  1.0  0.0691
  H  H175  1  0.017600  0.566700  0.370800  1.0  0.0643
  H  H176  1  0.999000  0.463900  0.354000  1.0  0.0666
  H  H177  1  0.934600  0.432300  0.339000  1.0  0.0673
  H  H178  1  0.908500  0.517800  0.337400  1.0  0.0667
  H  H179  1  0.944900  0.724700  0.280200  1.0  0.0666
  H  H180  1  0.904400  0.689200  0.271700  1.0  0.0536
  H  H181  1  0.976000  0.499400  0.269400  1.0  0.0669
  H  H182  1  0.991100  0.604900  0.285600  1.0  0.0743
  H  H183  1  0.883300  0.532600  0.249700  1.0  0.0602
  H  H184  1  0.912700  0.454500  0.252700  1.0  0.0544
  H  H185  1  0.110900  0.618500  0.485700  1.0  0.1195
  H  H186  1  0.129200  0.564200  0.632000  1.0  0.0813
  H  H187  1  0.971500  0.830100  0.459500  1.0  0.09
  H  H188  1  0.989200  0.746100  0.602200  1.0  0.1114
  H  H189  1  0.191600  0.621300  0.675500  1.0  0.1126
  H  H190  1  0.955900  0.983000  0.471100  1.0  0.1168
  H  H191  1  0.178600  0.688200  0.495500  1.0  0.294
  H  H192  1  0.976900  0.895800  0.654500  1.0  0.3487
  H  H193  1  0.254300  0.765600  0.536900  1.0  0.0971
  H  H194  1  0.268400  0.712800  0.703800  1.0  0.0994
  H  H195  1  0.946800  0.155900  0.515500  1.0  0.1044
  H  H196  1  0.958800  0.065500  0.677500  1.0  0.1165
  H  H197  1  0.322200  0.773100  0.702300  1.0  0.1114
  H  H198  1  0.938100  0.269600  0.566100  1.0  0.1028
  H  H199  1  0.436500  0.175600  0.361400  1.0  0.0588
  H  H200  1  0.478100  0.194800  0.368800  1.0  0.0691
  H  H201  1  0.517600  0.066700  0.370800  1.0  0.0643
  H  H202  1  0.499000  0.963900  0.354000  1.0  0.0666
  H  H203  1  0.434600  0.932300  0.339000  1.0  0.0673
  H  H204  1  0.408500  0.017800  0.337400  1.0  0.0667
  H  H205  1  0.444900  0.224700  0.280200  1.0  0.0666
  H  H206  1  0.404400  0.189200  0.271700  1.0  0.0536
  H  H207  1  0.476000  0.999400  0.269400  1.0  0.0669
  H  H208  1  0.491100  0.104900  0.285600  1.0  0.0743
  H  H209  1  0.383300  0.032600  0.249700  1.0  0.0601
  H  H210  1  0.412700  0.954500  0.252700  1.0  0.0544
  H  H211  1  0.610900  0.118500  0.485700  1.0  0.1195
  H  H212  1  0.629200  0.064200  0.632000  1.0  0.0813
  H  H213  1  0.471500  0.330100  0.459500  1.0  0.09
  H  H214  1  0.489200  0.246100  0.602200  1.0  0.1114
  H  H215  1  0.691600  0.121300  0.675500  1.0  0.1126
  H  H216  1  0.455900  0.483000  0.471100  1.0  0.1168
  H  H217  1  0.678600  0.188200  0.495500  1.0  0.294
  H  H218  1  0.476900  0.395800  0.654500  1.0  0.3487
  H  H219  1  0.754300  0.265600  0.536900  1.0  0.0981
  H  H220  1  0.768400  0.212800  0.703800  1.0  0.0994
  H  H221  1  0.446800  0.655900  0.515500  1.0  0.1044
  H  H222  1  0.458800  0.565500  0.677500  1.0  0.1165
  H  H223  1  0.822200  0.273100  0.702300  1.0  0.1114
  H  H224  1  0.438100  0.769600  0.566100  1.0  0.1028
  C  C225  1  0.954000  0.344000  0.849700  1.0  -0.0255
  C  C226  1  0.992830  0.468500  0.848000  1.0  0.0005
  C  C227  1  0.928400  0.500700  0.829800  1.0  -0.0273
  C  C228  1  0.072200  0.444700  0.029700  1.0  0.6911
  C  C229  1  0.987530  0.329300  0.019200  1.0  0.6869
  C  C230  1  0.932300  0.327700  0.786900  1.0  -0.0046
  C  C231  1  0.975000  0.444400  0.788000  1.0  0.0057
  C  C232  1  0.911300  0.486000  0.768500  1.0  -0.0213
  C  C233  1  0.113730  0.411900  0.055700  1.0  -0.1622
  C  C234  1  0.979900  0.228000  0.028200  1.0  -0.1615
  C  C235  1  0.127400  0.381200  0.023600  1.0  -0.1234
  C  C236  1  0.138800  0.412000  0.111500  1.0  -0.0661
  C  C237  1  0.971400  0.155500  0.990400  1.0  -0.0194
  C  C238  1  0.982400  0.207200  0.076000  1.0  -0.0652
  C  C239  1  0.166320  0.350400  0.050300  1.0  0.1399
  C  C240  1  0.175900  0.379800  0.137500  1.0  -0.1073
  C  C241  1  0.963000  0.063200  0.997700  1.0  -0.1143
  C  C242  1  0.974200  0.112900  0.083800  1.0  0.1111
  C  C243  1  0.192000  0.345900  0.106300  1.0  -0.0393
  C  C244  1  0.965300  0.041500  0.044600  1.0  -0.0596
  C  C245  1  0.226470  0.287500  0.072000  1.0  0.1193
  C  C246  1  0.230300  0.304000  0.122300  1.0  -0.1427
  C  C247  1  0.959000  0.952900  0.066500  1.0  -0.0303
  C  C248  1  0.963300  0.977100  0.114200  1.0  0.1538
  C  C249  1  0.257380  0.246900  0.070200  1.0  -0.0309
  C  C250  1  0.266000  0.278800  0.170700  1.0  -0.0811
  C  C251  1  0.949600  0.861200  0.048200  1.0  -0.0912
  C  C252  1  0.957100  0.915100  0.145900  1.0  -0.0627
  C  C253  1  0.292400  0.225600  0.118100  1.0  -0.1059
  C  C254  1  0.298000  0.241300  0.170100  1.0  -0.0596
  C  C255  1  0.944100  0.793300  0.078100  1.0  -0.0141
  C  C256  1  0.947800  0.820900  0.126400  1.0  -0.127
  C  C257  1  0.327100  0.182400  0.118100  1.0  0.7089
  C  C258  1  0.937800  0.745500  0.156100  1.0  0.6453
  C  C259  1  0.454000  0.844000  0.849700  1.0  -0.0255
  C  C260  1  0.492830  0.968500  0.848000  1.0  0.0005
  C  C261  1  0.428400  0.000700  0.829800  1.0  -0.0273
  C  C262  1  0.572200  0.944700  0.029700  1.0  0.6911
  C  C263  1  0.487530  0.829300  0.019200  1.0  0.6869
  C  C264  1  0.432300  0.827700  0.786900  1.0  -0.0046
  C  C265  1  0.475000  0.944400  0.788000  1.0  0.0057
  C  C266  1  0.411300  0.986000  0.768500  1.0  -0.0213
  C  C267  1  0.613730  0.911900  0.055700  1.0  -0.1622
  C  C268  1  0.479900  0.728000  0.028200  1.0  -0.1615
  C  C269  1  0.627400  0.881200  0.023600  1.0  -0.1234
  C  C270  1  0.638800  0.912000  0.111500  1.0  -0.0661
  C  C271  1  0.471400  0.655500  0.990400  1.0  -0.0194
  C  C272  1  0.482400  0.707200  0.076000  1.0  -0.0652
  C  C273  1  0.666320  0.850400  0.050300  1.0  0.1405
  C  C274  1  0.675900  0.879800  0.137500  1.0  -0.1073
  C  C275  1  0.463000  0.563200  0.997700  1.0  -0.1143
  C  C276  1  0.474200  0.612900  0.083800  1.0  0.1111
  C  C277  1  0.692000  0.845900  0.106300  1.0  -0.0393
  C  C278  1  0.465300  0.541500  0.044600  1.0  -0.0596
  C  C279  1  0.726470  0.787500  0.072000  1.0  0.1193
  C  C280  1  0.730300  0.804000  0.122300  1.0  -0.1427
  C  C281  1  0.459000  0.452900  0.066500  1.0  -0.0303
  C  C282  1  0.463300  0.477100  0.114200  1.0  0.1538
  C  C283  1  0.757380  0.746900  0.070200  1.0  -0.0309
  C  C284  1  0.766000  0.778800  0.170700  1.0  -0.0811
  C  C285  1  0.449600  0.361200  0.048200  1.0  -0.0912
  C  C286  1  0.457100  0.415100  0.145900  1.0  -0.0627
  C  C287  1  0.792400  0.725600  0.118100  1.0  -0.1059
  C  C288  1  0.798000  0.741300  0.170100  1.0  -0.0596
  C  C289  1  0.444100  0.293300  0.078100  1.0  -0.0141
  C  C290  1  0.447800  0.320900  0.126400  1.0  -0.127
  C  C291  1  0.827100  0.682400  0.118100  1.0  0.6987
  C  C292  1  0.437800  0.245500  0.156100  1.0  0.6453
  C  C293  1  0.046000  0.344000  0.650300  1.0  -0.0246
  C  C294  1  0.007170  0.468500  0.652000  1.0  0.0005
  C  C295  1  0.071600  0.500700  0.670200  1.0  -0.027
  C  C296  1  0.927800  0.444700  0.470300  1.0  0.6919
  C  C297  1  0.012470  0.329300  0.480800  1.0  0.6881
  C  C298  1  0.067700  0.327700  0.713100  1.0  -0.0048
  C  C299  1  0.025000  0.444400  0.712000  1.0  0.0049
  C  C300  1  0.088700  0.486000  0.731500  1.0  -0.0204
  C  C301  1  0.886270  0.411900  0.444300  1.0  -0.1621
  C  C302  1  0.020100  0.228000  0.471800  1.0  -0.161
  C  C303  1  0.872600  0.381200  0.476400  1.0  -0.1242
  C  C304  1  0.861200  0.412000  0.388500  1.0  -0.0671
  C  C305  1  0.028600  0.155500  0.509600  1.0  -0.0194
  C  C306  1  0.017600  0.207200  0.424000  1.0  -0.0667
  C  C307  1  0.833680  0.350400  0.449700  1.0  0.1399
  C  C308  1  0.824100  0.379800  0.362500  1.0  -0.1069
  C  C309  1  0.037000  0.063200  0.502300  1.0  -0.1154
  C  C310  1  0.025800  0.112900  0.416200  1.0  0.1113
  C  C311  1  0.808000  0.345900  0.393700  1.0  -0.0378
  C  C312  1  0.034700  0.041500  0.455400  1.0  -0.0599
  C  C313  1  0.773530  0.287500  0.428000  1.0  0.1201
  C  C314  1  0.769700  0.304000  0.377700  1.0  -0.1411
  C  C315  1  0.041000  0.952900  0.433500  1.0  -0.0296
  C  C316  1  0.036700  0.977100  0.385800  1.0  0.1543
  C  C317  1  0.742620  0.246900  0.429800  1.0  -0.0317
  C  C318  1  0.734000  0.278800  0.329300  1.0  -0.0805
  C  C319  1  0.050400  0.861200  0.451800  1.0  -0.0929
  C  C320  1  0.042900  0.915100  0.354100  1.0  -0.0625
  C  C321  1  0.707600  0.225600  0.381900  1.0  -0.1067
  C  C322  1  0.702000  0.241300  0.329900  1.0  -0.0601
  C  C323  1  0.055900  0.793300  0.421900  1.0  -0.0143
  C  C324  1  0.052200  0.820900  0.373600  1.0  -0.1273
  C  C325  1  0.672900  0.182400  0.381900  1.0  0.6995
  C  C326  1  0.062200  0.745500  0.343900  1.0  0.6463
  C  C327  1  0.546000  0.844000  0.650300  1.0  -0.0246
  C  C328  1  0.507170  0.968500  0.652000  1.0  0.0005
  C  C329  1  0.571600  0.000700  0.670200  1.0  -0.027
  C  C330  1  0.427800  0.944700  0.470300  1.0  0.6919
  C  C331  1  0.512470  0.829300  0.480800  1.0  0.6881
  C  C332  1  0.567700  0.827700  0.713100  1.0  -0.0048
  C  C333  1  0.525000  0.944400  0.712000  1.0  0.0049
  C  C334  1  0.588700  0.986000  0.731500  1.0  -0.0204
  C  C335  1  0.386270  0.911900  0.444300  1.0  -0.1621
  C  C336  1  0.520100  0.728000  0.471800  1.0  -0.161
  C  C337  1  0.372600  0.881200  0.476400  1.0  -0.1242
  C  C338  1  0.361200  0.912000  0.388500  1.0  -0.0671
  C  C339  1  0.528600  0.655500  0.509600  1.0  -0.0194
  C  C340  1  0.517600  0.707200  0.424000  1.0  -0.0667
  C  C341  1  0.333680  0.850400  0.449700  1.0  0.1405
  C  C342  1  0.324100  0.879800  0.362500  1.0  -0.1069
  C  C343  1  0.537000  0.563200  0.502300  1.0  -0.1154
  C  C344  1  0.525800  0.612900  0.416200  1.0  0.1113
  C  C345  1  0.308000  0.845900  0.393700  1.0  -0.0378
  C  C346  1  0.534700  0.541500  0.455400  1.0  -0.0599
  C  C347  1  0.273530  0.787500  0.428000  1.0  0.1201
  C  C348  1  0.269700  0.804000  0.377700  1.0  -0.1411
  C  C349  1  0.541000  0.452900  0.433500  1.0  -0.0296
  C  C350  1  0.536700  0.477100  0.385800  1.0  0.1543
  C  C351  1  0.242620  0.746900  0.429800  1.0  -0.0317
  C  C352  1  0.234000  0.778800  0.329300  1.0  -0.0805
  C  C353  1  0.550400  0.361200  0.451800  1.0  -0.0929
  C  C354  1  0.542900  0.415100  0.354100  1.0  -0.0625
  C  C355  1  0.207600  0.725600  0.381900  1.0  -0.1067
  C  C356  1  0.202000  0.741300  0.329900  1.0  -0.0601
  C  C357  1  0.555900  0.293300  0.421900  1.0  -0.0143
  C  C358  1  0.552200  0.320900  0.373600  1.0  -0.1273
  C  C359  1  0.172900  0.682400  0.381900  1.0  0.6996
  C  C360  1  0.562200  0.245500  0.343900  1.0  0.6463
  C  C361  1  0.046000  0.656000  0.150300  1.0  -0.0255
  C  C362  1  0.007170  0.531500  0.152000  1.0  0.0005
  C  C363  1  0.071600  0.499300  0.170200  1.0  -0.0272
  C  C364  1  0.927800  0.555300  0.970300  1.0  0.6929
  C  C365  1  0.012470  0.670700  0.980800  1.0  0.6876
  C  C366  1  0.067700  0.672300  0.213100  1.0  -0.0051
  C  C367  1  0.025000  0.555600  0.212000  1.0  0.0043
  C  C368  1  0.088700  0.514000  0.231500  1.0  -0.022
  C  C369  1  0.886270  0.588100  0.944300  1.0  -0.1627
  C  C370  1  0.020100  0.772000  0.971800  1.0  -0.1596
  C  C371  1  0.872600  0.618800  0.976400  1.0  -0.1245
  C  C372  1  0.861200  0.588000  0.888500  1.0  -0.0666
  C  C373  1  0.028600  0.844500  0.009600  1.0  -0.0197
  C  C374  1  0.017600  0.792800  0.924000  1.0  -0.0665
  C  C375  1  0.833680  0.649600  0.949700  1.0  0.1401
  C  C376  1  0.824100  0.620200  0.862500  1.0  -0.1068
  C  C377  1  0.037000  0.936800  0.002300  1.0  -0.1159
  C  C378  1  0.025800  0.887100  0.916200  1.0  0.1089
  C  C379  1  0.808000  0.654100  0.893700  1.0  -0.0377
  C  C380  1  0.034700  0.958500  0.955400  1.0  -0.06
  C  C381  1  0.773530  0.712500  0.928000  1.0  0.12
  C  C382  1  0.769700  0.696000  0.877700  1.0  -0.1418
  C  C383  1  0.041000  0.047100  0.933500  1.0  -0.0305
  C  C384  1  0.036700  0.022900  0.885800  1.0  0.1532
  C  C385  1  0.742620  0.753100  0.929800  1.0  -0.0324
  C  C386  1  0.734000  0.721200  0.829300  1.0  -0.08
  C  C387  1  0.050400  0.138800  0.951800  1.0  -0.0926
  C  C388  1  0.042900  0.084900  0.854100  1.0  -0.0619
  C  C389  1  0.707600  0.774400  0.881900  1.0  -0.1072
  C  C390  1  0.702000  0.758700  0.829900  1.0  -0.0608
  C  C391  1  0.055900  0.206700  0.921900  1.0  -0.0154
  C  C392  1  0.052200  0.179100  0.873600  1.0  -0.1266
  C  C393  1  0.672900  0.817600  0.881900  1.0  0.7091
  C  C394  1  0.062200  0.254500  0.843900  1.0  0.6464
  C  C395  1  0.546000  0.156000  0.150300  1.0  -0.0255
  C  C396  1  0.507170  0.031500  0.152000  1.0  0.0005
  C  C397  1  0.571600  0.999300  0.170200  1.0  -0.0272
  C  C398  1  0.427800  0.055300  0.970300  1.0  0.6929
  C  C399  1  0.512470  0.170700  0.980800  1.0  0.6876
  C  C400  1  0.567700  0.172300  0.213100  1.0  -0.0051
  C  C401  1  0.525000  0.055600  0.212000  1.0  0.0043
  C  C402  1  0.588700  0.014000  0.231500  1.0  -0.022
  C  C403  1  0.386270  0.088100  0.944300  1.0  -0.1627
  C  C404  1  0.520100  0.272000  0.971800  1.0  -0.1596
  C  C405  1  0.372600  0.118800  0.976400  1.0  -0.1245
  C  C406  1  0.361200  0.088000  0.888500  1.0  -0.0666
  C  C407  1  0.528600  0.344500  0.009600  1.0  -0.0197
  C  C408  1  0.517600  0.292800  0.924000  1.0  -0.0665
  C  C409  1  0.333680  0.149600  0.949700  1.0  0.1407
  C  C410  1  0.324100  0.120200  0.862500  1.0  -0.1068
  C  C411  1  0.537000  0.436800  0.002300  1.0  -0.1159
  C  C412  1  0.525800  0.387100  0.916200  1.0  0.1089
  C  C413  1  0.308000  0.154100  0.893700  1.0  -0.0377
  C  C414  1  0.534700  0.458500  0.955400  1.0  -0.06
  C  C415  1  0.273530  0.212500  0.928000  1.0  0.12
  C  C416  1  0.269700  0.196000  0.877700  1.0  -0.1418
  C  C417  1  0.541000  0.547100  0.933500  1.0  -0.0305
  C  C418  1  0.536700  0.522900  0.885800  1.0  0.1532
  C  C419  1  0.242620  0.253100  0.929800  1.0  -0.0324
  C  C420  1  0.234000  0.221200  0.829300  1.0  -0.08
  C  C421  1  0.550400  0.638800  0.951800  1.0  -0.0926
  C  C422  1  0.542900  0.584900  0.854100  1.0  -0.0619
  C  C423  1  0.207600  0.274400  0.881900  1.0  -0.1072
  C  C424  1  0.202000  0.258700  0.829900  1.0  -0.0608
  C  C425  1  0.555900  0.706700  0.921900  1.0  -0.0154
  C  C426  1  0.552200  0.679100  0.873600  1.0  -0.1266
  C  C427  1  0.172900  0.317600  0.881900  1.0  0.6999
  C  C428  1  0.562200  0.754500  0.843900  1.0  0.6464
  C  C429  1  0.954000  0.656000  0.349700  1.0  -0.0252
  C  C430  1  0.992830  0.531500  0.348000  1.0  -0.0011
  C  C431  1  0.928400  0.499300  0.329800  1.0  -0.0268
  C  C432  1  0.072200  0.555300  0.529700  1.0  0.692
  C  C433  1  0.987530  0.670700  0.519200  1.0  0.6867
  C  C434  1  0.932300  0.672300  0.286900  1.0  -0.0047
  C  C435  1  0.975000  0.555600  0.288000  1.0  0.0055
  C  C436  1  0.911300  0.514000  0.268500  1.0  -0.022
  C  C437  1  0.113730  0.588100  0.555700  1.0  -0.1629
  C  C438  1  0.979900  0.772000  0.528200  1.0  -0.1611
  C  C439  1  0.127400  0.618800  0.523600  1.0  -0.124
  C  C440  1  0.138800  0.588000  0.611500  1.0  -0.0662
  C  C441  1  0.971400  0.844500  0.490400  1.0  -0.0198
  C  C442  1  0.982400  0.792800  0.576000  1.0  -0.0656
  C  C443  1  0.166320  0.649600  0.550300  1.0  0.1397
  C  C444  1  0.175900  0.620200  0.637500  1.0  -0.1072
  C  C445  1  0.963000  0.936800  0.497700  1.0  -0.1144
  C  C446  1  0.974200  0.887100  0.583800  1.0  0.1104
  C  C447  1  0.192000  0.654100  0.606300  1.0  -0.0392
  C  C448  1  0.965300  0.958500  0.544600  1.0  -0.0596
  C  C449  1  0.226470  0.712500  0.572000  1.0  0.1193
  C  C450  1  0.230300  0.696000  0.622300  1.0  -0.1428
  C  C451  1  0.959000  0.047100  0.566500  1.0  -0.0313
  C  C452  1  0.963300  0.022900  0.614200  1.0  0.1525
  C  C453  1  0.257380  0.753100  0.570200  1.0  -0.0315
  C  C454  1  0.266000  0.721200  0.670700  1.0  -0.0819
  C  C455  1  0.949600  0.138800  0.548200  1.0  -0.0922
  C  C456  1  0.957100  0.084900  0.645900  1.0  -0.0635
  C  C457  1  0.292400  0.774400  0.618100  1.0  -0.107
  C  C458  1  0.298000  0.758700  0.670100  1.0  -0.0598
  C  C459  1  0.944100  0.206700  0.578100  1.0  -0.0152
  C  C460  1  0.947800  0.179100  0.626400  1.0  -0.1268
  C  C461  1  0.327100  0.817600  0.618100  1.0  0.6998
  C  C462  1  0.937800  0.254500  0.656100  1.0  0.646
  C  C463  1  0.454000  0.156000  0.349700  1.0  -0.0252
  C  C464  1  0.492830  0.031500  0.348000  1.0  -0.0011
  C  C465  1  0.428400  0.999300  0.329800  1.0  -0.0268
  C  C466  1  0.572200  0.055300  0.529700  1.0  0.692
  C  C467  1  0.487530  0.170700  0.519200  1.0  0.6867
  C  C468  1  0.432300  0.172300  0.286900  1.0  -0.0047
  C  C469  1  0.475000  0.055600  0.288000  1.0  0.0055
  C  C470  1  0.411300  0.014000  0.268500  1.0  -0.022
  C  C471  1  0.613730  0.088100  0.555700  1.0  -0.1629
  C  C472  1  0.479900  0.272000  0.528200  1.0  -0.1611
  C  C473  1  0.627400  0.118800  0.523600  1.0  -0.124
  C  C474  1  0.638800  0.088000  0.611500  1.0  -0.0662
  C  C475  1  0.471400  0.344500  0.490400  1.0  -0.0198
  C  C476  1  0.482400  0.292800  0.576000  1.0  -0.0656
  C  C477  1  0.666320  0.149600  0.550300  1.0  0.1403
  C  C478  1  0.675900  0.120200  0.637500  1.0  -0.1072
  C  C479  1  0.463000  0.436800  0.497700  1.0  -0.1144
  C  C480  1  0.474200  0.387100  0.583800  1.0  0.1104
  C  C481  1  0.692000  0.154100  0.606300  1.0  -0.0392
  C  C482  1  0.465300  0.458500  0.544600  1.0  -0.0596
  C  C483  1  0.726470  0.212500  0.572000  1.0  0.1193
  C  C484  1  0.730300  0.196000  0.622300  1.0  -0.1428
  C  C485  1  0.459000  0.547100  0.566500  1.0  -0.0313
  C  C486  1  0.463300  0.522900  0.614200  1.0  0.1525
  C  C487  1  0.757380  0.253100  0.570200  1.0  -0.0315
  C  C488  1  0.766000  0.221200  0.670700  1.0  -0.0819
  C  C489  1  0.449600  0.638800  0.548200  1.0  -0.0922
  C  C490  1  0.457100  0.584900  0.645900  1.0  -0.0635
  C  C491  1  0.792400  0.274400  0.618100  1.0  -0.107
  C  C492  1  0.798000  0.258700  0.670100  1.0  -0.0598
  C  C493  1  0.444100  0.706700  0.578100  1.0  -0.0152
  C  C494  1  0.447800  0.679100  0.626400  1.0  -0.1268
  C  C495  1  0.827100  0.317600  0.618100  1.0  0.6999
  C  C496  1  0.437800  0.754500  0.656100  1.0  0.646
  N  N497  1  0.964630  0.444100  0.863310  1.0  -0.1968
  N  N498  1  0.934040  0.411800  0.760950  1.0  -0.2093
  N  N499  1  0.187680  0.315800  0.029680  1.0  -0.2633
  N  N500  1  0.972800  0.074400  0.126200  1.0  -0.2915
  N  N501  1  0.464630  0.944100  0.863310  1.0  -0.1968
  N  N502  1  0.434040  0.911800  0.760950  1.0  -0.2093
  N  N503  1  0.687680  0.815800  0.029680  1.0  -0.2656
  N  N504  1  0.472800  0.574400  0.126200  1.0  -0.2915
  N  N505  1  0.035370  0.444100  0.636690  1.0  -0.1935
  N  N506  1  0.065960  0.411800  0.739050  1.0  -0.2126
  N  N507  1  0.812320  0.315800  0.470320  1.0  -0.2626
  N  N508  1  0.027200  0.074400  0.373800  1.0  -0.2919
  N  N509  1  0.535370  0.944100  0.636690  1.0  -0.1935
  N  N510  1  0.565960  0.911800  0.739050  1.0  -0.2126
  N  N511  1  0.312320  0.815800  0.470320  1.0  -0.2647
  N  N512  1  0.527200  0.574400  0.373800  1.0  -0.2919
  N  N513  1  0.035370  0.555900  0.136690  1.0  -0.1938
  N  N514  1  0.065960  0.588200  0.239050  1.0  -0.2116
  N  N515  1  0.812320  0.684200  0.970320  1.0  -0.2624
  N  N516  1  0.027200  0.925600  0.873800  1.0  -0.2923
  N  N517  1  0.535370  0.055900  0.136690  1.0  -0.1938
  N  N518  1  0.565960  0.088200  0.239050  1.0  -0.2116
  N  N519  1  0.312320  0.184200  0.970320  1.0  -0.2645
  N  N520  1  0.527200  0.425600  0.873800  1.0  -0.2923
  N  N521  1  0.964630  0.555900  0.363310  1.0  -0.1967
  N  N522  1  0.934040  0.588200  0.260950  1.0  -0.2082
  N  N523  1  0.187680  0.684200  0.529680  1.0  -0.2636
  N  N524  1  0.972800  0.925600  0.626200  1.0  -0.292
  N  N525  1  0.464630  0.055900  0.363310  1.0  -0.1967
  N  N526  1  0.434040  0.088200  0.260950  1.0  -0.2082
  N  N527  1  0.687680  0.184200  0.529680  1.0  -0.2658
  N  N528  1  0.472800  0.425600  0.626200  1.0  -0.292
  O  O529  1  0.048230  0.437700  0.978860  1.0  -0.5916
  O  O530  1  0.983030  0.345700  0.973000  1.0  -0.6014
  O  O531  1  0.938250  0.519300  0.940420  1.0  -0.6297
  O  O532  1  0.001960  0.612100  0.943510  1.0  -0.6095
  O  O533  1  0.855680  0.347800  0.662770  1.0  -0.5943
  O  O534  1  0.928330  0.335300  0.636500  1.0  -0.5905
  O  O535  1  0.325320  0.173300  0.074800  1.0  -0.5988
  O  O536  1  0.936400  0.774400  0.195100  1.0  -0.6768
  O  O537  1  0.548230  0.937700  0.978860  1.0  -0.5916
  O  O538  1  0.483030  0.845700  0.973000  1.0  -0.6014
  O  O539  1  0.438250  0.019300  0.940420  1.0  -0.6297
  O  O540  1  0.501960  0.112100  0.943510  1.0  -0.6095
  O  O541  1  0.355680  0.847800  0.662770  1.0  -0.5943
  O  O542  1  0.428330  0.835300  0.636500  1.0  -0.5905
  O  O543  1  0.825320  0.673300  0.074800  1.0  -0.599
  O  O544  1  0.436400  0.274400  0.195100  1.0  -0.6768
  O  O545  1  0.951770  0.437700  0.521140  1.0  -0.5914
  O  O546  1  0.016970  0.345700  0.527000  1.0  -0.6011
  O  O547  1  0.061750  0.519300  0.559580  1.0  -0.6284
  O  O548  1  0.998040  0.612100  0.556490  1.0  -0.6103
  O  O549  1  0.144320  0.347800  0.837230  1.0  -0.5953
  O  O550  1  0.071670  0.335300  0.863500  1.0  -0.5902
  O  O551  1  0.674680  0.173300  0.425200  1.0  -0.6011
  O  O552  1  0.063600  0.774400  0.304900  1.0  -0.6739
  O  O553  1  0.451770  0.937700  0.521140  1.0  -0.5914
  O  O554  1  0.516970  0.845700  0.527000  1.0  -0.6011
  O  O555  1  0.561750  0.019300  0.559580  1.0  -0.6284
  O  O556  1  0.498040  0.112100  0.556490  1.0  -0.6103
  O  O557  1  0.644320  0.847800  0.837230  1.0  -0.5953
  O  O558  1  0.571670  0.835300  0.863500  1.0  -0.5902
  O  O559  1  0.174680  0.673300  0.425200  1.0  -0.6005
  O  O560  1  0.563600  0.274400  0.304900  1.0  -0.6739
  O  O561  1  0.951770  0.562300  0.021140  1.0  -0.59
  O  O562  1  0.016970  0.654300  0.027000  1.0  -0.6013
  O  O563  1  0.061750  0.480700  0.059580  1.0  -0.629
  O  O564  1  0.998040  0.387900  0.056490  1.0  -0.6102
  O  O565  1  0.144320  0.652200  0.337230  1.0  -0.5958
  O  O566  1  0.071670  0.664700  0.363500  1.0  -0.5916
  O  O567  1  0.674680  0.826700  0.925200  1.0  -0.5985
  O  O568  1  0.063600  0.225600  0.804900  1.0  -0.6734
  O  O569  1  0.451770  0.062300  0.021140  1.0  -0.59
  O  O570  1  0.516970  0.154300  0.027000  1.0  -0.6013
  O  O571  1  0.561750  0.980700  0.059580  1.0  -0.629
  O  O572  1  0.498040  0.887900  0.056490  1.0  -0.6102
  O  O573  1  0.644320  0.152200  0.337230  1.0  -0.5958
  O  O574  1  0.571670  0.164700  0.363500  1.0  -0.5916
  O  O575  1  0.174680  0.326700  0.925200  1.0  -0.5984
  O  O576  1  0.563600  0.725600  0.804900  1.0  -0.6734
  O  O577  1  0.048230  0.562300  0.478860  1.0  -0.5907
  O  O578  1  0.983030  0.654300  0.473000  1.0  -0.6014
  O  O579  1  0.938250  0.480700  0.440420  1.0  -0.6303
  O  O580  1  0.001960  0.387900  0.443510  1.0  -0.6101
  O  O581  1  0.855680  0.652200  0.162770  1.0  -0.5945
  O  O582  1  0.928330  0.664700  0.136500  1.0  -0.5907
  O  O583  1  0.325320  0.826700  0.574800  1.0  -0.6005
  O  O584  1  0.936400  0.225600  0.695100  1.0  -0.6754
  O  O585  1  0.548230  0.062300  0.478860  1.0  -0.5907
  O  O586  1  0.483030  0.154300  0.473000  1.0  -0.6014
  O  O587  1  0.438250  0.980700  0.440420  1.0  -0.6303
  O  O588  1  0.501960  0.887900  0.443510  1.0  -0.6101
  O  O589  1  0.355680  0.152200  0.162770  1.0  -0.5945
  O  O590  1  0.428330  0.164700  0.136500  1.0  -0.5907
  O  O591  1  0.825320  0.326700  0.574800  1.0  -0.6013
  O  O592  1  0.436400  0.725600  0.695100  1.0  -0.6754
