# generated using pymatgen
data_CuC2(SN)2
_symmetry_space_group_name_H-M   'P 1'
_cell_length_a   21.71300000
_cell_length_b   21.71300000
_cell_length_c   14.99800000
_cell_angle_alpha   90.00000000
_cell_angle_beta   90.00000000
_cell_angle_gamma   120.00000000
_symmetry_Int_Tables_number   1
_chemical_formula_structural   CuC2(SN)2
_chemical_formula_sum   'Cu18 C36 S36 N36'
_cell_volume   6123.55532127
_cell_formula_units_Z   18
loop_
 _symmetry_equiv_pos_site_id
 _symmetry_equiv_pos_as_xyz
  1  'x, y, z'
loop_
 _atom_site_type_symbol
 _atom_site_label
 _atom_site_symmetry_multiplicity
 _atom_site_fract_x
 _atom_site_fract_y
 _atom_site_fract_z
 _atom_site_occupancy
 _atom_site_charge
  Cu  Cu1  1  0.089260  0.379410  0.392150  1.0  0.4033
  Cu  Cu2  1  0.755930  0.712740  0.725480  1.0  0.4032
  Cu  Cu3  1  0.422590  0.046080  0.058820  1.0  0.403
  Cu  Cu4  1  0.620590  0.709850  0.392150  1.0  0.4031
  Cu  Cu5  1  0.287260  0.043180  0.725480  1.0  0.4031
  Cu  Cu6  1  0.953920  0.376520  0.058820  1.0  0.4034
  Cu  Cu7  1  0.290150  0.910740  0.392150  1.0  0.4025
  Cu  Cu8  1  0.956820  0.244070  0.725480  1.0  0.4026
  Cu  Cu9  1  0.623480  0.577410  0.058820  1.0  0.4022
  Cu  Cu10  1  0.910740  0.620590  0.607850  1.0  0.4028
  Cu  Cu11  1  0.577410  0.953920  0.941180  1.0  0.4024
  Cu  Cu12  1  0.244070  0.287260  0.274520  1.0  0.4027
  Cu  Cu13  1  0.379410  0.290150  0.607850  1.0  0.4021
  Cu  Cu14  1  0.046080  0.623480  0.941180  1.0  0.4024
  Cu  Cu15  1  0.712740  0.956820  0.274520  1.0  0.4021
  Cu  Cu16  1  0.709850  0.089260  0.607850  1.0  0.4035
  Cu  Cu17  1  0.376520  0.422590  0.941180  1.0  0.4032
  Cu  Cu18  1  0.043180  0.755930  0.274520  1.0  0.4036
  C  C19  1  0.965500  0.344900  0.260500  1.0  0.3572
  C  C20  1  0.113400  0.252600  0.379000  1.0  0.3498
  C  C21  1  0.632170  0.678230  0.593830  1.0  0.3573
  C  C22  1  0.780070  0.585930  0.712330  1.0  0.3461
  C  C23  1  0.298830  0.011570  0.927170  1.0  0.3572
  C  C24  1  0.446730  0.919270  0.045670  1.0  0.3498
  C  C25  1  0.655100  0.620600  0.260500  1.0  0.3542
  C  C26  1  0.747400  0.860800  0.379000  1.0  0.3469
  C  C27  1  0.321770  0.953930  0.593830  1.0  0.3542
  C  C28  1  0.414070  0.194130  0.712330  1.0  0.3512
  C  C29  1  0.988430  0.287270  0.927170  1.0  0.3542
  C  C30  1  0.080730  0.527470  0.045670  1.0  0.3469
  C  C31  1  0.379400  0.034500  0.260500  1.0  0.3574
  C  C32  1  0.139200  0.886600  0.379000  1.0  0.3511
  C  C33  1  0.046070  0.367830  0.593830  1.0  0.3574
  C  C34  1  0.805870  0.219930  0.712330  1.0  0.3471
  C  C35  1  0.712730  0.701170  0.927170  1.0  0.3575
  C  C36  1  0.472530  0.553270  0.045670  1.0  0.3511
  C  C37  1  0.034500  0.655100  0.739500  1.0  0.3566
  C  C38  1  0.886600  0.747400  0.621000  1.0  0.3523
  C  C39  1  0.701170  0.988430  0.072830  1.0  0.3566
  C  C40  1  0.553270  0.080730  0.954330  1.0  0.3523
  C  C41  1  0.367830  0.321770  0.406170  1.0  0.3567
  C  C42  1  0.219930  0.414070  0.287670  1.0  0.3484
  C  C43  1  0.344900  0.379400  0.739500  1.0  0.3573
  C  C44  1  0.252600  0.139200  0.621000  1.0  0.3466
  C  C45  1  0.011570  0.712730  0.072830  1.0  0.3573
  C  C46  1  0.919270  0.472530  0.954330  1.0  0.3466
  C  C47  1  0.678230  0.046070  0.406170  1.0  0.3573
  C  C48  1  0.585930  0.805870  0.287670  1.0  0.3504
  C  C49  1  0.620600  0.965500  0.739500  1.0  0.3577
  C  C50  1  0.860800  0.113400  0.621000  1.0  0.3508
  C  C51  1  0.287270  0.298830  0.072830  1.0  0.3578
  C  C52  1  0.527470  0.446730  0.954330  1.0  0.3508
  C  C53  1  0.953930  0.632170  0.406170  1.0  0.3577
  C  C54  1  0.194130  0.780070  0.287670  1.0  0.3467
  S  S55  1  0.899180  0.322380  0.190300  1.0  -0.1921
  S  S56  1  0.135770  0.194350  0.344990  1.0  -0.1822
  S  S57  1  0.565850  0.655710  0.523630  1.0  -0.1921
  S  S58  1  0.802440  0.527680  0.678320  1.0  -0.1853
  S  S59  1  0.232510  0.989050  0.856970  1.0  -0.1927
  S  S60  1  0.469100  0.861020  0.011660  1.0  -0.182
  S  S61  1  0.677620  0.576800  0.190300  1.0  -0.1966
  S  S62  1  0.805650  0.941420  0.344990  1.0  -0.1741
  S  S63  1  0.344290  0.910130  0.523630  1.0  -0.1989
  S  S64  1  0.472320  0.274750  0.678320  1.0  -0.1786
  S  S65  1  0.010950  0.243470  0.856970  1.0  -0.1986
  S  S66  1  0.138980  0.608090  0.011660  1.0  -0.1741
  S  S67  1  0.423200  0.100820  0.190300  1.0  -0.1985
  S  S68  1  0.058580  0.864230  0.344990  1.0  -0.1824
  S  S69  1  0.089870  0.434150  0.523630  1.0  -0.195
  S  S70  1  0.725250  0.197560  0.678320  1.0  -0.1742
  S  S71  1  0.756530  0.767490  0.856970  1.0  -0.2012
  S  S72  1  0.391910  0.530900  0.011660  1.0  -0.1813
  S  S73  1  0.100820  0.677620  0.809700  1.0  -0.1949
  S  S74  1  0.864230  0.805650  0.655010  1.0  -0.1847
  S  S75  1  0.767490  0.010950  0.143030  1.0  -0.1955
  S  S76  1  0.530900  0.138980  0.988340  1.0  -0.1845
  S  S77  1  0.434150  0.344290  0.476370  1.0  -0.1942
  S  S78  1  0.197560  0.472320  0.321680  1.0  -0.1862
  S  S79  1  0.322380  0.423200  0.809700  1.0  -0.1943
  S  S80  1  0.194350  0.058580  0.655010  1.0  -0.1757
  S  S81  1  0.989050  0.756530  0.143030  1.0  -0.1958
  S  S82  1  0.861020  0.391910  0.988340  1.0  -0.1757
  S  S83  1  0.655710  0.089870  0.476370  1.0  -0.1973
  S  S84  1  0.527680  0.725250  0.321680  1.0  -0.1809
  S  S85  1  0.576800  0.899180  0.809700  1.0  -0.198
  S  S86  1  0.941420  0.135770  0.655010  1.0  -0.182
  S  S87  1  0.243470  0.232510  0.143030  1.0  -0.2015
  S  S88  1  0.608090  0.469100  0.988340  1.0  -0.181
  S  S89  1  0.910130  0.565850  0.476370  1.0  -0.1962
  S  S90  1  0.274750  0.802440  0.321680  1.0  -0.1744
  N  N91  1  0.010400  0.359200  0.310200  1.0  -0.308
  N  N92  1  0.098910  0.294600  0.402000  1.0  -0.4234
  N  N93  1  0.677070  0.692530  0.643530  1.0  -0.308
  N  N94  1  0.765580  0.627930  0.735330  1.0  -0.4237
  N  N95  1  0.343730  0.025870  0.976870  1.0  -0.308
  N  N96  1  0.432240  0.961270  0.068670  1.0  -0.4237
  N  N97  1  0.640800  0.651200  0.310200  1.0  -0.3071
  N  N98  1  0.705400  0.804310  0.402000  1.0  -0.4266
  N  N99  1  0.307470  0.984530  0.643530  1.0  -0.3071
  N  N100  1  0.372070  0.137640  0.735330  1.0  -0.4266
  N  N101  1  0.974130  0.317870  0.976870  1.0  -0.3071
  N  N102  1  0.038730  0.470980  0.068670  1.0  -0.4262
  N  N103  1  0.348800  0.989600  0.310200  1.0  -0.3096
  N  N104  1  0.195690  0.901090  0.402000  1.0  -0.4225
  N  N105  1  0.015470  0.322930  0.643530  1.0  -0.3096
  N  N106  1  0.862360  0.234420  0.735330  1.0  -0.4225
  N  N107  1  0.682130  0.656270  0.976870  1.0  -0.3096
  N  N108  1  0.529020  0.567760  0.068670  1.0  -0.4229
  N  N109  1  0.989600  0.640800  0.689800  1.0  -0.3072
  N  N110  1  0.901090  0.705400  0.598000  1.0  -0.4229
  N  N111  1  0.656270  0.974130  0.023130  1.0  -0.3072
  N  N112  1  0.567760  0.038730  0.931330  1.0  -0.4233
  N  N113  1  0.322930  0.307470  0.356470  1.0  -0.3072
  N  N114  1  0.234420  0.372070  0.264670  1.0  -0.4233
  N  N115  1  0.359200  0.348800  0.689800  1.0  -0.3081
  N  N116  1  0.294600  0.195690  0.598000  1.0  -0.4251
  N  N117  1  0.025870  0.682130  0.023130  1.0  -0.3081
  N  N118  1  0.961270  0.529020  0.931330  1.0  -0.4246
  N  N119  1  0.692530  0.015470  0.356470  1.0  -0.3081
  N  N120  1  0.627930  0.862360  0.264670  1.0  -0.4251
  N  N121  1  0.651200  0.010400  0.689800  1.0  -0.3092
  N  N122  1  0.804310  0.098910  0.598000  1.0  -0.425
  N  N123  1  0.317870  0.343730  0.023130  1.0  -0.3092
  N  N124  1  0.470980  0.432240  0.931330  1.0  -0.4254
  N  N125  1  0.984530  0.677070  0.356470  1.0  -0.3092
  N  N126  1  0.137640  0.765580  0.264670  1.0  -0.425
