# generated using pymatgen
data_Ag2H10(C3N2)5
_symmetry_space_group_name_H-M   'P 1'
_cell_length_a   17.00760000
_cell_length_b   17.00760000
_cell_length_c   7.85910000
_cell_angle_alpha   90.00000000
_cell_angle_beta   90.00000000
_cell_angle_gamma   90.00000000
_symmetry_Int_Tables_number   1
_chemical_formula_structural   Ag2H10(C3N2)5
_chemical_formula_sum   'Ag8 H40 C60 N40'
_cell_volume   2273.31114538
_cell_formula_units_Z   4
loop_
 _symmetry_equiv_pos_site_id
 _symmetry_equiv_pos_as_xyz
  1  'x, y, z'
loop_
 _atom_site_type_symbol
 _atom_site_label
 _atom_site_symmetry_multiplicity
 _atom_site_fract_x
 _atom_site_fract_y
 _atom_site_fract_z
 _atom_site_occupancy
 _atom_site_charge
  Ag  Ag1  1  0.187350  0.187350  0.758930  1.0  0.2975
  Ag  Ag2  1  0.812650  0.812650  0.758930  1.0  0.2989
  Ag  Ag3  1  0.812650  0.812650  0.241070  1.0  0.3012
  Ag  Ag4  1  0.187350  0.187350  0.241070  1.0  0.2995
  Ag  Ag5  1  0.687350  0.312650  0.258930  1.0  0.2978
  Ag  Ag6  1  0.312650  0.687350  0.258930  1.0  0.2986
  Ag  Ag7  1  0.312650  0.687350  0.741070  1.0  0.3008
  Ag  Ag8  1  0.687350  0.312650  0.741070  1.0  0.2999
  H  H9  1  0.687900  0.121900  0.211400  1.0  0.0397
  H  H10  1  0.732900  0.978300  0.211800  1.0  0.047
  H  H11  1  0.312100  0.878100  0.211400  1.0  0.0394
  H  H12  1  0.267100  0.021700  0.211800  1.0  0.047
  H  H13  1  0.121900  0.687900  0.788600  1.0  0.0385
  H  H14  1  0.978300  0.732900  0.788200  1.0  0.0464
  H  H15  1  0.878100  0.312100  0.788600  1.0  0.0387
  H  H16  1  0.021700  0.267100  0.788200  1.0  0.0465
  H  H17  1  0.312100  0.878100  0.788600  1.0  0.0386
  H  H18  1  0.267100  0.021700  0.788200  1.0  0.0467
  H  H19  1  0.687900  0.121900  0.788600  1.0  0.039
  H  H20  1  0.732900  0.978300  0.788200  1.0  0.0467
  H  H21  1  0.878100  0.312100  0.211400  1.0  0.0396
  H  H22  1  0.021700  0.267100  0.211800  1.0  0.0469
  H  H23  1  0.121900  0.687900  0.211400  1.0  0.0393
  H  H24  1  0.978300  0.732900  0.211800  1.0  0.0469
  H  H25  1  0.053000  0.053000  0.713000  1.0  0.0429
  H  H26  1  0.947000  0.947000  0.713000  1.0  0.0428
  H  H27  1  0.947000  0.947000  0.287000  1.0  0.043
  H  H28  1  0.053000  0.053000  0.287000  1.0  0.043
  H  H29  1  0.378100  0.187900  0.711400  1.0  0.0396
  H  H30  1  0.521700  0.232900  0.711800  1.0  0.0468
  H  H31  1  0.621900  0.812100  0.711400  1.0  0.0394
  H  H32  1  0.478300  0.767100  0.711800  1.0  0.0469
  H  H33  1  0.812100  0.621900  0.288600  1.0  0.0391
  H  H34  1  0.767100  0.478300  0.288200  1.0  0.0465
  H  H35  1  0.187900  0.378100  0.288600  1.0  0.0385
  H  H36  1  0.232900  0.521700  0.288200  1.0  0.0467
  H  H37  1  0.621900  0.812100  0.288600  1.0  0.0385
  H  H38  1  0.478300  0.767100  0.288200  1.0  0.0464
  H  H39  1  0.378100  0.187900  0.288600  1.0  0.0387
  H  H40  1  0.521700  0.232900  0.288200  1.0  0.0466
  H  H41  1  0.187900  0.378100  0.711400  1.0  0.0394
  H  H42  1  0.232900  0.521700  0.711800  1.0  0.0471
  H  H43  1  0.812100  0.621900  0.711400  1.0  0.0398
  H  H44  1  0.767100  0.478300  0.711800  1.0  0.0469
  H  H45  1  0.553000  0.447000  0.213000  1.0  0.0426
  H  H46  1  0.447000  0.553000  0.213000  1.0  0.0432
  H  H47  1  0.447000  0.553000  0.787000  1.0  0.0433
  H  H48  1  0.553000  0.447000  0.787000  1.0  0.0428
  C  C49  1  0.690300  0.121300  0.330900  1.0  0.1556
  C  C50  1  0.710200  0.050450  0.411900  1.0  -0.0071
  C  C51  1  0.733400  0.979800  0.331400  1.0  0.1585
  C  C52  1  0.309700  0.878700  0.330900  1.0  0.1551
  C  C53  1  0.289800  0.949550  0.411900  1.0  -0.0068
  C  C54  1  0.266600  0.020200  0.331400  1.0  0.1582
  C  C55  1  0.121300  0.690300  0.669100  1.0  0.1548
  C  C56  1  0.050450  0.710200  0.588100  1.0  -0.0063
  C  C57  1  0.979800  0.733400  0.668600  1.0  0.1581
  C  C58  1  0.878700  0.309700  0.669100  1.0  0.1553
  C  C59  1  0.949550  0.289800  0.588100  1.0  -0.0061
  C  C60  1  0.020200  0.266600  0.668600  1.0  0.1567
  C  C61  1  0.309700  0.878700  0.669100  1.0  0.1546
  C  C62  1  0.289800  0.949550  0.588100  1.0  -0.0084
  C  C63  1  0.266600  0.020200  0.668600  1.0  0.1577
  C  C64  1  0.690300  0.121300  0.669100  1.0  0.155
  C  C65  1  0.710200  0.050450  0.588100  1.0  -0.0085
  C  C66  1  0.733400  0.979800  0.668600  1.0  0.1575
  C  C67  1  0.878700  0.309700  0.330900  1.0  0.1533
  C  C68  1  0.949550  0.289800  0.411900  1.0  -0.0044
  C  C69  1  0.020200  0.266600  0.331400  1.0  0.1575
  C  C70  1  0.121300  0.690300  0.330900  1.0  0.1527
  C  C71  1  0.050450  0.710200  0.411900  1.0  -0.0054
  C  C72  1  0.979800  0.733400  0.331400  1.0  0.1583
  C  C73  1  0.052200  0.052200  0.832600  1.0  0.1429
  C  C74  1  0.947800  0.947800  0.832600  1.0  0.1424
  C  C75  1  0.947800  0.947800  0.167400  1.0  0.1423
  C  C76  1  0.052200  0.052200  0.167400  1.0  0.1411
  C  C77  1  0.000000  0.000000  0.913400  1.0  0.0005
  C  C78  1  0.000000  0.000000  0.086600  1.0  0.0005
  C  C79  1  0.378700  0.190300  0.830900  1.0  0.1546
  C  C80  1  0.449550  0.210200  0.911900  1.0  -0.0053
  C  C81  1  0.520200  0.233400  0.831400  1.0  0.1573
  C  C82  1  0.621300  0.809700  0.830900  1.0  0.1541
  C  C83  1  0.550450  0.789800  0.911900  1.0  -0.0046
  C  C84  1  0.479800  0.766600  0.831400  1.0  0.1584
  C  C85  1  0.809700  0.621300  0.169100  1.0  0.1556
  C  C86  1  0.789800  0.550450  0.088100  1.0  -0.0084
  C  C87  1  0.766600  0.479800  0.168600  1.0  0.1576
  C  C88  1  0.190300  0.378700  0.169100  1.0  0.1563
  C  C89  1  0.210200  0.449550  0.088100  1.0  -0.0085
  C  C90  1  0.233400  0.520200  0.168600  1.0  0.1574
  C  C91  1  0.621300  0.809700  0.169100  1.0  0.1533
  C  C92  1  0.550450  0.789800  0.088100  1.0  -0.0061
  C  C93  1  0.479800  0.766600  0.168600  1.0  0.1581
  C  C94  1  0.378700  0.190300  0.169100  1.0  0.154
  C  C95  1  0.449550  0.210200  0.088100  1.0  -0.0062
  C  C96  1  0.520200  0.233400  0.168600  1.0  0.1567
  C  C97  1  0.190300  0.378700  0.830900  1.0  0.1544
  C  C98  1  0.210200  0.449550  0.911900  1.0  -0.0071
  C  C99  1  0.233400  0.520200  0.831400  1.0  0.1582
  C  C100  1  0.809700  0.621300  0.830900  1.0  0.1538
  C  C101  1  0.789800  0.550450  0.911900  1.0  -0.0067
  C  C102  1  0.766600  0.479800  0.831400  1.0  0.1581
  C  C103  1  0.552200  0.447800  0.332600  1.0  0.1428
  C  C104  1  0.447800  0.552200  0.332600  1.0  0.1426
  C  C105  1  0.447800  0.552200  0.667400  1.0  0.1408
  C  C106  1  0.552200  0.447800  0.667400  1.0  0.1409
  C  C107  1  0.500000  0.500000  0.413400  1.0  0.0005
  C  C108  1  0.500000  0.500000  0.586600  1.0  0.0005
  N  N109  1  0.675100  0.186190  0.412400  1.0  -0.2595
  N  N110  1  0.755620  0.916470  0.412600  1.0  -0.2524
  N  N111  1  0.324900  0.813810  0.412400  1.0  -0.2601
  N  N112  1  0.244380  0.083530  0.412600  1.0  -0.2528
  N  N113  1  0.186190  0.675100  0.587600  1.0  -0.259
  N  N114  1  0.916470  0.755620  0.587400  1.0  -0.2533
  N  N115  1  0.813810  0.324900  0.587600  1.0  -0.2564
  N  N116  1  0.083530  0.244380  0.587400  1.0  -0.2526
  N  N117  1  0.324900  0.813810  0.587600  1.0  -0.2591
  N  N118  1  0.244380  0.083530  0.587400  1.0  -0.2531
  N  N119  1  0.675100  0.186190  0.587600  1.0  -0.2586
  N  N120  1  0.755620  0.916470  0.587400  1.0  -0.2525
  N  N121  1  0.813810  0.324900  0.412400  1.0  -0.2575
  N  N122  1  0.083530  0.244380  0.412600  1.0  -0.2524
  N  N123  1  0.186190  0.675100  0.412400  1.0  -0.2598
  N  N124  1  0.916470  0.755620  0.412600  1.0  -0.2532
  N  N125  1  0.099640  0.099640  0.913500  1.0  -0.2435
  N  N126  1  0.900360  0.900360  0.913500  1.0  -0.2447
  N  N127  1  0.900360  0.900360  0.086500  1.0  -0.2448
  N  N128  1  0.099640  0.099640  0.086500  1.0  -0.244
  N  N129  1  0.313810  0.175100  0.912400  1.0  -0.2579
  N  N130  1  0.583530  0.255620  0.912600  1.0  -0.253
  N  N131  1  0.686190  0.824900  0.912400  1.0  -0.2594
  N  N132  1  0.416470  0.744380  0.912600  1.0  -0.2532
  N  N133  1  0.824900  0.686190  0.087600  1.0  -0.2588
  N  N134  1  0.744380  0.416470  0.087400  1.0  -0.2534
  N  N135  1  0.175100  0.313810  0.087600  1.0  -0.2591
  N  N136  1  0.255620  0.583530  0.087400  1.0  -0.2527
  N  N137  1  0.686190  0.824900  0.087600  1.0  -0.2587
  N  N138  1  0.416470  0.744380  0.087400  1.0  -0.2533
  N  N139  1  0.313810  0.175100  0.087600  1.0  -0.2567
  N  N140  1  0.583530  0.255620  0.087400  1.0  -0.2532
  N  N141  1  0.175100  0.313810  0.912400  1.0  -0.2601
  N  N142  1  0.255620  0.583530  0.912600  1.0  -0.2522
  N  N143  1  0.824900  0.686190  0.912400  1.0  -0.2597
  N  N144  1  0.744380  0.416470  0.912600  1.0  -0.2534
  N  N145  1  0.599640  0.400360  0.413500  1.0  -0.2436
  N  N146  1  0.400360  0.599640  0.413500  1.0  -0.2442
  N  N147  1  0.400360  0.599640  0.586500  1.0  -0.2449
  N  N148  1  0.599640  0.400360  0.586500  1.0  -0.2439
