# generated using pymatgen
data_Ag2H10(C3N2)5
_symmetry_space_group_name_H-M   'P 1'
_cell_length_a   17.08010000
_cell_length_b   17.07820000
_cell_length_c   7.59200000
_cell_angle_alpha   90.00000000
_cell_angle_beta   90.00000000
_cell_angle_gamma   90.00000000
_symmetry_Int_Tables_number   1
_chemical_formula_structural   Ag2H10(C3N2)5
_chemical_formula_sum   'Ag8 H40 C60 N40'
_cell_volume   2214.56638612
_cell_formula_units_Z   4
loop_
 _symmetry_equiv_pos_site_id
 _symmetry_equiv_pos_as_xyz
  1  'x, y, z'
loop_
 _atom_site_type_symbol
 _atom_site_label
 _atom_site_symmetry_multiplicity
 _atom_site_fract_x
 _atom_site_fract_y
 _atom_site_fract_z
 _atom_site_occupancy
 _atom_site_charge
  Ag  Ag1  1  0.814160  0.189780  0.243460  1.0  0.4058
  Ag  Ag2  1  0.185840  0.810220  0.243460  1.0  0.4066
  Ag  Ag3  1  0.685840  0.689780  0.256540  1.0  0.4061
  Ag  Ag4  1  0.314160  0.310220  0.256540  1.0  0.4048
  Ag  Ag5  1  0.185840  0.810220  0.756540  1.0  0.4063
  Ag  Ag6  1  0.814160  0.189780  0.756540  1.0  0.4049
  Ag  Ag7  1  0.314160  0.310220  0.743460  1.0  0.4056
  Ag  Ag8  1  0.685840  0.689780  0.743460  1.0  0.4065
  H  H9  1  0.947800  0.053700  0.299500  1.0  0.0514
  H  H10  1  0.627600  0.201400  0.298300  1.0  0.0471
  H  H11  1  0.483900  0.243200  0.296900  1.0  0.0288
  H  H12  1  0.826300  0.386400  0.301500  1.0  0.0656
  H  H13  1  0.775400  0.524700  0.305800  1.0  0.0792
  H  H14  1  0.052200  0.946300  0.299500  1.0  0.0512
  H  H15  1  0.372400  0.798600  0.298300  1.0  0.0466
  H  H16  1  0.516100  0.756800  0.296900  1.0  0.0286
  H  H17  1  0.173700  0.613600  0.301500  1.0  0.0655
  H  H18  1  0.224600  0.475300  0.305800  1.0  0.0796
  H  H19  1  0.552200  0.553700  0.200500  1.0  0.0512
  H  H20  1  0.872400  0.701400  0.201700  1.0  0.0478
  H  H21  1  0.016100  0.743200  0.203100  1.0  0.0296
  H  H22  1  0.673700  0.886400  0.198500  1.0  0.0659
  H  H23  1  0.724600  0.024700  0.194200  1.0  0.0795
  H  H24  1  0.447800  0.446300  0.200500  1.0  0.0512
  H  H25  1  0.127600  0.298600  0.201700  1.0  0.048
  H  H26  1  0.983900  0.256800  0.203100  1.0  0.0293
  H  H27  1  0.326300  0.113600  0.198500  1.0  0.0656
  H  H28  1  0.275400  0.975300  0.194200  1.0  0.0794
  H  H29  1  0.052200  0.946300  0.700500  1.0  0.051
  H  H30  1  0.372400  0.798600  0.701700  1.0  0.0477
  H  H31  1  0.516100  0.756800  0.703100  1.0  0.0294
  H  H32  1  0.173700  0.613600  0.698500  1.0  0.0657
  H  H33  1  0.224600  0.475300  0.694200  1.0  0.0796
  H  H34  1  0.947800  0.053700  0.700500  1.0  0.0513
  H  H35  1  0.627600  0.201400  0.701700  1.0  0.048
  H  H36  1  0.483900  0.243200  0.703100  1.0  0.0295
  H  H37  1  0.826300  0.386400  0.698500  1.0  0.0657
  H  H38  1  0.775400  0.524700  0.694200  1.0  0.0794
  H  H39  1  0.447800  0.446300  0.799500  1.0  0.0513
  H  H40  1  0.127600  0.298600  0.798300  1.0  0.0469
  H  H41  1  0.983900  0.256800  0.796900  1.0  0.0282
  H  H42  1  0.326300  0.113600  0.801500  1.0  0.0655
  H  H43  1  0.275400  0.975300  0.805800  1.0  0.0793
  H  H44  1  0.552200  0.553700  0.799500  1.0  0.0514
  H  H45  1  0.872400  0.701400  0.798300  1.0  0.0469
  H  H46  1  0.016100  0.743200  0.796900  1.0  0.0291
  H  H47  1  0.673700  0.886400  0.801500  1.0  0.0657
  H  H48  1  0.724600  0.024700  0.805800  1.0  0.0795
  C  C49  1  0.948700  0.053000  0.175700  1.0  0.134
  C  C50  1  0.626900  0.204900  0.174700  1.0  0.146
  C  C51  1  0.555400  0.222000  0.094300  1.0  -0.0325
  C  C52  1  0.485200  0.243100  0.173100  1.0  0.1703
  C  C53  1  0.824100  0.386400  0.177800  1.0  0.1395
  C  C54  1  0.802700  0.456800  0.087500  1.0  -0.0334
  C  C55  1  0.775500  0.523800  0.182000  1.0  0.1061
  C  C56  1  0.051300  0.947000  0.175700  1.0  0.1343
  C  C57  1  0.373100  0.795100  0.174700  1.0  0.1455
  C  C58  1  0.444600  0.778000  0.094300  1.0  -0.0326
  C  C59  1  0.514800  0.756900  0.173100  1.0  0.169
  C  C60  1  0.175900  0.613600  0.177800  1.0  0.1403
  C  C61  1  0.197300  0.543200  0.087500  1.0  -0.0333
  C  C62  1  0.224500  0.476200  0.182000  1.0  0.1061
  C  C63  1  0.551300  0.553000  0.324300  1.0  0.1353
  C  C64  1  0.873100  0.704900  0.325300  1.0  0.1452
  C  C65  1  0.944600  0.722000  0.405700  1.0  -0.0326
  C  C66  1  0.014800  0.743100  0.326900  1.0  0.1696
  C  C67  1  0.675900  0.886400  0.322200  1.0  0.1414
  C  C68  1  0.697300  0.956800  0.412500  1.0  -0.0328
  C  C69  1  0.724500  0.023800  0.318000  1.0  0.1077
  C  C70  1  0.448700  0.447000  0.324300  1.0  0.1353
  C  C71  1  0.126900  0.295100  0.325300  1.0  0.1458
  C  C72  1  0.055400  0.278000  0.405700  1.0  -0.0312
  C  C73  1  0.985200  0.256900  0.326900  1.0  0.17
  C  C74  1  0.324100  0.113600  0.322200  1.0  0.141
  C  C75  1  0.302700  0.043200  0.412500  1.0  -0.0331
  C  C76  1  0.275500  0.976200  0.318000  1.0  0.1072
  C  C77  1  0.051300  0.947000  0.824300  1.0  0.1337
  C  C78  1  0.373100  0.795100  0.825300  1.0  0.1444
  C  C79  1  0.444600  0.778000  0.905700  1.0  -0.0316
  C  C80  1  0.514800  0.756900  0.826900  1.0  0.1697
  C  C81  1  0.175900  0.613600  0.822200  1.0  0.1419
  C  C82  1  0.197300  0.543200  0.912500  1.0  -0.0329
  C  C83  1  0.224500  0.476200  0.818000  1.0  0.1045
  C  C84  1  0.948700  0.053000  0.824300  1.0  0.1333
  C  C85  1  0.626900  0.204900  0.825300  1.0  0.1445
  C  C86  1  0.555400  0.222000  0.905700  1.0  -0.0321
  C  C87  1  0.485200  0.243100  0.826900  1.0  0.1704
  C  C88  1  0.824100  0.386400  0.822200  1.0  0.1405
  C  C89  1  0.802700  0.456800  0.912500  1.0  -0.033
  C  C90  1  0.775500  0.523800  0.818000  1.0  0.1047
  C  C91  1  0.448700  0.447000  0.675700  1.0  0.1324
  C  C92  1  0.126900  0.295100  0.674700  1.0  0.1451
  C  C93  1  0.055400  0.278000  0.594300  1.0  -0.0322
  C  C94  1  0.985200  0.256900  0.673100  1.0  0.17
  C  C95  1  0.324100  0.113600  0.677800  1.0  0.14
  C  C96  1  0.302700  0.043200  0.587500  1.0  -0.0335
  C  C97  1  0.275500  0.976200  0.682000  1.0  0.1028
  C  C98  1  0.551300  0.553000  0.675700  1.0  0.1327
  C  C99  1  0.873100  0.704900  0.674700  1.0  0.1445
  C  C100  1  0.944600  0.722000  0.594300  1.0  -0.0329
  C  C101  1  0.014800  0.743100  0.673100  1.0  0.1692
  C  C102  1  0.675900  0.886400  0.677800  1.0  0.1399
  C  C103  1  0.697300  0.956800  0.587500  1.0  -0.0332
  C  C104  1  0.724500  0.023800  0.682000  1.0  0.1032
  C  C105  1  0.000000  0.000000  0.088300  1.0  0.0093
  C  C106  1  0.500000  0.500000  0.411700  1.0  0.0097
  C  C107  1  0.000000  0.000000  0.911700  1.0  0.0097
  C  C108  1  0.500000  0.500000  0.588300  1.0  0.0093
  N  N109  1  0.903100  0.100500  0.090400  1.0  -0.2538
  N  N110  1  0.693200  0.193100  0.091300  1.0  -0.2829
  N  N111  1  0.421400  0.262700  0.092900  1.0  -0.2432
  N  N112  1  0.840800  0.320800  0.090900  1.0  -0.2706
  N  N113  1  0.749900  0.585800  0.087400  1.0  -0.2647
  N  N114  1  0.096900  0.899500  0.090400  1.0  -0.2549
  N  N115  1  0.306800  0.806900  0.091300  1.0  -0.2805
  N  N116  1  0.578600  0.737300  0.092900  1.0  -0.2422
  N  N117  1  0.159200  0.679200  0.090900  1.0  -0.2704
  N  N118  1  0.250100  0.414200  0.087400  1.0  -0.2623
  N  N119  1  0.596900  0.600500  0.409600  1.0  -0.2533
  N  N120  1  0.806800  0.693100  0.408700  1.0  -0.2808
  N  N121  1  0.078600  0.762700  0.407100  1.0  -0.2418
  N  N122  1  0.659200  0.820800  0.409100  1.0  -0.2702
  N  N123  1  0.750100  0.085800  0.412600  1.0  -0.2639
  N  N124  1  0.403100  0.399500  0.409600  1.0  -0.2549
  N  N125  1  0.193200  0.306900  0.408700  1.0  -0.2834
  N  N126  1  0.921400  0.237300  0.407100  1.0  -0.244
  N  N127  1  0.340800  0.179200  0.409100  1.0  -0.2698
  N  N128  1  0.249900  0.914200  0.412600  1.0  -0.2629
  N  N129  1  0.096900  0.899500  0.909600  1.0  -0.2546
  N  N130  1  0.306800  0.806900  0.908700  1.0  -0.2806
  N  N131  1  0.578600  0.737300  0.907100  1.0  -0.2421
  N  N132  1  0.159200  0.679200  0.909100  1.0  -0.2699
  N  N133  1  0.250100  0.414200  0.912600  1.0  -0.262
  N  N134  1  0.903100  0.100500  0.909600  1.0  -0.2536
  N  N135  1  0.693200  0.193100  0.908700  1.0  -0.2834
  N  N136  1  0.421400  0.262700  0.907100  1.0  -0.2433
  N  N137  1  0.840800  0.320800  0.909100  1.0  -0.27
  N  N138  1  0.749900  0.585800  0.912600  1.0  -0.2643
  N  N139  1  0.403100  0.399500  0.590400  1.0  -0.2551
  N  N140  1  0.193200  0.306900  0.591300  1.0  -0.2831
  N  N141  1  0.921400  0.237300  0.592900  1.0  -0.2439
  N  N142  1  0.340800  0.179200  0.590900  1.0  -0.2705
  N  N143  1  0.249900  0.914200  0.587400  1.0  -0.2631
  N  N144  1  0.596900  0.600500  0.590400  1.0  -0.2536
  N  N145  1  0.806800  0.693100  0.591300  1.0  -0.2804
  N  N146  1  0.078600  0.762700  0.592900  1.0  -0.2418
  N  N147  1  0.659200  0.820800  0.590900  1.0  -0.2706
  N  N148  1  0.750100  0.085800  0.587400  1.0  -0.2643
