# generated using pymatgen
data_AgH6(C2N)4
_symmetry_space_group_name_H-M   'P 1'
_cell_length_a   8.76520000
_cell_length_b   22.10040000
_cell_length_c   10.44170000
_cell_angle_alpha   90.00000000
_cell_angle_beta   91.87400000
_cell_angle_gamma   90.00000000
_symmetry_Int_Tables_number   1
_chemical_formula_structural   AgH6(C2N)4
_chemical_formula_sum   'Ag6 H36 C48 N24'
_cell_volume   2021.62609442
_cell_formula_units_Z   6
loop_
 _symmetry_equiv_pos_site_id
 _symmetry_equiv_pos_as_xyz
  1  'x, y, z'
loop_
 _atom_site_type_symbol
 _atom_site_label
 _atom_site_symmetry_multiplicity
 _atom_site_fract_x
 _atom_site_fract_y
 _atom_site_fract_z
 _atom_site_occupancy
 _atom_site_charge
  Ag  Ag1  1  0.343320  0.803470  0.511960  1.0  0.27
  Ag  Ag2  1  0.251020  0.707810  0.756730  1.0  0.3456
  Ag  Ag3  1  0.177300  0.795840  0.016530  1.0  0.2907
  Ag  Ag4  1  0.656680  0.303470  0.488040  1.0  0.2662
  Ag  Ag5  1  0.748980  0.207810  0.243270  1.0  0.3458
  Ag  Ag6  1  0.822700  0.295840  0.983470  1.0  0.2897
  H  H7  1  0.404400  0.586800  0.650300  1.0  0.0777
  H  H8  1  0.441600  0.600200  0.269700  1.0  0.1138
  H  H9  1  0.399500  0.703900  0.293400  1.0  0.0699
  H  H10  1  0.596500  0.514300  0.302200  1.0  0.0704
  H  H11  1  0.348900  0.491800  0.614500  1.0  0.1145
  H  H12  1  0.429900  0.391200  0.613600  1.0  0.0629
  H  H13  1  0.066800  0.907000  0.561300  1.0  0.0588
  H  H14  1  0.827800  0.916200  0.648600  1.0  0.1091
  H  H15  1  0.892500  0.749100  0.789700  1.0  0.0684
  H  H16  1  0.616700  0.748100  0.719000  1.0  0.0684
  H  H17  1  0.675800  0.914200  0.867100  1.0  0.1033
  H  H18  1  0.441600  0.901300  0.962200  1.0  0.0587
  H  H19  1  0.089500  0.585600  0.842900  1.0  0.082
  H  H20  1  0.035300  0.586400  0.222800  1.0  0.1114
  H  H21  1  0.083100  0.690100  0.216200  1.0  0.0665
  H  H22  1  0.051900  0.388600  0.850300  1.0  0.0626
  H  H23  1  0.129300  0.489500  0.859300  1.0  0.1129
  H  H24  1  0.897900  0.501000  0.183000  1.0  0.072
  H  H25  1  0.595600  0.086800  0.349700  1.0  0.0779
  H  H26  1  0.558400  0.100200  0.730300  1.0  0.1133
  H  H27  1  0.600500  0.203900  0.706600  1.0  0.0695
  H  H28  1  0.403500  0.014300  0.697800  1.0  0.0709
  H  H29  1  0.651100  0.991800  0.385500  1.0  0.1134
  H  H30  1  0.570100  0.891200  0.386400  1.0  0.0623
  H  H31  1  0.933200  0.407000  0.438700  1.0  0.0596
  H  H32  1  0.172200  0.416200  0.351400  1.0  0.1079
  H  H33  1  0.107500  0.249100  0.210300  1.0  0.0689
  H  H34  1  0.383300  0.248100  0.281000  1.0  0.0681
  H  H35  1  0.324200  0.414200  0.132900  1.0  0.1035
  H  H36  1  0.558400  0.401300  0.037800  1.0  0.059
  H  H37  1  0.910500  0.085600  0.157100  1.0  0.0817
  H  H38  1  0.964700  0.086400  0.777200  1.0  0.1119
  H  H39  1  0.916900  0.190100  0.783800  1.0  0.0672
  H  H40  1  0.948100  0.888600  0.149700  1.0  0.0626
  H  H41  1  0.870700  0.989500  0.140700  1.0  0.1133
  H  H42  1  0.102100  0.001000  0.817000  1.0  0.0718
  C  C43  1  0.402900  0.610200  0.575100  1.0  0.165
  C  C44  1  0.432500  0.581040  0.458700  1.0  0.0241
  C  C45  1  0.427100  0.616870  0.351300  1.0  -0.2202
  C  C46  1  0.399500  0.678930  0.366400  1.0  0.1309
  C  C47  1  0.561700  0.489440  0.368200  1.0  0.1683
  C  C48  1  0.467900  0.515620  0.459300  1.0  0.075
  C  C49  1  0.415100  0.477840  0.552000  1.0  -0.2463
  C  C50  1  0.463800  0.417560  0.549800  1.0  0.1224
  C  C51  1  0.028500  0.874440  0.608500  1.0  0.1445
  C  C52  1  0.884800  0.880400  0.659700  1.0  -0.249
  C  C53  1  0.828600  0.832260  0.727200  1.0  0.083
  C  C54  1  0.926300  0.782220  0.741800  1.0  0.1567
  C  C55  1  0.583300  0.779840  0.771000  1.0  0.1272
  C  C56  1  0.677600  0.831110  0.786100  1.0  0.0954
  C  C57  1  0.621400  0.877800  0.856900  1.0  -0.2344
  C  C58  1  0.480600  0.869480  0.913400  1.0  0.1311
  C  C59  1  0.090200  0.606340  0.921500  1.0  0.1615
  C  C60  1  0.054700  0.573760  0.032000  1.0  0.0498
  C  C61  1  0.055400  0.605560  0.144800  1.0  -0.2348
  C  C62  1  0.087100  0.667610  0.139900  1.0  0.1403
  C  C63  1  0.020700  0.412800  0.918700  1.0  0.1377
  C  C64  1  0.066900  0.473310  0.922300  1.0  -0.2535
  C  C65  1  0.017400  0.508300  0.021900  1.0  -0.0068
  C  C66  1  0.930000  0.478450  0.112400  1.0  0.1786
  C  C67  1  0.597100  0.110200  0.424900  1.0  0.1657
  C  C68  1  0.567500  0.081040  0.541300  1.0  0.024
  C  C69  1  0.572900  0.116870  0.648700  1.0  -0.2227
  C  C70  1  0.600500  0.178930  0.633600  1.0  0.1301
  C  C71  1  0.438300  0.989440  0.631800  1.0  0.1677
  C  C72  1  0.532100  0.015620  0.540700  1.0  0.0759
  C  C73  1  0.584900  0.977840  0.448000  1.0  -0.2448
  C  C74  1  0.536200  0.917560  0.450200  1.0  0.1224
  C  C75  1  0.971500  0.374440  0.391500  1.0  0.1437
  C  C76  1  0.115200  0.380400  0.340300  1.0  -0.2473
  C  C77  1  0.171400  0.332260  0.272800  1.0  0.0834
  C  C78  1  0.073700  0.282220  0.258200  1.0  0.1559
  C  C79  1  0.416700  0.279840  0.229000  1.0  0.1271
  C  C80  1  0.322400  0.331110  0.213900  1.0  0.0949
  C  C81  1  0.378600  0.377800  0.143100  1.0  -0.2351
  C  C82  1  0.519400  0.369480  0.086600  1.0  0.1309
  C  C83  1  0.909800  0.106340  0.078500  1.0  0.1614
  C  C84  1  0.945300  0.073760  0.968000  1.0  0.0495
  C  C85  1  0.944600  0.105560  0.855200  1.0  -0.2339
  C  C86  1  0.912900  0.167610  0.860100  1.0  0.1412
  C  C87  1  0.979300  0.912800  0.081300  1.0  0.1379
  C  C88  1  0.933100  0.973310  0.077700  1.0  -0.2536
  C  C89  1  0.982600  0.008300  0.978100  1.0  -0.0077
  C  C90  1  0.070000  0.978450  0.887600  1.0  0.1789
  N  N91  1  0.373100  0.704130  0.479300  1.0  -0.266
  N  N92  1  0.373200  0.668540  0.584700  1.0  -0.2539
  N  N93  1  0.554500  0.395790  0.462900  1.0  -0.2246
  N  N94  1  0.604200  0.432210  0.369400  1.0  -0.2667
  N  N95  1  0.114100  0.825420  0.622400  1.0  -0.2381
  N  N96  1  0.063100  0.778860  0.692200  1.0  -0.2531
  N  N97  1  0.450600  0.773950  0.826000  1.0  -0.2484
  N  N98  1  0.399200  0.819060  0.901800  1.0  -0.2514
  N  N99  1  0.124900  0.664780  0.922100  1.0  -0.2654
  N  N100  1  0.122600  0.696350  0.033100  1.0  -0.2703
  N  N101  1  0.935700  0.387830  0.006200  1.0  -0.2233
  N  N102  1  0.889400  0.421000  0.105900  1.0  -0.2729
  N  N103  1  0.626900  0.204130  0.520700  1.0  -0.266
  N  N104  1  0.626800  0.168540  0.415300  1.0  -0.2538
  N  N105  1  0.445500  0.895790  0.537100  1.0  -0.2262
  N  N106  1  0.395800  0.932210  0.630600  1.0  -0.2654
  N  N107  1  0.885900  0.325420  0.377600  1.0  -0.2355
  N  N108  1  0.936900  0.278860  0.307800  1.0  -0.252
  N  N109  1  0.549400  0.273950  0.174000  1.0  -0.2483
  N  N110  1  0.600800  0.319060  0.098200  1.0  -0.2556
  N  N111  1  0.875100  0.164780  0.077900  1.0  -0.2655
  N  N112  1  0.877400  0.196350  0.966900  1.0  -0.2701
  N  N113  1  0.064300  0.887830  0.993800  1.0  -0.2203
  N  N114  1  0.110600  0.921000  0.894100  1.0  -0.2737
