# generated using pymatgen
data_SiAg2H9C12(NF)6
_symmetry_space_group_name_H-M   'P 1'
_cell_length_a   7.73850000
_cell_length_b   19.47280000
_cell_length_c   25.69630000
_cell_angle_alpha   88.28560000
_cell_angle_beta   81.34000000
_cell_angle_gamma   78.53930000
_symmetry_Int_Tables_number   1
_chemical_formula_structural   SiAg2H9C12(NF)6
_chemical_formula_sum   'Si8 Ag16 H72 C96 N48 F48'
_cell_volume   3751.71004029
_cell_formula_units_Z   8
loop_
 _symmetry_equiv_pos_site_id
 _symmetry_equiv_pos_as_xyz
  1  'x, y, z'
loop_
 _atom_site_type_symbol
 _atom_site_label
 _atom_site_symmetry_multiplicity
 _atom_site_fract_x
 _atom_site_fract_y
 _atom_site_fract_z
 _atom_site_occupancy
 _atom_site_charge
  Si  Si1  1  0.772630  0.454740  0.750000  1.0  1.8655
  Si  Si2  1  0.977370  0.045260  0.750000  1.0  1.8645
  Si  Si3  1  0.227370  0.545260  0.250000  1.0  1.8645
  Si  Si4  1  0.022630  0.954740  0.250000  1.0  1.8656
  Si  Si5  1  0.308950  0.750000  0.882100  1.0  1.8185
  Si  Si6  1  0.941050  0.750000  0.617900  1.0  1.8189
  Si  Si7  1  0.691050  0.250000  0.117900  1.0  1.819
  Si  Si8  1  0.058950  0.250000  0.382100  1.0  1.8185
  Ag  Ag9  1  0.769530  0.466090  0.061240  1.0  0.3198
  Ag  Ag10  1  0.227080  0.430700  0.052780  1.0  0.279
  Ag  Ag11  1  0.669220  0.033920  0.061240  1.0  0.3195
  Ag  Ag12  1  0.220140  0.069300  0.052780  1.0  0.2779
  Ag  Ag13  1  0.764380  0.466090  0.438750  1.0  0.3191
  Ag  Ag14  1  0.342220  0.430700  0.447220  1.0  0.2778
  Ag  Ag15  1  0.296870  0.033910  0.438750  1.0  0.3194
  Ag  Ag16  1  0.710560  0.069300  0.447220  1.0  0.2789
  Ag  Ag17  1  0.230470  0.533910  0.938760  1.0  0.3192
  Ag  Ag18  1  0.772920  0.569300  0.947220  1.0  0.278
  Ag  Ag19  1  0.330780  0.966080  0.938760  1.0  0.3199
  Ag  Ag20  1  0.779860  0.930700  0.947220  1.0  0.2789
  Ag  Ag21  1  0.235620  0.533910  0.561250  1.0  0.3193
  Ag  Ag22  1  0.657780  0.569300  0.552780  1.0  0.2789
  Ag  Ag23  1  0.703140  0.966080  0.561250  1.0  0.3195
  Ag  Ag24  1  0.289440  0.930700  0.552780  1.0  0.2779
  H  H25  1  0.938000  0.443000  0.863800  1.0  0.0787
  H  H26  1  0.036500  0.323200  0.855400  1.0  0.1361
  H  H27  1  0.911400  0.311600  0.011600  1.0  0.1164
  H  H28  1  0.157300  0.087600  0.860600  1.0  0.0762
  H  H29  1  0.043100  0.206600  0.855800  1.0  0.1296
  H  H30  1  0.081900  0.214600  0.007600  1.0  0.0753
  H  H31  1  0.259300  0.348200  0.163800  1.0  0.0759
  H  H32  1  0.094000  0.339200  0.245600  1.0  0.115
  H  H33  1  0.674500  0.445200  0.185200  1.0  0.0866
  H  H34  1  0.698200  0.057000  0.863800  1.0  0.0788
  H  H35  1  0.608100  0.176800  0.855400  1.0  0.1358
  H  H36  1  0.577000  0.188400  0.011600  1.0  0.1175
  H  H37  1  0.482100  0.412400  0.860600  1.0  0.0761
  H  H38  1  0.601100  0.293400  0.855800  1.0  0.1309
  H  H39  1  0.410500  0.285400  0.007600  1.0  0.0762
  H  H40  1  0.076900  0.151800  0.163800  1.0  0.0766
  H  H41  1  0.160400  0.160800  0.245600  1.0  0.115
  H  H42  1  0.640300  0.054800  0.185200  1.0  0.0865
  H  H43  1  0.619000  0.443000  0.636200  1.0  0.0785
  H  H44  1  0.640300  0.323200  0.644600  1.0  0.136
  H  H45  1  0.777000  0.311600  0.488400  1.0  0.116
  H  H46  1  0.755100  0.087600  0.639400  1.0  0.0762
  H  H47  1  0.750300  0.206600  0.644200  1.0  0.1295
  H  H48  1  0.703500  0.214600  0.492400  1.0  0.076
  H  H49  1  0.392500  0.348200  0.336200  1.0  0.0771
  H  H50  1  0.566800  0.339200  0.254400  1.0  0.1147
  H  H51  1  0.880300  0.445200  0.314800  1.0  0.0835
  H  H52  1  0.244800  0.057000  0.636200  1.0  0.0789
  H  H53  1  0.215100  0.176800  0.644600  1.0  0.1354
  H  H54  1  0.234600  0.188400  0.488400  1.0  0.1173
  H  H55  1  0.105500  0.412400  0.639400  1.0  0.0762
  H  H56  1  0.105500  0.293400  0.644200  1.0  0.1305
  H  H57  1  0.304100  0.285400  0.492400  1.0  0.0761
  H  H58  1  0.771300  0.151800  0.336200  1.0  0.0761
  H  H59  1  0.678800  0.160800  0.254400  1.0  0.1148
  H  H60  1  0.304900  0.054800  0.314800  1.0  0.0836
  H  H61  1  0.062000  0.557000  0.136200  1.0  0.0789
  H  H62  1  0.963500  0.676800  0.144600  1.0  0.1358
  H  H63  1  0.088600  0.688400  0.988400  1.0  0.116
  H  H64  1  0.842700  0.912400  0.139400  1.0  0.0759
  H  H65  1  0.956900  0.793400  0.144200  1.0  0.1296
  H  H66  1  0.918100  0.785400  0.992400  1.0  0.0764
  H  H67  1  0.740700  0.651800  0.836200  1.0  0.0764
  H  H68  1  0.906000  0.660800  0.754400  1.0  0.1149
  H  H69  1  0.325500  0.554800  0.814800  1.0  0.0865
  H  H70  1  0.301800  0.943000  0.136200  1.0  0.0787
  H  H71  1  0.391900  0.823200  0.144600  1.0  0.1357
  H  H72  1  0.423000  0.811600  0.988400  1.0  0.1173
  H  H73  1  0.517900  0.587600  0.139400  1.0  0.0763
  H  H74  1  0.398900  0.706600  0.144200  1.0  0.1304
  H  H75  1  0.589500  0.714600  0.992400  1.0  0.0759
  H  H76  1  0.923100  0.848200  0.836200  1.0  0.0768
  H  H77  1  0.839600  0.839200  0.754400  1.0  0.1148
  H  H78  1  0.359700  0.945200  0.814800  1.0  0.0862
  H  H79  1  0.381000  0.557000  0.363800  1.0  0.0786
  H  H80  1  0.359700  0.676800  0.355400  1.0  0.136
  H  H81  1  0.223000  0.688400  0.511600  1.0  0.1167
  H  H82  1  0.244900  0.912400  0.360600  1.0  0.0763
  H  H83  1  0.249700  0.793400  0.355800  1.0  0.1297
  H  H84  1  0.296500  0.785400  0.507600  1.0  0.075
  H  H85  1  0.607500  0.651800  0.663800  1.0  0.0757
  H  H86  1  0.433200  0.660800  0.745600  1.0  0.1146
  H  H87  1  0.119700  0.554800  0.685200  1.0  0.0838
  H  H88  1  0.755200  0.943000  0.363800  1.0  0.0788
  H  H89  1  0.784900  0.823200  0.355400  1.0  0.1359
  H  H90  1  0.765400  0.811600  0.511600  1.0  0.1173
  H  H91  1  0.894500  0.587600  0.360600  1.0  0.0759
  H  H92  1  0.894500  0.706600  0.355800  1.0  0.1307
  H  H93  1  0.695900  0.714600  0.507600  1.0  0.0761
  H  H94  1  0.228700  0.848200  0.663800  1.0  0.0769
  H  H95  1  0.321200  0.839200  0.745600  1.0  0.1151
  H  H96  1  0.695100  0.945200  0.685200  1.0  0.0839
  C  C97  1  0.937000  0.415400  0.894000  1.0  0.1659
  C  C98  1  0.994810  0.343320  0.888460  1.0  -0.1978
  C  C99  1  0.988570  0.302800  0.933260  1.0  0.083
  C  C100  1  0.920870  0.338000  0.980860  1.0  0.1456
  C  C101  1  0.143880  0.114920  0.890520  1.0  0.1588
  C  C102  1  0.074190  0.186400  0.887220  1.0  -0.2222
  C  C103  1  0.053080  0.225840  0.931800  1.0  0.0658
  C  C104  1  0.099200  0.189580  0.976420  1.0  0.1866
  C  C105  1  0.138950  0.368820  0.169080  1.0  0.1645
  C  C106  1  0.041000  0.362480  0.218120  1.0  -0.2347
  C  C107  1  0.864210  0.391720  0.224660  1.0  0.0828
  C  C108  1  0.795600  0.425860  0.181540  1.0  0.1686
  C  C109  1  0.669000  0.084600  0.894000  1.0  0.1654
  C  C110  1  0.616730  0.156680  0.888460  1.0  -0.197
  C  C111  1  0.578170  0.197200  0.933260  1.0  0.083
  C  C112  1  0.598270  0.162000  0.980860  1.0  0.148
  C  C113  1  0.465600  0.385080  0.890520  1.0  0.1598
  C  C114  1  0.538590  0.313600  0.887220  1.0  -0.2198
  C  C115  1  0.515120  0.274160  0.931800  1.0  0.0664
  C  C116  1  0.424380  0.310420  0.976420  1.0  0.1832
  C  C117  1  0.191970  0.131180  0.169080  1.0  0.1657
  C  C118  1  0.240880  0.137520  0.218120  1.0  -0.2361
  C  C119  1  0.411130  0.108280  0.224660  1.0  0.083
  C  C120  1  0.522860  0.074140  0.181540  1.0  0.167
  C  C121  1  0.647600  0.415400  0.606000  1.0  0.1661
  C  C122  1  0.661870  0.343320  0.611540  1.0  -0.1981
  C  C123  1  0.708630  0.302800  0.566740  1.0  0.0824
  C  C124  1  0.741130  0.338000  0.519140  1.0  0.1465
  C  C125  1  0.741200  0.114920  0.609480  1.0  0.1613
  C  C126  1  0.739410  0.186400  0.612780  1.0  -0.2215
  C  C127  1  0.721080  0.225840  0.568200  1.0  0.0665
  C  C128  1  0.711220  0.189580  0.523580  1.0  0.1849
  C  C129  1  0.492230  0.368820  0.330920  1.0  0.1649
  C  C130  1  0.596520  0.362480  0.281880  1.0  -0.2346
  C  C131  1  0.744070  0.391720  0.275340  1.0  0.0829
  C  C132  1  0.778540  0.425860  0.318460  1.0  0.1689
  C  C133  1  0.246400  0.084600  0.606000  1.0  0.1651
  C  C134  1  0.226590  0.156680  0.611540  1.0  -0.1963
  C  C135  1  0.224630  0.197200  0.566740  1.0  0.0829
  C  C136  1  0.239730  0.162000  0.519140  1.0  0.1474
  C  C137  1  0.149320  0.385080  0.609480  1.0  0.1593
  C  C138  1  0.147810  0.313600  0.612780  1.0  -0.2197
  C  C139  1  0.210720  0.274160  0.568200  1.0  0.067
  C  C140  1  0.265200  0.310420  0.523580  1.0  0.1844
  C  C141  1  0.676850  0.131180  0.330920  1.0  0.1654
  C  C142  1  0.621600  0.137520  0.281880  1.0  -0.2353
  C  C143  1  0.480590  0.108280  0.275340  1.0  0.0829
  C  C144  1  0.403000  0.074140  0.318460  1.0  0.1688
  C  C145  1  0.063000  0.584600  0.106000  1.0  0.1655
  C  C146  1  0.005190  0.656680  0.111540  1.0  -0.1986
  C  C147  1  0.011430  0.697200  0.066740  1.0  0.0832
  C  C148  1  0.079130  0.662000  0.019140  1.0  0.1462
  C  C149  1  0.856120  0.885080  0.109480  1.0  0.1603
  C  C150  1  0.925810  0.813600  0.112780  1.0  -0.2217
  C  C151  1  0.946920  0.774160  0.068200  1.0  0.0669
  C  C152  1  0.900800  0.810420  0.023580  1.0  0.1852
  C  C153  1  0.861050  0.631180  0.830920  1.0  0.1647
  C  C154  1  0.959000  0.637520  0.781880  1.0  -0.2353
  C  C155  1  0.135790  0.608280  0.775340  1.0  0.083
  C  C156  1  0.204400  0.574140  0.818460  1.0  0.1686
  C  C157  1  0.331000  0.915400  0.106000  1.0  0.1658
  C  C158  1  0.383270  0.843320  0.111540  1.0  -0.1961
  C  C159  1  0.421830  0.802800  0.066740  1.0  0.0831
  C  C160  1  0.401730  0.838000  0.019140  1.0  0.1477
  C  C161  1  0.534400  0.614920  0.109480  1.0  0.1598
  C  C162  1  0.461410  0.686400  0.112780  1.0  -0.2194
  C  C163  1  0.484880  0.725840  0.068200  1.0  0.0667
  C  C164  1  0.575620  0.689580  0.023580  1.0  0.1837
  C  C165  1  0.808030  0.868820  0.830920  1.0  0.1659
  C  C166  1  0.759120  0.862480  0.781880  1.0  -0.235
  C  C167  1  0.588870  0.891720  0.775340  1.0  0.0828
  C  C168  1  0.477140  0.925860  0.818460  1.0  0.1677
  C  C169  1  0.352400  0.584600  0.394000  1.0  0.165
  C  C170  1  0.338130  0.656680  0.388460  1.0  -0.1982
  C  C171  1  0.291370  0.697200  0.433260  1.0  0.0828
  C  C172  1  0.258870  0.662000  0.480860  1.0  0.1463
  C  C173  1  0.258800  0.885080  0.390520  1.0  0.1608
  C  C174  1  0.260590  0.813600  0.387220  1.0  -0.222
  C  C175  1  0.278920  0.774160  0.431800  1.0  0.0663
  C  C176  1  0.288780  0.810420  0.476420  1.0  0.1859
  C  C177  1  0.507770  0.631180  0.669080  1.0  0.1645
  C  C178  1  0.403480  0.637520  0.718120  1.0  -0.2354
  C  C179  1  0.255930  0.608280  0.724660  1.0  0.0829
  C  C180  1  0.221460  0.574140  0.681540  1.0  0.1693
  C  C181  1  0.753600  0.915400  0.394000  1.0  0.1662
  C  C182  1  0.773410  0.843320  0.388460  1.0  -0.1963
  C  C183  1  0.775370  0.802800  0.433260  1.0  0.0822
  C  C184  1  0.760270  0.838000  0.480860  1.0  0.1476
  C  C185  1  0.850680  0.614920  0.390520  1.0  0.1589
  C  C186  1  0.852190  0.686400  0.387220  1.0  -0.2201
  C  C187  1  0.789280  0.725840  0.431800  1.0  0.0659
  C  C188  1  0.734800  0.689580  0.476420  1.0  0.1845
  C  C189  1  0.323150  0.868820  0.669080  1.0  0.166
  C  C190  1  0.378400  0.862480  0.718120  1.0  -0.2346
  C  C191  1  0.519410  0.891720  0.724660  1.0  0.0829
  C  C192  1  0.597000  0.925860  0.681540  1.0  0.1672
  N  N193  1  0.869530  0.407000  0.984340  1.0  -0.1994
  N  N194  1  0.879710  0.447100  0.940880  1.0  -0.2535
  N  N195  1  0.166620  0.121340  0.977620  1.0  -0.1986
  N  N196  1  0.192100  0.083700  0.934100  1.0  -0.1988
  N  N197  1  0.069680  0.402940  0.129300  1.0  -0.2187
  N  N198  1  0.894960  0.432020  0.135660  1.0  -0.2083
  N  N199  1  0.646130  0.093000  0.984340  1.0  -0.1988
  N  N200  1  0.679410  0.052900  0.940880  1.0  -0.2532
  N  N201  1  0.355760  0.378660  0.977620  1.0  -0.1989
  N  N202  1  0.373800  0.416300  0.934100  1.0  -0.1961
  N  N203  1  0.301020  0.097060  0.129300  1.0  -0.2205
  N  N204  1  0.469380  0.067980  0.135660  1.0  -0.2094
  N  N205  1  0.723470  0.407000  0.515660  1.0  -0.1987
  N  N206  1  0.673190  0.447100  0.559120  1.0  -0.2529
  N  N207  1  0.712040  0.121340  0.522380  1.0  -0.1988
  N  N208  1  0.724200  0.083700  0.565900  1.0  -0.1985
  N  N209  1  0.527380  0.402940  0.370700  1.0  -0.2199
  N  N210  1  0.673020  0.432020  0.364340  1.0  -0.2087
  N  N211  1  0.260870  0.093000  0.515660  1.0  -0.1997
  N  N212  1  0.267690  0.052900  0.559120  1.0  -0.2543
  N  N213  1  0.265580  0.378660  0.522380  1.0  -0.1978
  N  N214  1  0.209900  0.416300  0.565900  1.0  -0.1964
  N  N215  1  0.601920  0.097060  0.370700  1.0  -0.2197
  N  N216  1  0.462640  0.067980  0.364340  1.0  -0.209
  N  N217  1  0.130470  0.593000  0.015660  1.0  -0.1989
  N  N218  1  0.120290  0.552900  0.059120  1.0  -0.2538
  N  N219  1  0.833380  0.878660  0.022380  1.0  -0.1978
  N  N220  1  0.807900  0.916300  0.065900  1.0  -0.1975
  N  N221  1  0.930320  0.597060  0.870700  1.0  -0.2194
  N  N222  1  0.105040  0.567980  0.864340  1.0  -0.2089
  N  N223  1  0.353870  0.907000  0.015660  1.0  -0.1984
  N  N224  1  0.320590  0.947100  0.059120  1.0  -0.2532
  N  N225  1  0.644240  0.621340  0.022380  1.0  -0.1976
  N  N226  1  0.626200  0.583700  0.065900  1.0  -0.1969
  N  N227  1  0.698980  0.902940  0.870700  1.0  -0.2202
  N  N228  1  0.530620  0.932020  0.864340  1.0  -0.2087
  N  N229  1  0.276530  0.593000  0.484340  1.0  -0.1994
  N  N230  1  0.326810  0.552900  0.440880  1.0  -0.2542
  N  N231  1  0.287960  0.878660  0.477620  1.0  -0.2002
  N  N232  1  0.275800  0.916300  0.434100  1.0  -0.1979
  N  N233  1  0.472620  0.597060  0.629300  1.0  -0.2188
  N  N234  1  0.326980  0.567980  0.635660  1.0  -0.2102
  N  N235  1  0.739130  0.907000  0.484340  1.0  -0.1997
  N  N236  1  0.732310  0.947100  0.440880  1.0  -0.253
  N  N237  1  0.734420  0.621340  0.477620  1.0  -0.1977
  N  N238  1  0.790100  0.583700  0.434100  1.0  -0.1974
  N  N239  1  0.398080  0.902940  0.629300  1.0  -0.2204
  N  N240  1  0.537360  0.932020  0.635660  1.0  -0.2079
  F  F241  1  0.967820  0.461540  0.772620  1.0  -0.4178
  F  F242  1  0.669550  0.520000  0.795500  1.0  -0.4434
  F  F243  1  0.741270  0.390100  0.793960  1.0  -0.4442
  F  F244  1  0.570640  0.461540  0.727380  1.0  -0.4179
  F  F245  1  0.810450  0.520000  0.704500  1.0  -0.4444
  F  F246  1  0.868630  0.390100  0.706040  1.0  -0.4446
  F  F247  1  0.759560  0.038460  0.772620  1.0  -0.4166
  F  F248  1  0.034950  0.980000  0.795500  1.0  -0.4437
  F  F249  1  0.964770  0.109900  0.793960  1.0  -0.4448
  F  F250  1  0.201980  0.038460  0.727380  1.0  -0.416
  F  F251  1  0.985050  0.980000  0.704500  1.0  -0.4446
  F  F252  1  0.925330  0.109900  0.706040  1.0  -0.4453
  F  F253  1  0.032180  0.538460  0.227380  1.0  -0.4168
  F  F254  1  0.330450  0.480000  0.204500  1.0  -0.4446
  F  F255  1  0.258730  0.609900  0.206040  1.0  -0.4447
  F  F256  1  0.429360  0.538460  0.272620  1.0  -0.4165
  F  F257  1  0.189550  0.480000  0.295500  1.0  -0.4434
  F  F258  1  0.131370  0.609900  0.293960  1.0  -0.4445
  F  F259  1  0.240440  0.961540  0.227380  1.0  -0.4174
  F  F260  1  0.965050  0.020000  0.204500  1.0  -0.4443
  F  F261  1  0.035230  0.890100  0.206040  1.0  -0.4451
  F  F262  1  0.798020  0.961540  0.272620  1.0  -0.4179
  F  F263  1  0.014950  0.020000  0.295500  1.0  -0.4437
  F  F264  1  0.074670  0.890100  0.293960  1.0  -0.4448
  F  F265  1  0.376390  0.693700  0.929520  1.0  -0.4543
  F  F266  1  0.419610  0.691860  0.837320  1.0  -0.4194
  F  F267  1  0.126990  0.716040  0.883180  1.0  -0.444
  F  F268  1  0.194090  0.806300  0.929520  1.0  -0.4539
  F  F269  1  0.243070  0.808140  0.837320  1.0  -0.42
  F  F270  1  0.489830  0.783960  0.883180  1.0  -0.442
  F  F271  1  0.929910  0.693700  0.570480  1.0  -0.4535
  F  F272  1  0.888530  0.691860  0.662680  1.0  -0.4196
  F  F273  1  0.156970  0.716040  0.616820  1.0  -0.4423
  F  F274  1  0.999610  0.806300  0.570480  1.0  -0.4536
  F  F275  1  0.948790  0.808140  0.662680  1.0  -0.4193
  F  F276  1  0.726210  0.783960  0.616820  1.0  -0.4435
  F  F277  1  0.623610  0.306300  0.070480  1.0  -0.4536
  F  F278  1  0.580390  0.308140  0.162680  1.0  -0.4198
  F  F279  1  0.873010  0.283960  0.116820  1.0  -0.442
  F  F280  1  0.805910  0.193700  0.070480  1.0  -0.4532
  F  F281  1  0.756930  0.191860  0.162680  1.0  -0.4191
  F  F282  1  0.510170  0.216040  0.116820  1.0  -0.4439
  F  F283  1  0.070090  0.306300  0.429520  1.0  -0.4547
  F  F284  1  0.111470  0.308140  0.337320  1.0  -0.4198
  F  F285  1  0.843030  0.283960  0.383180  1.0  -0.4437
  F  F286  1  0.000390  0.193700  0.429520  1.0  -0.454
  F  F287  1  0.051210  0.191860  0.337320  1.0  -0.4199
  F  F288  1  0.273790  0.216040  0.383180  1.0  -0.4423
