# generated using pymatgen
data_Zn3H24C30(NO6)2
_symmetry_space_group_name_H-M   'P 1'
_cell_length_a   9.77500000
_cell_length_b   18.95800000
_cell_length_c   11.46900000
_cell_angle_alpha   90.00000000
_cell_angle_beta   111.35400000
_cell_angle_gamma   90.00000000
_symmetry_Int_Tables_number   1
_chemical_formula_structural   Zn3H24C30(NO6)2
_chemical_formula_sum   'Zn6 H48 C60 N4 O24'
_cell_volume   1979.46140046
_cell_formula_units_Z   2
loop_
 _symmetry_equiv_pos_site_id
 _symmetry_equiv_pos_as_xyz
  1  'x, y, z'
loop_
 _atom_site_type_symbol
 _atom_site_label
 _atom_site_symmetry_multiplicity
 _atom_site_fract_x
 _atom_site_fract_y
 _atom_site_fract_z
 _atom_site_occupancy
 _atom_site_charge
  Zn  Zn1  1  0.364990  0.994430  0.546540  1.0  0.9786
  Zn  Zn2  1  0.135010  0.494430  0.953460  1.0  0.9787
  Zn  Zn3  1  0.635010  0.005570  0.453460  1.0  0.9784
  Zn  Zn4  1  0.864990  0.505570  0.046540  1.0  0.9784
  Zn  Zn5  1  0.000000  0.000000  0.500000  1.0  1.0172
  Zn  Zn6  1  0.500000  0.500000  0.000000  1.0  1.0172
  H  H7  1  0.480200  0.169400  0.820900  1.0  0.112
  H  H8  1  0.492700  0.281100  0.909900  1.0  0.107
  H  H9  1  0.048700  0.295900  0.758000  1.0  0.0993
  H  H10  1  0.035800  0.183600  0.670400  1.0  0.1129
  H  H11  1  0.933900  0.055500  0.222100  1.0  0.1019
  H  H12  1  0.948400  0.088000  0.032900  1.0  0.1205
  H  H13  1  0.065300  0.106800  0.903800  1.0  0.1118
  H  H14  1  0.196700  0.053200  0.917200  1.0  0.1004
  H  H15  1  0.232100  0.131800  0.970800  1.0  0.1069
  H  H16  1  0.399300  0.010500  0.060600  1.0  0.1166
  H  H17  1  0.500200  0.011900  0.206100  1.0  0.1269
  H  H18  1  0.461000  0.084000  0.128100  1.0  0.1236
  H  H19  1  0.019800  0.669400  0.679100  1.0  0.1119
  H  H20  1  0.007300  0.781100  0.590100  1.0  0.1064
  H  H21  1  0.451300  0.795900  0.742000  1.0  0.0995
  H  H22  1  0.464200  0.683600  0.829600  1.0  0.1135
  H  H23  1  0.566100  0.555500  0.277900  1.0  0.1021
  H  H24  1  0.551600  0.588000  0.467100  1.0  0.1203
  H  H25  1  0.434700  0.606800  0.596200  1.0  0.1136
  H  H26  1  0.303300  0.553200  0.582800  1.0  0.1008
  H  H27  1  0.267900  0.631800  0.529200  1.0  0.1074
  H  H28  1  0.100700  0.510500  0.439400  1.0  0.1157
  H  H29  1  0.999800  0.511900  0.293900  1.0  0.1267
  H  H30  1  0.039000  0.584000  0.371900  1.0  0.1237
  H  H31  1  0.519800  0.830600  0.179100  1.0  0.1117
  H  H32  1  0.507300  0.718900  0.090100  1.0  0.1065
  H  H33  1  0.951300  0.704100  0.242000  1.0  0.0999
  H  H34  1  0.964200  0.816400  0.329600  1.0  0.1133
  H  H35  1  0.066100  0.944500  0.777900  1.0  0.1019
  H  H36  1  0.051600  0.912000  0.967100  1.0  0.1201
  H  H37  1  0.934700  0.893200  0.096200  1.0  0.1134
  H  H38  1  0.803300  0.946800  0.082800  1.0  0.1001
  H  H39  1  0.767900  0.868200  0.029200  1.0  0.107
  H  H40  1  0.600700  0.989500  0.939400  1.0  0.1153
  H  H41  1  0.499800  0.988100  0.793900  1.0  0.1266
  H  H42  1  0.539000  0.916000  0.871900  1.0  0.1242
  H  H43  1  0.980200  0.330600  0.320900  1.0  0.1117
  H  H44  1  0.992700  0.218900  0.409900  1.0  0.1072
  H  H45  1  0.548700  0.204100  0.258000  1.0  0.0998
  H  H46  1  0.535800  0.316400  0.170400  1.0  0.1129
  H  H47  1  0.433900  0.444500  0.722100  1.0  0.1019
  H  H48  1  0.448400  0.412000  0.532900  1.0  0.1203
  H  H49  1  0.565300  0.393200  0.403800  1.0  0.1121
  H  H50  1  0.696700  0.446800  0.417200  1.0  0.101
  H  H51  1  0.732100  0.368200  0.470800  1.0  0.1067
  H  H52  1  0.899300  0.489500  0.560600  1.0  0.1167
  H  H53  1  0.000200  0.488100  0.706100  1.0  0.1264
  H  H54  1  0.961000  0.416000  0.628100  1.0  0.1247
  C  C55  1  0.249420  0.094920  0.674980  1.0  0.6999
  C  C56  1  0.257410  0.166270  0.735260  1.0  -0.1208
  C  C57  1  0.392570  0.195260  0.807590  1.0  -0.0496
  C  C58  1  0.400090  0.261720  0.860400  1.0  -0.0464
  C  C59  1  0.271760  0.300060  0.840770  1.0  -0.124
  C  C60  1  0.136420  0.270340  0.770290  1.0  -0.0447
  C  C61  1  0.128480  0.203650  0.717860  1.0  -0.0695
  C  C62  1  0.281350  0.373690  0.893170  1.0  0.6837
  C  C63  1  0.288730  0.029600  0.289150  1.0  0.2609
  C  C64  1  0.152000  0.031570  0.309630  1.0  0.2746
  C  C65  1  0.025540  0.053470  0.210950  1.0  -0.168
  C  C66  1  0.034130  0.071990  0.098590  1.0  0.0357
  C  C67  1  0.289950  0.045280  0.171580  1.0  0.1686
  C  C68  1  0.164300  0.091940  0.957560  1.0  -0.1792
  C  C69  1  0.424220  0.037240  0.138770  1.0  -0.3805
  C  C70  1  0.250580  0.594920  0.825020  1.0  0.6996
  C  C71  1  0.242590  0.666270  0.764740  1.0  -0.1217
  C  C72  1  0.107430  0.695260  0.692410  1.0  -0.0498
  C  C73  1  0.099910  0.761720  0.639600  1.0  -0.0471
  C  C74  1  0.228240  0.800060  0.659230  1.0  -0.1236
  C  C75  1  0.363580  0.770340  0.729710  1.0  -0.0466
  C  C76  1  0.371520  0.703650  0.782140  1.0  -0.07
  C  C77  1  0.218650  0.873690  0.606830  1.0  0.684
  C  C78  1  0.211270  0.529600  0.210850  1.0  0.2626
  C  C79  1  0.348000  0.531570  0.190370  1.0  0.2777
  C  C80  1  0.474460  0.553470  0.289050  1.0  -0.1674
  C  C81  1  0.465870  0.571990  0.401410  1.0  0.0387
  C  C82  1  0.210050  0.545280  0.328420  1.0  0.1683
  C  C83  1  0.335700  0.591940  0.542440  1.0  -0.1801
  C  C84  1  0.075780  0.537240  0.361230  1.0  -0.3803
  C  C85  1  0.750580  0.905080  0.325020  1.0  0.6997
  C  C86  1  0.742590  0.833730  0.264740  1.0  -0.1219
  C  C87  1  0.607430  0.804740  0.192410  1.0  -0.0501
  C  C88  1  0.599910  0.738280  0.139600  1.0  -0.0463
  C  C89  1  0.728240  0.699940  0.159230  1.0  -0.1238
  C  C90  1  0.863580  0.729660  0.229710  1.0  -0.0464
  C  C91  1  0.871520  0.796350  0.282140  1.0  -0.0699
  C  C92  1  0.718650  0.626310  0.106830  1.0  0.6837
  C  C93  1  0.711270  0.970400  0.710850  1.0  0.2629
  C  C94  1  0.848000  0.968430  0.690370  1.0  0.2776
  C  C95  1  0.974460  0.946530  0.789050  1.0  -0.1683
  C  C96  1  0.965870  0.928010  0.901410  1.0  0.0385
  C  C97  1  0.710050  0.954720  0.828420  1.0  0.1683
  C  C98  1  0.835700  0.908060  0.042440  1.0  -0.1798
  C  C99  1  0.575780  0.962760  0.861230  1.0  -0.3807
  C  C100  1  0.749420  0.405080  0.174980  1.0  0.7002
  C  C101  1  0.757410  0.333730  0.235260  1.0  -0.1192
  C  C102  1  0.892570  0.304740  0.307590  1.0  -0.049
  C  C103  1  0.900090  0.238280  0.360400  1.0  -0.0461
  C  C104  1  0.771760  0.199940  0.340770  1.0  -0.1241
  C  C105  1  0.636420  0.229660  0.270290  1.0  -0.0448
  C  C106  1  0.628480  0.296350  0.217860  1.0  -0.0688
  C  C107  1  0.781350  0.126310  0.393170  1.0  0.6835
  C  C108  1  0.788730  0.470400  0.789150  1.0  0.261
  C  C109  1  0.652000  0.468430  0.809630  1.0  0.2751
  C  C110  1  0.525540  0.446530  0.710950  1.0  -0.1682
  C  C111  1  0.534130  0.428010  0.598590  1.0  0.0358
  C  C112  1  0.789950  0.454720  0.671580  1.0  0.1688
  C  C113  1  0.664300  0.408060  0.457560  1.0  -0.1797
  C  C114  1  0.924220  0.462760  0.638770  1.0  -0.3808
  N  N115  1  0.162250  0.067850  0.079340  1.0  -0.0359
  N  N116  1  0.337750  0.567850  0.420660  1.0  -0.0347
  N  N117  1  0.837750  0.932150  0.920660  1.0  -0.0355
  N  N118  1  0.662250  0.432150  0.579340  1.0  -0.0366
  O  O119  1  0.361480  0.077600  0.650140  1.0  -0.5919
  O  O120  1  0.136690  0.058590  0.655170  1.0  -0.5845
  O  O121  1  0.162350  0.399500  0.895760  1.0  -0.5801
  O  O122  1  0.403610  0.403150  0.927530  1.0  -0.6051
  O  O123  1  0.406410  0.009790  0.386350  1.0  -0.6932
  O  O124  1  0.155120  0.012800  0.419420  1.0  -0.6798
  O  O125  1  0.138520  0.577600  0.849860  1.0  -0.5909
  O  O126  1  0.363310  0.558590  0.844830  1.0  -0.5856
  O  O127  1  0.337650  0.899500  0.604240  1.0  -0.5797
  O  O128  1  0.096390  0.903150  0.572470  1.0  -0.6055
  O  O129  1  0.093590  0.509790  0.113650  1.0  -0.6956
  O  O130  1  0.344880  0.512800  0.080580  1.0  -0.6797
  O  O131  1  0.638520  0.922400  0.349860  1.0  -0.5906
  O  O132  1  0.863310  0.941410  0.344830  1.0  -0.585
  O  O133  1  0.837650  0.600500  0.104240  1.0  -0.5802
  O  O134  1  0.596390  0.596850  0.072470  1.0  -0.6059
  O  O135  1  0.593590  0.990210  0.613650  1.0  -0.6943
  O  O136  1  0.844880  0.987200  0.580580  1.0  -0.6794
  O  O137  1  0.861480  0.422400  0.150140  1.0  -0.5914
  O  O138  1  0.636690  0.441410  0.155170  1.0  -0.5841
  O  O139  1  0.662350  0.100500  0.395760  1.0  -0.58
  O  O140  1  0.903610  0.096850  0.427530  1.0  -0.6057
  O  O141  1  0.906410  0.490210  0.886350  1.0  -0.6928
  O  O142  1  0.655120  0.487200  0.919420  1.0  -0.6796
