# generated using pymatgen
data_FeH24(C5N8)3
_symmetry_space_group_name_H-M   'P 1'
_cell_length_a   17.25760000
_cell_length_b   17.25760000
_cell_length_c   20.84930000
_cell_angle_alpha   90.00000000
_cell_angle_beta   90.00000000
_cell_angle_gamma   120.00000000
_symmetry_Int_Tables_number   1
_chemical_formula_structural   FeH24(C5N8)3
_chemical_formula_sum   'Fe6 H144 C90 N144'
_cell_volume   5377.53081044
_cell_formula_units_Z   6
loop_
 _symmetry_equiv_pos_site_id
 _symmetry_equiv_pos_as_xyz
  1  'x, y, z'
loop_
 _atom_site_type_symbol
 _atom_site_label
 _atom_site_symmetry_multiplicity
 _atom_site_fract_x
 _atom_site_fract_y
 _atom_site_fract_z
 _atom_site_occupancy
 _atom_site_charge
  Fe  Fe1  1  0.000000  0.000000  0.317560  1.0  0.5916
  Fe  Fe2  1  0.666667  0.333333  0.650890  1.0  0.5916
  Fe  Fe3  1  0.333333  0.666667  0.984230  1.0  0.5916
  Fe  Fe4  1  0.666667  0.333333  0.149550  1.0  0.7001
  Fe  Fe5  1  0.333333  0.666667  0.482880  1.0  0.6997
  Fe  Fe6  1  0.000000  0.000000  0.816220  1.0  0.6996
  H  H7  1  0.809400  0.361500  0.035100  1.0  0.1255
  H  H8  1  0.067400  0.204200  0.258100  1.0  0.1124
  H  H9  1  0.446000  0.805600  0.598600  1.0  0.1264
  H  H10  1  0.885300  0.082900  0.381000  1.0  0.115
  H  H11  1  0.741200  0.066900  0.016700  1.0  0.1367
  H  H12  1  0.679800  0.034800  0.079900  1.0  0.1291
  H  H13  1  0.819700  0.031900  0.091300  1.0  0.1276
  H  H14  1  0.872200  0.138900  0.086900  1.0  0.1192
  H  H15  1  0.791900  0.141600  0.180500  1.0  0.1169
  H  H16  1  0.749400  0.035500  0.186300  1.0  0.1293
  H  H17  1  0.647900  0.683600  0.546500  1.0  0.1269
  H  H18  1  0.676500  0.741500  0.611100  1.0  0.1408
  H  H19  1  0.785000  0.816100  0.531000  1.0  0.1259
  H  H20  1  0.740700  0.874700  0.551400  1.0  0.1136
  H  H21  1  0.688700  0.763300  0.439300  1.0  0.144
  H  H22  1  0.647600  0.825100  0.459300  1.0  0.1329
  H  H23  1  0.476070  0.694830  0.368430  1.0  0.1245
  H  H24  1  0.734070  0.537530  0.591430  1.0  0.1124
  H  H25  1  0.112670  0.138930  0.931930  1.0  0.1264
  H  H26  1  0.551970  0.416230  0.714330  1.0  0.115
  H  H27  1  0.407870  0.400230  0.350030  1.0  0.1367
  H  H28  1  0.346470  0.368130  0.413230  1.0  0.1291
  H  H29  1  0.486370  0.365230  0.424630  1.0  0.1292
  H  H30  1  0.538870  0.472230  0.420230  1.0  0.1192
  H  H31  1  0.458570  0.474930  0.513830  1.0  0.1169
  H  H32  1  0.416070  0.368830  0.519630  1.0  0.1293
  H  H33  1  0.314570  0.016930  0.879830  1.0  0.1269
  H  H34  1  0.343170  0.074830  0.944430  1.0  0.1408
  H  H35  1  0.451670  0.149430  0.864330  1.0  0.1259
  H  H36  1  0.407370  0.208030  0.884730  1.0  0.1136
  H  H37  1  0.355370  0.096630  0.772630  1.0  0.144
  H  H38  1  0.314270  0.158430  0.792630  1.0  0.1329
  H  H39  1  0.142730  0.028170  0.701770  1.0  0.1255
  H  H40  1  0.400730  0.870870  0.924770  1.0  0.1124
  H  H41  1  0.779330  0.472270  0.265270  1.0  0.1235
  H  H42  1  0.218630  0.749570  0.047670  1.0  0.115
  H  H43  1  0.074530  0.733570  0.683370  1.0  0.1367
  H  H44  1  0.013130  0.701470  0.746570  1.0  0.1291
  H  H45  1  0.153030  0.698570  0.757970  1.0  0.1276
  H  H46  1  0.205530  0.805570  0.753570  1.0  0.1192
  H  H47  1  0.125230  0.808270  0.847170  1.0  0.1168
  H  H48  1  0.082730  0.702170  0.852970  1.0  0.1294
  H  H49  1  0.981230  0.350270  0.213170  1.0  0.1269
  H  H50  1  0.009830  0.408170  0.277770  1.0  0.1408
  H  H51  1  0.118330  0.482770  0.197670  1.0  0.1281
  H  H52  1  0.074030  0.541370  0.218070  1.0  0.1135
  H  H53  1  0.022030  0.429970  0.105970  1.0  0.144
  H  H54  1  0.980930  0.491770  0.125970  1.0  0.1329
  H  H55  1  0.638500  0.447900  0.035100  1.0  0.1241
  H  H56  1  0.795800  0.863200  0.258100  1.0  0.1116
  H  H57  1  0.194400  0.640400  0.598600  1.0  0.1271
  H  H58  1  0.917100  0.802400  0.381000  1.0  0.1145
  H  H59  1  0.933100  0.674300  0.016700  1.0  0.1383
  H  H60  1  0.965200  0.645000  0.079900  1.0  0.1246
  H  H61  1  0.968100  0.787800  0.091300  1.0  0.1262
  H  H62  1  0.861100  0.733300  0.086900  1.0  0.1146
  H  H63  1  0.858400  0.650300  0.180500  1.0  0.1165
  H  H64  1  0.964500  0.713900  0.186300  1.0  0.1261
  H  H65  1  0.316400  0.964300  0.546500  1.0  0.1279
  H  H66  1  0.258500  0.935000  0.611100  1.0  0.1395
  H  H67  1  0.183900  0.968900  0.531000  1.0  0.1247
  H  H68  1  0.125300  0.866000  0.551400  1.0  0.1201
  H  H69  1  0.236700  0.925400  0.439300  1.0  0.1442
  H  H70  1  0.174900  0.822500  0.459300  1.0  0.1322
  H  H71  1  0.305170  0.781230  0.368430  1.0  0.1264
  H  H72  1  0.462470  0.196530  0.591430  1.0  0.1116
  H  H73  1  0.861070  0.973730  0.931930  1.0  0.127
  H  H74  1  0.583770  0.135730  0.714330  1.0  0.1145
  H  H75  1  0.599770  0.007630  0.350030  1.0  0.1383
  H  H76  1  0.631870  0.978330  0.413230  1.0  0.1246
  H  H77  1  0.634770  0.121130  0.424630  1.0  0.1246
  H  H78  1  0.527770  0.066630  0.420230  1.0  0.1146
  H  H79  1  0.525070  0.983630  0.513830  1.0  0.1165
  H  H80  1  0.631170  0.047230  0.519630  1.0  0.1261
  H  H81  1  0.983070  0.297630  0.879830  1.0  0.1279
  H  H82  1  0.925170  0.268330  0.944430  1.0  0.1395
  H  H83  1  0.850570  0.302230  0.864330  1.0  0.1247
  H  H84  1  0.791970  0.199330  0.884730  1.0  0.1201
  H  H85  1  0.903370  0.258730  0.772630  1.0  0.1442
  H  H86  1  0.841570  0.155830  0.792630  1.0  0.1322
  H  H87  1  0.971830  0.114570  0.701770  1.0  0.1252
  H  H88  1  0.129130  0.529870  0.924770  1.0  0.1115
  H  H89  1  0.527730  0.307070  0.265270  1.0  0.1242
  H  H90  1  0.250430  0.469070  0.047670  1.0  0.1145
  H  H91  1  0.266430  0.340970  0.683370  1.0  0.1383
  H  H92  1  0.298530  0.311670  0.746570  1.0  0.1246
  H  H93  1  0.301430  0.454470  0.757970  1.0  0.1262
  H  H94  1  0.194430  0.399970  0.753570  1.0  0.1146
  H  H95  1  0.191730  0.316970  0.847170  1.0  0.1164
  H  H96  1  0.297830  0.380570  0.852970  1.0  0.1262
  H  H97  1  0.649730  0.630970  0.213170  1.0  0.1279
  H  H98  1  0.591830  0.601670  0.277770  1.0  0.1394
  H  H99  1  0.517230  0.635570  0.197670  1.0  0.1267
  H  H100  1  0.458630  0.532670  0.218070  1.0  0.12
  H  H101  1  0.570030  0.592070  0.105970  1.0  0.1442
  H  H102  1  0.508230  0.489170  0.125970  1.0  0.1322
  H  H103  1  0.552100  0.190600  0.035100  1.0  0.1275
  H  H104  1  0.136800  0.932600  0.258100  1.0  0.1126
  H  H105  1  0.359600  0.554000  0.598600  1.0  0.1239
  H  H106  1  0.197600  0.114700  0.381000  1.0  0.1156
  H  H107  1  0.325700  0.258800  0.016700  1.0  0.1367
  H  H108  1  0.355000  0.320200  0.079900  1.0  0.1285
  H  H109  1  0.212200  0.180300  0.091300  1.0  0.1271
  H  H110  1  0.266700  0.127800  0.086900  1.0  0.1129
  H  H111  1  0.349700  0.208100  0.180500  1.0  0.1092
  H  H112  1  0.286100  0.250600  0.186300  1.0  0.1284
  H  H113  1  0.035700  0.352100  0.546500  1.0  0.1273
  H  H114  1  0.065000  0.323500  0.611100  1.0  0.1409
  H  H115  1  0.031100  0.215000  0.531000  1.0  0.124
  H  H116  1  0.134000  0.259300  0.551400  1.0  0.1085
  H  H117  1  0.074600  0.311300  0.439300  1.0  0.1436
  H  H118  1  0.177500  0.352400  0.459300  1.0  0.1329
  H  H119  1  0.218770  0.523930  0.368430  1.0  0.1244
  H  H120  1  0.803470  0.265930  0.591430  1.0  0.1126
  H  H121  1  0.026270  0.887330  0.931930  1.0  0.1237
  H  H122  1  0.864270  0.448030  0.714330  1.0  0.1155
  H  H123  1  0.992370  0.592130  0.350030  1.0  0.1367
  H  H124  1  0.021670  0.653530  0.413230  1.0  0.1285
  H  H125  1  0.878870  0.513630  0.424630  1.0  0.1269
  H  H126  1  0.933370  0.461130  0.420230  1.0  0.1129
  H  H127  1  0.016370  0.541430  0.513830  1.0  0.1092
  H  H128  1  0.952770  0.583930  0.519630  1.0  0.1285
  H  H129  1  0.702370  0.685430  0.879830  1.0  0.1275
  H  H130  1  0.731670  0.656830  0.944430  1.0  0.1409
  H  H131  1  0.697770  0.548330  0.864330  1.0  0.124
  H  H132  1  0.800670  0.592630  0.884730  1.0  0.1085
  H  H133  1  0.741270  0.644630  0.772630  1.0  0.1436
  H  H134  1  0.844170  0.685730  0.792630  1.0  0.1328
  H  H135  1  0.885430  0.857270  0.701770  1.0  0.1275
  H  H136  1  0.470130  0.599270  0.924770  1.0  0.1127
  H  H137  1  0.692930  0.220670  0.265270  1.0  0.1246
  H  H138  1  0.530930  0.781370  0.047670  1.0  0.1156
  H  H139  1  0.659030  0.925470  0.683370  1.0  0.1367
  H  H140  1  0.688330  0.986870  0.746570  1.0  0.1285
  H  H141  1  0.545530  0.846970  0.757970  1.0  0.1271
  H  H142  1  0.600030  0.794470  0.753570  1.0  0.1129
  H  H143  1  0.683030  0.874770  0.847170  1.0  0.1092
  H  H144  1  0.619430  0.917270  0.852970  1.0  0.1285
  H  H145  1  0.369030  0.018770  0.213170  1.0  0.1273
  H  H146  1  0.398330  0.990170  0.277770  1.0  0.1409
  H  H147  1  0.364430  0.881670  0.197670  1.0  0.1242
  H  H148  1  0.467330  0.925970  0.218070  1.0  0.1084
  H  H149  1  0.407930  0.977970  0.105970  1.0  0.1436
  H  H150  1  0.510830  0.019070  0.125970  1.0  0.1329
  C  C151  1  0.780800  0.301800  0.050800  1.0  0.2473
  C  C152  1  0.007500  0.162500  0.246200  1.0  0.2314
  C  C153  1  0.476900  0.777100  0.582300  1.0  0.2187
  C  C154  1  0.858200  0.021100  0.390900  1.0  0.2266
  C  C155  1  0.737500  0.081800  0.062100  1.0  -0.0346
  C  C156  1  0.815400  0.085900  0.100500  1.0  -0.0695
  C  C157  1  0.802800  0.091400  0.172000  1.0  0.0113
  C  C158  1  0.656900  0.739700  0.566200  1.0  -0.026
  C  C159  1  0.729000  0.818700  0.530000  1.0  -0.0836
  C  C160  1  0.702300  0.820100  0.460500  1.0  0.0046
  C  C161  1  0.447470  0.635130  0.384130  1.0  0.2479
  C  C162  1  0.674170  0.495830  0.579530  1.0  0.2314
  C  C163  1  0.143570  0.110430  0.915630  1.0  0.2187
  C  C164  1  0.524870  0.354430  0.724230  1.0  0.2266
  C  C165  1  0.404170  0.415130  0.395430  1.0  -0.0347
  C  C166  1  0.482070  0.419230  0.433830  1.0  -0.0695
  C  C167  1  0.469470  0.424730  0.505330  1.0  0.0113
  C  C168  1  0.323570  0.073030  0.899530  1.0  -0.026
  C  C169  1  0.395670  0.152030  0.863330  1.0  -0.0836
  C  C170  1  0.368970  0.153430  0.793830  1.0  0.0046
  C  C171  1  0.114130  0.968470  0.717470  1.0  0.2479
  C  C172  1  0.340830  0.829170  0.912870  1.0  0.2314
  C  C173  1  0.810230  0.443770  0.248970  1.0  0.2187
  C  C174  1  0.191530  0.687770  0.057570  1.0  0.2266
  C  C175  1  0.070830  0.748470  0.728770  1.0  -0.0347
  C  C176  1  0.148730  0.752570  0.767170  1.0  -0.0695
  C  C177  1  0.136130  0.758070  0.838670  1.0  0.0113
  C  C178  1  0.990230  0.406370  0.232870  1.0  -0.026
  C  C179  1  0.062330  0.485370  0.196670  1.0  -0.0836
  C  C180  1  0.035630  0.486770  0.127170  1.0  0.0046
  C  C181  1  0.698200  0.479000  0.050800  1.0  0.2463
  C  C182  1  0.837500  0.845000  0.246200  1.0  0.2295
  C  C183  1  0.222900  0.699800  0.582300  1.0  0.2203
  C  C184  1  0.978900  0.837100  0.390900  1.0  0.2252
  C  C185  1  0.918200  0.655700  0.062100  1.0  -0.0317
  C  C186  1  0.914100  0.729500  0.100500  1.0  -0.0744
  C  C187  1  0.908600  0.711400  0.172000  1.0  0.0128
  C  C188  1  0.260300  0.917200  0.566200  1.0  -0.0263
  C  C189  1  0.181300  0.910300  0.530000  1.0  -0.078
  C  C190  1  0.179900  0.882200  0.460500  1.0  0.0038
  C  C191  1  0.364870  0.812330  0.384130  1.0  0.2469
  C  C192  1  0.504170  0.178330  0.579530  1.0  0.2295
  C  C193  1  0.889570  0.033130  0.915630  1.0  0.2203
  C  C194  1  0.645570  0.170430  0.724230  1.0  0.2252
  C  C195  1  0.584870  0.989030  0.395430  1.0  -0.0317
  C  C196  1  0.580770  0.062830  0.433830  1.0  -0.0743
  C  C197  1  0.575270  0.044730  0.505330  1.0  0.0128
  C  C198  1  0.926970  0.250530  0.899530  1.0  -0.0263
  C  C199  1  0.847970  0.243630  0.863330  1.0  -0.078
  C  C200  1  0.846570  0.215530  0.793830  1.0  0.0038
  C  C201  1  0.031530  0.145670  0.717470  1.0  0.2469
  C  C202  1  0.170830  0.511670  0.912870  1.0  0.2295
  C  C203  1  0.556230  0.366470  0.248970  1.0  0.2202
  C  C204  1  0.312230  0.503770  0.057570  1.0  0.2252
  C  C205  1  0.251530  0.322370  0.728770  1.0  -0.0316
  C  C206  1  0.247430  0.396170  0.767170  1.0  -0.0743
  C  C207  1  0.241930  0.378070  0.838670  1.0  0.0128
  C  C208  1  0.593630  0.583870  0.232870  1.0  -0.0263
  C  C209  1  0.514630  0.576970  0.196670  1.0  -0.078
  C  C210  1  0.513230  0.548870  0.127170  1.0  0.0038
  C  C211  1  0.521000  0.219200  0.050800  1.0  0.2455
  C  C212  1  0.155000  0.992500  0.246200  1.0  0.2306
  C  C213  1  0.300200  0.523100  0.582300  1.0  0.2223
  C  C214  1  0.162900  0.141800  0.390900  1.0  0.2266
  C  C215  1  0.344300  0.262500  0.062100  1.0  -0.0324
  C  C216  1  0.270500  0.184600  0.100500  1.0  -0.0732
  C  C217  1  0.288600  0.197200  0.172000  1.0  0.0123
  C  C218  1  0.082800  0.343100  0.566200  1.0  -0.0207
  C  C219  1  0.089700  0.271000  0.530000  1.0  -0.0827
  C  C220  1  0.117800  0.297700  0.460500  1.0  0.0035
  C  C221  1  0.187670  0.552530  0.384130  1.0  0.2461
  C  C222  1  0.821670  0.325830  0.579530  1.0  0.2306
  C  C223  1  0.966870  0.856430  0.915630  1.0  0.2223
  C  C224  1  0.829570  0.475130  0.724230  1.0  0.2266
  C  C225  1  0.010970  0.595830  0.395430  1.0  -0.0325
  C  C226  1  0.937170  0.517930  0.433830  1.0  -0.0732
  C  C227  1  0.955270  0.530530  0.505330  1.0  0.0123
  C  C228  1  0.749470  0.676430  0.899530  1.0  -0.0207
  C  C229  1  0.756370  0.604330  0.863330  1.0  -0.0827
  C  C230  1  0.784470  0.631030  0.793830  1.0  0.0035
  C  C231  1  0.854330  0.885870  0.717470  1.0  0.2462
  C  C232  1  0.488330  0.659170  0.912870  1.0  0.2306
  C  C233  1  0.633530  0.189770  0.248970  1.0  0.2213
  C  C234  1  0.496230  0.808470  0.057570  1.0  0.2266
  C  C235  1  0.677630  0.929170  0.728770  1.0  -0.0325
  C  C236  1  0.603830  0.851270  0.767170  1.0  -0.0732
  C  C237  1  0.621930  0.863870  0.838670  1.0  0.0123
  C  C238  1  0.416130  0.009770  0.232870  1.0  -0.0207
  C  C239  1  0.423030  0.937670  0.196670  1.0  -0.0827
  C  C240  1  0.451130  0.964370  0.127170  1.0  0.0035
  N  N241  1  0.802000  0.240700  0.032900  1.0  -0.3479
  N  N242  1  0.742400  0.169200  0.065800  1.0  0.1326
  N  N243  1  0.688900  0.182700  0.102620  1.0  -0.4025
  N  N244  1  0.713700  0.268400  0.093690  1.0  -0.1765
  N  N245  1  0.955600  0.183500  0.212500  1.0  -0.3421
  N  N246  1  0.880300  0.104700  0.208500  1.0  0.1756
  N  N247  1  0.883800  0.038300  0.237300  1.0  -0.4002
  N  N248  1  0.965300  0.074900  0.261810  1.0  -0.1994
  N  N249  1  0.557500  0.796200  0.600600  1.0  -0.3498
  N  N250  1  0.571700  0.740000  0.565700  1.0  0.1369
  N  N251  1  0.505200  0.688700  0.527100  1.0  -0.3907
  N  N252  1  0.443700  0.712200  0.537720  1.0  -0.1808
  N  N253  1  0.783900  0.976000  0.424800  1.0  -0.3513
  N  N254  1  0.774300  0.895400  0.425600  1.0  0.1345
  N  N255  1  0.836200  0.887100  0.394400  1.0  -0.3838
  N  N256  1  0.890600  0.967700  0.372400  1.0  -0.2251
  N  N257  1  0.468670  0.574030  0.366230  1.0  -0.3477
  N  N258  1  0.409070  0.502530  0.399130  1.0  0.1326
  N  N259  1  0.355570  0.516030  0.435950  1.0  -0.4025
  N  N260  1  0.380370  0.601730  0.427020  1.0  -0.1765
  N  N261  1  0.622270  0.516830  0.545830  1.0  -0.3421
  N  N262  1  0.546970  0.438030  0.541830  1.0  0.1756
  N  N263  1  0.550470  0.371630  0.570630  1.0  -0.4002
  N  N264  1  0.631970  0.408230  0.595140  1.0  -0.1994
  N  N265  1  0.224170  0.129530  0.933930  1.0  -0.3499
  N  N266  1  0.238370  0.073330  0.899030  1.0  0.1369
  N  N267  1  0.171870  0.022030  0.860430  1.0  -0.3907
  N  N268  1  0.110370  0.045530  0.871050  1.0  -0.1808
  N  N269  1  0.450570  0.309330  0.758130  1.0  -0.3515
  N  N270  1  0.440970  0.228730  0.758930  1.0  0.1345
  N  N271  1  0.502870  0.220430  0.727730  1.0  -0.3838
  N  N272  1  0.557270  0.301030  0.705730  1.0  -0.2251
  N  N273  1  0.135330  0.907370  0.699570  1.0  -0.3479
  N  N274  1  0.075730  0.835870  0.732470  1.0  0.1326
  N  N275  1  0.022230  0.849370  0.769290  1.0  -0.4025
  N  N276  1  0.047030  0.935070  0.760360  1.0  -0.1827
  N  N277  1  0.288930  0.850170  0.879170  1.0  -0.3421
  N  N278  1  0.213630  0.771370  0.875170  1.0  0.1756
  N  N279  1  0.217130  0.704970  0.903970  1.0  -0.4002
  N  N280  1  0.298630  0.741570  0.928480  1.0  -0.1994
  N  N281  1  0.890830  0.462870  0.267270  1.0  -0.3498
  N  N282  1  0.905030  0.406670  0.232370  1.0  0.1369
  N  N283  1  0.838530  0.355370  0.193770  1.0  -0.3907
  N  N284  1  0.777030  0.378870  0.204390  1.0  -0.1808
  N  N285  1  0.117230  0.642670  0.091470  1.0  -0.3513
  N  N286  1  0.107630  0.562070  0.092270  1.0  0.1345
  N  N287  1  0.169530  0.553770  0.061070  1.0  -0.3838
  N  N288  1  0.223930  0.634370  0.039070  1.0  -0.2251
  N  N289  1  0.759300  0.561300  0.032900  1.0  -0.3482
  N  N290  1  0.830800  0.573200  0.065800  1.0  0.1338
  N  N291  1  0.817300  0.506200  0.102620  1.0  -0.4009
  N  N292  1  0.731600  0.445300  0.093690  1.0  -0.1757
  N  N293  1  0.816500  0.772100  0.212500  1.0  -0.344
  N  N294  1  0.895300  0.775600  0.208500  1.0  0.1758
  N  N295  1  0.961700  0.845500  0.237300  1.0  -0.3981
  N  N296  1  0.925100  0.890400  0.261810  1.0  -0.199
  N  N297  1  0.203800  0.761300  0.600600  1.0  -0.3486
  N  N298  1  0.260000  0.831700  0.565700  1.0  0.1383
  N  N299  1  0.311300  0.816500  0.527100  1.0  -0.3897
  N  N300  1  0.287800  0.731500  0.537720  1.0  -0.1818
  N  N301  1  0.024000  0.807900  0.424800  1.0  -0.3502
  N  N302  1  0.104600  0.878900  0.425600  1.0  0.1333
  N  N303  1  0.112900  0.949100  0.394400  1.0  -0.3844
  N  N304  1  0.032300  0.922900  0.372400  1.0  -0.2252
  N  N305  1  0.425970  0.894630  0.366230  1.0  -0.3482
  N  N306  1  0.497470  0.906530  0.399130  1.0  0.1339
  N  N307  1  0.483970  0.839530  0.435950  1.0  -0.4009
  N  N308  1  0.398270  0.778630  0.427020  1.0  -0.1757
  N  N309  1  0.483170  0.105430  0.545830  1.0  -0.344
  N  N310  1  0.561970  0.108930  0.541830  1.0  0.1758
  N  N311  1  0.628370  0.178830  0.570630  1.0  -0.3981
  N  N312  1  0.591770  0.223730  0.595140  1.0  -0.1991
  N  N313  1  0.870470  0.094630  0.933930  1.0  -0.3487
  N  N314  1  0.926670  0.165030  0.899030  1.0  0.1383
  N  N315  1  0.977970  0.149830  0.860430  1.0  -0.3897
  N  N316  1  0.954470  0.064830  0.871050  1.0  -0.1818
  N  N317  1  0.690670  0.141230  0.758130  1.0  -0.3501
  N  N318  1  0.771270  0.212230  0.758930  1.0  0.1333
  N  N319  1  0.779570  0.282430  0.727730  1.0  -0.3844
  N  N320  1  0.698970  0.256230  0.705730  1.0  -0.2252
  N  N321  1  0.092630  0.227970  0.699570  1.0  -0.3482
  N  N322  1  0.164130  0.239870  0.732470  1.0  0.1339
  N  N323  1  0.150630  0.172870  0.769290  1.0  -0.4009
  N  N324  1  0.064930  0.111970  0.760360  1.0  -0.1757
  N  N325  1  0.149830  0.438770  0.879170  1.0  -0.344
  N  N326  1  0.228630  0.442270  0.875170  1.0  0.1758
  N  N327  1  0.295030  0.512170  0.903970  1.0  -0.3981
  N  N328  1  0.258430  0.557070  0.928480  1.0  -0.199
  N  N329  1  0.537130  0.427970  0.267270  1.0  -0.3485
  N  N330  1  0.593330  0.498370  0.232370  1.0  0.1383
  N  N331  1  0.644630  0.483170  0.193770  1.0  -0.3897
  N  N332  1  0.621130  0.398170  0.204390  1.0  -0.1818
  N  N333  1  0.357330  0.474570  0.091470  1.0  -0.3502
  N  N334  1  0.437930  0.545570  0.092270  1.0  0.1333
  N  N335  1  0.446230  0.615770  0.061070  1.0  -0.3844
  N  N336  1  0.365630  0.589570  0.039070  1.0  -0.2252
  N  N337  1  0.438700  0.198000  0.032900  1.0  -0.3479
  N  N338  1  0.426800  0.257600  0.065800  1.0  0.1305
  N  N339  1  0.493800  0.311100  0.102620  1.0  -0.4025
  N  N340  1  0.554700  0.286300  0.093690  1.0  -0.177
  N  N341  1  0.227900  0.044400  0.212500  1.0  -0.3455
  N  N342  1  0.224400  0.119700  0.208500  1.0  0.1757
  N  N343  1  0.154500  0.116200  0.237300  1.0  -0.397
  N  N344  1  0.109600  0.034700  0.261810  1.0  -0.1999
  N  N345  1  0.238700  0.442500  0.600600  1.0  -0.3492
  N  N346  1  0.168300  0.428300  0.565700  1.0  0.1376
  N  N347  1  0.183500  0.494800  0.527100  1.0  -0.3912
  N  N348  1  0.268500  0.556300  0.537720  1.0  -0.1823
  N  N349  1  0.192100  0.216100  0.424800  1.0  -0.3516
  N  N350  1  0.121100  0.225700  0.425600  1.0  0.135
  N  N351  1  0.050900  0.163800  0.394400  1.0  -0.3827
  N  N352  1  0.077100  0.109400  0.372400  1.0  -0.224
  N  N353  1  0.105370  0.531330  0.366230  1.0  -0.3479
  N  N354  1  0.093470  0.590930  0.399130  1.0  0.1305
  N  N355  1  0.160470  0.644430  0.435950  1.0  -0.4025
  N  N356  1  0.221370  0.619630  0.427020  1.0  -0.177
  N  N357  1  0.894570  0.377730  0.545830  1.0  -0.3455
  N  N358  1  0.891070  0.453030  0.541830  1.0  0.1757
  N  N359  1  0.821170  0.449530  0.570630  1.0  -0.397
  N  N360  1  0.776270  0.368030  0.595140  1.0  -0.1998
  N  N361  1  0.905370  0.775830  0.933930  1.0  -0.3492
  N  N362  1  0.834970  0.761630  0.899030  1.0  0.1376
  N  N363  1  0.850170  0.828130  0.860430  1.0  -0.3912
  N  N364  1  0.935170  0.889630  0.871050  1.0  -0.1823
  N  N365  1  0.858770  0.549430  0.758130  1.0  -0.3517
  N  N366  1  0.787770  0.559030  0.758930  1.0  0.135
  N  N367  1  0.717570  0.497130  0.727730  1.0  -0.3827
  N  N368  1  0.743770  0.442730  0.705730  1.0  -0.224
  N  N369  1  0.772030  0.864670  0.699570  1.0  -0.3479
  N  N370  1  0.760130  0.924270  0.732470  1.0  0.1305
  N  N371  1  0.827130  0.977770  0.769290  1.0  -0.4025
  N  N372  1  0.888030  0.952970  0.760360  1.0  -0.1831
  N  N373  1  0.561230  0.711070  0.879170  1.0  -0.3455
  N  N374  1  0.557730  0.786370  0.875170  1.0  0.1757
  N  N375  1  0.487830  0.782870  0.903970  1.0  -0.397
  N  N376  1  0.442930  0.701370  0.928480  1.0  -0.2
  N  N377  1  0.572030  0.109170  0.267270  1.0  -0.3492
  N  N378  1  0.501630  0.094970  0.232370  1.0  0.1376
  N  N379  1  0.516830  0.161470  0.193770  1.0  -0.3912
  N  N380  1  0.601830  0.222970  0.204390  1.0  -0.1823
  N  N381  1  0.525430  0.882770  0.091470  1.0  -0.3516
  N  N382  1  0.454430  0.892370  0.092270  1.0  0.135
  N  N383  1  0.384230  0.830470  0.061070  1.0  -0.3827
  N  N384  1  0.410430  0.776070  0.039070  1.0  -0.224
