# generated using pymatgen
data_Cd3(C2N)4
_symmetry_space_group_name_H-M   'P 1'
_cell_length_a   14.04400000
_cell_length_b   18.03400000
_cell_length_c   12.93100000
_cell_angle_alpha   90.00000000
_cell_angle_beta   111.47000000
_cell_angle_gamma   90.00000000
_symmetry_Int_Tables_number   1
_chemical_formula_structural   Cd3(C2N)4
_chemical_formula_sum   'Cd12 C32 N16'
_cell_volume   3047.77150864
_cell_formula_units_Z   4
loop_
 _symmetry_equiv_pos_site_id
 _symmetry_equiv_pos_as_xyz
  1  'x, y, z'
loop_
 _atom_site_type_symbol
 _atom_site_label
 _atom_site_symmetry_multiplicity
 _atom_site_fract_x
 _atom_site_fract_y
 _atom_site_fract_z
 _atom_site_occupancy
 _atom_site_charge
  Cd  Cd1  1  0.425650  0.360080  0.420640  1.0  0.5836
  Cd  Cd2  1  0.925650  0.860080  0.420640  1.0  0.5836
  Cd  Cd3  1  0.574350  0.360080  0.079360  1.0  0.5835
  Cd  Cd4  1  0.074350  0.860080  0.079360  1.0  0.5835
  Cd  Cd5  1  0.574350  0.639920  0.579360  1.0  0.5834
  Cd  Cd6  1  0.074350  0.139920  0.579360  1.0  0.5834
  Cd  Cd7  1  0.425650  0.639920  0.920640  1.0  0.5837
  Cd  Cd8  1  0.925650  0.139920  0.920640  1.0  0.5837
  Cd  Cd9  1  0.000000  0.354480  0.250000  1.0  0.9795
  Cd  Cd10  1  0.500000  0.854480  0.250000  1.0  0.9795
  Cd  Cd11  1  0.000000  0.645520  0.750000  1.0  0.9791
  Cd  Cd12  1  0.500000  0.145520  0.750000  1.0  0.9791
  C  C13  1  0.258700  0.368100  0.344700  1.0  -0.0204
  C  C14  1  0.473700  0.274300  0.548800  1.0  -0.0151
  C  C15  1  0.484800  0.470100  0.484600  1.0  -0.0889
  C  C16  1  0.487900  0.344700  0.287100  1.0  -0.1202
  C  C17  1  0.758700  0.868100  0.344700  1.0  -0.0204
  C  C18  1  0.973700  0.774300  0.548800  1.0  -0.0151
  C  C19  1  0.984800  0.970100  0.484600  1.0  -0.0889
  C  C20  1  0.987900  0.844700  0.287100  1.0  -0.1202
  C  C21  1  0.741300  0.368100  0.155300  1.0  -0.0189
  C  C22  1  0.526300  0.274300  0.951200  1.0  -0.0161
  C  C23  1  0.515200  0.470100  0.015400  1.0  -0.0888
  C  C24  1  0.512100  0.344700  0.212900  1.0  -0.1232
  C  C25  1  0.241300  0.868100  0.155300  1.0  -0.0186
  C  C26  1  0.026300  0.774300  0.951200  1.0  -0.0161
  C  C27  1  0.015200  0.970100  0.015400  1.0  -0.0888
  C  C28  1  0.012100  0.844700  0.212900  1.0  -0.1232
  C  C29  1  0.741300  0.631900  0.655300  1.0  -0.0192
  C  C30  1  0.526300  0.725700  0.451200  1.0  -0.0143
  C  C31  1  0.515200  0.529900  0.515400  1.0  -0.092
  C  C32  1  0.512100  0.655300  0.712900  1.0  -0.1242
  C  C33  1  0.241300  0.131900  0.655300  1.0  -0.0193
  C  C34  1  0.026300  0.225700  0.451200  1.0  -0.0143
  C  C35  1  0.015200  0.029900  0.515400  1.0  -0.0921
  C  C36  1  0.012100  0.155300  0.712900  1.0  -0.1242
  C  C37  1  0.258700  0.631900  0.844700  1.0  -0.0211
  C  C38  1  0.473700  0.725700  0.048800  1.0  -0.0138
  C  C39  1  0.484800  0.529900  0.984600  1.0  -0.0915
  C  C40  1  0.487900  0.655300  0.787100  1.0  -0.124
  C  C41  1  0.758700  0.131900  0.844700  1.0  -0.0211
  C  C42  1  0.973700  0.225700  0.048800  1.0  -0.0138
  C  C43  1  0.984800  0.029900  0.984600  1.0  -0.092
  C  C44  1  0.987900  0.155300  0.787100  1.0  -0.124
  N  N45  1  0.172100  0.368800  0.310900  1.0  -0.4518
  N  N46  1  0.008600  0.269000  0.384600  1.0  -0.3731
  N  N47  1  0.672100  0.868800  0.310900  1.0  -0.4518
  N  N48  1  0.508600  0.769000  0.384600  1.0  -0.3731
  N  N49  1  0.827900  0.368800  0.189100  1.0  -0.4519
  N  N50  1  0.991400  0.269000  0.115400  1.0  -0.3736
  N  N51  1  0.327900  0.868800  0.189100  1.0  -0.4519
  N  N52  1  0.491400  0.769000  0.115400  1.0  -0.3736
  N  N53  1  0.827900  0.631200  0.689100  1.0  -0.4528
  N  N54  1  0.991400  0.731000  0.615400  1.0  -0.3728
  N  N55  1  0.327900  0.131200  0.689100  1.0  -0.4528
  N  N56  1  0.491400  0.231000  0.615400  1.0  -0.3728
  N  N57  1  0.172100  0.631200  0.810900  1.0  -0.4524
  N  N58  1  0.008600  0.731000  0.884600  1.0  -0.3725
  N  N59  1  0.672100  0.131200  0.810900  1.0  -0.4524
  N  N60  1  0.508600  0.231000  0.884600  1.0  -0.3725
