# generated using pymatgen
data_Cd2C5N3
_symmetry_space_group_name_H-M   'P 1'
_cell_length_a   15.76200000
_cell_length_b   15.76200000
_cell_length_c   15.76200000
_cell_angle_alpha   90.00000000
_cell_angle_beta   90.00000000
_cell_angle_gamma   90.00000000
_symmetry_Int_Tables_number   1
_chemical_formula_structural   Cd2C5N3
_chemical_formula_sum   'Cd16 C40 N24'
_cell_volume   3915.92143073
_cell_formula_units_Z   8
loop_
 _symmetry_equiv_pos_site_id
 _symmetry_equiv_pos_as_xyz
  1  'x, y, z'
loop_
 _atom_site_type_symbol
 _atom_site_label
 _atom_site_symmetry_multiplicity
 _atom_site_fract_x
 _atom_site_fract_y
 _atom_site_fract_z
 _atom_site_occupancy
 _atom_site_charge
  Cd  Cd1  1  0.250000  0.500000  0.000000  1.0  0.9122
  Cd  Cd2  1  0.750000  0.500000  0.000000  1.0  0.9122
  Cd  Cd3  1  0.000000  0.250000  0.500000  1.0  0.9122
  Cd  Cd4  1  0.000000  0.750000  0.500000  1.0  0.9122
  Cd  Cd5  1  0.500000  0.000000  0.250000  1.0  0.9122
  Cd  Cd6  1  0.500000  0.000000  0.750000  1.0  0.9122
  Cd  Cd7  1  0.000000  0.000000  0.000000  1.0  0.6912
  Cd  Cd8  1  0.500000  0.500000  0.500000  1.0  0.6912
  Cd  Cd9  1  0.206870  0.206870  0.206870  1.0  0.6737
  Cd  Cd10  1  0.793130  0.793130  0.206870  1.0  0.6721
  Cd  Cd11  1  0.793130  0.206870  0.793130  1.0  0.6731
  Cd  Cd12  1  0.206870  0.793130  0.793130  1.0  0.6722
  Cd  Cd13  1  0.706870  0.706870  0.706870  1.0  0.6737
  Cd  Cd14  1  0.293130  0.293130  0.706870  1.0  0.6721
  Cd  Cd15  1  0.706870  0.293130  0.293130  1.0  0.6722
  Cd  Cd16  1  0.293130  0.706870  0.293130  1.0  0.6731
  C  C17  1  0.230100  0.319000  0.123800  1.0  -0.0393
  C  C18  1  0.769900  0.681000  0.123800  1.0  -0.0406
  C  C19  1  0.769900  0.319000  0.876200  1.0  -0.0422
  C  C20  1  0.230100  0.681000  0.876200  1.0  -0.0396
  C  C21  1  0.123800  0.230100  0.319000  1.0  -0.0354
  C  C22  1  0.123800  0.769900  0.681000  1.0  -0.036
  C  C23  1  0.876200  0.769900  0.319000  1.0  -0.0405
  C  C24  1  0.876200  0.230100  0.681000  1.0  -0.0371
  C  C25  1  0.319000  0.123800  0.230100  1.0  -0.0364
  C  C26  1  0.681000  0.123800  0.769900  1.0  -0.0363
  C  C27  1  0.319000  0.876200  0.769900  1.0  -0.0401
  C  C28  1  0.681000  0.876200  0.230100  1.0  -0.0367
  C  C29  1  0.819000  0.730100  0.623800  1.0  -0.0368
  C  C30  1  0.181000  0.269900  0.623800  1.0  -0.0366
  C  C31  1  0.819000  0.269900  0.376200  1.0  -0.0384
  C  C32  1  0.181000  0.730100  0.376200  1.0  -0.0359
  C  C33  1  0.730100  0.623800  0.819000  1.0  -0.0378
  C  C34  1  0.269900  0.623800  0.181000  1.0  -0.039
  C  C35  1  0.269900  0.376200  0.819000  1.0  -0.0428
  C  C36  1  0.730100  0.376200  0.181000  1.0  -0.0391
  C  C37  1  0.623800  0.819000  0.730100  1.0  -0.0354
  C  C38  1  0.623800  0.181000  0.269900  1.0  -0.0375
  C  C39  1  0.376200  0.819000  0.269900  1.0  -0.039
  C  C40  1  0.376200  0.181000  0.730100  1.0  -0.0401
  C  C41  1  0.082500  0.082500  0.082500  1.0  -0.0862
  C  C42  1  0.123800  0.123800  0.123800  1.0  -0.135
  C  C43  1  0.917500  0.917500  0.082500  1.0  -0.087
  C  C44  1  0.876200  0.876200  0.123800  1.0  -0.1342
  C  C45  1  0.917500  0.082500  0.917500  1.0  -0.0876
  C  C46  1  0.876200  0.123800  0.876200  1.0  -0.1335
  C  C47  1  0.082500  0.917500  0.917500  1.0  -0.0891
  C  C48  1  0.123800  0.876200  0.876200  1.0  -0.1337
  C  C49  1  0.582500  0.582500  0.582500  1.0  -0.0862
  C  C50  1  0.623800  0.623800  0.623800  1.0  -0.135
  C  C51  1  0.417500  0.417500  0.582500  1.0  -0.087
  C  C52  1  0.376200  0.376200  0.623800  1.0  -0.1342
  C  C53  1  0.582500  0.417500  0.417500  1.0  -0.0891
  C  C54  1  0.623800  0.376200  0.376200  1.0  -0.1337
  C  C55  1  0.417500  0.582500  0.417500  1.0  -0.0876
  C  C56  1  0.376200  0.623800  0.376200  1.0  -0.1335
  N  N57  1  0.238500  0.375800  0.082600  1.0  -0.3989
  N  N58  1  0.761500  0.624200  0.082600  1.0  -0.3981
  N  N59  1  0.761500  0.375800  0.917400  1.0  -0.3997
  N  N60  1  0.238500  0.624200  0.917400  1.0  -0.3989
  N  N61  1  0.082600  0.238500  0.375800  1.0  -0.3981
  N  N62  1  0.082600  0.761500  0.624200  1.0  -0.3972
  N  N63  1  0.917400  0.761500  0.375800  1.0  -0.3966
  N  N64  1  0.917400  0.238500  0.624200  1.0  -0.3961
  N  N65  1  0.375800  0.082600  0.238500  1.0  -0.3976
  N  N66  1  0.624200  0.082600  0.761500  1.0  -0.398
  N  N67  1  0.375800  0.917400  0.761500  1.0  -0.3967
  N  N68  1  0.624200  0.917400  0.238500  1.0  -0.3977
  N  N69  1  0.875800  0.738500  0.582600  1.0  -0.3962
  N  N70  1  0.124200  0.261500  0.582600  1.0  -0.3967
  N  N71  1  0.875800  0.261500  0.417400  1.0  -0.3966
  N  N72  1  0.124200  0.738500  0.417400  1.0  -0.3974
  N  N73  1  0.738500  0.582600  0.875800  1.0  -0.3997
  N  N74  1  0.261500  0.582600  0.124200  1.0  -0.3987
  N  N75  1  0.261500  0.417400  0.875800  1.0  -0.3988
  N  N76  1  0.738500  0.417400  0.124200  1.0  -0.3981
  N  N77  1  0.582600  0.875800  0.738500  1.0  -0.3989
  N  N78  1  0.582600  0.124200  0.261500  1.0  -0.3978
  N  N79  1  0.417400  0.875800  0.261500  1.0  -0.3975
  N  N80  1  0.417400  0.124200  0.738500  1.0  -0.397
