# generated using pymatgen
data_Cd2C5N3
_symmetry_space_group_name_H-M   'P 1'
_cell_length_a   15.66100000
_cell_length_b   15.66100000
_cell_length_c   15.66100000
_cell_angle_alpha   90.00000000
_cell_angle_beta   90.00000000
_cell_angle_gamma   90.00000000
_symmetry_Int_Tables_number   1
_chemical_formula_structural   Cd2C5N3
_chemical_formula_sum   'Cd16 C40 N24'
_cell_volume   3841.12524978
_cell_formula_units_Z   8
loop_
 _symmetry_equiv_pos_site_id
 _symmetry_equiv_pos_as_xyz
  1  'x, y, z'
loop_
 _atom_site_type_symbol
 _atom_site_label
 _atom_site_symmetry_multiplicity
 _atom_site_fract_x
 _atom_site_fract_y
 _atom_site_fract_z
 _atom_site_occupancy
 _atom_site_charge
  Cd  Cd1  1  0.250000  0.500000  0.000000  1.0  0.9036
  Cd  Cd2  1  0.750000  0.500000  0.000000  1.0  0.9036
  Cd  Cd3  1  0.000000  0.250000  0.500000  1.0  0.9036
  Cd  Cd4  1  0.000000  0.750000  0.500000  1.0  0.9036
  Cd  Cd5  1  0.500000  0.000000  0.250000  1.0  0.9036
  Cd  Cd6  1  0.500000  0.000000  0.750000  1.0  0.9036
  Cd  Cd7  1  0.000000  0.000000  0.000000  1.0  0.5863
  Cd  Cd8  1  0.500000  0.500000  0.500000  1.0  0.5863
  Cd  Cd9  1  0.207540  0.207540  0.207540  1.0  0.651
  Cd  Cd10  1  0.792460  0.792460  0.207540  1.0  0.649
  Cd  Cd11  1  0.792460  0.207540  0.792460  1.0  0.6498
  Cd  Cd12  1  0.207540  0.792460  0.792460  1.0  0.6496
  Cd  Cd13  1  0.707540  0.707540  0.707540  1.0  0.651
  Cd  Cd14  1  0.292460  0.292460  0.707540  1.0  0.649
  Cd  Cd15  1  0.707540  0.292460  0.292460  1.0  0.6496
  Cd  Cd16  1  0.292460  0.707540  0.292460  1.0  0.6498
  C  C17  1  0.231700  0.323300  0.123700  1.0  -0.0174
  C  C18  1  0.768300  0.676700  0.123700  1.0  -0.0185
  C  C19  1  0.768300  0.323300  0.876300  1.0  -0.0176
  C  C20  1  0.231700  0.676700  0.876300  1.0  -0.0183
  C  C21  1  0.123700  0.231700  0.323300  1.0  -0.0157
  C  C22  1  0.123700  0.768300  0.676700  1.0  -0.0151
  C  C23  1  0.876300  0.768300  0.323300  1.0  -0.0154
  C  C24  1  0.876300  0.231700  0.676700  1.0  -0.016
  C  C25  1  0.323300  0.123700  0.231700  1.0  -0.0148
  C  C26  1  0.676700  0.123700  0.768300  1.0  -0.0151
  C  C27  1  0.323300  0.876300  0.768300  1.0  -0.0149
  C  C28  1  0.676700  0.876300  0.231700  1.0  -0.0148
  C  C29  1  0.823300  0.731700  0.623700  1.0  -0.013
  C  C30  1  0.176700  0.268300  0.623700  1.0  -0.0128
  C  C31  1  0.823300  0.268300  0.376300  1.0  -0.0125
  C  C32  1  0.176700  0.731700  0.376300  1.0  -0.0131
  C  C33  1  0.731700  0.623700  0.823300  1.0  -0.0155
  C  C34  1  0.268300  0.623700  0.176700  1.0  -0.0163
  C  C35  1  0.268300  0.376300  0.823300  1.0  -0.016
  C  C36  1  0.731700  0.376300  0.176700  1.0  -0.016
  C  C37  1  0.623700  0.823300  0.731700  1.0  -0.0125
  C  C38  1  0.623700  0.176700  0.268300  1.0  -0.0135
  C  C39  1  0.376300  0.823300  0.268300  1.0  -0.0131
  C  C40  1  0.376300  0.176700  0.731700  1.0  -0.014
  C  C41  1  0.081270  0.081270  0.081270  1.0  -0.11
  C  C42  1  0.125200  0.125200  0.125200  1.0  -0.1842
  C  C43  1  0.918730  0.918730  0.081270  1.0  -0.1126
  C  C44  1  0.874800  0.874800  0.125200  1.0  -0.1824
  C  C45  1  0.918730  0.081270  0.918730  1.0  -0.1121
  C  C46  1  0.874800  0.125200  0.874800  1.0  -0.1822
  C  C47  1  0.081270  0.918730  0.918730  1.0  -0.1118
  C  C48  1  0.125200  0.874800  0.874800  1.0  -0.1827
  C  C49  1  0.581270  0.581270  0.581270  1.0  -0.11
  C  C50  1  0.625200  0.625200  0.625200  1.0  -0.1842
  C  C51  1  0.418730  0.418730  0.581270  1.0  -0.1126
  C  C52  1  0.374800  0.374800  0.625200  1.0  -0.1824
  C  C53  1  0.581270  0.418730  0.418730  1.0  -0.1118
  C  C54  1  0.625200  0.374800  0.374800  1.0  -0.1827
  C  C55  1  0.418730  0.581270  0.418730  1.0  -0.1121
  C  C56  1  0.374800  0.625200  0.374800  1.0  -0.1822
  N  N57  1  0.240100  0.378400  0.084400  1.0  -0.3801
  N  N58  1  0.759900  0.621600  0.084400  1.0  -0.378
  N  N59  1  0.759900  0.378400  0.915600  1.0  -0.3813
  N  N60  1  0.240100  0.621600  0.915600  1.0  -0.3786
  N  N61  1  0.084400  0.240100  0.378400  1.0  -0.3781
  N  N62  1  0.084400  0.759900  0.621600  1.0  -0.3778
  N  N63  1  0.915600  0.759900  0.378400  1.0  -0.3758
  N  N64  1  0.915600  0.240100  0.621600  1.0  -0.3766
  N  N65  1  0.378400  0.084400  0.240100  1.0  -0.3766
  N  N66  1  0.621600  0.084400  0.759900  1.0  -0.3776
  N  N67  1  0.378400  0.915600  0.759900  1.0  -0.3776
  N  N68  1  0.621600  0.915600  0.240100  1.0  -0.3795
  N  N69  1  0.878400  0.740100  0.584400  1.0  -0.3762
  N  N70  1  0.121600  0.259900  0.584400  1.0  -0.377
  N  N71  1  0.878400  0.259900  0.415600  1.0  -0.3766
  N  N72  1  0.121600  0.740100  0.415600  1.0  -0.3785
  N  N73  1  0.740100  0.584400  0.878400  1.0  -0.3777
  N  N74  1  0.259900  0.584400  0.121600  1.0  -0.3778
  N  N75  1  0.259900  0.415600  0.878400  1.0  -0.3793
  N  N76  1  0.740100  0.415600  0.121600  1.0  -0.3794
  N  N77  1  0.584400  0.878400  0.740100  1.0  -0.3811
  N  N78  1  0.584400  0.121600  0.259900  1.0  -0.3783
  N  N79  1  0.415600  0.878400  0.259900  1.0  -0.3788
  N  N80  1  0.415600  0.121600  0.740100  1.0  -0.377
