# generated using pymatgen
data_Zn3H16(C2O)16
_symmetry_space_group_name_H-M   'P 1'
_cell_length_a   14.08500000
_cell_length_b   14.01900000
_cell_length_c   24.13000000
_cell_angle_alpha   90.00000000
_cell_angle_beta   90.00000000
_cell_angle_gamma   90.00000000
_symmetry_Int_Tables_number   1
_chemical_formula_structural   Zn3H16(C2O)16
_chemical_formula_sum   'Zn12 H64 C128 O64'
_cell_volume   4764.65224995
_cell_formula_units_Z   4
loop_
 _symmetry_equiv_pos_site_id
 _symmetry_equiv_pos_as_xyz
  1  'x, y, z'
loop_
 _atom_site_type_symbol
 _atom_site_label
 _atom_site_symmetry_multiplicity
 _atom_site_fract_x
 _atom_site_fract_y
 _atom_site_fract_z
 _atom_site_occupancy
 _atom_site_charge
  Zn  Zn1  1  0.439610  0.090670  0.373450  1.0  1.0494
  Zn  Zn2  1  0.060390  0.909330  0.873450  1.0  1.0487
  Zn  Zn3  1  0.560390  0.590670  0.126550  1.0  1.051
  Zn  Zn4  1  0.939610  0.409330  0.626550  1.0  1.0509
  Zn  Zn5  1  0.560390  0.909330  0.626550  1.0  1.0508
  Zn  Zn6  1  0.939610  0.090670  0.126550  1.0  1.0512
  Zn  Zn7  1  0.439610  0.409330  0.873450  1.0  1.0493
  Zn  Zn8  1  0.060390  0.590670  0.373450  1.0  1.0487
  Zn  Zn9  1  0.500000  0.000000  0.500000  1.0  1.0957
  Zn  Zn10  1  0.000000  0.000000  0.000000  1.0  1.0957
  Zn  Zn11  1  0.500000  0.500000  0.000000  1.0  1.0957
  Zn  Zn12  1  0.000000  0.500000  0.500000  1.0  1.0957
  H  H13  1  0.700300  0.235200  0.522900  1.0  0.1224
  H  H14  1  0.789300  0.483200  0.461000  1.0  0.1231
  H  H15  1  0.707300  0.453000  0.380400  1.0  0.1171
  H  H16  1  0.622200  0.314800  0.370300  1.0  0.1311
  H  H17  1  0.527400  0.841100  0.284000  1.0  0.1254
  H  H18  1  0.642100  0.584200  0.302800  1.0  0.128
  H  H19  1  0.653800  0.610400  0.396600  1.0  0.1153
  H  H20  1  0.591100  0.747200  0.435400  1.0  0.1254
  H  H21  1  0.799700  0.764800  0.022900  1.0  0.1218
  H  H22  1  0.710700  0.516800  0.961000  1.0  0.1224
  H  H23  1  0.792700  0.547000  0.880400  1.0  0.1172
  H  H24  1  0.877800  0.685200  0.870300  1.0  0.1313
  H  H25  1  0.972600  0.158900  0.784000  1.0  0.1251
  H  H26  1  0.857900  0.415800  0.802800  1.0  0.1285
  H  H27  1  0.846200  0.389600  0.896600  1.0  0.116
  H  H28  1  0.908900  0.252800  0.935400  1.0  0.1257
  H  H29  1  0.299700  0.735200  0.977100  1.0  0.1225
  H  H30  1  0.210700  0.983200  0.039000  1.0  0.1225
  H  H31  1  0.292700  0.953000  0.119600  1.0  0.1179
  H  H32  1  0.377800  0.814800  0.129700  1.0  0.1305
  H  H33  1  0.472600  0.341100  0.216000  1.0  0.1253
  H  H34  1  0.357900  0.084200  0.197200  1.0  0.1279
  H  H35  1  0.346200  0.110400  0.103400  1.0  0.1159
  H  H36  1  0.408900  0.247200  0.064600  1.0  0.1256
  H  H37  1  0.200300  0.264800  0.477100  1.0  0.1224
  H  H38  1  0.289300  0.016800  0.539000  1.0  0.1224
  H  H39  1  0.207300  0.047000  0.619600  1.0  0.1185
  H  H40  1  0.122200  0.185200  0.629700  1.0  0.131
  H  H41  1  0.027400  0.658900  0.716000  1.0  0.1253
  H  H42  1  0.142100  0.915800  0.697200  1.0  0.1281
  H  H43  1  0.153800  0.889600  0.603400  1.0  0.1158
  H  H44  1  0.091100  0.752800  0.564600  1.0  0.1259
  H  H45  1  0.299700  0.764800  0.477100  1.0  0.1221
  H  H46  1  0.210700  0.516800  0.539000  1.0  0.122
  H  H47  1  0.292700  0.547000  0.619600  1.0  0.1185
  H  H48  1  0.377800  0.685200  0.629700  1.0  0.1307
  H  H49  1  0.472600  0.158900  0.716000  1.0  0.1255
  H  H50  1  0.357900  0.415800  0.697200  1.0  0.1284
  H  H51  1  0.346200  0.389600  0.603400  1.0  0.1161
  H  H52  1  0.408900  0.252800  0.564600  1.0  0.1254
  H  H53  1  0.200300  0.235200  0.977100  1.0  0.1227
  H  H54  1  0.289300  0.483200  0.039000  1.0  0.1228
  H  H55  1  0.207300  0.453000  0.119600  1.0  0.1181
  H  H56  1  0.122200  0.314800  0.129700  1.0  0.1309
  H  H57  1  0.027400  0.841100  0.216000  1.0  0.1254
  H  H58  1  0.142100  0.584200  0.197200  1.0  0.1278
  H  H59  1  0.153800  0.610400  0.103400  1.0  0.1158
  H  H60  1  0.091100  0.747200  0.064600  1.0  0.126
  H  H61  1  0.700300  0.264800  0.022900  1.0  0.122
  H  H62  1  0.789300  0.016800  0.961000  1.0  0.123
  H  H63  1  0.707300  0.047000  0.880400  1.0  0.1169
  H  H64  1  0.622200  0.185200  0.870300  1.0  0.131
  H  H65  1  0.527400  0.658900  0.784000  1.0  0.1248
  H  H66  1  0.642100  0.915800  0.802800  1.0  0.1283
  H  H67  1  0.653800  0.889600  0.896600  1.0  0.1154
  H  H68  1  0.591100  0.752800  0.935400  1.0  0.1256
  H  H69  1  0.799700  0.735200  0.522900  1.0  0.1222
  H  H70  1  0.710700  0.983200  0.461000  1.0  0.1228
  H  H71  1  0.792700  0.953000  0.380400  1.0  0.1171
  H  H72  1  0.877800  0.814800  0.370300  1.0  0.1313
  H  H73  1  0.972600  0.341100  0.284000  1.0  0.1253
  H  H74  1  0.857900  0.084200  0.302800  1.0  0.1281
  H  H75  1  0.846200  0.110400  0.396600  1.0  0.1157
  H  H76  1  0.908900  0.247200  0.435400  1.0  0.1256
  C  C77  1  0.650600  0.259400  0.446000  1.0  -0.1831
  C  C78  1  0.702200  0.278600  0.493700  1.0  0.0078
  C  C79  1  0.756600  0.361100  0.499200  1.0  -0.164
  C  C80  1  0.755900  0.426400  0.457200  1.0  -0.0397
  C  C81  1  0.706100  0.408600  0.409100  1.0  -0.0918
  C  C82  1  0.654700  0.326300  0.403200  1.0  -0.0288
  C  C83  1  0.592000  0.171600  0.439000  1.0  0.7416
  C  C84  1  0.817200  0.376200  0.550800  1.0  0.7017
  C  C85  1  0.555400  0.809100  0.363800  1.0  -0.1285
  C  C86  1  0.552200  0.793800  0.306900  1.0  0.0224
  C  C87  1  0.584800  0.710300  0.283600  1.0  -0.125
  C  C88  1  0.620900  0.641500  0.317700  1.0  -0.0174
  C  C89  1  0.626200  0.656400  0.374000  1.0  -0.0889
  C  C90  1  0.590800  0.739200  0.397100  1.0  -0.017
  C  C91  1  0.520800  0.900800  0.388000  1.0  0.7389
  C  C92  1  0.580400  0.697900  0.222500  1.0  0.7167
  C  C93  1  0.849400  0.740600  0.946000  1.0  -0.1812
  C  C94  1  0.797800  0.721400  0.993700  1.0  0.0085
  C  C95  1  0.743400  0.638900  0.999200  1.0  -0.1634
  C  C96  1  0.744100  0.573600  0.957200  1.0  -0.0377
  C  C97  1  0.793900  0.591400  0.909100  1.0  -0.0921
  C  C98  1  0.845300  0.673700  0.903200  1.0  -0.0289
  C  C99  1  0.908000  0.828400  0.939000  1.0  0.7417
  C  C100  1  0.682800  0.623800  0.050800  1.0  0.7022
  C  C101  1  0.944600  0.190900  0.863800  1.0  -0.1287
  C  C102  1  0.947800  0.206200  0.806900  1.0  0.022
  C  C103  1  0.915200  0.289700  0.783600  1.0  -0.1248
  C  C104  1  0.879100  0.358500  0.817700  1.0  -0.0165
  C  C105  1  0.873800  0.343600  0.874000  1.0  -0.0898
  C  C106  1  0.909200  0.260800  0.897100  1.0  -0.0172
  C  C107  1  0.979200  0.099200  0.888000  1.0  0.7384
  C  C108  1  0.919600  0.302100  0.722500  1.0  0.7163
  C  C109  1  0.349400  0.759400  0.054000  1.0  -0.1811
  C  C110  1  0.297800  0.778600  0.006300  1.0  0.0079
  C  C111  1  0.243400  0.861100  0.000800  1.0  -0.1671
  C  C112  1  0.244100  0.926400  0.042800  1.0  -0.038
  C  C113  1  0.293900  0.908600  0.090900  1.0  -0.0931
  C  C114  1  0.345300  0.826300  0.096800  1.0  -0.0284
  C  C115  1  0.408000  0.671600  0.061000  1.0  0.7414
  C  C116  1  0.182800  0.876200  0.949200  1.0  0.6998
  C  C117  1  0.444600  0.309100  0.136200  1.0  -0.13
  C  C118  1  0.447800  0.293800  0.193100  1.0  0.0221
  C  C119  1  0.415200  0.210300  0.216400  1.0  -0.1236
  C  C120  1  0.379100  0.141500  0.182300  1.0  -0.0171
  C  C121  1  0.373800  0.156400  0.126000  1.0  -0.0887
  C  C122  1  0.409200  0.239200  0.102900  1.0  -0.0159
  C  C123  1  0.479200  0.400800  0.112000  1.0  0.7368
  C  C124  1  0.419600  0.197900  0.277500  1.0  0.7167
  C  C125  1  0.150600  0.240600  0.554000  1.0  -0.1823
  C  C126  1  0.202200  0.221400  0.506300  1.0  0.0088
  C  C127  1  0.256600  0.138900  0.500800  1.0  -0.1671
  C  C128  1  0.255900  0.073600  0.542800  1.0  -0.0392
  C  C129  1  0.206100  0.091400  0.590900  1.0  -0.0935
  C  C130  1  0.154700  0.173700  0.596800  1.0  -0.0305
  C  C131  1  0.092000  0.328400  0.561000  1.0  0.7414
  C  C132  1  0.317200  0.123800  0.449200  1.0  0.6989
  C  C133  1  0.055400  0.690900  0.636200  1.0  -0.1282
  C  C134  1  0.052200  0.706200  0.693100  1.0  0.0211
  C  C135  1  0.084800  0.789700  0.716400  1.0  -0.1232
  C  C136  1  0.120900  0.858500  0.682300  1.0  -0.0167
  C  C137  1  0.126200  0.843600  0.626000  1.0  -0.0908
  C  C138  1  0.090800  0.760800  0.602900  1.0  -0.016
  C  C139  1  0.020800  0.599200  0.612000  1.0  0.738
  C  C140  1  0.080400  0.802100  0.777500  1.0  0.7177
  C  C141  1  0.349400  0.740600  0.554000  1.0  -0.181
  C  C142  1  0.297800  0.721400  0.506300  1.0  0.0081
  C  C143  1  0.243400  0.638900  0.500800  1.0  -0.1672
  C  C144  1  0.244100  0.573600  0.542800  1.0  -0.037
  C  C145  1  0.293900  0.591400  0.590900  1.0  -0.0937
  C  C146  1  0.345300  0.673700  0.596800  1.0  -0.0283
  C  C147  1  0.408000  0.828400  0.561000  1.0  0.7417
  C  C148  1  0.182800  0.623800  0.449200  1.0  0.6997
  C  C149  1  0.444600  0.190900  0.636200  1.0  -0.1289
  C  C150  1  0.447800  0.206200  0.693100  1.0  0.022
  C  C151  1  0.415200  0.289700  0.716400  1.0  -0.1235
  C  C152  1  0.379100  0.358500  0.682300  1.0  -0.0167
  C  C153  1  0.373800  0.343600  0.626000  1.0  -0.0902
  C  C154  1  0.409200  0.260800  0.602900  1.0  -0.0155
  C  C155  1  0.479200  0.099200  0.612000  1.0  0.7371
  C  C156  1  0.419600  0.302100  0.777500  1.0  0.7168
  C  C157  1  0.150600  0.259400  0.054000  1.0  -0.1828
  C  C158  1  0.202200  0.278600  0.006300  1.0  0.0086
  C  C159  1  0.256600  0.361100  0.000800  1.0  -0.167
  C  C160  1  0.255900  0.426400  0.042800  1.0  -0.0397
  C  C161  1  0.206100  0.408600  0.090900  1.0  -0.0931
  C  C162  1  0.154700  0.326300  0.096800  1.0  -0.0311
  C  C163  1  0.092000  0.171600  0.061000  1.0  0.7414
  C  C164  1  0.317200  0.376200  0.949200  1.0  0.6992
  C  C165  1  0.055400  0.809100  0.136200  1.0  -0.1287
  C  C166  1  0.052200  0.793800  0.193100  1.0  0.021
  C  C167  1  0.084800  0.710300  0.216400  1.0  -0.1232
  C  C168  1  0.120900  0.641500  0.182300  1.0  -0.0168
  C  C169  1  0.126200  0.656400  0.126000  1.0  -0.0891
  C  C170  1  0.090800  0.739200  0.102900  1.0  -0.0163
  C  C171  1  0.020800  0.900800  0.112000  1.0  0.7381
  C  C172  1  0.080400  0.697900  0.277500  1.0  0.7175
  C  C173  1  0.650600  0.240600  0.946000  1.0  -0.1825
  C  C174  1  0.702200  0.221400  0.993700  1.0  0.0079
  C  C175  1  0.756600  0.138900  0.999200  1.0  -0.1643
  C  C176  1  0.755900  0.073600  0.957200  1.0  -0.0396
  C  C177  1  0.706100  0.091400  0.909100  1.0  -0.0917
  C  C178  1  0.654700  0.173700  0.903200  1.0  -0.0285
  C  C179  1  0.592000  0.328400  0.939000  1.0  0.7415
  C  C180  1  0.817200  0.123800  0.050800  1.0  0.7017
  C  C181  1  0.555400  0.690900  0.863800  1.0  -0.1286
  C  C182  1  0.552200  0.706200  0.806900  1.0  0.0219
  C  C183  1  0.584800  0.789700  0.783600  1.0  -0.1244
  C  C184  1  0.620900  0.858500  0.817700  1.0  -0.0171
  C  C185  1  0.626200  0.843600  0.874000  1.0  -0.0903
  C  C186  1  0.590800  0.760800  0.897100  1.0  -0.0165
  C  C187  1  0.520800  0.599200  0.888000  1.0  0.7393
  C  C188  1  0.580400  0.802100  0.722500  1.0  0.7168
  C  C189  1  0.849400  0.759400  0.446000  1.0  -0.1815
  C  C190  1  0.797800  0.778600  0.493700  1.0  0.0082
  C  C191  1  0.743400  0.861100  0.499200  1.0  -0.1633
  C  C192  1  0.744100  0.926400  0.457200  1.0  -0.0383
  C  C193  1  0.793900  0.908600  0.409100  1.0  -0.0923
  C  C194  1  0.845300  0.826300  0.403200  1.0  -0.0286
  C  C195  1  0.908000  0.671600  0.439000  1.0  0.7415
  C  C196  1  0.682800  0.876200  0.550800  1.0  0.7021
  C  C197  1  0.944600  0.309100  0.363800  1.0  -0.1295
  C  C198  1  0.947800  0.293800  0.306900  1.0  0.0222
  C  C199  1  0.915200  0.210300  0.283600  1.0  -0.1254
  C  C200  1  0.879100  0.141500  0.317700  1.0  -0.0172
  C  C201  1  0.873800  0.156400  0.374000  1.0  -0.0886
  C  C202  1  0.909200  0.239200  0.397100  1.0  -0.0173
  C  C203  1  0.979200  0.400800  0.388000  1.0  0.7379
  C  C204  1  0.919600  0.197900  0.222500  1.0  0.7161
  O  O205  1  0.549100  0.164000  0.394100  1.0  -0.5942
  O  O206  1  0.591000  0.113300  0.477800  1.0  -0.5918
  O  O207  1  0.807000  0.325200  0.591700  1.0  -0.5478
  O  O208  1  0.878900  0.441600  0.550400  1.0  -0.6348
  O  O209  1  0.479800  0.958300  0.355700  1.0  -0.5861
  O  O210  1  0.536000  0.914000  0.438300  1.0  -0.5999
  O  O211  1  0.593300  0.613300  0.203700  1.0  -0.573
  O  O212  1  0.563300  0.768300  0.193100  1.0  -0.502
  O  O213  1  0.950900  0.836000  0.894100  1.0  -0.5938
  O  O214  1  0.909000  0.886700  0.977800  1.0  -0.5917
  O  O215  1  0.693000  0.674800  0.091700  1.0  -0.5453
  O  O216  1  0.621100  0.558400  0.050400  1.0  -0.6332
  O  O217  1  0.020200  0.041700  0.855700  1.0  -0.5876
  O  O218  1  0.964000  0.086000  0.938300  1.0  -0.5993
  O  O219  1  0.906700  0.386700  0.703700  1.0  -0.5743
  O  O220  1  0.936700  0.231700  0.693100  1.0  -0.503
  O  O221  1  0.450900  0.664000  0.105900  1.0  -0.5939
  O  O222  1  0.409000  0.613300  0.022200  1.0  -0.5919
  O  O223  1  0.193000  0.825200  0.908300  1.0  -0.5475
  O  O224  1  0.121100  0.941600  0.949600  1.0  -0.6352
  O  O225  1  0.520200  0.458300  0.144300  1.0  -0.5844
  O  O226  1  0.464000  0.414000  0.061700  1.0  -0.5981
  O  O227  1  0.406700  0.113300  0.296300  1.0  -0.5734
  O  O228  1  0.436700  0.268300  0.306900  1.0  -0.5059
  O  O229  1  0.049100  0.336000  0.605900  1.0  -0.5943
  O  O230  1  0.091000  0.386700  0.522200  1.0  -0.5909
  O  O231  1  0.307000  0.174800  0.408300  1.0  -0.5465
  O  O232  1  0.378900  0.058400  0.449600  1.0  -0.6335
  O  O233  1  0.979800  0.541700  0.644300  1.0  -0.5863
  O  O234  1  0.036000  0.586000  0.561700  1.0  -0.5992
  O  O235  1  0.093300  0.886700  0.796300  1.0  -0.5738
  O  O236  1  0.063300  0.731700  0.806900  1.0  -0.5051
  O  O237  1  0.450900  0.836000  0.605900  1.0  -0.5936
  O  O238  1  0.409000  0.886700  0.522200  1.0  -0.5918
  O  O239  1  0.193000  0.674800  0.408300  1.0  -0.5479
  O  O240  1  0.121100  0.558400  0.449600  1.0  -0.6343
  O  O241  1  0.520200  0.041700  0.644300  1.0  -0.5844
  O  O242  1  0.464000  0.086000  0.561700  1.0  -0.5981
  O  O243  1  0.406700  0.386700  0.796300  1.0  -0.5745
  O  O244  1  0.436700  0.231700  0.806900  1.0  -0.5053
  O  O245  1  0.049100  0.164000  0.105900  1.0  -0.5945
  O  O246  1  0.091000  0.113300  0.022200  1.0  -0.5912
  O  O247  1  0.307000  0.325200  0.908300  1.0  -0.5459
  O  O248  1  0.378900  0.441600  0.949600  1.0  -0.6349
  O  O249  1  0.979800  0.958300  0.144300  1.0  -0.5867
  O  O250  1  0.036000  0.914000  0.061700  1.0  -0.5992
  O  O251  1  0.093300  0.613300  0.296300  1.0  -0.573
  O  O252  1  0.063300  0.768300  0.306900  1.0  -0.5053
  O  O253  1  0.549100  0.336000  0.894100  1.0  -0.5941
  O  O254  1  0.591000  0.386700  0.977800  1.0  -0.591
  O  O255  1  0.807000  0.174800  0.091700  1.0  -0.5479
  O  O256  1  0.878900  0.058400  0.050400  1.0  -0.6332
  O  O257  1  0.479800  0.541700  0.855700  1.0  -0.5874
  O  O258  1  0.536000  0.586000  0.938300  1.0  -0.6
  O  O259  1  0.593300  0.886700  0.703700  1.0  -0.5733
  O  O260  1  0.563300  0.731700  0.693100  1.0  -0.5028
  O  O261  1  0.950900  0.664000  0.394100  1.0  -0.5939
  O  O262  1  0.909000  0.613300  0.477800  1.0  -0.5925
  O  O263  1  0.693000  0.825200  0.591700  1.0  -0.5458
  O  O264  1  0.621100  0.941600  0.550400  1.0  -0.6344
  O  O265  1  0.020200  0.458300  0.355700  1.0  -0.5866
  O  O266  1  0.964000  0.414000  0.438300  1.0  -0.5993
  O  O267  1  0.906700  0.113300  0.203700  1.0  -0.5736
  O  O268  1  0.936700  0.268300  0.193100  1.0  -0.5025
