# generated using pymatgen
data_Co3H16(C2O)16
_symmetry_space_group_name_H-M   'P 1'
_cell_length_a   13.93350000
_cell_length_b   14.10200000
_cell_length_c   24.57220000
_cell_angle_alpha   90.00000000
_cell_angle_beta   90.00000000
_cell_angle_gamma   90.00000000
_symmetry_Int_Tables_number   1
_chemical_formula_structural   Co3H16(C2O)16
_chemical_formula_sum   'Co12 H64 C128 O64'
_cell_volume   4828.19691017
_cell_formula_units_Z   4
loop_
 _symmetry_equiv_pos_site_id
 _symmetry_equiv_pos_as_xyz
  1  'x, y, z'
loop_
 _atom_site_type_symbol
 _atom_site_label
 _atom_site_symmetry_multiplicity
 _atom_site_fract_x
 _atom_site_fract_y
 _atom_site_fract_z
 _atom_site_occupancy
 _atom_site_charge
  Co  Co1  1  0.430120  0.095940  0.626720  1.0  1.13
  Co  Co2  1  0.069880  0.904060  0.126720  1.0  1.128
  Co  Co3  1  0.569880  0.595940  0.873280  1.0  1.1281
  Co  Co4  1  0.930120  0.404060  0.373280  1.0  1.1312
  Co  Co5  1  0.569880  0.904060  0.373280  1.0  1.1282
  Co  Co6  1  0.930120  0.095940  0.873280  1.0  1.1311
  Co  Co7  1  0.430120  0.404060  0.126720  1.0  1.1301
  Co  Co8  1  0.069880  0.595940  0.626720  1.0  1.1278
  Co  Co9  1  0.500000  0.000000  0.500000  1.0  1.1311
  Co  Co10  1  0.000000  0.000000  0.000000  1.0  1.1311
  Co  Co11  1  0.500000  0.500000  0.000000  1.0  1.1311
  Co  Co12  1  0.000000  0.500000  0.500000  1.0  1.1311
  H  H13  1  0.196800  0.258200  0.525600  1.0  0.1217
  H  H14  1  0.107500  0.181200  0.376600  1.0  0.1241
  H  H15  1  0.192600  0.042100  0.384000  1.0  0.117
  H  H16  1  0.285100  0.011700  0.460200  1.0  0.1173
  H  H17  1  0.519000  0.848500  0.716100  1.0  0.1243
  H  H18  1  0.645300  0.595500  0.698200  1.0  0.1259
  H  H19  1  0.655500  0.621100  0.605200  1.0  0.1113
  H  H20  1  0.601700  0.762100  0.567800  1.0  0.1163
  H  H21  1  0.303200  0.741800  0.025600  1.0  0.1217
  H  H22  1  0.392500  0.818800  0.876600  1.0  0.1243
  H  H23  1  0.307400  0.957900  0.884000  1.0  0.1168
  H  H24  1  0.214900  0.988300  0.960200  1.0  0.1178
  H  H25  1  0.981000  0.151500  0.216100  1.0  0.1246
  H  H26  1  0.854700  0.404500  0.198200  1.0  0.126
  H  H27  1  0.844500  0.378900  0.105200  1.0  0.112
  H  H28  1  0.898300  0.237900  0.067800  1.0  0.116
  H  H29  1  0.803200  0.758200  0.974400  1.0  0.1214
  H  H30  1  0.892500  0.681200  0.123400  1.0  0.124
  H  H31  1  0.807400  0.542100  0.116000  1.0  0.1174
  H  H32  1  0.714900  0.511700  0.039800  1.0  0.1174
  H  H33  1  0.481000  0.348500  0.783900  1.0  0.124
  H  H34  1  0.354700  0.095500  0.801800  1.0  0.1257
  H  H35  1  0.344500  0.121100  0.894800  1.0  0.1115
  H  H36  1  0.398300  0.262100  0.932200  1.0  0.1166
  H  H37  1  0.696800  0.241800  0.474400  1.0  0.1213
  H  H38  1  0.607500  0.318800  0.623400  1.0  0.1241
  H  H39  1  0.692600  0.457900  0.616000  1.0  0.1171
  H  H40  1  0.785100  0.488300  0.539800  1.0  0.1177
  H  H41  1  0.019000  0.651500  0.283900  1.0  0.1241
  H  H42  1  0.145300  0.904500  0.301800  1.0  0.1257
  H  H43  1  0.155500  0.878900  0.394800  1.0  0.1111
  H  H44  1  0.101700  0.737900  0.432200  1.0  0.1163
  H  H45  1  0.803200  0.741800  0.474400  1.0  0.1212
  H  H46  1  0.892500  0.818800  0.623400  1.0  0.1238
  H  H47  1  0.807400  0.957900  0.616000  1.0  0.1171
  H  H48  1  0.714900  0.988300  0.539800  1.0  0.118
  H  H49  1  0.481000  0.151500  0.283900  1.0  0.1243
  H  H50  1  0.354700  0.404500  0.301800  1.0  0.1259
  H  H51  1  0.344500  0.378900  0.394800  1.0  0.1112
  H  H52  1  0.398300  0.237900  0.432200  1.0  0.1162
  H  H53  1  0.696800  0.258200  0.974400  1.0  0.1214
  H  H54  1  0.607500  0.181200  0.123400  1.0  0.1243
  H  H55  1  0.692600  0.042100  0.116000  1.0  0.1174
  H  H56  1  0.785100  0.011700  0.039800  1.0  0.1172
  H  H57  1  0.019000  0.848500  0.783900  1.0  0.1242
  H  H58  1  0.145300  0.595500  0.801800  1.0  0.1257
  H  H59  1  0.155500  0.621100  0.894800  1.0  0.1116
  H  H60  1  0.101700  0.762100  0.932200  1.0  0.1167
  H  H61  1  0.196800  0.241800  0.025600  1.0  0.1219
  H  H62  1  0.107500  0.318800  0.876600  1.0  0.1239
  H  H63  1  0.192600  0.457900  0.884000  1.0  0.117
  H  H64  1  0.285100  0.488300  0.960200  1.0  0.1175
  H  H65  1  0.519000  0.651500  0.216100  1.0  0.1245
  H  H66  1  0.645300  0.904500  0.198200  1.0  0.1259
  H  H67  1  0.655500  0.878900  0.105200  1.0  0.1118
  H  H68  1  0.601700  0.737900  0.067800  1.0  0.1159
  H  H69  1  0.303200  0.758200  0.525600  1.0  0.1216
  H  H70  1  0.392500  0.681200  0.376600  1.0  0.1244
  H  H71  1  0.307400  0.542100  0.384000  1.0  0.1167
  H  H72  1  0.214900  0.511700  0.460200  1.0  0.1175
  H  H73  1  0.981000  0.348500  0.716100  1.0  0.1243
  H  H74  1  0.854700  0.095500  0.698200  1.0  0.126
  H  H75  1  0.844500  0.121100  0.605200  1.0  0.1117
  H  H76  1  0.898300  0.262100  0.567800  1.0  0.1163
  C  C77  1  0.250700  0.132500  0.500500  1.0  -0.1566
  C  C78  1  0.196900  0.215300  0.496860  1.0  -0.0009
  C  C79  1  0.143400  0.234400  0.450450  1.0  -0.1408
  C  C80  1  0.142900  0.168800  0.407960  1.0  -0.0494
  C  C81  1  0.194600  0.086000  0.412200  1.0  -0.0774
  C  C82  1  0.249400  0.067300  0.457920  1.0  -0.0532
  C  C83  1  0.315100  0.114600  0.548060  1.0  0.6909
  C  C84  1  0.084700  0.324200  0.445060  1.0  0.7093
  C  C85  1  0.552900  0.818600  0.638120  1.0  -0.1488
  C  C86  1  0.546700  0.802800  0.693840  1.0  0.0429
  C  C87  1  0.581500  0.719800  0.716560  1.0  -0.1521
  C  C88  1  0.622200  0.651600  0.683300  1.0  -0.0191
  C  C89  1  0.628700  0.667300  0.627500  1.0  -0.1152
  C  C90  1  0.595500  0.751100  0.604900  1.0  0.0017
  C  C91  1  0.517300  0.909400  0.613670  1.0  0.7367
  C  C92  1  0.574800  0.706000  0.777240  1.0  0.7339
  C  C93  1  0.249300  0.867500  0.000500  1.0  -0.1571
  C  C94  1  0.303100  0.784700  0.996860  1.0  -0.0012
  C  C95  1  0.356600  0.765600  0.950450  1.0  -0.1406
  C  C96  1  0.357100  0.831200  0.907960  1.0  -0.0499
  C  C97  1  0.305400  0.914000  0.912200  1.0  -0.0778
  C  C98  1  0.250600  0.932700  0.957920  1.0  -0.0505
  C  C99  1  0.184900  0.885400  0.048060  1.0  0.6891
  C  C100  1  0.415300  0.675800  0.945060  1.0  0.7091
  C  C101  1  0.947100  0.181400  0.138120  1.0  -0.1497
  C  C102  1  0.953300  0.197200  0.193840  1.0  0.0441
  C  C103  1  0.918500  0.280200  0.216560  1.0  -0.1535
  C  C104  1  0.877800  0.348400  0.183300  1.0  -0.0192
  C  C105  1  0.871300  0.332700  0.127500  1.0  -0.1157
  C  C106  1  0.904500  0.248900  0.104900  1.0  0.0015
  C  C107  1  0.982700  0.090600  0.113670  1.0  0.7354
  C  C108  1  0.925200  0.294000  0.277240  1.0  0.7324
  C  C109  1  0.749300  0.632500  0.999500  1.0  -0.157
  C  C110  1  0.803100  0.715300  0.003140  1.0  -1e-04
  C  C111  1  0.856600  0.734400  0.049550  1.0  -0.1405
  C  C112  1  0.857100  0.668800  0.092040  1.0  -0.0496
  C  C113  1  0.805400  0.586000  0.087800  1.0  -0.0805
  C  C114  1  0.750600  0.567300  0.042080  1.0  -0.0581
  C  C115  1  0.684900  0.614600  0.951940  1.0  0.687
  C  C116  1  0.915300  0.824200  0.054940  1.0  0.7099
  C  C117  1  0.447100  0.318600  0.861880  1.0  -0.1494
  C  C118  1  0.453300  0.302800  0.806160  1.0  0.0441
  C  C119  1  0.418500  0.219800  0.783440  1.0  -0.1535
  C  C120  1  0.377800  0.151600  0.816700  1.0  -0.0201
  C  C121  1  0.371300  0.167300  0.872500  1.0  -0.1162
  C  C122  1  0.404500  0.251100  0.895100  1.0  0.0006
  C  C123  1  0.482700  0.409400  0.886330  1.0  0.7351
  C  C124  1  0.425200  0.206000  0.722760  1.0  0.7339
  C  C125  1  0.750700  0.367500  0.499500  1.0  -0.1559
  C  C126  1  0.696900  0.284700  0.503140  1.0  0.0048
  C  C127  1  0.643400  0.265600  0.549550  1.0  -0.1409
  C  C128  1  0.642900  0.331200  0.592040  1.0  -0.0498
  C  C129  1  0.694600  0.414000  0.587800  1.0  -0.0784
  C  C130  1  0.749400  0.432700  0.542080  1.0  -0.0521
  C  C131  1  0.815100  0.385400  0.451940  1.0  0.6875
  C  C132  1  0.584700  0.175800  0.554940  1.0  0.7092
  C  C133  1  0.052900  0.681400  0.361880  1.0  -0.1504
  C  C134  1  0.046700  0.697200  0.306160  1.0  0.0437
  C  C135  1  0.081500  0.780200  0.283440  1.0  -0.1528
  C  C136  1  0.122200  0.848400  0.316700  1.0  -0.0215
  C  C137  1  0.128700  0.832700  0.372500  1.0  -0.1109
  C  C138  1  0.095500  0.748900  0.395100  1.0  0.0016
  C  C139  1  0.017300  0.590600  0.386330  1.0  0.7356
  C  C140  1  0.074800  0.794000  0.222760  1.0  0.7341
  C  C141  1  0.749300  0.867500  0.499500  1.0  -0.1569
  C  C142  1  0.803100  0.784700  0.503140  1.0  -0.0004
  C  C143  1  0.856600  0.765600  0.549550  1.0  -0.1404
  C  C144  1  0.857100  0.831200  0.592040  1.0  -0.0489
  C  C145  1  0.805400  0.914000  0.587800  1.0  -0.0794
  C  C146  1  0.750600  0.932700  0.542080  1.0  -0.0505
  C  C147  1  0.684900  0.885400  0.451940  1.0  0.6865
  C  C148  1  0.915300  0.675800  0.554940  1.0  0.7093
  C  C149  1  0.447100  0.181400  0.361880  1.0  -0.1503
  C  C150  1  0.453300  0.197200  0.306160  1.0  0.0432
  C  C151  1  0.418500  0.280200  0.283440  1.0  -0.1532
  C  C152  1  0.377800  0.348400  0.316700  1.0  -0.0206
  C  C153  1  0.371300  0.332700  0.372500  1.0  -0.1143
  C  C154  1  0.404500  0.248900  0.395100  1.0  0.0013
  C  C155  1  0.482700  0.090600  0.386330  1.0  0.7344
  C  C156  1  0.425200  0.294000  0.222760  1.0  0.7335
  C  C157  1  0.750700  0.132500  0.999500  1.0  -0.156
  C  C158  1  0.696900  0.215300  0.003140  1.0  1e-04
  C  C159  1  0.643400  0.234400  0.049550  1.0  -0.1409
  C  C160  1  0.642900  0.168800  0.092040  1.0  -0.0503
  C  C161  1  0.694600  0.086000  0.087800  1.0  -0.0792
  C  C162  1  0.749400  0.067300  0.042080  1.0  -0.0594
  C  C163  1  0.815100  0.114600  0.951940  1.0  0.6895
  C  C164  1  0.584700  0.324200  0.054940  1.0  0.7095
  C  C165  1  0.052900  0.818600  0.861880  1.0  -0.1491
  C  C166  1  0.046700  0.802800  0.806160  1.0  0.0444
  C  C167  1  0.081500  0.719800  0.783440  1.0  -0.1531
  C  C168  1  0.122200  0.651600  0.816700  1.0  -0.0201
  C  C169  1  0.128700  0.667300  0.872500  1.0  -0.1138
  C  C170  1  0.095500  0.751100  0.895100  1.0  0.0009
  C  C171  1  0.017300  0.909400  0.886330  1.0  0.7365
  C  C172  1  0.074800  0.706000  0.722760  1.0  0.7346
  C  C173  1  0.250700  0.367500  0.000500  1.0  -0.157
  C  C174  1  0.196900  0.284700  0.996860  1.0  -1e-04
  C  C175  1  0.143400  0.265600  0.950450  1.0  -0.1408
  C  C176  1  0.142900  0.331200  0.907960  1.0  -0.0495
  C  C177  1  0.194600  0.414000  0.912200  1.0  -0.0791
  C  C178  1  0.249400  0.432700  0.957920  1.0  -0.0526
  C  C179  1  0.315100  0.385400  0.048060  1.0  0.6918
  C  C180  1  0.084700  0.175800  0.945060  1.0  0.709
  C  C181  1  0.552900  0.681400  0.138120  1.0  -0.1495
  C  C182  1  0.546700  0.697200  0.193840  1.0  0.0435
  C  C183  1  0.581500  0.780200  0.216560  1.0  -0.1525
  C  C184  1  0.622200  0.848400  0.183300  1.0  -0.0201
  C  C185  1  0.628700  0.832700  0.127500  1.0  -0.1158
  C  C186  1  0.595500  0.748900  0.104900  1.0  0.001
  C  C187  1  0.517300  0.590600  0.113670  1.0  0.736
  C  C188  1  0.574800  0.794000  0.277240  1.0  0.7336
  C  C189  1  0.249300  0.632500  0.500500  1.0  -0.1565
  C  C190  1  0.303100  0.715300  0.496860  1.0  -0.0017
  C  C191  1  0.356600  0.734400  0.450450  1.0  -0.1405
  C  C192  1  0.357100  0.668800  0.407960  1.0  -0.0502
  C  C193  1  0.305400  0.586000  0.412200  1.0  -0.0787
  C  C194  1  0.250600  0.567300  0.457920  1.0  -0.0514
  C  C195  1  0.184900  0.614600  0.548060  1.0  0.6912
  C  C196  1  0.415300  0.824200  0.445060  1.0  0.7097
  C  C197  1  0.947100  0.318600  0.638120  1.0  -0.1493
  C  C198  1  0.953300  0.302800  0.693840  1.0  0.0438
  C  C199  1  0.918500  0.219800  0.716560  1.0  -0.1531
  C  C200  1  0.877800  0.151600  0.683300  1.0  -0.0193
  C  C201  1  0.871300  0.167300  0.627500  1.0  -0.1168
  C  C202  1  0.904500  0.251100  0.604900  1.0  0.0021
  C  C203  1  0.982700  0.409400  0.613670  1.0  0.7359
  C  C204  1  0.925200  0.206000  0.777240  1.0  0.7328
  O  O205  1  0.303900  0.157300  0.592490  1.0  -0.5836
  O  O206  1  0.381100  0.053800  0.544550  1.0  -0.6455
  O  O207  1  0.086000  0.382100  0.482950  1.0  -0.5925
  O  O208  1  0.038400  0.331500  0.401220  1.0  -0.596
  O  O209  1  0.467500  0.963100  0.643800  1.0  -0.5916
  O  O210  1  0.541100  0.925500  0.565990  1.0  -0.5934
  O  O211  1  0.558900  0.775500  0.806570  1.0  -0.4892
  O  O212  1  0.585400  0.622100  0.794360  1.0  -0.5566
  O  O213  1  0.196100  0.842700  0.092490  1.0  -0.5877
  O  O214  1  0.118900  0.946200  0.044550  1.0  -0.6452
  O  O215  1  0.414000  0.617900  0.982950  1.0  -0.5929
  O  O216  1  0.461600  0.668500  0.901220  1.0  -0.5963
  O  O217  1  0.032500  0.036900  0.143800  1.0  -0.5919
  O  O218  1  0.958900  0.074500  0.065990  1.0  -0.59
  O  O219  1  0.941100  0.224500  0.306570  1.0  -0.4889
  O  O220  1  0.914600  0.377900  0.294360  1.0  -0.5565
  O  O221  1  0.696100  0.657300  0.907510  1.0  -0.5855
  O  O222  1  0.618900  0.553800  0.955450  1.0  -0.646
  O  O223  1  0.914000  0.882100  0.017050  1.0  -0.5934
  O  O224  1  0.961600  0.831500  0.098780  1.0  -0.5968
  O  O225  1  0.532500  0.463100  0.856200  1.0  -0.5929
  O  O226  1  0.458900  0.425500  0.934010  1.0  -0.5912
  O  O227  1  0.441100  0.275500  0.693430  1.0  -0.4874
  O  O228  1  0.414600  0.122100  0.705640  1.0  -0.5577
  O  O229  1  0.803900  0.342700  0.407510  1.0  -0.5828
  O  O230  1  0.881100  0.446200  0.455450  1.0  -0.6457
  O  O231  1  0.586000  0.117900  0.517050  1.0  -0.593
  O  O232  1  0.538400  0.168500  0.598780  1.0  -0.5975
  O  O233  1  0.967500  0.536900  0.356200  1.0  -0.5922
  O  O234  1  0.041100  0.574500  0.434010  1.0  -0.5941
  O  O235  1  0.058900  0.724500  0.193430  1.0  -0.487
  O  O236  1  0.085400  0.877900  0.205640  1.0  -0.5559
  O  O237  1  0.696100  0.842700  0.407510  1.0  -0.5886
  O  O238  1  0.618900  0.946200  0.455450  1.0  -0.6453
  O  O239  1  0.914000  0.617900  0.517050  1.0  -0.5931
  O  O240  1  0.961600  0.668500  0.598780  1.0  -0.5975
  O  O241  1  0.532500  0.036900  0.356200  1.0  -0.5933
  O  O242  1  0.458900  0.074500  0.434010  1.0  -0.5912
  O  O243  1  0.441100  0.224500  0.193430  1.0  -0.4874
  O  O244  1  0.414600  0.377900  0.205640  1.0  -0.5565
  O  O245  1  0.803900  0.157300  0.907510  1.0  -0.5827
  O  O246  1  0.881100  0.053800  0.955450  1.0  -0.6463
  O  O247  1  0.586000  0.382100  0.017050  1.0  -0.593
  O  O248  1  0.538400  0.331500  0.098780  1.0  -0.5968
  O  O249  1  0.967500  0.963100  0.856200  1.0  -0.592
  O  O250  1  0.041100  0.925500  0.934010  1.0  -0.5942
  O  O251  1  0.058900  0.775500  0.693430  1.0  -0.4865
  O  O252  1  0.085400  0.622100  0.705640  1.0  -0.5571
  O  O253  1  0.303900  0.342700  0.092490  1.0  -0.5843
  O  O254  1  0.381100  0.446200  0.044550  1.0  -0.6456
  O  O255  1  0.086000  0.117900  0.982950  1.0  -0.5929
  O  O256  1  0.038400  0.168500  0.901220  1.0  -0.5961
  O  O257  1  0.467500  0.536900  0.143800  1.0  -0.5915
  O  O258  1  0.541100  0.574500  0.065990  1.0  -0.5933
  O  O259  1  0.558900  0.724500  0.306570  1.0  -0.4887
  O  O260  1  0.585400  0.877900  0.294360  1.0  -0.5561
  O  O261  1  0.196100  0.657300  0.592490  1.0  -0.5846
  O  O262  1  0.118900  0.553800  0.544550  1.0  -0.6451
  O  O263  1  0.414000  0.882100  0.482950  1.0  -0.5927
  O  O264  1  0.461600  0.831500  0.401220  1.0  -0.5956
  O  O265  1  0.032500  0.463100  0.643800  1.0  -0.5919
  O  O266  1  0.958900  0.425500  0.565990  1.0  -0.5909
  O  O267  1  0.941100  0.275500  0.806570  1.0  -0.4899
  O  O268  1  0.914600  0.122100  0.794360  1.0  -0.5571
