# generated using pymatgen
data_CoH2(C5O4)2
_symmetry_space_group_name_H-M   'P 1'
_cell_length_a   16.40110000
_cell_length_b   7.17860000
_cell_length_c   14.25860000
_cell_angle_alpha   90.00000000
_cell_angle_beta   90.00000000
_cell_angle_gamma   90.00000000
_symmetry_Int_Tables_number   1
_chemical_formula_structural   CoH2(C5O4)2
_chemical_formula_sum   'Co4 H8 C40 O32'
_cell_volume   1678.76388221
_cell_formula_units_Z   4
loop_
 _symmetry_equiv_pos_site_id
 _symmetry_equiv_pos_as_xyz
  1  'x, y, z'
loop_
 _atom_site_type_symbol
 _atom_site_label
 _atom_site_symmetry_multiplicity
 _atom_site_fract_x
 _atom_site_fract_y
 _atom_site_fract_z
 _atom_site_occupancy
 _atom_site_charge
  Co  Co1  1  0.500000  0.500000  0.827490  1.0  1.1257
  Co  Co2  1  0.000000  0.000000  0.327490  1.0  1.1257
  Co  Co3  1  0.000000  0.500000  0.827490  1.0  1.1256
  Co  Co4  1  0.500000  0.000000  0.327490  1.0  1.1256
  H  H5  1  0.750000  0.651700  0.734300  1.0  0.1483
  H  H6  1  0.750000  0.846500  0.421000  1.0  0.1624
  H  H7  1  0.250000  0.151700  0.234300  1.0  0.1483
  H  H8  1  0.250000  0.346500  0.921000  1.0  0.1624
  H  H9  1  0.250000  0.348300  0.734300  1.0  0.1484
  H  H10  1  0.250000  0.153500  0.421000  1.0  0.1625
  H  H11  1  0.750000  0.848300  0.234300  1.0  0.1484
  H  H12  1  0.750000  0.653500  0.921000  1.0  0.1625
  C  C13  1  0.675890  0.719080  0.624520  1.0  -0.0648
  C  C14  1  0.676260  0.775580  0.530740  1.0  -0.0454
  C  C15  1  0.595800  0.694710  0.676060  1.0  0.7115
  C  C16  1  0.599800  0.786390  0.472280  1.0  0.7497
  C  C17  1  0.175890  0.219080  0.124520  1.0  -0.0648
  C  C18  1  0.176260  0.275580  0.030740  1.0  -0.0454
  C  C19  1  0.095800  0.194710  0.176060  1.0  0.7115
  C  C20  1  0.099800  0.286390  0.972280  1.0  0.7497
  C  C21  1  0.324110  0.280920  0.624520  1.0  -0.0646
  C  C22  1  0.323740  0.224420  0.530740  1.0  -0.0453
  C  C23  1  0.404200  0.305290  0.676060  1.0  0.7118
  C  C24  1  0.400200  0.213610  0.472280  1.0  0.7495
  C  C25  1  0.824110  0.780920  0.124520  1.0  -0.0646
  C  C26  1  0.823740  0.724420  0.030740  1.0  -0.0453
  C  C27  1  0.904200  0.805290  0.176060  1.0  0.7118
  C  C28  1  0.900200  0.713610  0.972280  1.0  0.7495
  C  C29  1  0.175890  0.280920  0.624520  1.0  -0.0649
  C  C30  1  0.176260  0.224420  0.530740  1.0  -0.0453
  C  C31  1  0.095800  0.305290  0.676060  1.0  0.7117
  C  C32  1  0.099800  0.213610  0.472280  1.0  0.7497
  C  C33  1  0.675890  0.780920  0.124520  1.0  -0.0649
  C  C34  1  0.676260  0.724420  0.030740  1.0  -0.0453
  C  C35  1  0.595800  0.805290  0.176060  1.0  0.7117
  C  C36  1  0.599800  0.713610  0.972280  1.0  0.7497
  C  C37  1  0.824110  0.719080  0.624520  1.0  -0.0648
  C  C38  1  0.823740  0.775580  0.530740  1.0  -0.0454
  C  C39  1  0.904200  0.694710  0.676060  1.0  0.7117
  C  C40  1  0.900200  0.786390  0.472280  1.0  0.7494
  C  C41  1  0.324110  0.219080  0.124520  1.0  -0.0648
  C  C42  1  0.323740  0.275580  0.030740  1.0  -0.0454
  C  C43  1  0.404200  0.194710  0.176060  1.0  0.7117
  C  C44  1  0.400200  0.286390  0.972280  1.0  0.7494
  C  C45  1  0.750000  0.690800  0.670610  1.0  0.0437
  C  C46  1  0.750000  0.805600  0.484350  1.0  0.0231
  C  C47  1  0.250000  0.190800  0.170610  1.0  0.0437
  C  C48  1  0.250000  0.305600  0.984350  1.0  0.0231
  C  C49  1  0.250000  0.309200  0.670610  1.0  0.043
  C  C50  1  0.250000  0.194400  0.484350  1.0  0.0235
  C  C51  1  0.750000  0.809200  0.170610  1.0  0.043
  C  C52  1  0.750000  0.694400  0.984350  1.0  0.0235
  O  O53  1  0.591870  0.561110  0.733360  1.0  -0.5573
  O  O54  1  0.540190  0.809890  0.658300  1.0  -0.4743
  O  O55  1  0.560260  0.638160  0.463440  1.0  -0.5138
  O  O56  1  0.584100  0.941040  0.433630  1.0  -0.5566
  O  O57  1  0.091870  0.061110  0.233360  1.0  -0.5573
  O  O58  1  0.040190  0.309890  0.158300  1.0  -0.4743
  O  O59  1  0.060260  0.138160  0.963440  1.0  -0.5138
  O  O60  1  0.084100  0.441040  0.933630  1.0  -0.5566
  O  O61  1  0.408130  0.438890  0.733360  1.0  -0.5588
  O  O62  1  0.459810  0.190110  0.658300  1.0  -0.4743
  O  O63  1  0.439740  0.361840  0.463440  1.0  -0.5127
  O  O64  1  0.415900  0.058960  0.433630  1.0  -0.5574
  O  O65  1  0.908130  0.938890  0.233360  1.0  -0.5588
  O  O66  1  0.959810  0.690110  0.158300  1.0  -0.4743
  O  O67  1  0.939740  0.861840  0.963440  1.0  -0.5127
  O  O68  1  0.915900  0.558960  0.933630  1.0  -0.5574
  O  O69  1  0.091870  0.438890  0.733360  1.0  -0.5584
  O  O70  1  0.040190  0.190110  0.658300  1.0  -0.4747
  O  O71  1  0.060260  0.361840  0.463440  1.0  -0.5138
  O  O72  1  0.084100  0.058960  0.433630  1.0  -0.5575
  O  O73  1  0.591870  0.938890  0.233360  1.0  -0.5584
  O  O74  1  0.540190  0.690110  0.158300  1.0  -0.4747
  O  O75  1  0.560260  0.861840  0.963440  1.0  -0.5138
  O  O76  1  0.584100  0.558960  0.933630  1.0  -0.5575
  O  O77  1  0.908130  0.561110  0.733360  1.0  -0.5576
  O  O78  1  0.959810  0.809890  0.658300  1.0  -0.4735
  O  O79  1  0.939740  0.638160  0.463440  1.0  -0.5134
  O  O80  1  0.915900  0.941040  0.433630  1.0  -0.5567
  O  O81  1  0.408130  0.061110  0.233360  1.0  -0.5576
  O  O82  1  0.459810  0.309890  0.158300  1.0  -0.4735
  O  O83  1  0.439740  0.138160  0.963440  1.0  -0.5134
  O  O84  1  0.415900  0.441040  0.933630  1.0  -0.5567
