# generated using pymatgen
data_Mg3(PO4)4
_symmetry_space_group_name_H-M   'P 1'
_cell_length_a   16.76670000
_cell_length_b   16.76670000
_cell_length_c   16.76670000
_cell_angle_alpha   90.00000000
_cell_angle_beta   90.00000000
_cell_angle_gamma   90.00000000
_symmetry_Int_Tables_number   1
_chemical_formula_structural   Mg3(PO4)4
_chemical_formula_sum   'Mg18 P24 O96'
_cell_volume   4713.49207513
_cell_formula_units_Z   6
loop_
 _symmetry_equiv_pos_site_id
 _symmetry_equiv_pos_as_xyz
  1  'x, y, z'
loop_
 _atom_site_type_symbol
 _atom_site_label
 _atom_site_symmetry_multiplicity
 _atom_site_fract_x
 _atom_site_fract_y
 _atom_site_fract_z
 _atom_site_occupancy
 _atom_site_charge
  Mg  Mg1  1  0.000000  0.500000  0.250000  1.0  1.6899
  Mg  Mg2  1  0.000000  0.500000  0.750000  1.0  1.6899
  Mg  Mg3  1  0.500000  0.000000  0.250000  1.0  1.6899
  Mg  Mg4  1  0.250000  0.000000  0.500000  1.0  1.6899
  Mg  Mg5  1  0.750000  0.000000  0.500000  1.0  1.6899
  Mg  Mg6  1  0.250000  0.500000  0.000000  1.0  1.6899
  Mg  Mg7  1  0.500000  0.250000  0.000000  1.0  1.6899
  Mg  Mg8  1  0.500000  0.750000  0.000000  1.0  1.6899
  Mg  Mg9  1  0.000000  0.250000  0.500000  1.0  1.6899
  Mg  Mg10  1  0.500000  0.000000  0.750000  1.0  1.6899
  Mg  Mg11  1  0.000000  0.750000  0.500000  1.0  1.6899
  Mg  Mg12  1  0.750000  0.500000  0.000000  1.0  1.6899
  Mg  Mg13  1  0.000000  0.500000  0.000000  1.0  1.7545
  Mg  Mg14  1  0.500000  0.000000  0.500000  1.0  1.7545
  Mg  Mg15  1  0.000000  0.000000  0.500000  1.0  1.7545
  Mg  Mg16  1  0.500000  0.500000  0.000000  1.0  1.7545
  Mg  Mg17  1  0.500000  0.000000  0.000000  1.0  1.7545
  Mg  Mg18  1  0.000000  0.500000  0.500000  1.0  1.7545
  P  P19  1  0.121930  0.568900  0.121930  1.0  1.7776
  P  P20  1  0.621930  0.068900  0.621930  1.0  1.7776
  P  P21  1  0.878070  0.431100  0.121930  1.0  1.7764
  P  P22  1  0.378070  0.931100  0.621930  1.0  1.7764
  P  P23  1  0.878070  0.568900  0.878070  1.0  1.7767
  P  P24  1  0.378070  0.068900  0.378070  1.0  1.7767
  P  P25  1  0.121930  0.431100  0.878070  1.0  1.7775
  P  P26  1  0.621930  0.931100  0.378070  1.0  1.7775
  P  P27  1  0.121930  0.121930  0.568900  1.0  1.7757
  P  P28  1  0.621930  0.621930  0.068900  1.0  1.7757
  P  P29  1  0.121930  0.878070  0.431100  1.0  1.7764
  P  P30  1  0.621930  0.378070  0.931100  1.0  1.7764
  P  P31  1  0.878070  0.878070  0.568900  1.0  1.7753
  P  P32  1  0.378070  0.378070  0.068900  1.0  1.7753
  P  P33  1  0.878070  0.121930  0.431100  1.0  1.7752
  P  P34  1  0.378070  0.621930  0.931100  1.0  1.7752
  P  P35  1  0.568900  0.121930  0.121930  1.0  1.7772
  P  P36  1  0.068900  0.621930  0.621930  1.0  1.7772
  P  P37  1  0.431100  0.121930  0.878070  1.0  1.7754
  P  P38  1  0.931100  0.621930  0.378070  1.0  1.7754
  P  P39  1  0.568900  0.878070  0.878070  1.0  1.7777
  P  P40  1  0.068900  0.378070  0.378070  1.0  1.7777
  P  P41  1  0.431100  0.878070  0.121930  1.0  1.7758
  P  P42  1  0.931100  0.378070  0.621930  1.0  1.7758
  O  O43  1  0.092250  0.522840  0.194800  1.0  -0.7971
  O  O44  1  0.592250  0.022840  0.694800  1.0  -0.7971
  O  O45  1  0.907750  0.477160  0.194800  1.0  -0.7983
  O  O46  1  0.407750  0.977160  0.694800  1.0  -0.7983
  O  O47  1  0.907750  0.522840  0.805200  1.0  -0.7963
  O  O48  1  0.407750  0.022840  0.305200  1.0  -0.7963
  O  O49  1  0.092250  0.477160  0.805200  1.0  -0.7953
  O  O50  1  0.592250  0.977160  0.305200  1.0  -0.7953
  O  O51  1  0.194800  0.092250  0.522840  1.0  -0.796
  O  O52  1  0.694800  0.592250  0.022840  1.0  -0.796
  O  O53  1  0.194800  0.907750  0.477160  1.0  -0.7958
  O  O54  1  0.694800  0.407750  0.977160  1.0  -0.7958
  O  O55  1  0.805200  0.907750  0.522840  1.0  -0.7963
  O  O56  1  0.305200  0.407750  0.022840  1.0  -0.7963
  O  O57  1  0.805200  0.092250  0.477160  1.0  -0.7979
  O  O58  1  0.305200  0.592250  0.977160  1.0  -0.7979
  O  O59  1  0.522840  0.194800  0.092250  1.0  -0.7978
  O  O60  1  0.022840  0.694800  0.592250  1.0  -0.7978
  O  O61  1  0.477160  0.194800  0.907750  1.0  -0.796
  O  O62  1  0.977160  0.694800  0.407750  1.0  -0.796
  O  O63  1  0.522840  0.805200  0.907750  1.0  -0.795
  O  O64  1  0.022840  0.305200  0.407750  1.0  -0.795
  O  O65  1  0.477160  0.805200  0.092250  1.0  -0.7954
  O  O66  1  0.977160  0.305200  0.592250  1.0  -0.7954
  O  O67  1  0.522840  0.092250  0.194800  1.0  -0.7994
  O  O68  1  0.022840  0.592250  0.694800  1.0  -0.7994
  O  O69  1  0.477160  0.907750  0.194800  1.0  -0.7978
  O  O70  1  0.977160  0.407750  0.694800  1.0  -0.7978
  O  O71  1  0.522840  0.907750  0.805200  1.0  -0.7961
  O  O72  1  0.022840  0.407750  0.305200  1.0  -0.7961
  O  O73  1  0.477160  0.092250  0.805200  1.0  -0.7965
  O  O74  1  0.977160  0.592250  0.305200  1.0  -0.7965
  O  O75  1  0.092250  0.194800  0.522840  1.0  -0.7972
  O  O76  1  0.592250  0.694800  0.022840  1.0  -0.7972
  O  O77  1  0.907750  0.194800  0.477160  1.0  -0.7987
  O  O78  1  0.407750  0.694800  0.977160  1.0  -0.7987
  O  O79  1  0.907750  0.805200  0.522840  1.0  -0.7964
  O  O80  1  0.407750  0.305200  0.022840  1.0  -0.7964
  O  O81  1  0.092250  0.805200  0.477160  1.0  -0.7958
  O  O82  1  0.592250  0.305200  0.977160  1.0  -0.7958
  O  O83  1  0.194800  0.522840  0.092250  1.0  -0.7951
  O  O84  1  0.694800  0.022840  0.592250  1.0  -0.7951
  O  O85  1  0.194800  0.477160  0.907750  1.0  -0.7939
  O  O86  1  0.694800  0.977160  0.407750  1.0  -0.7939
  O  O87  1  0.805200  0.522840  0.907750  1.0  -0.7954
  O  O88  1  0.305200  0.022840  0.407750  1.0  -0.7954
  O  O89  1  0.805200  0.477160  0.092250  1.0  -0.7964
  O  O90  1  0.305200  0.977160  0.592250  1.0  -0.7964
  O  O91  1  0.142940  0.653800  0.142940  1.0  -0.5419
  O  O92  1  0.057100  0.565800  0.057100  1.0  -0.932
  O  O93  1  0.642940  0.153800  0.642940  1.0  -0.5419
  O  O94  1  0.557100  0.065800  0.557100  1.0  -0.932
  O  O95  1  0.857060  0.346200  0.142940  1.0  -0.5408
  O  O96  1  0.942900  0.434200  0.057100  1.0  -0.9291
  O  O97  1  0.357060  0.846200  0.642940  1.0  -0.5408
  O  O98  1  0.442900  0.934200  0.557100  1.0  -0.9291
  O  O99  1  0.857060  0.653800  0.857060  1.0  -0.541
  O  O100  1  0.942900  0.565800  0.942900  1.0  -0.9308
  O  O101  1  0.357060  0.153800  0.357060  1.0  -0.541
  O  O102  1  0.442900  0.065800  0.442900  1.0  -0.9308
  O  O103  1  0.142940  0.346200  0.857060  1.0  -0.5396
  O  O104  1  0.057100  0.434200  0.942900  1.0  -0.9312
  O  O105  1  0.642940  0.846200  0.357060  1.0  -0.5396
  O  O106  1  0.557100  0.934200  0.442900  1.0  -0.9312
  O  O107  1  0.142940  0.142940  0.653800  1.0  -0.5443
  O  O108  1  0.057100  0.057100  0.565800  1.0  -0.9254
  O  O109  1  0.642940  0.642940  0.153800  1.0  -0.5443
  O  O110  1  0.557100  0.557100  0.065800  1.0  -0.9254
  O  O111  1  0.142940  0.857060  0.346200  1.0  -0.5432
  O  O112  1  0.057100  0.942900  0.434200  1.0  -0.9233
  O  O113  1  0.642940  0.357060  0.846200  1.0  -0.5432
  O  O114  1  0.557100  0.442900  0.934200  1.0  -0.9233
  O  O115  1  0.857060  0.857060  0.653800  1.0  -0.5443
  O  O116  1  0.942900  0.942900  0.565800  1.0  -0.9241
  O  O117  1  0.357060  0.357060  0.153800  1.0  -0.5443
  O  O118  1  0.442900  0.442900  0.065800  1.0  -0.9241
  O  O119  1  0.857060  0.142940  0.346200  1.0  -0.5435
  O  O120  1  0.942900  0.057100  0.434200  1.0  -0.9237
  O  O121  1  0.357060  0.642940  0.846200  1.0  -0.5435
  O  O122  1  0.442900  0.557100  0.934200  1.0  -0.9237
  O  O123  1  0.653800  0.142940  0.142940  1.0  -0.5367
  O  O124  1  0.565800  0.057100  0.057100  1.0  -0.9278
  O  O125  1  0.153800  0.642940  0.642940  1.0  -0.5367
  O  O126  1  0.065800  0.557100  0.557100  1.0  -0.9278
  O  O127  1  0.346200  0.142940  0.857060  1.0  -0.5291
  O  O128  1  0.434200  0.057100  0.942900  1.0  -0.9299
  O  O129  1  0.846200  0.642940  0.357060  1.0  -0.5291
  O  O130  1  0.934200  0.557100  0.442900  1.0  -0.9299
  O  O131  1  0.653800  0.857060  0.857060  1.0  -0.5349
  O  O132  1  0.565800  0.942900  0.942900  1.0  -0.9282
  O  O133  1  0.153800  0.357060  0.357060  1.0  -0.5349
  O  O134  1  0.065800  0.442900  0.442900  1.0  -0.9282
  O  O135  1  0.346200  0.857060  0.142940  1.0  -0.5299
  O  O136  1  0.434200  0.942900  0.057100  1.0  -0.9295
  O  O137  1  0.846200  0.357060  0.642940  1.0  -0.5299
  O  O138  1  0.934200  0.442900  0.557100  1.0  -0.9295
