# generated using pymatgen
data_EuH10(C11O4)2
_symmetry_space_group_name_H-M   'P 1'
_cell_length_a   10.98400000
_cell_length_b   16.10100000
_cell_length_c   19.69200000
_cell_angle_alpha   74.14900000
_cell_angle_beta   74.03500000
_cell_angle_gamma   72.05400000
_symmetry_Int_Tables_number   1
_chemical_formula_structural   EuH10(C11O4)2
_chemical_formula_sum   'Eu4 H40 C88 O32'
_cell_volume   3117.07292153
_cell_formula_units_Z   4
loop_
 _symmetry_equiv_pos_site_id
 _symmetry_equiv_pos_as_xyz
  1  'x, y, z'
loop_
 _atom_site_type_symbol
 _atom_site_label
 _atom_site_symmetry_multiplicity
 _atom_site_fract_x
 _atom_site_fract_y
 _atom_site_fract_z
 _atom_site_occupancy
 _atom_site_charge
  Eu  Eu1  1  0.398540  0.901860  0.239000  1.0  2.1215
  Eu  Eu2  1  0.943800  0.176280  0.226580  1.0  2.0638
  Eu  Eu3  1  0.601460  0.098140  0.761000  1.0  2.1223
  Eu  Eu4  1  0.056200  0.823720  0.773420  1.0  2.0654
  H  H5  1  0.236100  0.827700  0.509300  1.0  0.1279
  H  H6  1  0.049300  0.636000  0.612800  1.0  0.117
  H  H7  1  0.194300  0.662600  0.400500  1.0  0.1202
  H  H8  1  0.013100  0.619200  0.406200  1.0  0.1204
  H  H9  1  0.065400  0.491100  0.602600  1.0  0.1242
  H  H10  1  0.810500  0.954300  0.254600  1.0  0.1253
  H  H11  1  0.830500  0.698500  0.265500  1.0  0.1131
  H  H12  1  0.159900  0.772500  0.242600  1.0  0.1179
  H  H13  1  0.955300  0.581700  0.224300  1.0  0.1293
  H  H14  1  0.071800  0.435900  0.228800  1.0  0.1223
  H  H15  1  0.368800  0.488700  0.272500  1.0  0.124
  H  H16  1  0.255600  0.635100  0.269300  1.0  0.134
  H  H17  1  0.486800  0.371600  0.238200  1.0  0.1203
  H  H18  1  0.505100  0.112800  0.261700  1.0  0.1237
  H  H19  1  0.161600  0.294800  0.268600  1.0  0.1155
  H  H20  1  0.277000  0.164700  0.993800  1.0  0.128
  H  H21  1  0.519900  0.324200  0.904600  1.0  0.1155
  H  H22  1  0.254300  0.363000  0.085200  1.0  0.119
  H  H23  1  0.436800  0.403900  0.105400  1.0  0.1032
  H  H24  1  0.487300  0.478800  0.890900  1.0  0.1223
  H  H25  1  0.763900  0.172300  0.490700  1.0  0.1276
  H  H26  1  0.950700  0.364000  0.387200  1.0  0.1172
  H  H27  1  0.805700  0.337400  0.599500  1.0  0.1185
  H  H28  1  0.986900  0.380800  0.593800  1.0  0.1196
  H  H29  1  0.934600  0.508900  0.397400  1.0  0.1256
  H  H30  1  0.189500  0.045700  0.745400  1.0  0.1259
  H  H31  1  0.169500  0.301500  0.734500  1.0  0.1131
  H  H32  1  0.840100  0.227500  0.757400  1.0  0.1181
  H  H33  1  0.044700  0.418300  0.775700  1.0  0.1295
  H  H34  1  0.928200  0.564100  0.771200  1.0  0.1225
  H  H35  1  0.631200  0.511300  0.727500  1.0  0.1242
  H  H36  1  0.744400  0.364900  0.730700  1.0  0.1333
  H  H37  1  0.513200  0.628400  0.761800  1.0  0.121
  H  H38  1  0.494900  0.887200  0.738300  1.0  0.1237
  H  H39  1  0.838400  0.705200  0.731400  1.0  0.116
  H  H40  1  0.723000  0.835300  0.006200  1.0  0.1285
  H  H41  1  0.480100  0.675800  0.095400  1.0  0.115
  H  H42  1  0.745700  0.637000  0.914800  1.0  0.1201
  H  H43  1  0.563200  0.596100  0.894600  1.0  0.1036
  H  H44  1  0.512700  0.521200  0.109100  1.0  0.1222
  C  C45  1  0.297600  0.798000  0.374800  1.0  0.7421
  C  C46  1  0.227700  0.751700  0.444600  1.0  -0.149
  C  C47  1  0.206900  0.779300  0.509000  1.0  0.0313
  C  C48  1  0.143000  0.734700  0.572300  1.0  -0.1311
  C  C49  1  0.094300  0.665100  0.570300  1.0  -0.0498
  C  C50  1  0.111300  0.638200  0.506300  1.0  -0.0003
  C  C51  1  0.179900  0.680900  0.443600  1.0  -0.0409
  C  C52  1  0.122400  0.762200  0.642400  1.0  0.7063
  C  C53  1  0.055200  0.566900  0.503600  1.0  0.0985
  C  C54  1  0.009700  0.570500  0.444500  1.0  -0.1292
  C  C55  1  0.040400  0.494900  0.560200  1.0  -0.1119
  C  C56  1  0.059200  0.946500  0.244000  1.0  0.7525
  C  C57  1  0.994500  0.874100  0.249000  1.0  -0.1389
  C  C58  1  0.859500  0.895800  0.254700  1.0  0.0538
  C  C59  1  0.798600  0.829700  0.260500  1.0  -0.1361
  C  C60  1  0.872800  0.742500  0.260000  1.0  -0.0594
  C  C61  1  0.011600  0.718400  0.251400  1.0  0.0542
  C  C62  1  0.069800  0.785900  0.247000  1.0  -0.055
  C  C63  1  0.655100  0.854800  0.264200  1.0  0.7421
  C  C64  1  0.087900  0.624800  0.249600  1.0  0.0941
  C  C65  1  0.037800  0.563500  0.235300  1.0  -0.1468
  C  C66  1  0.109300  0.475500  0.237400  1.0  -0.0838
  C  C67  1  0.233100  0.444400  0.251500  1.0  0.0342
  C  C68  1  0.284800  0.507000  0.263400  1.0  -0.0948
  C  C69  1  0.216800  0.595300  0.262000  1.0  -0.1408
  C  C70  1  0.309800  0.349300  0.254500  1.0  0.0143
  C  C71  1  0.444400  0.326900  0.246100  1.0  -0.086
  C  C72  1  0.518100  0.238500  0.249300  1.0  -0.1207
  C  C73  1  0.456500  0.171700  0.258800  1.0  0.0461
  C  C74  1  0.323100  0.192400  0.264000  1.0  -0.1229
  C  C75  1  0.252000  0.281100  0.263100  1.0  -0.0431
  C  C76  1  0.663800  0.217000  0.241400  1.0  0.7019
  C  C77  1  0.256400  0.119200  0.271100  1.0  0.7707
  C  C78  1  0.143700  0.231600  0.108600  1.0  0.7221
  C  C79  1  0.250800  0.258900  0.049100  1.0  -0.0924
  C  C80  1  0.307000  0.212500  0.994400  1.0  0.0151
  C  C81  1  0.409600  0.237100  0.939500  1.0  -0.1418
  C  C82  1  0.452500  0.307700  0.941400  1.0  -0.0164
  C  C83  1  0.398900  0.355100  0.996000  1.0  0.0386
  C  C84  1  0.294800  0.330400  0.049100  1.0  -0.045
  C  C85  1  0.469100  0.187500  0.880400  1.0  0.7146
  C  C86  1  0.461400  0.442700  0.062700  1.0  -0.1449
  C  C87  1  0.450000  0.429600  0.997000  1.0  0.054
  C  C88  1  0.491100  0.486800  0.935200  1.0  -0.1082
  C  C89  1  0.702400  0.202000  0.625200  1.0  0.7396
  C  C90  1  0.772300  0.248300  0.555400  1.0  -0.1492
  C  C91  1  0.793100  0.220700  0.491000  1.0  0.0334
  C  C92  1  0.857000  0.265300  0.427700  1.0  -0.1312
  C  C93  1  0.905700  0.334900  0.429700  1.0  -0.049
  C  C94  1  0.888700  0.361800  0.493700  1.0  1e-04
  C  C95  1  0.820100  0.319100  0.556400  1.0  -0.0398
  C  C96  1  0.877600  0.237800  0.357600  1.0  0.7064
  C  C97  1  0.944800  0.433100  0.496400  1.0  0.0982
  C  C98  1  0.990300  0.429500  0.555500  1.0  -0.1288
  C  C99  1  0.959600  0.505100  0.439800  1.0  -0.1119
  C  C100  1  0.940800  0.053500  0.756000  1.0  0.7528
  C  C101  1  0.005500  0.125900  0.751000  1.0  -0.1394
  C  C102  1  0.140500  0.104200  0.745300  1.0  0.0542
  C  C103  1  0.201400  0.170300  0.739500  1.0  -0.1359
  C  C104  1  0.127200  0.257500  0.740000  1.0  -0.0593
  C  C105  1  0.988400  0.281600  0.748600  1.0  0.0546
  C  C106  1  0.930200  0.214100  0.753000  1.0  -0.0549
  C  C107  1  0.344900  0.145200  0.735800  1.0  0.7413
  C  C108  1  0.912100  0.375200  0.750400  1.0  0.0946
  C  C109  1  0.962200  0.436500  0.764700  1.0  -0.1474
  C  C110  1  0.890700  0.524500  0.762600  1.0  -0.084
  C  C111  1  0.766900  0.555600  0.748500  1.0  0.0338
  C  C112  1  0.715200  0.493000  0.736600  1.0  -0.0941
  C  C113  1  0.783200  0.404700  0.738000  1.0  -0.1409
  C  C114  1  0.690200  0.650700  0.745500  1.0  0.0138
  C  C115  1  0.555600  0.673100  0.753900  1.0  -0.086
  C  C116  1  0.481900  0.761500  0.750700  1.0  -0.1208
  C  C117  1  0.543500  0.828300  0.741200  1.0  0.0475
  C  C118  1  0.676900  0.807600  0.736000  1.0  -0.1225
  C  C119  1  0.748000  0.718900  0.736900  1.0  -0.0415
  C  C120  1  0.336200  0.783000  0.758600  1.0  0.7022
  C  C121  1  0.743600  0.880800  0.728900  1.0  0.7701
  C  C122  1  0.856300  0.768400  0.891400  1.0  0.7231
  C  C123  1  0.749200  0.741100  0.950900  1.0  -0.0921
  C  C124  1  0.693000  0.787500  0.005600  1.0  0.0128
  C  C125  1  0.590400  0.762900  0.060500  1.0  -0.1409
  C  C126  1  0.547500  0.692300  0.058600  1.0  -0.0174
  C  C127  1  0.601100  0.644900  0.004000  1.0  0.04
  C  C128  1  0.705200  0.669600  0.950900  1.0  -0.0445
  C  C129  1  0.530900  0.812500  0.119600  1.0  0.7141
  C  C130  1  0.538600  0.557300  0.937300  1.0  -0.1449
  C  C131  1  0.550000  0.570400  0.003000  1.0  0.0541
  C  C132  1  0.508900  0.513200  0.064800  1.0  -0.1097
  O  O133  1  0.332100  0.765200  0.320000  1.0  -0.6572
  O  O134  1  0.319500  0.874100  0.371500  1.0  -0.6165
  O  O135  1  0.136200  0.838300  0.641200  1.0  -0.6559
  O  O136  1  0.088300  0.710300  0.701100  1.0  -0.654
  O  O137  1  0.989300  0.023700  0.243000  1.0  -0.7292
  O  O138  1  0.596100  0.935800  0.250600  1.0  -0.665
  O  O139  1  0.596400  0.794600  0.279700  1.0  -0.6648
  O  O140  1  0.133400  0.140700  0.277800  1.0  -0.7113
  O  O141  1  0.326600  0.042600  0.273300  1.0  -0.702
  O  O142  1  0.727900  0.137000  0.251700  1.0  -0.6533
  O  O143  1  0.719500  0.279100  0.226600  1.0  -0.6673
  O  O144  1  0.054300  0.289400  0.139400  1.0  -0.6393
  O  O145  1  0.143400  0.150600  0.126900  1.0  -0.6236
  O  O146  1  0.417000  0.131100  0.872100  1.0  -0.6401
  O  O147  1  0.575800  0.201100  0.838500  1.0  -0.5919
  O  O148  1  0.179100  0.926200  0.239100  1.0  -0.7378
  O  O149  1  0.667900  0.234800  0.680000  1.0  -0.6575
  O  O150  1  0.680500  0.125900  0.628500  1.0  -0.614
  O  O151  1  0.863800  0.161700  0.358800  1.0  -0.655
  O  O152  1  0.911700  0.289700  0.298900  1.0  -0.655
  O  O153  1  0.010700  0.976300  0.757000  1.0  -0.7265
  O  O154  1  0.403900  0.064200  0.749400  1.0  -0.6641
  O  O155  1  0.403600  0.205400  0.720300  1.0  -0.6658
  O  O156  1  0.866600  0.859300  0.722200  1.0  -0.7101
  O  O157  1  0.673400  0.957400  0.726700  1.0  -0.7005
  O  O158  1  0.272100  0.863000  0.748300  1.0  -0.6553
  O  O159  1  0.280500  0.720900  0.773400  1.0  -0.6673
  O  O160  1  0.945700  0.710600  0.860600  1.0  -0.6404
  O  O161  1  0.856600  0.849400  0.873100  1.0  -0.6246
  O  O162  1  0.583000  0.868900  0.127900  1.0  -0.6424
  O  O163  1  0.424200  0.798900  0.161500  1.0  -0.5935
  O  O164  1  0.820900  0.073800  0.760900  1.0  -0.7378
