# generated using pymatgen
data_CdH20C32(NO3)2
_symmetry_space_group_name_H-M   'P 1'
_cell_length_a   29.11480000
_cell_length_b   16.01200000
_cell_length_c   16.70970000
_cell_angle_alpha   90.00000000
_cell_angle_beta   90.00000000
_cell_angle_gamma   90.00000000
_symmetry_Int_Tables_number   1
_chemical_formula_structural   CdH20C32(NO3)2
_chemical_formula_sum   'Cd8 H160 C256 N16 O48'
_cell_volume   7789.83117184
_cell_formula_units_Z   8
loop_
 _symmetry_equiv_pos_site_id
 _symmetry_equiv_pos_as_xyz
  1  'x, y, z'
loop_
 _atom_site_type_symbol
 _atom_site_label
 _atom_site_symmetry_multiplicity
 _atom_site_fract_x
 _atom_site_fract_y
 _atom_site_fract_z
 _atom_site_occupancy
 _atom_site_charge
  Cd  Cd1  1  0.455740  0.795450  0.161730  1.0  0.9851
  Cd  Cd2  1  0.044260  0.704550  0.661730  1.0  0.9863
  Cd  Cd3  1  0.544260  0.795450  0.338270  1.0  0.9857
  Cd  Cd4  1  0.955740  0.704550  0.838270  1.0  0.985
  Cd  Cd5  1  0.544260  0.204550  0.838270  1.0  0.9857
  Cd  Cd6  1  0.955740  0.295450  0.338270  1.0  0.985
  Cd  Cd7  1  0.455740  0.204550  0.661730  1.0  0.9852
  Cd  Cd8  1  0.044260  0.295450  0.161730  1.0  0.9863
  H  H9  1  0.629800  0.793000  0.197600  1.0  0.1097
  H  H10  1  0.427400  0.639500  0.271700  1.0  0.0817
  H  H11  1  0.430000  0.951400  0.275900  1.0  0.0957
  H  H12  1  0.483000  0.958800  0.061900  1.0  0.0816
  H  H13  1  0.421700  0.496200  0.277900  1.0  0.1419
  H  H14  1  0.485400  0.488900  0.063000  1.0  0.1244
  H  H15  1  0.486400  0.634400  0.065700  1.0  0.0842
  H  H16  1  0.427100  0.092600  0.280300  1.0  0.1206
  H  H17  1  0.477800  0.100600  0.059300  1.0  0.1363
  H  H18  1  0.791300  0.728000  0.837300  1.0  0.1212
  H  H19  1  0.514900  0.222500  0.119800  1.0  0.1387
  H  H20  1  0.703700  0.775700  0.150200  1.0  0.1289
  H  H21  1  0.514900  0.366000  0.120500  1.0  0.1226
  H  H22  1  0.840400  0.721900  0.057900  1.0  0.0978
  H  H23  1  0.654300  0.737500  0.932100  1.0  0.1345
  H  H24  1  0.718000  0.744300  0.887200  1.0  0.126
  H  H25  1  0.580100  0.754900  0.979300  1.0  0.1039
  H  H26  1  0.767300  0.743600  0.109300  1.0  0.1294
  H  H27  1  0.366700  0.154500  0.224100  1.0  0.0895
  H  H28  1  0.365000  0.427200  0.223000  1.0  0.1163
  H  H29  1  0.870200  0.707000  0.697600  1.0  0.1106
  H  H30  1  0.072600  0.860500  0.771700  1.0  0.0817
  H  H31  1  0.070000  0.548600  0.775900  1.0  0.0952
  H  H32  1  0.017000  0.541200  0.561900  1.0  0.0817
  H  H33  1  0.078300  0.003800  0.777900  1.0  0.1411
  H  H34  1  0.014600  0.011100  0.563000  1.0  0.1235
  H  H35  1  0.013600  0.865600  0.565700  1.0  0.0844
  H  H36  1  0.072900  0.407400  0.780300  1.0  0.1203
  H  H37  1  0.022200  0.399400  0.559300  1.0  0.1361
  H  H38  1  0.708700  0.772000  0.337300  1.0  0.1211
  H  H39  1  0.985100  0.277500  0.619800  1.0  0.1385
  H  H40  1  0.796300  0.724300  0.650200  1.0  0.1289
  H  H41  1  0.985100  0.134000  0.620500  1.0  0.1223
  H  H42  1  0.659600  0.778100  0.557900  1.0  0.097
  H  H43  1  0.845700  0.762500  0.432100  1.0  0.134
  H  H44  1  0.782000  0.755700  0.387200  1.0  0.1263
  H  H45  1  0.919900  0.745100  0.479300  1.0  0.1041
  H  H46  1  0.732700  0.756400  0.609300  1.0  0.1293
  H  H47  1  0.133300  0.345500  0.724100  1.0  0.0896
  H  H48  1  0.135000  0.072800  0.723000  1.0  0.1153
  H  H49  1  0.370200  0.793000  0.302400  1.0  0.1085
  H  H50  1  0.572600  0.639500  0.228300  1.0  0.0809
  H  H51  1  0.570000  0.951400  0.224100  1.0  0.0955
  H  H52  1  0.517000  0.958800  0.438100  1.0  0.082
  H  H53  1  0.578300  0.496200  0.222100  1.0  0.1426
  H  H54  1  0.514600  0.488900  0.437000  1.0  0.1244
  H  H55  1  0.513600  0.634400  0.434300  1.0  0.0846
  H  H56  1  0.572900  0.092600  0.219700  1.0  0.1208
  H  H57  1  0.522200  0.100600  0.440700  1.0  0.1358
  H  H58  1  0.208700  0.728000  0.662700  1.0  0.1206
  H  H59  1  0.485100  0.222500  0.380200  1.0  0.1383
  H  H60  1  0.296300  0.775700  0.349800  1.0  0.1294
  H  H61  1  0.485100  0.366000  0.379500  1.0  0.1223
  H  H62  1  0.159600  0.721900  0.442100  1.0  0.0975
  H  H63  1  0.345700  0.737500  0.567900  1.0  0.1329
  H  H64  1  0.282000  0.744300  0.612800  1.0  0.1266
  H  H65  1  0.419900  0.754900  0.520700  1.0  0.104
  H  H66  1  0.232700  0.743600  0.390700  1.0  0.1298
  H  H67  1  0.633300  0.154500  0.275900  1.0  0.0895
  H  H68  1  0.635000  0.427200  0.277000  1.0  0.1159
  H  H69  1  0.129800  0.707000  0.802400  1.0  0.1084
  H  H70  1  0.927400  0.860500  0.728300  1.0  0.081
  H  H71  1  0.930000  0.548600  0.724100  1.0  0.0955
  H  H72  1  0.983000  0.541200  0.938100  1.0  0.0815
  H  H73  1  0.921700  0.003800  0.722100  1.0  0.1422
  H  H74  1  0.985400  0.011100  0.937000  1.0  0.1245
  H  H75  1  0.986400  0.865600  0.934300  1.0  0.0851
  H  H76  1  0.927100  0.407400  0.719700  1.0  0.121
  H  H77  1  0.977800  0.399400  0.940700  1.0  0.1363
  H  H78  1  0.291300  0.772000  0.162700  1.0  0.121
  H  H79  1  0.014900  0.277500  0.880200  1.0  0.1386
  H  H80  1  0.203700  0.724300  0.849800  1.0  0.1283
  H  H81  1  0.014900  0.134000  0.879500  1.0  0.1226
  H  H82  1  0.340400  0.778100  0.942100  1.0  0.0974
  H  H83  1  0.154300  0.762500  0.067900  1.0  0.1337
  H  H84  1  0.218000  0.755700  0.112800  1.0  0.1259
  H  H85  1  0.080100  0.745100  0.020700  1.0  0.104
  H  H86  1  0.267300  0.756400  0.890700  1.0  0.1298
  H  H87  1  0.866700  0.345500  0.775900  1.0  0.0894
  H  H88  1  0.865000  0.072800  0.777000  1.0  0.1155
  H  H89  1  0.370200  0.207000  0.802400  1.0  0.1084
  H  H90  1  0.572600  0.360500  0.728300  1.0  0.0816
  H  H91  1  0.570000  0.048600  0.724100  1.0  0.0955
  H  H92  1  0.517000  0.041200  0.938100  1.0  0.0817
  H  H93  1  0.578300  0.503800  0.722100  1.0  0.1423
  H  H94  1  0.514600  0.511100  0.937000  1.0  0.1243
  H  H95  1  0.513600  0.365600  0.934300  1.0  0.0849
  H  H96  1  0.572900  0.907400  0.719700  1.0  0.1211
  H  H97  1  0.522200  0.899400  0.940700  1.0  0.1358
  H  H98  1  0.208700  0.272000  0.162700  1.0  0.1205
  H  H99  1  0.485100  0.777500  0.880200  1.0  0.1383
  H  H100  1  0.296300  0.224300  0.849800  1.0  0.1294
  H  H101  1  0.485100  0.634000  0.879500  1.0  0.1225
  H  H102  1  0.159600  0.278100  0.942100  1.0  0.0975
  H  H103  1  0.345700  0.262500  0.067900  1.0  0.133
  H  H104  1  0.282000  0.255700  0.112800  1.0  0.1265
  H  H105  1  0.419900  0.245100  0.020700  1.0  0.1038
  H  H106  1  0.232700  0.256400  0.890700  1.0  0.1299
  H  H107  1  0.633300  0.845500  0.775900  1.0  0.0894
  H  H108  1  0.635000  0.572800  0.777000  1.0  0.1155
  H  H109  1  0.129800  0.293000  0.302400  1.0  0.1085
  H  H110  1  0.927400  0.139500  0.228300  1.0  0.0812
  H  H111  1  0.930000  0.451400  0.224100  1.0  0.0956
  H  H112  1  0.983000  0.458800  0.438100  1.0  0.0814
  H  H113  1  0.921700  0.996200  0.222100  1.0  0.1423
  H  H114  1  0.985400  0.988900  0.437000  1.0  0.1245
  H  H115  1  0.986400  0.134400  0.434300  1.0  0.0847
  H  H116  1  0.927100  0.592600  0.219700  1.0  0.1204
  H  H117  1  0.977800  0.600600  0.440700  1.0  0.1363
  H  H118  1  0.291300  0.228000  0.662700  1.0  0.1211
  H  H119  1  0.014900  0.722500  0.380200  1.0  0.1387
  H  H120  1  0.203700  0.275700  0.349800  1.0  0.1282
  H  H121  1  0.014900  0.866000  0.379500  1.0  0.1223
  H  H122  1  0.340400  0.221900  0.442100  1.0  0.0976
  H  H123  1  0.154300  0.237500  0.567900  1.0  0.1336
  H  H124  1  0.218000  0.244300  0.612800  1.0  0.1262
  H  H125  1  0.080100  0.254900  0.520700  1.0  0.1037
  H  H126  1  0.267300  0.243600  0.390700  1.0  0.1298
  H  H127  1  0.866700  0.654500  0.275900  1.0  0.0895
  H  H128  1  0.865000  0.927200  0.277000  1.0  0.1164
  H  H129  1  0.629800  0.207000  0.697600  1.0  0.1099
  H  H130  1  0.427400  0.360500  0.771700  1.0  0.0815
  H  H131  1  0.430000  0.048600  0.775900  1.0  0.0955
  H  H132  1  0.483000  0.041200  0.561900  1.0  0.0809
  H  H133  1  0.421700  0.503800  0.777900  1.0  0.1417
  H  H134  1  0.485400  0.511100  0.563000  1.0  0.1237
  H  H135  1  0.486400  0.365600  0.565700  1.0  0.0848
  H  H136  1  0.427100  0.907400  0.780300  1.0  0.1209
  H  H137  1  0.477800  0.899400  0.559300  1.0  0.1365
  H  H138  1  0.791300  0.272000  0.337300  1.0  0.1214
  H  H139  1  0.514900  0.777500  0.619800  1.0  0.1387
  H  H140  1  0.703700  0.224300  0.650200  1.0  0.1292
  H  H141  1  0.514900  0.634000  0.620500  1.0  0.1226
  H  H142  1  0.840400  0.278100  0.557900  1.0  0.0971
  H  H143  1  0.654300  0.262500  0.432100  1.0  0.1347
  H  H144  1  0.718000  0.255700  0.387200  1.0  0.1257
  H  H145  1  0.580100  0.245100  0.479300  1.0  0.1039
  H  H146  1  0.767300  0.256400  0.609300  1.0  0.1294
  H  H147  1  0.366700  0.845500  0.724100  1.0  0.0897
  H  H148  1  0.365000  0.572800  0.723000  1.0  0.1155
  H  H149  1  0.870200  0.293000  0.197600  1.0  0.1103
  H  H150  1  0.072600  0.139500  0.271700  1.0  0.0811
  H  H151  1  0.070000  0.451400  0.275900  1.0  0.0951
  H  H152  1  0.017000  0.458800  0.061900  1.0  0.0816
  H  H153  1  0.078300  0.996200  0.277900  1.0  0.1415
  H  H154  1  0.014600  0.988900  0.063000  1.0  0.1241
  H  H155  1  0.013600  0.134400  0.065700  1.0  0.084
  H  H156  1  0.072900  0.592600  0.280300  1.0  0.1204
  H  H157  1  0.022200  0.600600  0.059300  1.0  0.1358
  H  H158  1  0.708700  0.228000  0.837300  1.0  0.1209
  H  H159  1  0.985100  0.722500  0.119800  1.0  0.1382
  H  H160  1  0.796300  0.275700  0.150200  1.0  0.1288
  H  H161  1  0.985100  0.866000  0.120500  1.0  0.1224
  H  H162  1  0.659600  0.221900  0.057900  1.0  0.0975
  H  H163  1  0.845700  0.237500  0.932100  1.0  0.134
  H  H164  1  0.782000  0.244300  0.887200  1.0  0.1264
  H  H165  1  0.919900  0.254900  0.979300  1.0  0.104
  H  H166  1  0.732700  0.243600  0.109300  1.0  0.1292
  H  H167  1  0.133300  0.654500  0.224100  1.0  0.0899
  H  H168  1  0.135000  0.927200  0.223000  1.0  0.1156
  C  C169  1  0.634300  0.782600  0.142800  1.0  -0.0386
  C  C170  1  0.549010  0.789600  0.122600  1.0  0.6525
  C  C171  1  0.453800  0.475100  0.170000  1.0  0.1245
  C  C172  1  0.452600  0.113800  0.171000  1.0  0.1105
  C  C173  1  0.871500  0.713000  0.909100  1.0  0.7114
  C  C174  1  0.686900  0.757300  0.036200  1.0  0.0298
  C  C175  1  0.438700  0.607800  0.228700  1.0  0.2
  C  C176  1  0.452000  0.384100  0.172000  1.0  0.0673
  C  C177  1  0.452100  0.207700  0.172100  1.0  0.0037
  C  C178  1  0.439900  0.981900  0.231100  1.0  0.1874
  C  C179  1  0.415000  0.338400  0.203500  1.0  -0.0413
  C  C180  1  0.734700  0.745300  0.003900  1.0  0.0354
  C  C181  1  0.823600  0.724500  0.943400  1.0  -0.1184
  C  C182  1  0.414700  0.251300  0.202400  1.0  -0.0145
  C  C183  1  0.470200  0.986300  0.106300  1.0  0.1898
  C  C184  1  0.597480  0.778100  0.093800  1.0  -0.1176
  C  C185  1  0.435500  0.522200  0.233600  1.0  -0.2272
  C  C186  1  0.472900  0.517800  0.106900  1.0  -0.2089
  C  C187  1  0.473200  0.605600  0.109100  1.0  0.1981
  C  C188  1  0.438300  0.066200  0.234000  1.0  -0.1496
  C  C189  1  0.468300  0.071200  0.105100  1.0  -0.2201
  C  C190  1  0.786700  0.730600  0.892900  1.0  -0.0533
  C  C191  1  0.489600  0.251600  0.140900  1.0  -0.1156
  C  C192  1  0.678800  0.772200  0.114400  1.0  -0.1394
  C  C193  1  0.489400  0.337300  0.141300  1.0  -0.0685
  C  C194  1  0.815600  0.727800  0.022400  1.0  -0.0213
  C  C195  1  0.649600  0.749900  0.986400  1.0  -0.1129
  C  C196  1  0.742800  0.740600  0.923000  1.0  -0.1358
  C  C197  1  0.605000  0.760200  0.014600  1.0  -0.0758
  C  C198  1  0.771500  0.739600  0.053600  1.0  -0.1422
  C  C199  1  0.369800  0.212600  0.229600  1.0  0.2001
  C  C200  1  0.369100  0.369500  0.230600  1.0  0.1221
  C  C201  1  0.865700  0.717400  0.642800  1.0  -0.0377
  C  C202  1  0.950990  0.710400  0.622600  1.0  0.6533
  C  C203  1  0.046200  0.024900  0.670000  1.0  0.1251
  C  C204  1  0.047400  0.386200  0.671000  1.0  0.1111
  C  C205  1  0.628500  0.787000  0.409100  1.0  0.713
  C  C206  1  0.813100  0.742700  0.536200  1.0  0.0294
  C  C207  1  0.061300  0.892200  0.728700  1.0  0.2002
  C  C208  1  0.048000  0.115900  0.672000  1.0  0.0675
  C  C209  1  0.047900  0.292300  0.672100  1.0  0.0054
  C  C210  1  0.060100  0.518100  0.731100  1.0  0.1878
  C  C211  1  0.085000  0.161600  0.703500  1.0  -0.0416
  C  C212  1  0.765300  0.754700  0.503900  1.0  0.0343
  C  C213  1  0.676400  0.775500  0.443400  1.0  -0.1197
  C  C214  1  0.085300  0.248700  0.702400  1.0  -0.0144
  C  C215  1  0.029800  0.513700  0.606300  1.0  0.1896
  C  C216  1  0.902520  0.721900  0.593800  1.0  -0.1183
  C  C217  1  0.064500  0.977800  0.733600  1.0  -0.2263
  C  C218  1  0.027100  0.982200  0.606900  1.0  -0.209
  C  C219  1  0.026800  0.894400  0.609100  1.0  0.1978
  C  C220  1  0.061700  0.433800  0.734000  1.0  -0.151
  C  C221  1  0.031700  0.428800  0.605100  1.0  -0.2207
  C  C222  1  0.713300  0.769400  0.392900  1.0  -0.0533
  C  C223  1  0.010400  0.248400  0.640900  1.0  -0.1136
  C  C224  1  0.821200  0.727800  0.614400  1.0  -0.1396
  C  C225  1  0.010600  0.162700  0.641300  1.0  -0.0692
  C  C226  1  0.684400  0.772200  0.522400  1.0  -0.0227
  C  C227  1  0.850400  0.750100  0.486400  1.0  -0.1128
  C  C228  1  0.757200  0.759400  0.423000  1.0  -0.1357
  C  C229  1  0.895000  0.739800  0.514600  1.0  -0.0765
  C  C230  1  0.728500  0.760400  0.553600  1.0  -0.1429
  C  C231  1  0.130200  0.287400  0.729600  1.0  0.1984
  C  C232  1  0.130900  0.130500  0.730600  1.0  0.1245
  C  C233  1  0.365700  0.782600  0.357200  1.0  -0.0381
  C  C234  1  0.450990  0.789600  0.377400  1.0  0.6531
  C  C235  1  0.546200  0.475100  0.330000  1.0  0.1245
  C  C236  1  0.547400  0.113800  0.329000  1.0  0.1114
  C  C237  1  0.128500  0.713000  0.590900  1.0  0.7129
  C  C238  1  0.313100  0.757300  0.463800  1.0  0.0291
  C  C239  1  0.561300  0.607800  0.271300  1.0  0.2001
  C  C240  1  0.548000  0.384100  0.328000  1.0  0.0676
  C  C241  1  0.547900  0.207700  0.327900  1.0  0.0038
  C  C242  1  0.560100  0.981900  0.268900  1.0  0.1874
  C  C243  1  0.585000  0.338400  0.296500  1.0  -0.041
  C  C244  1  0.265300  0.745300  0.496100  1.0  0.0349
  C  C245  1  0.176400  0.724500  0.556600  1.0  -0.1198
  C  C246  1  0.585300  0.251300  0.297600  1.0  -0.0152
  C  C247  1  0.529800  0.986300  0.393700  1.0  0.1901
  C  C248  1  0.402520  0.778100  0.406200  1.0  -0.1183
  C  C249  1  0.564500  0.522200  0.266400  1.0  -0.2264
  C  C250  1  0.527100  0.517800  0.393100  1.0  -0.2105
  C  C251  1  0.526800  0.605600  0.390900  1.0  0.1974
  C  C252  1  0.561700  0.066200  0.266000  1.0  -0.1516
  C  C253  1  0.531700  0.071200  0.394900  1.0  -0.2203
  C  C254  1  0.213300  0.730600  0.607100  1.0  -0.0528
  C  C255  1  0.510400  0.251600  0.359100  1.0  -0.1139
  C  C256  1  0.321200  0.772200  0.385600  1.0  -0.1385
  C  C257  1  0.510600  0.337300  0.358700  1.0  -0.0694
  C  C258  1  0.184400  0.727800  0.477600  1.0  -0.0224
  C  C259  1  0.350400  0.749900  0.513600  1.0  -0.1113
  C  C260  1  0.257200  0.740600  0.577000  1.0  -0.1364
  C  C261  1  0.395000  0.760200  0.485400  1.0  -0.0767
  C  C262  1  0.228500  0.739600  0.446400  1.0  -0.1434
  C  C263  1  0.630200  0.212600  0.270400  1.0  0.2001
  C  C264  1  0.630900  0.369500  0.269400  1.0  0.1229
  C  C265  1  0.134300  0.717400  0.857200  1.0  -0.0383
  C  C266  1  0.049010  0.710400  0.877400  1.0  0.6517
  C  C267  1  0.953800  0.024900  0.830000  1.0  0.1248
  C  C268  1  0.952600  0.386200  0.829000  1.0  0.1111
  C  C269  1  0.371500  0.787000  0.090900  1.0  0.712
  C  C270  1  0.186900  0.742700  0.963800  1.0  0.0294
  C  C271  1  0.938700  0.892200  0.771300  1.0  0.1994
  C  C272  1  0.952000  0.115900  0.828000  1.0  0.0669
  C  C273  1  0.952100  0.292300  0.827900  1.0  0.0047
  C  C274  1  0.939900  0.518100  0.768900  1.0  0.1867
  C  C275  1  0.915000  0.161600  0.796500  1.0  -0.0427
  C  C276  1  0.234700  0.754700  0.996100  1.0  0.0356
  C  C277  1  0.323600  0.775500  0.056600  1.0  -0.1187
  C  C278  1  0.914700  0.248700  0.797600  1.0  -0.0156
  C  C279  1  0.970200  0.513700  0.893700  1.0  0.19
  C  C280  1  0.097480  0.721900  0.906200  1.0  -0.1174
  C  C281  1  0.935500  0.977800  0.766400  1.0  -0.2281
  C  C282  1  0.972900  0.982200  0.893100  1.0  -0.2098
  C  C283  1  0.973200  0.894400  0.890900  1.0  0.1981
  C  C284  1  0.938300  0.433800  0.766000  1.0  -0.1518
  C  C285  1  0.968300  0.428800  0.894900  1.0  -0.2198
  C  C286  1  0.286700  0.769400  0.107100  1.0  -0.0528
  C  C287  1  0.989600  0.248400  0.859100  1.0  -0.1154
  C  C288  1  0.178800  0.727800  0.885600  1.0  -0.139
  C  C289  1  0.989400  0.162700  0.858700  1.0  -0.0693
  C  C290  1  0.315600  0.772200  0.977600  1.0  -0.021
  C  C291  1  0.149600  0.750100  0.013600  1.0  -0.1103
  C  C292  1  0.242800  0.759400  0.077000  1.0  -0.1369
  C  C293  1  0.105000  0.739800  0.985400  1.0  -0.075
  C  C294  1  0.271500  0.760400  0.946400  1.0  -0.1429
  C  C295  1  0.869800  0.287400  0.770400  1.0  0.1978
  C  C296  1  0.869100  0.130500  0.769400  1.0  0.1226
  C  C297  1  0.365700  0.217400  0.857200  1.0  -0.0382
  C  C298  1  0.450990  0.210400  0.877400  1.0  0.6528
  C  C299  1  0.546200  0.524900  0.830000  1.0  0.1247
  C  C300  1  0.547400  0.886200  0.829000  1.0  0.1116
  C  C301  1  0.128500  0.287000  0.090900  1.0  0.713
  C  C302  1  0.313100  0.242700  0.963800  1.0  0.029
  C  C303  1  0.561300  0.392200  0.771300  1.0  0.1999
  C  C304  1  0.548000  0.615900  0.828000  1.0  0.0672
  C  C305  1  0.547900  0.792300  0.827900  1.0  0.005
  C  C306  1  0.560100  0.018100  0.768900  1.0  0.1876
  C  C307  1  0.585000  0.661600  0.796500  1.0  -0.0418
  C  C308  1  0.265300  0.254700  0.996100  1.0  0.0349
  C  C309  1  0.176400  0.275500  0.056600  1.0  -0.1197
  C  C310  1  0.585300  0.748700  0.797600  1.0  -0.0151
  C  C311  1  0.529800  0.013700  0.893700  1.0  0.1896
  C  C312  1  0.402520  0.221900  0.906200  1.0  -0.1181
  C  C313  1  0.564500  0.477800  0.766400  1.0  -0.2265
  C  C314  1  0.527100  0.482200  0.893100  1.0  -0.2101
  C  C315  1  0.526800  0.394400  0.890900  1.0  0.1976
  C  C316  1  0.561700  0.933800  0.766000  1.0  -0.1517
  C  C317  1  0.531700  0.928800  0.894900  1.0  -0.2202
  C  C318  1  0.213300  0.269400  0.107100  1.0  -0.053
  C  C319  1  0.510400  0.748400  0.859100  1.0  -0.1137
  C  C320  1  0.321200  0.227800  0.885600  1.0  -0.1386
  C  C321  1  0.510600  0.662700  0.858700  1.0  -0.0696
  C  C322  1  0.184400  0.272200  0.977600  1.0  -0.0223
  C  C323  1  0.350400  0.250100  0.013600  1.0  -0.1108
  C  C324  1  0.257200  0.259400  0.077000  1.0  -0.1363
  C  C325  1  0.395000  0.239800  0.985400  1.0  -0.0765
  C  C326  1  0.228500  0.260400  0.946400  1.0  -0.1433
  C  C327  1  0.630200  0.787400  0.770400  1.0  0.1986
  C  C328  1  0.630900  0.630500  0.769400  1.0  0.1238
  C  C329  1  0.134300  0.282600  0.357200  1.0  -0.0384
  C  C330  1  0.049010  0.289600  0.377400  1.0  0.652
  C  C331  1  0.953800  0.975100  0.330000  1.0  0.1244
  C  C332  1  0.952600  0.613800  0.329000  1.0  0.111
  C  C333  1  0.371500  0.213000  0.590900  1.0  0.7116
  C  C334  1  0.186900  0.257300  0.463800  1.0  0.0294
  C  C335  1  0.938700  0.107800  0.271300  1.0  0.1998
  C  C336  1  0.952000  0.884100  0.328000  1.0  0.0674
  C  C337  1  0.952100  0.707700  0.327900  1.0  0.0034
  C  C338  1  0.939900  0.481900  0.268900  1.0  0.1864
  C  C339  1  0.915000  0.838400  0.296500  1.0  -0.0417
  C  C340  1  0.234700  0.245300  0.496100  1.0  0.0358
  C  C341  1  0.323600  0.224500  0.556600  1.0  -0.1188
  C  C342  1  0.914700  0.751300  0.297600  1.0  -0.0159
  C  C343  1  0.970200  0.486300  0.393700  1.0  0.1904
  C  C344  1  0.097480  0.278100  0.406200  1.0  -0.1175
  C  C345  1  0.935500  0.022200  0.266400  1.0  -0.2281
  C  C346  1  0.972900  0.017800  0.393100  1.0  -0.2101
  C  C347  1  0.973200  0.105600  0.390900  1.0  0.1978
  C  C348  1  0.938300  0.566200  0.266000  1.0  -0.1514
  C  C349  1  0.968300  0.571200  0.394900  1.0  -0.2199
  C  C350  1  0.286700  0.230600  0.607100  1.0  -0.0528
  C  C351  1  0.989600  0.751600  0.359100  1.0  -0.1156
  C  C352  1  0.178800  0.272200  0.385600  1.0  -0.139
  C  C353  1  0.989400  0.837300  0.358700  1.0  -0.069
  C  C354  1  0.315600  0.227800  0.477600  1.0  -0.0213
  C  C355  1  0.149600  0.249900  0.513600  1.0  -0.1109
  C  C356  1  0.242800  0.240600  0.577000  1.0  -0.1369
  C  C357  1  0.105000  0.260200  0.485400  1.0  -0.0752
  C  C358  1  0.271500  0.239600  0.446400  1.0  -0.143
  C  C359  1  0.869800  0.712600  0.270400  1.0  0.1993
  C  C360  1  0.869100  0.869500  0.269400  1.0  0.122
  C  C361  1  0.634300  0.217400  0.642800  1.0  -0.038
  C  C362  1  0.549010  0.210400  0.622600  1.0  0.6524
  C  C363  1  0.453800  0.524900  0.670000  1.0  0.1249
  C  C364  1  0.452600  0.886200  0.671000  1.0  0.1105
  C  C365  1  0.871500  0.287000  0.409100  1.0  0.7119
  C  C366  1  0.686900  0.242700  0.536200  1.0  0.0298
  C  C367  1  0.438700  0.392200  0.728700  1.0  0.2
  C  C368  1  0.452000  0.615900  0.672000  1.0  0.0668
  C  C369  1  0.452100  0.792300  0.672100  1.0  0.0051
  C  C370  1  0.439900  0.018100  0.731100  1.0  0.1872
  C  C371  1  0.415000  0.661600  0.703500  1.0  -0.0419
  C  C372  1  0.734700  0.254700  0.503900  1.0  0.0353
  C  C373  1  0.823600  0.275500  0.443400  1.0  -0.1183
  C  C374  1  0.414700  0.748700  0.702400  1.0  -0.0146
  C  C375  1  0.470200  0.013700  0.606300  1.0  0.1896
  C  C376  1  0.597480  0.221900  0.593800  1.0  -0.1174
  C  C377  1  0.435500  0.477800  0.733600  1.0  -0.2268
  C  C378  1  0.472900  0.482200  0.606900  1.0  -0.2086
  C  C379  1  0.473200  0.394400  0.609100  1.0  0.1981
  C  C380  1  0.438300  0.933800  0.734000  1.0  -0.1497
  C  C381  1  0.468300  0.928800  0.605100  1.0  -0.2204
  C  C382  1  0.786700  0.269400  0.392900  1.0  -0.0531
  C  C383  1  0.489600  0.748400  0.640900  1.0  -0.1151
  C  C384  1  0.678800  0.227800  0.614400  1.0  -0.1392
  C  C385  1  0.489400  0.662700  0.641300  1.0  -0.0691
  C  C386  1  0.815600  0.272200  0.522400  1.0  -0.0213
  C  C387  1  0.649600  0.250100  0.486400  1.0  -0.1124
  C  C388  1  0.742800  0.259400  0.423000  1.0  -0.136
  C  C389  1  0.605000  0.239800  0.514600  1.0  -0.0755
  C  C390  1  0.771500  0.260400  0.553600  1.0  -0.1422
  C  C391  1  0.369800  0.787400  0.729600  1.0  0.1976
  C  C392  1  0.369100  0.630500  0.730600  1.0  0.123
  C  C393  1  0.865700  0.282600  0.142800  1.0  -0.0381
  C  C394  1  0.950990  0.289600  0.122600  1.0  0.6535
  C  C395  1  0.046200  0.975100  0.170000  1.0  0.1248
  C  C396  1  0.047400  0.613800  0.171000  1.0  0.1109
  C  C397  1  0.628500  0.213000  0.909100  1.0  0.7128
  C  C398  1  0.813100  0.257300  0.036200  1.0  0.0294
  C  C399  1  0.061300  0.107800  0.228700  1.0  0.2002
  C  C400  1  0.048000  0.884100  0.172000  1.0  0.0678
  C  C401  1  0.047900  0.707700  0.172100  1.0  0.0041
  C  C402  1  0.060100  0.481900  0.231100  1.0  0.1882
  C  C403  1  0.085000  0.838400  0.203500  1.0  -0.041
  C  C404  1  0.765300  0.245300  0.003900  1.0  0.0344
  C  C405  1  0.676400  0.224500  0.943400  1.0  -0.1199
  C  C406  1  0.085300  0.751300  0.202400  1.0  -0.0142
  C  C407  1  0.029800  0.486300  0.106300  1.0  0.19
  C  C408  1  0.902520  0.278100  0.093800  1.0  -0.1185
  C  C409  1  0.064500  0.022200  0.233600  1.0  -0.2264
  C  C410  1  0.027100  0.017800  0.106900  1.0  -0.2092
  C  C411  1  0.026800  0.105600  0.109100  1.0  0.1978
  C  C412  1  0.061700  0.566200  0.234000  1.0  -0.151
  C  C413  1  0.031700  0.571200  0.105100  1.0  -0.2207
  C  C414  1  0.713300  0.230600  0.892900  1.0  -0.0534
  C  C415  1  0.010400  0.751600  0.140900  1.0  -0.1142
  C  C416  1  0.821200  0.272200  0.114400  1.0  -0.1401
  C  C417  1  0.010600  0.837300  0.141300  1.0  -0.0688
  C  C418  1  0.684400  0.227800  0.022400  1.0  -0.0223
  C  C419  1  0.850400  0.249900  0.986400  1.0  -0.1132
  C  C420  1  0.757200  0.240600  0.923000  1.0  -0.1356
  C  C421  1  0.895000  0.260200  0.014600  1.0  -0.0768
  C  C422  1  0.728500  0.239600  0.053600  1.0  -0.1429
  C  C423  1  0.130200  0.712600  0.229600  1.0  0.2007
  C  C424  1  0.130900  0.869500  0.230600  1.0  0.1232
  N  N425  1  0.456720  0.648500  0.166900  1.0  -0.2869
  N  N426  1  0.455060  0.940000  0.167000  1.0  -0.3303
  N  N427  1  0.043280  0.851500  0.666900  1.0  -0.2878
  N  N428  1  0.044940  0.560000  0.667000  1.0  -0.3285
  N  N429  1  0.543280  0.648500  0.333100  1.0  -0.2871
  N  N430  1  0.544940  0.940000  0.333000  1.0  -0.3301
  N  N431  1  0.956720  0.851500  0.833100  1.0  -0.2868
  N  N432  1  0.955060  0.560000  0.833000  1.0  -0.3279
  N  N433  1  0.543280  0.351500  0.833100  1.0  -0.2871
  N  N434  1  0.544940  0.060000  0.833000  1.0  -0.3276
  N  N435  1  0.956720  0.148500  0.333100  1.0  -0.2868
  N  N436  1  0.955060  0.440000  0.333000  1.0  -0.3299
  N  N437  1  0.456720  0.351500  0.666900  1.0  -0.2872
  N  N438  1  0.455060  0.060000  0.667000  1.0  -0.3287
  N  N439  1  0.043280  0.148500  0.166900  1.0  -0.2876
  N  N440  1  0.044940  0.440000  0.167000  1.0  -0.3303
  O  O441  1  0.540760  0.795600  0.196000  1.0  -0.713
  O  O442  1  0.875640  0.708600  0.835800  1.0  -0.6238
  O  O443  1  0.517240  0.792500  0.072200  1.0  -0.6136
  O  O444  1  0.904650  0.712100  0.953400  1.0  -0.5827
  O  O445  1  0.336600  0.251600  0.258700  1.0  -0.4091
  O  O446  1  0.336000  0.335600  0.260000  1.0  -0.538
  O  O447  1  0.959240  0.704400  0.696000  1.0  -0.7136
  O  O448  1  0.624360  0.791400  0.335800  1.0  -0.6219
  O  O449  1  0.982760  0.707500  0.572200  1.0  -0.6144
  O  O450  1  0.595350  0.787900  0.453400  1.0  -0.5817
  O  O451  1  0.163400  0.248400  0.758700  1.0  -0.4105
  O  O452  1  0.164000  0.164400  0.760000  1.0  -0.5394
  O  O453  1  0.459240  0.795600  0.304000  1.0  -0.7135
  O  O454  1  0.124360  0.708600  0.664200  1.0  -0.6244
  O  O455  1  0.482760  0.792500  0.427800  1.0  -0.6133
  O  O456  1  0.095350  0.712100  0.546600  1.0  -0.5814
  O  O457  1  0.663400  0.251600  0.241300  1.0  -0.4094
  O  O458  1  0.664000  0.335600  0.240000  1.0  -0.5422
  O  O459  1  0.040760  0.704400  0.804000  1.0  -0.7137
  O  O460  1  0.375640  0.791400  0.164200  1.0  -0.6219
  O  O461  1  0.017240  0.707500  0.927800  1.0  -0.6129
  O  O462  1  0.404650  0.787900  0.046600  1.0  -0.5826
  O  O463  1  0.836600  0.248400  0.741300  1.0  -0.4086
  O  O464  1  0.836000  0.164400  0.740000  1.0  -0.538
  O  O465  1  0.459240  0.204400  0.804000  1.0  -0.714
  O  O466  1  0.124360  0.291400  0.164200  1.0  -0.6246
  O  O467  1  0.482760  0.207500  0.927800  1.0  -0.6148
  O  O468  1  0.095350  0.287900  0.046600  1.0  -0.5814
  O  O469  1  0.663400  0.748400  0.741300  1.0  -0.4098
  O  O470  1  0.664000  0.664400  0.740000  1.0  -0.5392
  O  O471  1  0.040760  0.295600  0.304000  1.0  -0.7132
  O  O472  1  0.375640  0.208600  0.664200  1.0  -0.6215
  O  O473  1  0.017240  0.292500  0.427800  1.0  -0.6139
  O  O474  1  0.404650  0.212100  0.546600  1.0  -0.5825
  O  O475  1  0.836600  0.751600  0.241300  1.0  -0.4077
  O  O476  1  0.836000  0.835600  0.240000  1.0  -0.538
  O  O477  1  0.540760  0.204400  0.696000  1.0  -0.7133
  O  O478  1  0.875640  0.291400  0.335800  1.0  -0.6239
  O  O479  1  0.517240  0.207500  0.572200  1.0  -0.615
  O  O480  1  0.904650  0.287900  0.453400  1.0  -0.5827
  O  O481  1  0.336600  0.748400  0.758700  1.0  -0.4102
  O  O482  1  0.336000  0.664400  0.760000  1.0  -0.5366
  O  O483  1  0.959240  0.295600  0.196000  1.0  -0.7134
  O  O484  1  0.624360  0.208600  0.835800  1.0  -0.6218
  O  O485  1  0.982760  0.292500  0.072200  1.0  -0.6157
  O  O486  1  0.595350  0.212100  0.953400  1.0  -0.5817
  O  O487  1  0.163400  0.751600  0.258700  1.0  -0.4097
  O  O488  1  0.164000  0.835600  0.260000  1.0  -0.5404
