# generated using pymatgen
data_Zn4H96C150O19
_symmetry_space_group_name_H-M   'P 1'
_cell_length_a   18.97800000
_cell_length_b   23.17000000
_cell_length_c   23.47700000
_cell_angle_alpha   87.73000000
_cell_angle_beta   68.37800000
_cell_angle_gamma   68.29900000
_symmetry_Int_Tables_number   1
_chemical_formula_structural   Zn4H96C150O19
_chemical_formula_sum   'Zn8 H192 C300 O38'
_cell_volume   8860.75403150
_cell_formula_units_Z   2
loop_
 _symmetry_equiv_pos_site_id
 _symmetry_equiv_pos_as_xyz
  1  'x, y, z'
loop_
 _atom_site_type_symbol
 _atom_site_label
 _atom_site_symmetry_multiplicity
 _atom_site_fract_x
 _atom_site_fract_y
 _atom_site_fract_z
 _atom_site_occupancy
 _atom_site_charge
  Zn  Zn1  1  0.537770  0.282840  0.238850  1.0  1.0421
  Zn  Zn2  1  0.468800  0.223650  0.353950  1.0  1.0715
  Zn  Zn3  1  0.349550  0.325810  0.312970  1.0  1.0653
  Zn  Zn4  1  0.457080  0.378920  0.357880  1.0  0.9872
  Zn  Zn5  1  0.462230  0.717160  0.761150  1.0  1.0411
  Zn  Zn6  1  0.531200  0.776350  0.646050  1.0  1.0693
  Zn  Zn7  1  0.650450  0.674190  0.687030  1.0  1.0658
  Zn  Zn8  1  0.542920  0.621080  0.642120  1.0  0.9883
  H  H9  1  0.598100  0.253900  0.753600  1.0  0.1005
  H  H10  1  0.489800  0.239500  0.960400  1.0  0.098
  H  H11  1  0.637000  0.192400  0.961900  1.0  0.1061
  H  H12  1  0.779300  0.156500  0.907700  1.0  0.1084
  H  H13  1  0.831600  0.158900  0.801900  1.0  0.0861
  H  H14  1  0.745600  0.200800  0.748700  1.0  0.121
  H  H15  1  0.417300  0.361400  0.982700  1.0  0.108
  H  H16  1  0.389600  0.457700  0.945400  1.0  0.1053
  H  H17  1  0.440400  0.463900  0.838800  1.0  0.0956
  H  H18  1  0.522800  0.375200  0.771400  1.0  0.1172
  H  H19  1  0.445300  0.126800  0.710700  1.0  0.0983
  H  H20  1  0.335000  0.108600  0.916300  1.0  0.1155
  H  H21  1  0.404600  0.989600  0.896000  1.0  0.1317
  H  H22  1  0.486500  0.899700  0.825600  1.0  0.0864
  H  H23  1  0.542600  0.908400  0.718600  1.0  0.1105
  H  H24  1  0.513200  0.008100  0.684500  1.0  0.1231
  H  H25  1  0.187200  0.173600  0.920400  1.0  0.1296
  H  H26  1  0.104400  0.225800  0.867200  1.0  0.0844
  H  H27  1  0.158500  0.233600  0.764000  1.0  0.096
  H  H28  1  0.300900  0.192000  0.709700  1.0  0.1202
  H  H29  1  0.486900  0.287200  0.700900  1.0  0.107
  H  H30  1  0.414800  0.263200  0.736400  1.0  0.0951
  H  H31  1  0.359700  0.326100  0.661400  1.0  0.0992
  H  H32  1  0.341500  0.323300  0.571400  1.0  0.1228
  H  H33  1  0.531400  0.154200  0.515400  1.0  0.1299
  H  H34  1  0.547600  0.162500  0.608500  1.0  0.0903
  H  H35  1  0.476100  0.093700  0.962900  1.0  0.1158
  H  H36  1  0.382600  0.102300  0.002500  1.0  0.1003
  H  H37  1  0.310600  0.165800  0.103900  1.0  0.1026
  H  H38  1  0.311500  0.225500  0.182000  1.0  0.1098
  H  H39  1  0.552700  0.185500  0.084900  1.0  0.0955
  H  H40  1  0.548100  0.130300  0.007100  1.0  0.1037
  H  H41  1  0.055900  0.729700  0.298400  1.0  0.0993
  H  H42  1  0.910300  0.929500  0.271500  1.0  0.0968
  H  H43  1  0.773500  0.920800  0.341600  1.0  0.1193
  H  H44  1  0.708400  0.856100  0.397100  1.0  0.0949
  H  H45  1  0.777600  0.758400  0.409000  1.0  0.1105
  H  H46  1  0.916200  0.715400  0.366000  1.0  0.1132
  H  H47  1  0.985500  0.972100  0.320900  1.0  0.0926
  H  H48  1  0.082800  0.955800  0.365000  1.0  0.1142
  H  H49  1  0.156600  0.853500  0.377900  1.0  0.0883
  H  H50  1  0.132800  0.769200  0.348200  1.0  0.1302
  H  H51  1  0.173300  0.666200  0.062000  1.0  0.1151
  H  H52  1  0.045400  0.870300  0.033300  1.0  0.1058
  H  H53  1  0.959000  0.840000  0.986100  1.0  0.1365
  H  H54  1  0.923900  0.759300  0.957500  1.0  0.1085
  H  H55  1  0.988000  0.657000  0.973400  1.0  0.0875
  H  H56  1  0.085600  0.630200  0.017200  1.0  0.1235
  H  H57  1  0.184300  0.872500  0.957000  1.0  0.1172
  H  H58  1  0.323100  0.820900  0.903500  1.0  0.1062
  H  H59  1  0.388600  0.721200  0.921100  1.0  0.097
  H  H60  1  0.314300  0.666667  0.990300  1.0  0.1258
  H  H61  1  0.211400  0.705000  0.199800  1.0  0.0973
  H  H62  1  0.249100  0.662600  0.135200  1.0  0.0957
  H  H63  1  0.140600  0.591700  0.239800  1.0  0.1131
  H  H64  1  0.191700  0.503600  0.288300  1.0  0.1107
  H  H65  1  0.403700  0.529200  0.238800  1.0  0.1054
  H  H66  1  0.354900  0.612900  0.188700  1.0  0.0934
  H  H67  1  0.881800  0.893200  0.140500  1.0  0.0827
  H  H68  1  0.915200  0.932500  0.086400  1.0  0.0932
  H  H69  1  0.749300  0.948600  0.217800  1.0  0.1058
  H  H70  1  0.642900  0.040000  0.267900  1.0  0.0887
  H  H71  1  0.775300  0.139300  0.175900  1.0  0.0988
  H  H72  1  0.883000  0.048800  0.124300  1.0  0.1159
  H  H73  1  0.198200  0.973800  0.484000  1.0  0.0896
  H  H74  1  0.962500  0.136600  0.429400  1.0  0.1028
  H  H75  1  0.946600  0.130000  0.326300  1.0  0.1385
  H  H76  1  0.880700  0.100500  0.270600  1.0  0.1004
  H  H77  1  0.798400  0.043200  0.315000  1.0  0.1071
  H  H78  1  0.220800  0.981400  0.586300  1.0  0.0967
  H  H79  1  0.852800  0.236500  0.505800  1.0  0.1298
  H  H80  1  0.727500  0.281800  0.587700  1.0  0.1046
  H  H81  1  0.648000  0.224100  0.633300  1.0  0.1084
  H  H82  1  0.308600  0.878100  0.406600  1.0  0.0916
  H  H83  1  0.023300  0.143700  0.523600  1.0  0.1109
  H  H84  1  0.096500  0.091100  0.538000  1.0  0.1032
  H  H85  1  0.240700  0.074500  0.466100  1.0  0.1136
  H  H86  1  0.332000  0.121900  0.409500  1.0  0.1123
  H  H87  1  0.138400  0.280600  0.431300  1.0  0.1097
  H  H88  1  0.052700  0.232300  0.486000  1.0  0.0897
  H  H89  1  0.953100  0.436800  0.138500  1.0  0.0961
  H  H90  1  0.845600  0.489600  0.962200  1.0  0.1027
  H  H91  1  0.897000  0.516500  0.233800  1.0  0.119
  H  H92  1  0.901100  0.605200  0.281300  1.0  0.1125
  H  H93  1  0.006200  0.641100  0.227400  1.0  0.0985
  H  H94  1  0.900800  0.404200  0.869400  1.0  0.1052
  H  H95  1  0.059800  0.326000  0.130800  1.0  0.1322
  H  H96  1  0.196300  0.257900  0.091400  1.0  0.0939
  H  H97  1  0.300300  0.293600  0.044100  1.0  0.0977
  H  H98  1  0.732600  0.600200  0.972000  1.0  0.1048
  H  H99  1  0.778400  0.538300  0.081200  1.0  0.1067
  H  H100  1  0.815800  0.525100  0.133900  1.0  0.1106
  H  H101  1  0.746900  0.433400  0.061500  1.0  0.1175
  H  H102  1  0.660900  0.383700  0.113100  1.0  0.0886
  H  H103  1  0.640500  0.454800  0.276600  1.0  0.1151
  H  H104  1  0.723800  0.508600  0.221500  1.0  0.1113
  H  H105  1  0.401900  0.746100  0.246400  1.0  0.1004
  H  H106  1  0.510200  0.760500  0.039600  1.0  0.0974
  H  H107  1  0.363000  0.807600  0.038100  1.0  0.1061
  H  H108  1  0.220700  0.843500  0.092300  1.0  0.1088
  H  H109  1  0.168400  0.841100  0.198100  1.0  0.0878
  H  H110  1  0.254400  0.799200  0.251300  1.0  0.1202
  H  H111  1  0.582700  0.638600  0.017300  1.0  0.1097
  H  H112  1  0.610400  0.542300  0.054600  1.0  0.105
  H  H113  1  0.559600  0.536100  0.161200  1.0  0.0957
  H  H114  1  0.477200  0.624800  0.228600  1.0  0.1172
  H  H115  1  0.554700  0.873200  0.289300  1.0  0.0982
  H  H116  1  0.665000  0.891400  0.083700  1.0  0.1142
  H  H117  1  0.595400  0.010400  0.104000  1.0  0.132
  H  H118  1  0.513500  0.100300  0.174400  1.0  0.0846
  H  H119  1  0.457400  0.091600  0.281400  1.0  0.1103
  H  H120  1  0.486800  0.991900  0.315500  1.0  0.123
  H  H121  1  0.812800  0.826400  0.079600  1.0  0.1302
  H  H122  1  0.895600  0.774200  0.132800  1.0  0.0833
  H  H123  1  0.841500  0.766400  0.236000  1.0  0.0959
  H  H124  1  0.699100  0.808000  0.290300  1.0  0.1197
  H  H125  1  0.513100  0.712800  0.299100  1.0  0.1067
  H  H126  1  0.585200  0.736800  0.263600  1.0  0.0939
  H  H127  1  0.640300  0.673900  0.338600  1.0  0.0993
  H  H128  1  0.658500  0.676700  0.428600  1.0  0.1216
  H  H129  1  0.468600  0.845800  0.484600  1.0  0.1297
  H  H130  1  0.452400  0.837500  0.391500  1.0  0.0905
  H  H131  1  0.523900  0.906300  0.037100  1.0  0.1163
  H  H132  1  0.617400  0.897700  0.997500  1.0  0.0994
  H  H133  1  0.689400  0.834200  0.896100  1.0  0.1027
  H  H134  1  0.688500  0.774500  0.818000  1.0  0.1097
  H  H135  1  0.447300  0.814500  0.915100  1.0  0.0957
  H  H136  1  0.451900  0.869700  0.992900  1.0  0.1043
  H  H137  1  0.944100  0.270300  0.701600  1.0  0.0993
  H  H138  1  0.089700  0.070500  0.728500  1.0  0.0976
  H  H139  1  0.226500  0.079200  0.658400  1.0  0.1193
  H  H140  1  0.291600  0.143900  0.602900  1.0  0.0958
  H  H141  1  0.222400  0.241600  0.591000  1.0  0.1104
  H  H142  1  0.083800  0.284600  0.634000  1.0  0.1137
  H  H143  1  0.014500  0.027900  0.679100  1.0  0.0921
  H  H144  1  0.917200  0.044200  0.635000  1.0  0.1144
  H  H145  1  0.843400  0.146500  0.622100  1.0  0.0893
  H  H146  1  0.867200  0.230800  0.651800  1.0  0.1296
  H  H147  1  0.826700  0.333800  0.938000  1.0  0.1148
  H  H148  1  0.954600  0.129700  0.966700  1.0  0.1063
  H  H149  1  0.041000  0.160000  0.013900  1.0  0.1366
  H  H150  1  0.076100  0.240700  0.042500  1.0  0.1088
  H  H151  1  0.012000  0.343000  0.026600  1.0  0.087
  H  H152  1  0.914400  0.369800  0.982800  1.0  0.1237
  H  H153  1  0.815700  0.127500  0.043000  1.0  0.1176
  H  H154  1  0.676900  0.179100  0.096500  1.0  0.1071
  H  H155  1  0.611400  0.278800  0.078900  1.0  0.0964
  H  H156  1  0.685700  0.333333  0.009700  1.0  0.126
  H  H157  1  0.788600  0.295000  0.800200  1.0  0.099
  H  H158  1  0.750900  0.337400  0.864800  1.0  0.0959
  H  H159  1  0.859400  0.408300  0.760200  1.0  0.1132
  H  H160  1  0.808300  0.496400  0.711700  1.0  0.111
  H  H161  1  0.596300  0.470800  0.761200  1.0  0.1053
  H  H162  1  0.645100  0.387100  0.811300  1.0  0.0938
  H  H163  1  0.118200  0.106800  0.859500  1.0  0.0809
  H  H164  1  0.084800  0.067500  0.913600  1.0  0.0935
  H  H165  1  0.250700  0.051400  0.782200  1.0  0.1058
  H  H166  1  0.357100  0.960000  0.732100  1.0  0.0885
  H  H167  1  0.224700  0.860700  0.824100  1.0  0.0985
  H  H168  1  0.117000  0.951200  0.875700  1.0  0.1164
  H  H169  1  0.801800  0.026200  0.516000  1.0  0.0913
  H  H170  1  0.037500  0.863400  0.570600  1.0  0.1037
  H  H171  1  0.053400  0.870000  0.673700  1.0  0.138
  H  H172  1  0.119300  0.899500  0.729400  1.0  0.1009
  H  H173  1  0.201600  0.956800  0.685000  1.0  0.1083
  H  H174  1  0.779200  0.018600  0.413700  1.0  0.0958
  H  H175  1  0.147200  0.763500  0.494200  1.0  0.1286
  H  H176  1  0.272500  0.718200  0.412300  1.0  0.1056
  H  H177  1  0.352000  0.775900  0.366700  1.0  0.1085
  H  H178  1  0.691400  0.121900  0.593400  1.0  0.0915
  H  H179  1  0.976700  0.856300  0.476400  1.0  0.1104
  H  H180  1  0.903500  0.908900  0.462000  1.0  0.103
  H  H181  1  0.759300  0.925500  0.533900  1.0  0.1143
  H  H182  1  0.668000  0.878100  0.590500  1.0  0.113
  H  H183  1  0.861600  0.719400  0.568700  1.0  0.1095
  H  H184  1  0.947300  0.767700  0.514000  1.0  0.0884
  H  H185  1  0.046900  0.563200  0.861500  1.0  0.0962
  H  H186  1  0.154400  0.510400  0.037800  1.0  0.1006
  H  H187  1  0.103000  0.483500  0.766200  1.0  0.1202
  H  H188  1  0.098900  0.394800  0.718700  1.0  0.1126
  H  H189  1  0.993800  0.358900  0.772600  1.0  0.0989
  H  H190  1  0.099200  0.595800  0.130600  1.0  0.1055
  H  H191  1  0.940200  0.674000  0.869200  1.0  0.1326
  H  H192  1  0.803700  0.742100  0.908600  1.0  0.0935
  H  H193  1  0.699700  0.706400  0.955900  1.0  0.0974
  H  H194  1  0.267400  0.399800  0.028000  1.0  0.1047
  H  H195  1  0.221600  0.461700  0.918800  1.0  0.1075
  H  H196  1  0.184200  0.474900  0.866100  1.0  0.1105
  H  H197  1  0.253100  0.566600  0.938500  1.0  0.1162
  H  H198  1  0.339100  0.616300  0.886900  1.0  0.0881
  H  H199  1  0.359500  0.545200  0.723400  1.0  0.1161
  H  H200  1  0.276200  0.491400  0.778500  1.0  0.1115
  C  C201  1  0.501300  0.186800  0.772600  1.0  0.1549
  C  C202  1  0.521500  0.211800  0.814000  1.0  -0.0708
  C  C203  1  0.489900  0.207300  0.876700  1.0  -0.0274
  C  C204  1  0.434600  0.174900  0.898100  1.0  0.1594
  C  C205  1  0.574400  0.251100  0.798800  1.0  -0.1046
  C  C206  1  0.513500  0.242900  0.915300  1.0  -0.1245
  C  C207  1  0.639000  0.220900  0.823800  1.0  0.022
  C  C208  1  0.607800  0.216100  0.887900  1.0  0.0066
  C  C209  1  0.658900  0.193600  0.918600  1.0  1e-04
  C  C210  1  0.743100  0.172400  0.886600  1.0  -0.0847
  C  C211  1  0.773800  0.174600  0.823800  1.0  -0.0967
  C  C212  1  0.723100  0.199000  0.791900  1.0  -0.1426
  C  C213  1  0.520100  0.314300  0.835000  1.0  0.024
  C  C214  1  0.487200  0.309200  0.899800  1.0  0.0088
  C  C215  1  0.439000  0.363600  0.939600  1.0  -0.0566
  C  C216  1  0.422300  0.420600  0.917600  1.0  -0.1146
  C  C217  1  0.453400  0.424300  0.854000  1.0  -0.1184
  C  C218  1  0.501500  0.372000  0.814400  1.0  -0.0806
  C  C219  1  0.449400  0.153200  0.794500  1.0  -0.0285
  C  C220  1  0.417000  0.148500  0.856700  1.0  -0.0761
  C  C221  1  0.420600  0.122900  0.755600  1.0  -0.119
  C  C222  1  0.359300  0.113000  0.871400  1.0  -0.1109
  C  C223  1  0.442300  0.056200  0.769100  1.0  0.0352
  C  C224  1  0.410800  0.050800  0.830900  1.0  -0.0151
  C  C225  1  0.426700  0.992800  0.853100  1.0  -0.0951
  C  C226  1  0.475400  0.939800  0.811300  1.0  -0.0951
  C  C227  1  0.508800  0.944800  0.747300  1.0  -0.1197
  C  C228  1  0.491300  0.003900  0.727200  1.0  -0.0728
  C  C229  1  0.327700  0.155100  0.782300  1.0  -0.0004
  C  C230  1  0.295500  0.149400  0.844700  1.0  0.0047
  C  C231  1  0.210700  0.176400  0.877600  1.0  -0.1645
  C  C232  1  0.162200  0.207400  0.845600  1.0  -0.0723
  C  C233  1  0.193900  0.212600  0.784600  1.0  -0.1099
  C  C234  1  0.278100  0.187200  0.752200  1.0  -0.0187
  C  C235  1  0.468300  0.252400  0.701500  1.0  -0.0683
  C  C236  1  0.457200  0.245800  0.643100  1.0  0.0346
  C  C237  1  0.395800  0.291400  0.631000  1.0  -0.1105
  C  C238  1  0.383800  0.289800  0.578300  1.0  -0.1322
  C  C239  1  0.433300  0.239200  0.534700  1.0  -0.1076
  C  C240  1  0.496600  0.189700  0.545000  1.0  -0.1354
  C  C241  1  0.505600  0.195400  0.600300  1.0  -0.0339
  C  C242  1  0.428700  0.237800  0.471300  1.0  0.6875
  C  C243  1  0.421800  0.123500  0.990900  1.0  0.0391
  C  C244  1  0.427200  0.146200  0.045400  1.0  0.0634
  C  C245  1  0.359300  0.171900  0.098800  1.0  -0.1242
  C  C246  1  0.359900  0.207100  0.146200  1.0  -0.0896
  C  C247  1  0.431500  0.214800  0.140500  1.0  -0.107
  C  C248  1  0.502000  0.183800  0.088500  1.0  -0.1237
  C  C249  1  0.499200  0.150500  0.042100  1.0  -0.1103
  C  C250  1  0.435000  0.250700  0.189500  1.0  0.7125
  C  C251  1  0.090600  0.738500  0.174500  1.0  0.2093
  C  C252  1  0.039600  0.782600  0.224800  1.0  -0.0523
  C  C253  1  0.996400  0.844000  0.217400  1.0  -0.0461
  C  C254  1  0.007200  0.860900  0.157100  1.0  0.2018
  C  C255  1  0.024200  0.773200  0.292500  1.0  -0.1151
  C  C256  1  0.942200  0.885900  0.276900  1.0  -0.1164
  C  C257  1  0.933500  0.792100  0.324600  1.0  -0.0081
  C  C258  1  0.887800  0.851300  0.318400  1.0  -0.0396
  C  C259  1  0.803600  0.878800  0.345300  1.0  -0.1446
  C  C260  1  0.766600  0.840000  0.378400  1.0  -0.0975
  C  C261  1  0.806900  0.782400  0.385500  1.0  -0.1014
  C  C262  1  0.888000  0.757200  0.360200  1.0  -0.1723
  C  C263  1  0.045000  0.822300  0.316600  1.0  0.0025
  C  C264  1  0.002400  0.881400  0.308300  1.0  -0.0016
  C  C265  1  0.016100  0.930800  0.326400  1.0  -0.0579
  C  C266  1  0.073500  0.921600  0.352600  1.0  -0.1144
  C  C267  1  0.116800  0.861000  0.360300  1.0  -0.1084
  C  C268  1  0.103000  0.810600  0.342600  1.0  -0.1042
  C  C269  1  0.097500  0.755600  0.115500  1.0  -0.0494
  C  C270  1  0.058100  0.817200  0.107200  1.0  -0.0272
  C  C271  1  0.145600  0.710600  0.055600  1.0  -0.1023
  C  C272  1  0.072800  0.826000  0.039800  1.0  -0.1138
  C  C273  1  0.081900  0.719700  0.027100  1.0  -0.0246
  C  C274  1  0.043500  0.780900  0.017700  1.0  -0.0335
  C  C275  1  0.984700  0.797800  0.992200  1.0  -0.0516
  C  C276  1  0.964000  0.749600  0.975300  1.0  -0.1246
  C  C277  1  0.002400  0.688600  0.984900  1.0  -0.1004
  C  C278  1  0.060400  0.672300  0.010600  1.0  -0.1448
  C  C279  1  0.204800  0.738900  0.012700  1.0  -0.0359
  C  C280  1  0.165700  0.799700  0.004600  1.0  0.0311
  C  C281  1  0.211100  0.830500  0.963200  1.0  -0.0928
  C  C282  1  0.292700  0.800400  0.932300  1.0  -0.0798
  C  C283  1  0.330900  0.741400  0.942200  1.0  -0.0741
  C  C284  1  0.287100  0.708300  0.983500  1.0  -0.1335
  C  C285  1  0.212100  0.668300  0.179000  1.0  -0.038
  C  C286  1  0.243600  0.610100  0.209500  1.0  0.0263
  C  C287  1  0.194700  0.578400  0.238900  1.0  -0.0945
  C  C288  1  0.225400  0.525800  0.267700  1.0  -0.0634
  C  C289  1  0.303500  0.506600  0.266200  1.0  -0.1386
  C  C290  1  0.350500  0.540700  0.238100  1.0  -0.0957
  C  C291  1  0.321000  0.590900  0.209300  1.0  -0.1204
  C  C292  1  0.336900  0.448400  0.293800  1.0  0.705
  C  C293  1  0.898000  0.929600  0.131400  1.0  -0.0181
  C  C294  1  0.828000  0.987900  0.165900  1.0  0.1078
  C  C295  1  0.755100  0.987300  0.208800  1.0  -0.1691
  C  C296  1  0.692000  0.041500  0.238000  1.0  -0.0446
  C  C297  1  0.697100  0.099600  0.225500  1.0  -0.1633
  C  C298  1  0.769800  0.100400  0.183800  1.0  -0.0724
  C  C299  1  0.833800  0.046900  0.153700  1.0  -0.1486
  C  C300  1  0.626600  0.158900  0.255400  1.0  0.706
  C  C301  1  0.047400  0.035100  0.475800  1.0  0.1769
  C  C302  1  0.078500  0.979400  0.500400  1.0  -0.0354
  C  C303  1  0.968800  0.054100  0.475500  1.0  -0.0633
  C  C304  1  0.163300  0.949300  0.503000  1.0  -0.0843
  C  C305  1  0.927100  0.112600  0.448800  1.0  -0.0965
  C  C306  1  0.151500  0.942400  0.569500  1.0  0.0482
  C  C307  1  0.895000  0.092300  0.405600  1.0  -0.0497
  C  C308  1  0.911500  0.108200  0.344200  1.0  -0.0898
  C  C309  1  0.873000  0.089700  0.311300  1.0  -0.0971
  C  C310  1  0.823800  0.055800  0.337500  1.0  -0.1396
  C  C311  1  0.186900  0.958700  0.604100  1.0  -0.0524
  C  C312  1  0.199000  0.885900  0.471300  1.0  0.0315
  C  C313  1  0.847800  0.150200  0.502700  1.0  -0.0406
  C  C314  1  0.820700  0.212600  0.524200  1.0  -0.1177
  C  C315  1  0.746300  0.239200  0.572500  1.0  -0.0945
  C  C316  1  0.698700  0.205500  0.599400  1.0  -0.1513
  C  C317  1  0.274200  0.855600  0.423800  1.0  -0.0733
  C  C318  1  0.081400  0.114600  0.505300  1.0  -0.0068
  C  C319  1  0.135600  0.149300  0.476700  1.0  0.1936
  C  C320  1  0.219900  0.116400  0.457200  1.0  -0.0927
  C  C321  1  0.274500  0.145000  0.424400  1.0  -0.0719
  C  C322  1  0.243500  0.207200  0.413800  1.0  -0.1311
  C  C323  1  0.161200  0.237900  0.437000  1.0  -0.1512
  C  C324  1  0.110000  0.208300  0.468800  1.0  -0.1384
  C  C325  1  0.303500  0.235000  0.375300  1.0  0.6611
  C  C326  1  0.937100  0.479300  0.032800  1.0  0.2288
  C  C327  1  0.992600  0.478700  0.056800  1.0  -0.0509
  C  C328  1  0.997300  0.452800  0.116700  1.0  -0.1036
  C  C329  1  0.944800  0.500100  0.973400  1.0  -0.02
  C  C330  1  0.889900  0.505300  0.939900  1.0  -0.1046
  C  C331  1  0.945000  0.470600  0.875900  1.0  0.0219
  C  C332  1  0.993500  0.506900  0.155500  1.0  0.0077
  C  C333  1  0.937700  0.532900  0.212700  1.0  -0.0559
  C  C334  1  0.940300  0.585600  0.241500  1.0  -0.0945
  C  C335  1  0.002700  0.607000  0.209000  1.0  -0.0941
  C  C336  1  0.942000  0.420000  0.848100  1.0  -0.0894
  C  C337  1  0.856400  0.574800  0.931200  1.0  -0.001
  C  C338  1  0.081700  0.403400  0.099900  1.0  0.0086
  C  C339  1  0.101600  0.341000  0.109200  1.0  -0.1563
  C  C340  1  0.182800  0.301100  0.086700  1.0  -0.1332
  C  C341  1  0.244600  0.321900  0.057700  1.0  -0.1294
  C  C342  1  0.774800  0.615200  0.951700  1.0  -0.0212
  C  C343  1  0.802900  0.505500  0.104300  1.0  0.015
  C  C344  1  0.744500  0.474800  0.137900  1.0  0.0575
  C  C345  1  0.724800  0.437800  0.105300  1.0  -0.1234
  C  C346  1  0.674400  0.408100  0.135900  1.0  -0.0557
  C  C347  1  0.642100  0.412800  0.199900  1.0  -0.152
  C  C348  1  0.661500  0.450600  0.232800  1.0  -0.086
  C  C349  1  0.712200  0.481900  0.199700  1.0  -0.042
  C  C350  1  0.591200  0.376900  0.232400  1.0  0.6821
  C  C351  1  0.498700  0.813200  0.227400  1.0  0.1561
  C  C352  1  0.478500  0.788200  0.186000  1.0  -0.0698
  C  C353  1  0.510100  0.792700  0.123300  1.0  -0.0267
  C  C354  1  0.565400  0.825100  0.101900  1.0  0.1592
  C  C355  1  0.425600  0.748900  0.201200  1.0  -0.1037
  C  C356  1  0.486500  0.757100  0.084700  1.0  -0.1228
  C  C357  1  0.361000  0.779100  0.176200  1.0  0.0212
  C  C358  1  0.392200  0.783900  0.112100  1.0  0.0064
  C  C359  1  0.341100  0.806400  0.081400  1.0  0.0024
  C  C360  1  0.256900  0.827600  0.113400  1.0  -0.0826
  C  C361  1  0.226200  0.825400  0.176200  1.0  -0.0968
  C  C362  1  0.276900  0.801000  0.208100  1.0  -0.1437
  C  C363  1  0.479900  0.685700  0.165000  1.0  0.0251
  C  C364  1  0.512800  0.690800  0.100200  1.0  0.0079
  C  C365  1  0.561000  0.636400  0.060400  1.0  -0.0563
  C  C366  1  0.577700  0.579400  0.082400  1.0  -0.113
  C  C367  1  0.546600  0.575700  0.146000  1.0  -0.1192
  C  C368  1  0.498500  0.628000  0.185600  1.0  -0.078
  C  C369  1  0.550600  0.846800  0.205500  1.0  -0.0288
  C  C370  1  0.583000  0.851500  0.143300  1.0  -0.0777
  C  C371  1  0.579400  0.877100  0.244400  1.0  -0.1187
  C  C372  1  0.640700  0.887000  0.128600  1.0  -0.1119
  C  C373  1  0.557700  0.943800  0.230900  1.0  0.0373
  C  C374  1  0.589200  0.949200  0.169100  1.0  -0.0141
  C  C375  1  0.573300  0.007200  0.146900  1.0  -0.0964
  C  C376  1  0.524600  0.060200  0.188700  1.0  -0.0952
  C  C377  1  0.491200  0.055200  0.252700  1.0  -0.1179
  C  C378  1  0.508700  0.996100  0.272800  1.0  -0.0744
  C  C379  1  0.672300  0.844900  0.217700  1.0  -0.0023
  C  C380  1  0.704500  0.850600  0.155300  1.0  0.0043
  C  C381  1  0.789300  0.823600  0.122400  1.0  -0.1655
  C  C382  1  0.837800  0.792600  0.154400  1.0  -0.0736
  C  C383  1  0.806100  0.787400  0.215400  1.0  -0.111
  C  C384  1  0.721900  0.812800  0.247800  1.0  -0.0193
  C  C385  1  0.531700  0.747600  0.298500  1.0  -0.0666
  C  C386  1  0.542800  0.754200  0.356900  1.0  0.0345
  C  C387  1  0.604200  0.708600  0.369000  1.0  -0.112
  C  C388  1  0.616200  0.710200  0.421700  1.0  -0.1331
  C  C389  1  0.566700  0.760800  0.465300  1.0  -0.1064
  C  C390  1  0.503400  0.810300  0.455000  1.0  -0.1355
  C  C391  1  0.494400  0.804600  0.399700  1.0  -0.0347
  C  C392  1  0.571300  0.762200  0.528700  1.0  0.6876
  C  C393  1  0.578200  0.876500  0.009100  1.0  0.0376
  C  C394  1  0.572800  0.853800  0.954600  1.0  0.0625
  C  C395  1  0.640700  0.828100  0.901200  1.0  -0.1239
  C  C396  1  0.640100  0.792900  0.853800  1.0  -0.0887
  C  C397  1  0.568500  0.785200  0.859500  1.0  -0.1062
  C  C398  1  0.498000  0.816200  0.911500  1.0  -0.1232
  C  C399  1  0.500800  0.849500  0.957900  1.0  -0.1101
  C  C400  1  0.565000  0.749300  0.810500  1.0  0.7127
  C  C401  1  0.909400  0.261500  0.825500  1.0  0.2098
  C  C402  1  0.960400  0.217400  0.775200  1.0  -0.0519
  C  C403  1  0.003600  0.156000  0.782600  1.0  -0.0475
  C  C404  1  0.992800  0.139100  0.842900  1.0  0.1989
  C  C405  1  0.975800  0.226800  0.707500  1.0  -0.1144
  C  C406  1  0.057800  0.114100  0.723100  1.0  -0.1163
  C  C407  1  0.066500  0.207900  0.675400  1.0  -0.007
  C  C408  1  0.112200  0.148700  0.681600  1.0  -0.0391
  C  C409  1  0.196400  0.121200  0.654700  1.0  -0.1459
  C  C410  1  0.233400  0.160000  0.621600  1.0  -0.0996
  C  C411  1  0.193100  0.217600  0.614500  1.0  -0.1011
  C  C412  1  0.112000  0.242800  0.639800  1.0  -0.1704
  C  C413  1  0.955000  0.177700  0.683400  1.0  0.0017
  C  C414  1  0.997600  0.118600  0.691700  1.0  -0.0014
  C  C415  1  0.983900  0.069200  0.673600  1.0  -0.061
  C  C416  1  0.926500  0.078400  0.647400  1.0  -0.1167
  C  C417  1  0.883200  0.139000  0.639700  1.0  -0.1086
  C  C418  1  0.897000  0.189400  0.657400  1.0  -0.104
  C  C419  1  0.902500  0.244400  0.884500  1.0  -0.0483
  C  C420  1  0.941900  0.182800  0.892800  1.0  -0.0267
  C  C421  1  0.854400  0.289400  0.944400  1.0  -0.1012
  C  C422  1  0.927200  0.174000  0.960200  1.0  -0.1126
  C  C423  1  0.918100  0.280300  0.972900  1.0  -0.0237
  C  C424  1  0.956500  0.219100  0.982300  1.0  -0.0274
  C  C425  1  0.015300  0.202200  0.007800  1.0  -0.0521
  C  C426  1  0.036000  0.250400  0.024700  1.0  -0.1255
  C  C427  1  0.997600  0.311400  0.015100  1.0  -0.1003
  C  C428  1  0.939600  0.327700  0.989400  1.0  -0.1455
  C  C429  1  0.795200  0.261100  0.987300  1.0  -0.0367
  C  C430  1  0.834300  0.200300  0.995400  1.0  0.0301
  C  C431  1  0.788900  0.169500  0.036800  1.0  -0.0934
  C  C432  1  0.707300  0.199600  0.067700  1.0  -0.0793
  C  C433  1  0.669100  0.258600  0.057800  1.0  -0.0736
  C  C434  1  0.712900  0.291700  0.016500  1.0  -0.1327
  C  C435  1  0.787900  0.331700  0.821000  1.0  -0.0382
  C  C436  1  0.756400  0.389900  0.790500  1.0  0.0253
  C  C437  1  0.805300  0.421600  0.761100  1.0  -0.094
  C  C438  1  0.774600  0.474200  0.732300  1.0  -0.0612
  C  C439  1  0.696500  0.493400  0.733800  1.0  -0.1407
  C  C440  1  0.649500  0.459300  0.761900  1.0  -0.0953
  C  C441  1  0.679000  0.409100  0.790700  1.0  -0.1226
  C  C442  1  0.663100  0.551600  0.706200  1.0  0.7066
  C  C443  1  0.102000  0.070400  0.868600  1.0  -0.0173
  C  C444  1  0.172000  0.012100  0.834100  1.0  0.1085
  C  C445  1  0.244900  0.012700  0.791200  1.0  -0.1698
  C  C446  1  0.308000  0.958500  0.762000  1.0  -0.0457
  C  C447  1  0.302900  0.900400  0.774500  1.0  -0.1635
  C  C448  1  0.230200  0.899600  0.816200  1.0  -0.072
  C  C449  1  0.166200  0.953100  0.846300  1.0  -0.1484
  C  C450  1  0.373400  0.841100  0.744600  1.0  0.7046
  C  C451  1  0.952600  0.964900  0.524200  1.0  0.1778
  C  C452  1  0.921500  0.020600  0.499600  1.0  -0.0353
  C  C453  1  0.031200  0.945900  0.524500  1.0  -0.0635
  C  C454  1  0.836700  0.050700  0.497000  1.0  -0.0856
  C  C455  1  0.072900  0.887400  0.551200  1.0  -0.0958
  C  C456  1  0.848500  0.057600  0.430500  1.0  0.0479
  C  C457  1  0.105000  0.907700  0.594400  1.0  -0.0496
  C  C458  1  0.088500  0.891800  0.655800  1.0  -0.0908
  C  C459  1  0.127000  0.910300  0.688700  1.0  -0.0987
  C  C460  1  0.176200  0.944200  0.662500  1.0  -0.1389
  C  C461  1  0.813100  0.041300  0.395900  1.0  -0.0504
  C  C462  1  0.801000  0.114100  0.528700  1.0  0.0298
  C  C463  1  0.152200  0.849800  0.497300  1.0  -0.0416
  C  C464  1  0.179300  0.787400  0.475800  1.0  -0.1187
  C  C465  1  0.253700  0.760800  0.427500  1.0  -0.0956
  C  C466  1  0.301300  0.794500  0.400600  1.0  -0.1521
  C  C467  1  0.725800  0.144400  0.576200  1.0  -0.0722
  C  C468  1  0.918600  0.885400  0.494700  1.0  -0.0056
  C  C469  1  0.864400  0.850700  0.523300  1.0  0.1944
  C  C470  1  0.780100  0.883600  0.542800  1.0  -0.0926
  C  C471  1  0.725500  0.855000  0.575600  1.0  -0.0716
  C  C472  1  0.756500  0.792800  0.586200  1.0  -0.134
  C  C473  1  0.838800  0.762100  0.563000  1.0  -0.1526
  C  C474  1  0.890000  0.791700  0.531200  1.0  -0.1384
  C  C475  1  0.696500  0.765000  0.624700  1.0  0.6633
  C  C476  1  0.062900  0.520700  0.967200  1.0  0.2293
  C  C477  1  0.007400  0.521300  0.943200  1.0  -0.0516
  C  C478  1  0.002700  0.547200  0.883300  1.0  -0.1044
  C  C479  1  0.055200  0.499900  0.026600  1.0  -0.0184
  C  C480  1  0.110100  0.494700  0.060100  1.0  -0.1039
  C  C481  1  0.055000  0.529400  0.124100  1.0  0.0208
  C  C482  1  0.006500  0.493100  0.844500  1.0  0.0052
  C  C483  1  0.062300  0.467100  0.787300  1.0  -0.0522
  C  C484  1  0.059700  0.414400  0.758500  1.0  -0.0928
  C  C485  1  0.997300  0.393000  0.791000  1.0  -0.096
  C  C486  1  0.058000  0.580000  0.151900  1.0  -0.0963
  C  C487  1  0.143600  0.425200  0.068800  1.0  -0.0024
  C  C488  1  0.918300  0.596600  0.900100  1.0  0.0069
  C  C489  1  0.898400  0.659000  0.890800  1.0  -0.1565
  C  C490  1  0.817200  0.698900  0.913300  1.0  -0.1365
  C  C491  1  0.755400  0.678100  0.942300  1.0  -0.1295
  C  C492  1  0.225200  0.384800  0.048300  1.0  -0.0235
  C  C493  1  0.197100  0.494500  0.895700  1.0  0.0129
  C  C494  1  0.255500  0.525200  0.862100  1.0  0.0576
  C  C495  1  0.275200  0.562200  0.894700  1.0  -0.1226
  C  C496  1  0.325600  0.591900  0.864100  1.0  -0.0558
  C  C497  1  0.357900  0.587200  0.800100  1.0  -0.1514
  C  C498  1  0.338500  0.549400  0.767200  1.0  -0.0902
  C  C499  1  0.287800  0.518100  0.800300  1.0  -0.0405
  C  C500  1  0.408800  0.623100  0.767600  1.0  0.6817
  O  O501  1  0.454000  0.302500  0.320500  1.0  -1.1159
  O  O502  1  0.525900  0.197200  0.711100  1.0  -0.3207
  O  O503  1  0.487400  0.201000  0.428400  1.0  -0.574
  O  O504  1  0.366100  0.277200  0.465200  1.0  -0.5725
  O  O505  1  0.393400  0.178500  0.961500  1.0  -0.3236
  O  O506  1  0.369600  0.281100  0.232000  1.0  -0.6102
  O  O507  1  0.503300  0.250200  0.181700  1.0  -0.6057
  O  O508  1  0.131900  0.678500  0.183300  1.0  -0.2763
  O  O509  1  0.297300  0.412100  0.303500  1.0  -0.5974
  O  O510  1  0.399300  0.438700  0.303700  1.0  -0.6386
  O  O511  1  0.965100  0.922600  0.151100  1.0  -0.3306
  O  O512  1  0.634400  0.209500  0.237200  1.0  -0.6142
  O  O513  1  0.564300  0.154600  0.295400  1.0  -0.578
  O  O514  1  0.095000  0.070200  0.453200  1.0  -0.3505
  O  O515  1  0.378800  0.199600  0.353500  1.0  -0.5982
  O  O516  1  0.273800  0.291200  0.369300  1.0  -0.5897
  O  O517  1  0.877000  0.456600  0.062100  1.0  -0.3372
  O  O518  1  0.569300  0.378400  0.290300  1.0  -0.6592
  O  O519  1  0.576300  0.345400  0.199600  1.0  -0.5758
  O  O520  1  0.546000  0.697500  0.679500  1.0  -1.1169
  O  O521  1  0.474100  0.802800  0.288900  1.0  -0.3196
  O  O522  1  0.512600  0.799000  0.571600  1.0  -0.5737
  O  O523  1  0.633900  0.722800  0.534800  1.0  -0.5699
  O  O524  1  0.606600  0.821500  0.038500  1.0  -0.3226
  O  O525  1  0.630400  0.718900  0.768000  1.0  -0.609
  O  O526  1  0.496700  0.749800  0.818300  1.0  -0.6046
  O  O527  1  0.868100  0.321500  0.816700  1.0  -0.2769
  O  O528  1  0.702700  0.587900  0.696500  1.0  -0.598
  O  O529  1  0.600700  0.561300  0.696300  1.0  -0.637
  O  O530  1  0.034900  0.077400  0.848900  1.0  -0.3309
  O  O531  1  0.365600  0.790500  0.762800  1.0  -0.6139
  O  O532  1  0.435700  0.845400  0.704600  1.0  -0.5786
  O  O533  1  0.905000  0.929800  0.546800  1.0  -0.3448
  O  O534  1  0.621200  0.800400  0.646500  1.0  -0.5975
  O  O535  1  0.726200  0.708800  0.630700  1.0  -0.5888
  O  O536  1  0.123000  0.543400  0.937900  1.0  -0.3357
  O  O537  1  0.430700  0.621600  0.709700  1.0  -0.6607
  O  O538  1  0.423700  0.654600  0.800400  1.0  -0.5755
