# generated using pymatgen
data_ZnH3(C2O)4
_symmetry_space_group_name_H-M   'P 1'
_cell_length_a   7.99740000
_cell_length_b   10.37440000
_cell_length_c   12.61060000
_cell_angle_alpha   90.31600000
_cell_angle_beta   90.31100000
_cell_angle_gamma   107.04700000
_symmetry_Int_Tables_number   1
_chemical_formula_structural   ZnH3(C2O)4
_chemical_formula_sum   'Zn4 H12 C32 O16'
_cell_volume   1000.26805641
_cell_formula_units_Z   4
loop_
 _symmetry_equiv_pos_site_id
 _symmetry_equiv_pos_as_xyz
  1  'x, y, z'
loop_
 _atom_site_type_symbol
 _atom_site_label
 _atom_site_symmetry_multiplicity
 _atom_site_fract_x
 _atom_site_fract_y
 _atom_site_fract_z
 _atom_site_occupancy
 _atom_site_charge
  Zn  Zn1  1  0.556350  0.210070  0.762480  1.0  1.0749
  Zn  Zn2  1  0.177600  0.128510  0.943330  1.0  1.0644
  Zn  Zn3  1  0.443650  0.789930  0.237520  1.0  1.077
  Zn  Zn4  1  0.822400  0.871490  0.056670  1.0  1.0638
  H  H5  1  0.971800  0.085500  0.654100  1.0  0.114
  H  H6  1  0.857900  0.042500  0.487000  1.0  0.1167
  H  H7  1  0.558300  0.599100  0.753400  1.0  0.1205
  H  H8  1  0.440700  0.765800  0.600700  1.0  0.1229
  H  H9  1  0.779800  0.465300  0.005800  1.0  0.132
  H  H10  1  0.441700  0.400900  0.246600  1.0  0.1207
  H  H11  1  0.760700  0.240200  0.005000  1.0  0.1026
  H  H12  1  0.220200  0.534700  0.994200  1.0  0.1331
  H  H13  1  0.559300  0.234200  0.399300  1.0  0.1228
  H  H14  1  0.239300  0.759800  0.995000  1.0  0.103
  H  H15  1  0.028200  0.914500  0.345900  1.0  0.1139
  H  H16  1  0.142100  0.957500  0.513000  1.0  0.1168
  C  C17  1  0.135100  0.979700  0.356200  1.0  -0.061
  C  C18  1  0.140800  0.025100  0.162300  1.0  0.6932
  C  C19  1  0.291500  0.592800  0.945900  1.0  -0.0897
  C  C20  1  0.611700  0.851800  0.715100  1.0  0.0062
  C  C21  1  0.223900  0.049400  0.268600  1.0  -0.1246
  C  C22  1  0.708500  0.407200  0.054100  1.0  -0.0903
  C  C23  1  0.505300  0.367100  0.197900  1.0  -0.0765
  C  C24  1  0.405100  0.816100  0.873500  1.0  -0.1144
  C  C25  1  0.594900  0.183900  0.126500  1.0  -0.114
  C  C26  1  0.579500  0.861300  0.414500  1.0  0.6755
  C  C27  1  0.302700  0.727200  0.945400  1.0  -0.0183
  C  C28  1  0.358300  0.101900  0.473500  1.0  -0.1475
  C  C29  1  0.494700  0.632900  0.802100  1.0  -0.0754
  C  C30  1  0.697300  0.272800  0.054600  1.0  -0.019
  C  C31  1  0.611000  0.454700  0.127000  1.0  -0.1615
  C  C32  1  0.451300  0.170900  0.387200  1.0  -0.1117
  C  C33  1  0.548700  0.829100  0.612800  1.0  -0.112
  C  C34  1  0.388300  0.148200  0.284900  1.0  0.0096
  C  C35  1  0.797300  0.994300  0.543900  1.0  -0.0388
  C  C36  1  0.509600  0.769500  0.800900  1.0  0.0377
  C  C37  1  0.864900  0.020300  0.643800  1.0  -0.0667
  C  C38  1  0.600300  0.038600  0.123200  1.0  0.7013
  C  C39  1  0.420500  0.138700  0.585500  1.0  0.6749
  C  C40  1  0.641700  0.898100  0.526500  1.0  -0.1453
  C  C41  1  0.859200  0.974900  0.837700  1.0  0.6936
  C  C42  1  0.399700  0.961400  0.876800  1.0  0.701
  C  C43  1  0.379200  0.398200  0.866600  1.0  0.7413
  C  C44  1  0.389000  0.545300  0.873000  1.0  -0.1606
  C  C45  1  0.490400  0.230500  0.199100  1.0  0.0374
  C  C46  1  0.776100  0.950600  0.731400  1.0  -0.1224
  C  C47  1  0.202700  0.005700  0.456100  1.0  -0.0421
  C  C48  1  0.620800  0.601800  0.133400  1.0  0.7424
  O  O49  1  0.332600  0.088200  0.662600  1.0  -0.5365
  O  O50  1  0.041200  0.907700  0.141000  1.0  -0.6065
  O  O51  1  0.958800  0.092300  0.859000  1.0  -0.6063
  O  O52  1  0.267500  0.320500  0.925900  1.0  -0.6132
  O  O53  1  0.831300  0.879200  0.901300  1.0  -0.596
  O  O54  1  0.667400  0.911800  0.337400  1.0  -0.5377
  O  O55  1  0.570200  0.219600  0.600300  1.0  -0.5782
  O  O56  1  0.429800  0.780400  0.399700  1.0  -0.5742
  O  O57  1  0.537500  0.053200  0.853600  1.0  -0.5941
  O  O58  1  0.741600  0.022800  0.095500  1.0  -0.5909
  O  O59  1  0.462500  0.946800  0.146400  1.0  -0.594
  O  O60  1  0.258400  0.977200  0.904500  1.0  -0.5921
  O  O61  1  0.732500  0.679500  0.074100  1.0  -0.6113
  O  O62  1  0.482100  0.363900  0.806800  1.0  -0.6446
  O  O63  1  0.168700  0.120800  0.098700  1.0  -0.5974
  O  O64  1  0.517900  0.636100  0.193200  1.0  -0.6486
