# generated using pymatgen
data_CdH3C8NO4
_symmetry_space_group_name_H-M   'P 1'
_cell_length_a   14.31900000
_cell_length_b   14.49000000
_cell_length_c   22.59800000
_cell_angle_alpha   90.00000000
_cell_angle_beta   98.21000000
_cell_angle_gamma   90.00000000
_symmetry_Int_Tables_number   1
_chemical_formula_structural   CdH3C8NO4
_chemical_formula_sum   'Cd8 H24 C64 N8 O32'
_cell_volume   4640.63241792
_cell_formula_units_Z   8
loop_
 _symmetry_equiv_pos_site_id
 _symmetry_equiv_pos_as_xyz
  1  'x, y, z'
loop_
 _atom_site_type_symbol
 _atom_site_label
 _atom_site_symmetry_multiplicity
 _atom_site_fract_x
 _atom_site_fract_y
 _atom_site_fract_z
 _atom_site_occupancy
 _atom_site_charge
  Cd  Cd1  1  0.178770  0.132560  0.860010  1.0  0.7889
  Cd  Cd2  1  0.178770  0.367440  0.360010  1.0  0.7811
  Cd  Cd3  1  0.744140  0.750770  0.758830  1.0  1.1107
  Cd  Cd4  1  0.255860  0.249230  0.241170  1.0  1.1116
  Cd  Cd5  1  0.744140  0.749230  0.258830  1.0  1.111
  Cd  Cd6  1  0.821230  0.632560  0.639990  1.0  0.7914
  Cd  Cd7  1  0.821230  0.867440  0.139990  1.0  0.7969
  Cd  Cd8  1  0.255860  0.250770  0.741170  1.0  1.1113
  H  H9  1  0.074600  0.083300  0.595800  1.0  0.1214
  H  H10  1  0.401800  0.426100  0.408600  1.0  0.1295
  H  H11  1  0.984800  0.524100  0.240100  1.0  0.1275
  H  H12  1  0.015200  0.024100  0.259900  1.0  0.127
  H  H13  1  0.598200  0.573900  0.591400  1.0  0.1298
  H  H14  1  0.984800  0.975900  0.740100  1.0  0.1272
  H  H15  1  0.389900  0.385900  0.583300  1.0  0.1408
  H  H16  1  0.501200  0.493400  0.741600  1.0  0.1256
  H  H17  1  0.925400  0.916700  0.404200  1.0  0.1213
  H  H18  1  0.015200  0.475900  0.759900  1.0  0.1271
  H  H19  1  0.401800  0.073900  0.908600  1.0  0.1295
  H  H20  1  0.889100  0.624500  0.078000  1.0  0.1366
  H  H21  1  0.498800  0.506600  0.258400  1.0  0.1251
  H  H22  1  0.889100  0.875500  0.578000  1.0  0.1363
  H  H23  1  0.598200  0.926100  0.091400  1.0  0.1295
  H  H24  1  0.074600  0.416700  0.095800  1.0  0.1215
  H  H25  1  0.501200  0.006600  0.241600  1.0  0.1258
  H  H26  1  0.389900  0.114100  0.083300  1.0  0.1412
  H  H27  1  0.610100  0.614100  0.416700  1.0  0.1405
  H  H28  1  0.925400  0.583300  0.904200  1.0  0.1216
  H  H29  1  0.110900  0.124500  0.422000  1.0  0.1366
  H  H30  1  0.110900  0.375500  0.922000  1.0  0.1366
  H  H31  1  0.610100  0.885900  0.916700  1.0  0.1408
  H  H32  1  0.498800  0.993400  0.758400  1.0  0.1252
  C  C33  1  0.432500  0.425200  0.605700  1.0  -0.0358
  C  C34  1  0.559400  0.955900  0.171700  1.0  -0.14
  C  C35  1  0.440600  0.455900  0.328300  1.0  -0.1404
  C  C36  1  0.015000  0.023700  0.301020  1.0  0.0436
  C  C37  1  0.961500  0.959700  0.386970  1.0  0.0266
  C  C38  1  0.105400  0.396800  0.213100  1.0  0.7468
  C  C39  1  0.927300  0.583500  0.102000  1.0  -0.037
  C  C40  1  0.927300  0.916500  0.602000  1.0  -0.0373
  C  C41  1  0.072700  0.416500  0.898000  1.0  -0.0358
  C  C42  1  0.018300  0.478200  0.923500  1.0  0.1534
  C  C43  1  0.958400  0.961400  0.325780  1.0  -0.1609
  C  C44  1  0.134400  0.348400  0.810300  1.0  0.723
  C  C45  1  0.435900  0.430000  0.667300  1.0  -0.1419
  C  C46  1  0.961500  0.540300  0.886970  1.0  0.0256
  C  C47  1  0.981700  0.978200  0.576500  1.0  0.1452
  C  C48  1  0.559400  0.544100  0.671700  1.0  -0.1404
  C  C49  1  0.442800  0.038600  0.889500  1.0  0.0553
  C  C50  1  0.630300  0.630000  0.303000  1.0  0.6935
  C  C51  1  0.630300  0.870000  0.803000  1.0  0.6977
  C  C52  1  0.105400  0.103200  0.713100  1.0  0.7469
  C  C53  1  0.985000  0.523700  0.198980  1.0  0.0441
  C  C54  1  0.038500  0.040300  0.613030  1.0  0.0268
  C  C55  1  0.625400  0.889300  0.208200  1.0  0.71
  C  C56  1  0.492900  0.020600  0.077700  1.0  0.1874
  C  C57  1  0.928600  0.914600  0.663200  1.0  -0.1603
  C  C58  1  0.865600  0.651600  0.189700  1.0  0.7231
  C  C59  1  0.435900  0.070000  0.167300  1.0  -0.1417
  C  C60  1  0.369700  0.370000  0.697000  1.0  0.6951
  C  C61  1  0.557200  0.961400  0.110500  1.0  0.0548
  C  C62  1  0.374600  0.110700  0.791800  1.0  0.7082
  C  C63  1  0.557200  0.538600  0.610500  1.0  0.0553
  C  C64  1  0.499100  0.489700  0.700300  1.0  0.0516
  C  C65  1  0.564100  0.930000  0.832700  1.0  -0.1424
  C  C66  1  0.507100  0.520600  0.422300  1.0  0.1848
  C  C67  1  0.865600  0.848400  0.689700  1.0  0.7248
  C  C68  1  0.041600  0.461400  0.174220  1.0  -0.1605
  C  C69  1  0.981700  0.521800  0.076500  1.0  0.1547
  C  C70  1  0.374600  0.389300  0.291800  1.0  0.71
  C  C71  1  0.071400  0.085400  0.336800  1.0  -0.1601
  C  C72  1  0.499100  0.010300  0.200300  1.0  0.0508
  C  C73  1  0.018300  0.021800  0.423500  1.0  0.145
  C  C74  1  0.928600  0.585400  0.163200  1.0  -0.1599
  C  C75  1  0.432500  0.074800  0.105700  1.0  -0.0356
  C  C76  1  0.440600  0.044100  0.828300  1.0  -0.1403
  C  C77  1  0.134400  0.151600  0.310300  1.0  0.7235
  C  C78  1  0.567500  0.574800  0.394300  1.0  -0.0353
  C  C79  1  0.894600  0.603200  0.786900  1.0  0.7466
  C  C80  1  0.492900  0.479400  0.577700  1.0  0.1924
  C  C81  1  0.625400  0.610700  0.708200  1.0  0.7084
  C  C82  1  0.507100  0.979400  0.922300  1.0  0.1932
  C  C83  1  0.015000  0.476300  0.801020  1.0  0.0437
  C  C84  1  0.038500  0.459700  0.113030  1.0  0.0273
  C  C85  1  0.369700  0.130000  0.197000  1.0  0.6979
  C  C86  1  0.072700  0.083500  0.398000  1.0  -0.0357
  C  C87  1  0.071400  0.414600  0.836800  1.0  -0.1603
  C  C88  1  0.564100  0.570000  0.332700  1.0  -0.1418
  C  C89  1  0.894600  0.896800  0.286900  1.0  0.7464
  C  C90  1  0.500900  0.510300  0.299700  1.0  0.0495
  C  C91  1  0.567500  0.925200  0.894300  1.0  -0.0346
  C  C92  1  0.442800  0.461400  0.389500  1.0  0.0555
  C  C93  1  0.041600  0.038600  0.674220  1.0  -0.1609
  C  C94  1  0.958400  0.538600  0.825780  1.0  -0.1607
  C  C95  1  0.500900  0.989700  0.799700  1.0  0.05
  C  C96  1  0.985000  0.976300  0.698980  1.0  0.0441
  N  N97  1  0.514600  0.532900  0.485560  1.0  -0.3401
  N  N98  1  0.485400  0.467100  0.514440  1.0  -0.3385
  N  N99  1  0.971500  0.523100  0.012230  1.0  -0.3439
  N  N100  1  0.028500  0.476900  0.987770  1.0  -0.3461
  N  N101  1  0.971500  0.976900  0.512230  1.0  -0.3451
  N  N102  1  0.485400  0.032900  0.014440  1.0  -0.342
  N  N103  1  0.514600  0.967100  0.985560  1.0  -0.3394
  N  N104  1  0.028500  0.023100  0.487770  1.0  -0.3472
  O  O105  1  0.621800  0.632200  0.247740  1.0  -0.5372
  O  O106  1  0.847500  0.658000  0.812540  1.0  -0.5666
  O  O107  1  0.378200  0.132200  0.252260  1.0  -0.5344
  O  O108  1  0.688300  0.677500  0.335560  1.0  -0.5422
  O  O109  1  0.620000  0.875400  0.261300  1.0  -0.5983
  O  O110  1  0.897300  0.901200  0.232040  1.0  -0.6959
  O  O111  1  0.380000  0.375400  0.238700  1.0  -0.5978
  O  O112  1  0.315500  0.344800  0.318650  1.0  -0.6283
  O  O113  1  0.688300  0.822500  0.835560  1.0  -0.5411
  O  O114  1  0.311700  0.177500  0.164440  1.0  -0.541
  O  O115  1  0.847500  0.842000  0.312540  1.0  -0.567
  O  O116  1  0.152500  0.342000  0.187460  1.0  -0.5678
  O  O117  1  0.684500  0.655200  0.681350  1.0  -0.6288
  O  O118  1  0.102700  0.098800  0.767960  1.0  -0.6933
  O  O119  1  0.684500  0.844800  0.181350  1.0  -0.6297
  O  O120  1  0.857500  0.643700  0.244000  1.0  -0.5159
  O  O121  1  0.380000  0.124600  0.738700  1.0  -0.5972
  O  O122  1  0.822300  0.788400  0.655960  1.0  -0.6304
  O  O123  1  0.152500  0.158000  0.687460  1.0  -0.5682
  O  O124  1  0.315500  0.155200  0.818650  1.0  -0.6287
  O  O125  1  0.822300  0.711600  0.155960  1.0  -0.6301
  O  O126  1  0.177700  0.211600  0.344040  1.0  -0.628
  O  O127  1  0.378200  0.367800  0.752260  1.0  -0.5346
  O  O128  1  0.620000  0.624600  0.761300  1.0  -0.5972
  O  O129  1  0.621800  0.867800  0.747740  1.0  -0.5375
  O  O130  1  0.142500  0.356300  0.756000  1.0  -0.5182
  O  O131  1  0.142500  0.143700  0.256000  1.0  -0.518
  O  O132  1  0.897300  0.598800  0.732040  1.0  -0.6959
  O  O133  1  0.857500  0.856300  0.744000  1.0  -0.5154
  O  O134  1  0.311700  0.322500  0.664440  1.0  -0.5404
  O  O135  1  0.102700  0.401200  0.267960  1.0  -0.6932
  O  O136  1  0.177700  0.288400  0.844040  1.0  -0.6288
