# generated using pymatgen
data_Mn3H25C42S3O19
_symmetry_space_group_name_H-M   'P 1'
_cell_length_a   15.99950000
_cell_length_b   18.18520000
_cell_length_c   24.81990000
_cell_angle_alpha   90.00000000
_cell_angle_beta   102.91700000
_cell_angle_gamma   90.00000000
_symmetry_Int_Tables_number   1
_chemical_formula_structural   Mn3H25C42S3O19
_chemical_formula_sum   'Mn12 H100 C168 S12 O76'
_cell_volume   7038.71237312
_cell_formula_units_Z   4
loop_
 _symmetry_equiv_pos_site_id
 _symmetry_equiv_pos_as_xyz
  1  'x, y, z'
loop_
 _atom_site_type_symbol
 _atom_site_label
 _atom_site_symmetry_multiplicity
 _atom_site_fract_x
 _atom_site_fract_y
 _atom_site_fract_z
 _atom_site_occupancy
 _atom_site_charge
  Mn  Mn1  1  0.446140  0.929380  0.520570  1.0  1.0965
  Mn  Mn2  1  0.590700  0.881120  0.423170  1.0  1.1088
  Mn  Mn3  1  0.535440  0.750070  0.514800  1.0  1.1642
  Mn  Mn4  1  0.053860  0.429380  0.979430  1.0  1.0961
  Mn  Mn5  1  0.909300  0.381120  0.076830  1.0  1.1044
  Mn  Mn6  1  0.964560  0.250070  0.985200  1.0  1.1642
  Mn  Mn7  1  0.553860  0.070620  0.479430  1.0  1.0953
  Mn  Mn8  1  0.409300  0.118880  0.576830  1.0  1.1043
  Mn  Mn9  1  0.464560  0.249930  0.485200  1.0  1.1676
  Mn  Mn10  1  0.946140  0.570620  0.020570  1.0  1.0957
  Mn  Mn11  1  0.090700  0.618880  0.923170  1.0  1.1086
  Mn  Mn12  1  0.035440  0.749930  0.014800  1.0  1.1684
  H  H13  1  0.587400  0.877500  0.519400  1.0  0.4523
  H  H14  1  0.254100  0.892900  0.523700  1.0  0.1109
  H  H15  1  0.168800  0.795200  0.535200  1.0  0.1082
  H  H16  1  0.168100  0.862700  0.687500  1.0  0.1123
  H  H17  1  0.257000  0.961100  0.677900  1.0  0.1301
  H  H18  1  0.010500  0.789600  0.514500  1.0  0.1017
  H  H19  1  0.867300  0.811600  0.472800  1.0  0.1203
  H  H20  1  0.799700  0.747400  0.610900  1.0  0.1121
  H  H21  1  0.944100  0.736400  0.655800  1.0  0.1282
  H  H22  1  0.446700  0.918500  0.687800  1.0  0.1079
  H  H23  1  0.441200  0.911400  0.780800  1.0  0.1273
  H  H24  1  0.531100  0.704100  0.786700  1.0  0.1107
  H  H25  1  0.537200  0.712100  0.693600  1.0  0.1142
  H  H26  1  0.633400  0.877200  0.912700  1.0  0.1299
  H  H27  1  0.772400  0.841300  0.954100  1.0  0.1244
  H  H28  1  0.705600  0.629000  0.922900  1.0  0.1165
  H  H29  1  0.564100  0.665500  0.885800  1.0  0.1213
  H  H30  1  0.672400  0.093800  0.689600  1.0  0.1209
  H  H31  1  0.817900  0.085700  0.729500  1.0  0.1294
  H  H32  1  0.840200  0.929700  0.618900  1.0  0.1139
  H  H33  1  0.695700  0.941400  0.577600  1.0  0.1215
  H  H34  1  0.939700  0.994900  0.817100  1.0  0.1259
  H  H35  1  0.975200  0.906700  0.885700  1.0  0.1186
  H  H36  1  0.035300  0.765700  0.776900  1.0  0.1162
  H  H37  1  0.001400  0.854900  0.708000  1.0  0.1169
  H  H38  1  0.912600  0.377500  0.980600  1.0  0.4532
  H  H39  1  0.245900  0.392900  0.976300  1.0  0.1097
  H  H40  1  0.331200  0.295200  0.964800  1.0  0.1087
  H  H41  1  0.331900  0.362700  0.812500  1.0  0.1126
  H  H42  1  0.243000  0.461100  0.822100  1.0  0.1297
  H  H43  1  0.489500  0.289600  0.985500  1.0  0.1026
  H  H44  1  0.632700  0.311600  0.027200  1.0  0.1205
  H  H45  1  0.700300  0.247400  0.889100  1.0  0.112
  H  H46  1  0.555900  0.236400  0.844200  1.0  0.1277
  H  H47  1  0.053300  0.418500  0.812200  1.0  0.1082
  H  H48  1  0.058800  0.411400  0.719200  1.0  0.1271
  H  H49  1  0.968900  0.204100  0.713300  1.0  0.1109
  H  H50  1  0.962800  0.212100  0.806400  1.0  0.1143
  H  H51  1  0.866600  0.377200  0.587300  1.0  0.1298
  H  H52  1  0.727600  0.341300  0.545900  1.0  0.1254
  H  H53  1  0.794400  0.129000  0.577100  1.0  0.1161
  H  H54  1  0.935900  0.165500  0.614200  1.0  0.122
  H  H55  1  0.827600  0.593800  0.810400  1.0  0.1202
  H  H56  1  0.682100  0.585700  0.770500  1.0  0.129
  H  H57  1  0.659800  0.429700  0.881100  1.0  0.1138
  H  H58  1  0.804300  0.441400  0.922400  1.0  0.1217
  H  H59  1  0.560300  0.494900  0.682900  1.0  0.1257
  H  H60  1  0.524800  0.406700  0.614300  1.0  0.1187
  H  H61  1  0.464700  0.265700  0.723100  1.0  0.1159
  H  H62  1  0.498600  0.354900  0.792000  1.0  0.1172
  H  H63  1  0.412600  0.122500  0.480600  1.0  0.4543
  H  H64  1  0.745900  0.107100  0.476300  1.0  0.1096
  H  H65  1  0.831200  0.204800  0.464800  1.0  0.1082
  H  H66  1  0.831900  0.137300  0.312500  1.0  0.1125
  H  H67  1  0.743000  0.038900  0.322100  1.0  0.1293
  H  H68  1  0.989500  0.210400  0.485500  1.0  0.1026
  H  H69  1  0.132700  0.188400  0.527200  1.0  0.1205
  H  H70  1  0.200300  0.252600  0.389100  1.0  0.1121
  H  H71  1  0.055900  0.263600  0.344200  1.0  0.1272
  H  H72  1  0.553300  0.081500  0.312200  1.0  0.1078
  H  H73  1  0.558800  0.088600  0.219200  1.0  0.1265
  H  H74  1  0.468900  0.295900  0.213300  1.0  0.1109
  H  H75  1  0.462800  0.287900  0.306400  1.0  0.114
  H  H76  1  0.366600  0.122800  0.087300  1.0  0.1287
  H  H77  1  0.227600  0.158700  0.045900  1.0  0.1237
  H  H78  1  0.294400  0.371000  0.077100  1.0  0.1157
  H  H79  1  0.435900  0.334500  0.114200  1.0  0.1223
  H  H80  1  0.327600  0.906200  0.310400  1.0  0.1201
  H  H81  1  0.182100  0.914300  0.270500  1.0  0.1289
  H  H82  1  0.159800  0.070300  0.381100  1.0  0.1136
  H  H83  1  0.304300  0.058600  0.422400  1.0  0.1216
  H  H84  1  0.060300  0.005100  0.182900  1.0  0.1253
  H  H85  1  0.024800  0.093300  0.114300  1.0  0.1186
  H  H86  1  0.964700  0.234300  0.223100  1.0  0.1162
  H  H87  1  0.998600  0.145100  0.292000  1.0  0.117
  H  H88  1  0.087400  0.622500  0.019400  1.0  0.4528
  H  H89  1  0.754100  0.607100  0.023700  1.0  0.1107
  H  H90  1  0.668800  0.704800  0.035200  1.0  0.1083
  H  H91  1  0.668100  0.637300  0.187500  1.0  0.1121
  H  H92  1  0.757000  0.538900  0.177900  1.0  0.1299
  H  H93  1  0.510500  0.710400  0.014500  1.0  0.1017
  H  H94  1  0.367300  0.688400  0.972800  1.0  0.1201
  H  H95  1  0.299700  0.752600  0.110900  1.0  0.112
  H  H96  1  0.444100  0.763600  0.155800  1.0  0.1275
  H  H97  1  0.946700  0.581500  0.187800  1.0  0.1076
  H  H98  1  0.941200  0.588600  0.280800  1.0  0.1267
  H  H99  1  0.031100  0.795900  0.286700  1.0  0.1111
  H  H100  1  0.037200  0.787900  0.193600  1.0  0.1139
  H  H101  1  0.133400  0.622800  0.412700  1.0  0.1287
  H  H102  1  0.272400  0.658700  0.454100  1.0  0.1244
  H  H103  1  0.205600  0.871000  0.422900  1.0  0.1161
  H  H104  1  0.064100  0.834500  0.385800  1.0  0.1217
  H  H105  1  0.172400  0.406200  0.189600  1.0  0.1209
  H  H106  1  0.317900  0.414300  0.229500  1.0  0.1294
  H  H107  1  0.340200  0.570300  0.118900  1.0  0.1138
  H  H108  1  0.195700  0.558600  0.077600  1.0  0.1219
  H  H109  1  0.439700  0.505100  0.317100  1.0  0.1257
  H  H110  1  0.475200  0.593300  0.385700  1.0  0.1188
  H  H111  1  0.535300  0.734300  0.276900  1.0  0.1164
  H  H112  1  0.501400  0.645100  0.208000  1.0  0.1172
  C  C113  1  0.321700  0.000500  0.591120  1.0  0.6777
  C  C114  1  0.264500  0.936500  0.599170  1.0  -0.1342
  C  C115  1  0.237500  0.887000  0.556990  1.0  -0.0187
  C  C116  1  0.186200  0.828800  0.563790  1.0  -0.097
  C  C117  1  0.160600  0.819800  0.612330  1.0  -0.1336
  C  C118  1  0.186200  0.868800  0.654700  1.0  -0.0206
  C  C119  1  0.239100  0.928100  0.649050  1.0  -0.0461
  C  C120  1  0.990900  0.762300  0.588300  1.0  -0.1439
  C  C121  1  0.968500  0.783200  0.534500  1.0  -0.0391
  C  C122  1  0.882500  0.795100  0.509200  1.0  -0.0515
  C  C123  1  0.819300  0.782000  0.538830  1.0  -0.1243
  C  C124  1  0.842100  0.758300  0.591900  1.0  -0.0285
  C  C125  1  0.928700  0.749900  0.618710  1.0  -0.0816
  C  C126  1  0.725000  0.792100  0.511210  1.0  0.711
  C  C127  1  0.495900  0.821700  0.621620  1.0  0.7287
  C  C128  1  0.493000  0.816800  0.681880  1.0  -0.1104
  C  C129  1  0.464100  0.875700  0.707640  1.0  -0.0201
  C  C130  1  0.460700  0.871700  0.763370  1.0  -0.042
  C  C131  1  0.486900  0.807500  0.792000  1.0  -0.1827
  C  C132  1  0.514800  0.747200  0.766860  1.0  -0.0334
  C  C133  1  0.518200  0.751900  0.711060  1.0  -0.0218
  C  C134  1  0.586400  0.773700  0.895400  1.0  -0.2005
  C  C135  1  0.648100  0.827700  0.915610  1.0  -0.0328
  C  C136  1  0.730900  0.806300  0.939840  1.0  -0.0413
  C  C137  1  0.751500  0.730900  0.942630  1.0  -0.1184
  C  C138  1  0.690700  0.678500  0.921770  1.0  -0.0422
  C  C139  1  0.606200  0.700400  0.898730  1.0  -0.0799
  C  C140  1  0.842200  0.706400  0.969580  1.0  0.6785
  C  C141  1  0.577600  0.030800  0.600330  1.0  0.7106
  C  C142  1  0.671000  0.020200  0.628470  1.0  -0.1296
  C  C143  1  0.706900  0.062000  0.674840  1.0  -0.0421
  C  C144  1  0.793500  0.056600  0.699280  1.0  -0.0294
  C  C145  1  0.842600  0.007000  0.677790  1.0  -0.2102
  C  C146  1  0.806500  0.963400  0.632590  1.0  -0.0147
  C  C147  1  0.720200  0.970400  0.607920  1.0  0.0116
  C  C148  1  0.971300  0.933400  0.756630  1.0  -0.1515
  C  C149  1  0.960400  0.949200  0.809300  1.0  -0.049
  C  C150  1  0.980700  0.896000  0.850000  1.0  -0.0303
  C  C151  1  0.009000  0.827500  0.838400  1.0  -0.1213
  C  C152  1  0.016800  0.812000  0.785190  1.0  -0.0242
  C  C153  1  0.997000  0.865500  0.743900  1.0  -0.061
  C  C154  1  0.033100  0.770700  0.883000  1.0  0.7465
  C  C155  1  0.178300  0.500500  0.908880  1.0  0.6785
  C  C156  1  0.235500  0.436500  0.900830  1.0  -0.1341
  C  C157  1  0.262500  0.387000  0.943010  1.0  -0.0202
  C  C158  1  0.313800  0.328800  0.936210  1.0  -0.0966
  C  C159  1  0.339400  0.319800  0.887670  1.0  -0.1335
  C  C160  1  0.313800  0.368800  0.845300  1.0  -0.0224
  C  C161  1  0.260900  0.428100  0.850950  1.0  -0.047
  C  C162  1  0.509100  0.262300  0.911700  1.0  -0.1423
  C  C163  1  0.531500  0.283200  0.965500  1.0  -0.0387
  C  C164  1  0.617500  0.295100  0.990800  1.0  -0.054
  C  C165  1  0.680700  0.282000  0.961170  1.0  -0.1244
  C  C166  1  0.657900  0.258300  0.908100  1.0  -0.027
  C  C167  1  0.571300  0.249900  0.881290  1.0  -0.0831
  C  C168  1  0.775000  0.292100  0.988790  1.0  0.7119
  C  C169  1  0.004100  0.321700  0.878380  1.0  0.7294
  C  C170  1  0.007000  0.316800  0.818120  1.0  -0.1116
  C  C171  1  0.035900  0.375700  0.792360  1.0  -0.0212
  C  C172  1  0.039300  0.371700  0.736630  1.0  -0.0418
  C  C173  1  0.013100  0.307500  0.708000  1.0  -0.183
  C  C174  1  0.985200  0.247200  0.733140  1.0  -0.0345
  C  C175  1  0.981800  0.251900  0.788940  1.0  -0.0231
  C  C176  1  0.913600  0.273700  0.604600  1.0  -0.2003
  C  C177  1  0.851900  0.327700  0.584390  1.0  -0.0307
  C  C178  1  0.769100  0.306300  0.560160  1.0  -0.042
  C  C179  1  0.748500  0.230900  0.557370  1.0  -0.1194
  C  C180  1  0.809300  0.178500  0.578230  1.0  -0.0427
  C  C181  1  0.893800  0.200400  0.601270  1.0  -0.0802
  C  C182  1  0.657800  0.206400  0.530420  1.0  0.6786
  C  C183  1  0.922400  0.530800  0.899670  1.0  0.7109
  C  C184  1  0.829000  0.520200  0.871530  1.0  -0.1287
  C  C185  1  0.793100  0.562000  0.825160  1.0  -0.0375
  C  C186  1  0.706500  0.556600  0.800720  1.0  -0.0281
  C  C187  1  0.657400  0.507000  0.822210  1.0  -0.2108
  C  C188  1  0.693500  0.463400  0.867410  1.0  -0.0134
  C  C189  1  0.779800  0.470400  0.892080  1.0  0.0107
  C  C190  1  0.528700  0.433400  0.743370  1.0  -0.1505
  C  C191  1  0.539600  0.449200  0.690700  1.0  -0.0509
  C  C192  1  0.519300  0.396000  0.650000  1.0  -0.032
  C  C193  1  0.491000  0.327500  0.661600  1.0  -0.122
  C  C194  1  0.483200  0.312000  0.714810  1.0  -0.0256
  C  C195  1  0.503000  0.365500  0.756100  1.0  -0.0605
  C  C196  1  0.466900  0.270700  0.617000  1.0  0.7474
  C  C197  1  0.678300  0.999500  0.408880  1.0  0.678
  C  C198  1  0.735500  0.063500  0.400830  1.0  -0.1357
  C  C199  1  0.762500  0.113000  0.443010  1.0  -0.0197
  C  C200  1  0.813800  0.171200  0.436210  1.0  -0.096
  C  C201  1  0.839400  0.180200  0.387670  1.0  -0.1336
  C  C202  1  0.813800  0.131200  0.345300  1.0  -0.0223
  C  C203  1  0.760900  0.071900  0.350950  1.0  -0.0481
  C  C204  1  0.009100  0.237700  0.411700  1.0  -0.1421
  C  C205  1  0.031500  0.216800  0.465500  1.0  -0.0388
  C  C206  1  0.117500  0.204900  0.490800  1.0  -0.0539
  C  C207  1  0.180700  0.218000  0.461170  1.0  -0.1246
  C  C208  1  0.157900  0.241700  0.408100  1.0  -0.0261
  C  C209  1  0.071300  0.250100  0.381290  1.0  -0.0835
  C  C210  1  0.275000  0.207900  0.488790  1.0  0.7114
  C  C211  1  0.504100  0.178300  0.378380  1.0  0.7295
  C  C212  1  0.507000  0.183200  0.318120  1.0  -0.1118
  C  C213  1  0.535900  0.124300  0.292360  1.0  -0.0201
  C  C214  1  0.539300  0.128300  0.236630  1.0  -0.0403
  C  C215  1  0.513100  0.192500  0.208000  1.0  -0.1831
  C  C216  1  0.485200  0.252800  0.233140  1.0  -0.0347
  C  C217  1  0.481800  0.248100  0.288940  1.0  -0.0223
  C  C218  1  0.413600  0.226300  0.104600  1.0  -0.1998
  C  C219  1  0.351900  0.172300  0.084390  1.0  -0.0342
  C  C220  1  0.269100  0.193700  0.060160  1.0  -0.0432
  C  C221  1  0.248500  0.269100  0.057370  1.0  -0.1196
  C  C222  1  0.309300  0.321500  0.078230  1.0  -0.0423
  C  C223  1  0.393800  0.299600  0.101270  1.0  -0.0816
  C  C224  1  0.157800  0.293600  0.030420  1.0  0.6678
  C  C225  1  0.422400  0.969200  0.399670  1.0  0.7108
  C  C226  1  0.329000  0.979800  0.371530  1.0  -0.1287
  C  C227  1  0.293100  0.938000  0.325160  1.0  -0.0364
  C  C228  1  0.206500  0.943400  0.300720  1.0  -0.028
  C  C229  1  0.157400  0.993000  0.322210  1.0  -0.2102
  C  C230  1  0.193500  0.036600  0.367410  1.0  -0.0149
  C  C231  1  0.279800  0.029600  0.392080  1.0  0.0094
  C  C232  1  0.028700  0.066600  0.243370  1.0  -0.1498
  C  C233  1  0.039600  0.050800  0.190700  1.0  -0.0524
  C  C234  1  0.019300  0.104000  0.150000  1.0  -0.0314
  C  C235  1  0.991000  0.172500  0.161600  1.0  -0.1212
  C  C236  1  0.983200  0.188000  0.214810  1.0  -0.0259
  C  C237  1  0.003000  0.134500  0.256100  1.0  -0.06
  C  C238  1  0.966900  0.229300  0.117000  1.0  0.7474
  C  C239  1  0.821700  0.499500  0.091120  1.0  0.6774
  C  C240  1  0.764500  0.563500  0.099170  1.0  -0.1354
  C  C241  1  0.737500  0.613000  0.056990  1.0  -0.0185
  C  C242  1  0.686200  0.671200  0.063790  1.0  -0.0962
  C  C243  1  0.660600  0.680200  0.112330  1.0  -0.1337
  C  C244  1  0.686200  0.631200  0.154700  1.0  -0.0204
  C  C245  1  0.739100  0.571900  0.149050  1.0  -0.0461
  C  C246  1  0.490900  0.737700  0.088300  1.0  -0.144
  C  C247  1  0.468500  0.716800  0.034500  1.0  -0.0385
  C  C248  1  0.382500  0.704900  0.009200  1.0  -0.0509
  C  C249  1  0.319300  0.718000  0.038830  1.0  -0.1239
  C  C250  1  0.342100  0.741700  0.091900  1.0  -0.0287
  C  C251  1  0.428700  0.750100  0.118710  1.0  -0.0814
  C  C252  1  0.225000  0.707900  0.011210  1.0  0.7112
  C  C253  1  0.995900  0.678300  0.121620  1.0  0.7299
  C  C254  1  0.993000  0.683200  0.181880  1.0  -0.1102
  C  C255  1  0.964100  0.624300  0.207640  1.0  -0.0205
  C  C256  1  0.960700  0.628300  0.263370  1.0  -0.0408
  C  C257  1  0.986900  0.692500  0.292000  1.0  -0.1828
  C  C258  1  0.014800  0.752800  0.266860  1.0  -0.0338
  C  C259  1  0.018200  0.748100  0.211060  1.0  -0.0207
  C  C260  1  0.086400  0.726300  0.395400  1.0  -0.2011
  C  C261  1  0.148100  0.672300  0.415610  1.0  -0.0351
  C  C262  1  0.230900  0.693700  0.439840  1.0  -0.044
  C  C263  1  0.251500  0.769100  0.442630  1.0  -0.1175
  C  C264  1  0.190700  0.821500  0.421770  1.0  -0.0424
  C  C265  1  0.106200  0.799600  0.398730  1.0  -0.0805
  C  C266  1  0.342200  0.793600  0.469580  1.0  0.6672
  C  C267  1  0.077600  0.469200  0.100330  1.0  0.7106
  C  C268  1  0.171000  0.479800  0.128470  1.0  -0.1296
  C  C269  1  0.206900  0.438000  0.174840  1.0  -0.0414
  C  C270  1  0.293500  0.443400  0.199280  1.0  -0.029
  C  C271  1  0.342600  0.493000  0.177790  1.0  -0.2102
  C  C272  1  0.306500  0.536600  0.132590  1.0  -0.0157
  C  C273  1  0.220200  0.529600  0.107920  1.0  0.0108
  C  C274  1  0.471300  0.566600  0.256630  1.0  -0.151
  C  C275  1  0.460400  0.550800  0.309300  1.0  -0.0505
  C  C276  1  0.480700  0.604000  0.350000  1.0  -0.0305
  C  C277  1  0.509000  0.672500  0.338400  1.0  -0.1218
  C  C278  1  0.516800  0.688000  0.285190  1.0  -0.0251
  C  C279  1  0.497000  0.634500  0.243900  1.0  -0.061
  C  C280  1  0.533100  0.729300  0.383000  1.0  0.7469
  S  S281  1  0.098550  0.741780  0.620980  1.0  1.1345
  S  S282  1  0.481440  0.800930  0.862600  1.0  1.1095
  S  S283  1  0.954460  0.002580  0.705640  1.0  1.1315
  S  S284  1  0.401450  0.241780  0.879020  1.0  1.135
  S  S285  1  0.018560  0.300930  0.637400  1.0  1.1092
  S  S286  1  0.545540  0.502580  0.794360  1.0  1.1323
  S  S287  1  0.901450  0.258220  0.379020  1.0  1.1423
  S  S288  1  0.518560  0.199070  0.137400  1.0  1.1086
  S  S289  1  0.045540  0.997420  0.294360  1.0  1.1321
  S  S290  1  0.598550  0.758220  0.120980  1.0  1.1412
  S  S291  1  0.981440  0.699070  0.362600  1.0  1.1091
  S  S292  1  0.454460  0.497420  0.205640  1.0  1.1315
  O  O293  1  0.460720  0.878090  0.597080  1.0  -0.5924
  O  O294  1  0.853730  0.637720  0.969280  1.0  -0.5797
  O  O295  1  0.536990  0.863080  0.491040  1.0  -0.9004
  O  O296  1  0.553620  0.001970  0.552190  1.0  -0.6871
  O  O297  1  0.353130  0.001680  0.548830  1.0  -0.6372
  O  O298  1  0.056000  0.708500  0.868980  1.0  -0.5728
  O  O299  1  0.708350  0.831100  0.468630  1.0  -0.6079
  O  O300  1  0.530220  0.067630  0.623840  1.0  -0.5641
  O  O301  1  0.334450  0.051560  0.625910  1.0  -0.5466
  O  O302  1  0.029500  0.788200  0.931480  1.0  -0.6832
  O  O303  1  0.673760  0.760090  0.534760  1.0  -0.6055
  O  O304  1  0.895900  0.754130  0.990450  1.0  -0.6267
  O  O305  1  0.532580  0.772010  0.601280  1.0  -0.6405
  O  O306  1  0.124400  0.682380  0.590340  1.0  -0.5534
  O  O307  1  0.102800  0.732500  0.679830  1.0  -0.5564
  O  O308  1  0.425500  0.741100  0.868840  1.0  -0.5647
  O  O309  1  0.464400  0.872700  0.881220  1.0  -0.4955
  O  O310  1  0.979400  0.072100  0.732710  1.0  -0.5836
  O  O311  1  0.994900  0.978100  0.662060  1.0  -0.5833
  O  O312  1  0.039280  0.378090  0.902920  1.0  -0.5943
  O  O313  1  0.646270  0.137720  0.530720  1.0  -0.5797
  O  O314  1  0.963010  0.363080  0.008960  1.0  -0.8982
  O  O315  1  0.946380  0.501970  0.947810  1.0  -0.6857
  O  O316  1  0.146870  0.501680  0.951170  1.0  -0.6363
  O  O317  1  0.444000  0.208500  0.631020  1.0  -0.5733
  O  O318  1  0.791650  0.331100  0.031370  1.0  -0.6076
  O  O319  1  0.969780  0.567630  0.876160  1.0  -0.563
  O  O320  1  0.165550  0.551560  0.874090  1.0  -0.5479
  O  O321  1  0.470500  0.288200  0.568520  1.0  -0.6838
  O  O322  1  0.826240  0.260090  0.965240  1.0  -0.6072
  O  O323  1  0.604100  0.254130  0.509550  1.0  -0.6266
  O  O324  1  0.967420  0.272010  0.898720  1.0  -0.6405
  O  O325  1  0.375600  0.182380  0.909660  1.0  -0.5538
  O  O326  1  0.397200  0.232500  0.820170  1.0  -0.5563
  O  O327  1  0.074500  0.241100  0.631160  1.0  -0.566
  O  O328  1  0.035600  0.372700  0.618780  1.0  -0.5003
  O  O329  1  0.520600  0.572100  0.767290  1.0  -0.5859
  O  O330  1  0.505100  0.478100  0.837940  1.0  -0.5844
  O  O331  1  0.539280  0.121910  0.402920  1.0  -0.5944
  O  O332  1  0.146270  0.362280  0.030720  1.0  -0.5789
  O  O333  1  0.463010  0.136920  0.508960  1.0  -0.8981
  O  O334  1  0.446380  0.998030  0.447810  1.0  -0.6858
  O  O335  1  0.646870  0.998320  0.451170  1.0  -0.6365
  O  O336  1  0.944000  0.291500  0.131020  1.0  -0.5725
  O  O337  1  0.291650  0.168900  0.531370  1.0  -0.6084
  O  O338  1  0.469780  0.932370  0.376160  1.0  -0.5637
  O  O339  1  0.665550  0.948440  0.374090  1.0  -0.5475
  O  O340  1  0.970500  0.211800  0.068520  1.0  -0.6801
  O  O341  1  0.326240  0.239910  0.465240  1.0  -0.6064
  O  O342  1  0.104100  0.245870  0.009550  1.0  -0.6283
  O  O343  1  0.467420  0.227990  0.398720  1.0  -0.6426
  O  O344  1  0.875600  0.317620  0.409660  1.0  -0.5531
  O  O345  1  0.897200  0.267500  0.320170  1.0  -0.5583
  O  O346  1  0.574500  0.258900  0.131160  1.0  -0.5647
  O  O347  1  0.535600  0.127300  0.118780  1.0  -0.4977
  O  O348  1  0.020600  0.927900  0.267290  1.0  -0.5856
  O  O349  1  0.005100  0.021900  0.337940  1.0  -0.5839
  O  O350  1  0.960720  0.621910  0.097080  1.0  -0.5922
  O  O351  1  0.353730  0.862280  0.469280  1.0  -0.5787
  O  O352  1  0.036990  0.636920  0.991040  1.0  -0.8999
  O  O353  1  0.053620  0.498030  0.052190  1.0  -0.6868
  O  O354  1  0.853130  0.498320  0.048830  1.0  -0.6376
  O  O355  1  0.556000  0.791500  0.368980  1.0  -0.5732
  O  O356  1  0.208350  0.668900  0.968630  1.0  -0.609
  O  O357  1  0.030220  0.432370  0.123840  1.0  -0.5641
  O  O358  1  0.834450  0.448440  0.125910  1.0  -0.55
  O  O359  1  0.529500  0.711800  0.431480  1.0  -0.6802
  O  O360  1  0.173760  0.739910  0.034760  1.0  -0.6034
  O  O361  1  0.395900  0.745870  0.490450  1.0  -0.6287
  O  O362  1  0.032580  0.727990  0.101280  1.0  -0.6436
  O  O363  1  0.624400  0.817620  0.090340  1.0  -0.5522
  O  O364  1  0.602800  0.767500  0.179830  1.0  -0.5559
  O  O365  1  0.925500  0.758900  0.368840  1.0  -0.5646
  O  O366  1  0.964400  0.627300  0.381220  1.0  -0.4964
  O  O367  1  0.479400  0.427900  0.232710  1.0  -0.5838
  O  O368  1  0.494900  0.521900  0.162060  1.0  -0.5827
