# generated using pymatgen
data_Mn7H48C84(S3O20)2
_symmetry_space_group_name_H-M   'P 1'
_cell_length_a   18.03520000
_cell_length_b   25.86760000
_cell_length_c   18.05840000
_cell_angle_alpha   90.00000000
_cell_angle_beta   118.86100000
_cell_angle_gamma   90.00000000
_symmetry_Int_Tables_number   1
_chemical_formula_structural   Mn7H48C84(S3O20)2
_chemical_formula_sum   'Mn14 H96 C168 S12 O80'
_cell_volume   7378.32835419
_cell_formula_units_Z   2
loop_
 _symmetry_equiv_pos_site_id
 _symmetry_equiv_pos_as_xyz
  1  'x, y, z'
loop_
 _atom_site_type_symbol
 _atom_site_label
 _atom_site_symmetry_multiplicity
 _atom_site_fract_x
 _atom_site_fract_y
 _atom_site_fract_z
 _atom_site_occupancy
 _atom_site_charge
  Mn  Mn1  1  0.926900  0.083140  0.801580  1.0  1.1622
  Mn  Mn2  1  0.893370  0.000040  0.106820  1.0  1.171
  Mn  Mn3  1  0.801740  0.083200  0.927080  1.0  1.1547
  Mn  Mn4  1  0.573100  0.583140  0.698420  1.0  1.1605
  Mn  Mn5  1  0.606630  0.500040  0.393180  1.0  1.1708
  Mn  Mn6  1  0.698260  0.583200  0.572920  1.0  1.1519
  Mn  Mn7  1  0.073100  0.916860  0.198420  1.0  1.1603
  Mn  Mn8  1  0.106630  0.999960  0.893180  1.0  1.1708
  Mn  Mn9  1  0.198260  0.916800  0.072920  1.0  1.1503
  Mn  Mn10  1  0.426900  0.416860  0.301580  1.0  1.1615
  Mn  Mn11  1  0.393370  0.499960  0.606820  1.0  1.171
  Mn  Mn12  1  0.301740  0.416800  0.427080  1.0  1.1535
  Mn  Mn13  1  0.000000  0.000000  0.000000  1.0  1.1973
  Mn  Mn14  1  0.500000  0.500000  0.500000  1.0  1.1973
  H  H15  1  0.705300  0.038500  0.705100  1.0  0.1057
  H  H16  1  0.589600  0.003800  0.589700  1.0  0.1325
  H  H17  1  0.681300  0.861900  0.680400  1.0  0.1306
  H  H18  1  0.793300  0.898600  0.793000  1.0  0.121
  H  H19  1  0.484300  0.828200  0.612900  1.0  0.1087
  H  H20  1  0.502600  0.740800  0.631300  1.0  0.1123
  H  H21  1  0.632700  0.740500  0.503900  1.0  0.1155
  H  H22  1  0.612200  0.828500  0.483300  1.0  0.1172
  H  H23  1  0.592900  0.975600  0.786000  1.0  0.1059
  H  H24  1  0.483400  0.916700  0.717900  1.0  0.1165
  H  H25  1  0.583700  0.827000  0.921300  1.0  0.112
  H  H26  1  0.701000  0.884100  0.992900  1.0  0.1353
  H  H27  1  0.315000  0.897400  0.723300  1.0  0.1192
  H  H28  1  0.238600  0.934000  0.783000  1.0  0.1267
  H  H29  1  0.333800  0.829000  0.966700  1.0  0.1203
  H  H30  1  0.417300  0.796300  0.910500  1.0  0.1206
  H  H31  1  0.785700  0.932800  0.238200  1.0  0.1188
  H  H32  1  0.722100  0.897100  0.312600  1.0  0.1285
  H  H33  1  0.911100  0.797400  0.420400  1.0  0.1171
  H  H34  1  0.967000  0.828100  0.333100  1.0  0.1241
  H  H35  1  0.719000  0.916900  0.484500  1.0  0.1197
  H  H36  1  0.787900  0.975100  0.595100  1.0  0.1068
  H  H37  1  0.994700  0.884900  0.700600  1.0  0.1323
  H  H38  1  0.921800  0.827300  0.582900  1.0  0.1117
  H  H39  1  0.794700  0.538500  0.794900  1.0  0.1056
  H  H40  1  0.910400  0.503800  0.910300  1.0  0.1323
  H  H41  1  0.818700  0.361900  0.819600  1.0  0.1298
  H  H42  1  0.706700  0.398600  0.707000  1.0  0.1205
  H  H43  1  0.015700  0.328200  0.887100  1.0  0.1082
  H  H44  1  0.997400  0.240800  0.868700  1.0  0.1121
  H  H45  1  0.867300  0.240500  0.996100  1.0  0.1157
  H  H46  1  0.887800  0.328500  0.016700  1.0  0.1166
  H  H47  1  0.907100  0.475600  0.714000  1.0  0.1049
  H  H48  1  0.016600  0.416700  0.782100  1.0  0.1165
  H  H49  1  0.916300  0.327000  0.578700  1.0  0.1118
  H  H50  1  0.799000  0.384100  0.507100  1.0  0.1349
  H  H51  1  0.185000  0.397400  0.776700  1.0  0.1199
  H  H52  1  0.261400  0.434000  0.717000  1.0  0.1265
  H  H53  1  0.166200  0.329000  0.533300  1.0  0.1199
  H  H54  1  0.082700  0.296300  0.589500  1.0  0.1202
  H  H55  1  0.714300  0.432800  0.261800  1.0  0.1183
  H  H56  1  0.777900  0.397100  0.187400  1.0  0.129
  H  H57  1  0.588900  0.297400  0.079600  1.0  0.1169
  H  H58  1  0.533000  0.328100  0.166900  1.0  0.1239
  H  H59  1  0.781000  0.416900  0.015500  1.0  0.1193
  H  H60  1  0.712100  0.475100  0.904900  1.0  0.1063
  H  H61  1  0.505300  0.384900  0.799400  1.0  0.1324
  H  H62  1  0.578200  0.327300  0.917100  1.0  0.111
  H  H63  1  0.294700  0.961500  0.294900  1.0  0.1055
  H  H64  1  0.410400  0.996200  0.410300  1.0  0.1333
  H  H65  1  0.318700  0.138100  0.319600  1.0  0.1288
  H  H66  1  0.206700  0.101400  0.207000  1.0  0.1212
  H  H67  1  0.515700  0.171800  0.387100  1.0  0.1086
  H  H68  1  0.497400  0.259200  0.368700  1.0  0.1122
  H  H69  1  0.367300  0.259500  0.496100  1.0  0.1157
  H  H70  1  0.387800  0.171500  0.516700  1.0  0.1167
  H  H71  1  0.407100  0.024400  0.214000  1.0  0.1047
  H  H72  1  0.516600  0.083300  0.282100  1.0  0.1169
  H  H73  1  0.416300  0.173000  0.078700  1.0  0.112
  H  H74  1  0.299000  0.115900  0.007100  1.0  0.1351
  H  H75  1  0.685000  0.102600  0.276700  1.0  0.1194
  H  H76  1  0.761400  0.066000  0.217000  1.0  0.1266
  H  H77  1  0.666200  0.171000  0.033300  1.0  0.1197
  H  H78  1  0.582700  0.203700  0.089500  1.0  0.1207
  H  H79  1  0.214300  0.067200  0.761800  1.0  0.1187
  H  H80  1  0.277900  0.102900  0.687400  1.0  0.1286
  H  H81  1  0.088900  0.202600  0.579600  1.0  0.1177
  H  H82  1  0.033000  0.171900  0.666900  1.0  0.1235
  H  H83  1  0.281000  0.083100  0.515500  1.0  0.1194
  H  H84  1  0.212100  0.024900  0.404900  1.0  0.1057
  H  H85  1  0.005300  0.115100  0.299400  1.0  0.1327
  H  H86  1  0.078200  0.172700  0.417100  1.0  0.1117
  H  H87  1  0.205300  0.461500  0.205100  1.0  0.1055
  H  H88  1  0.089600  0.496200  0.089700  1.0  0.1328
  H  H89  1  0.181300  0.638100  0.180400  1.0  0.1285
  H  H90  1  0.293300  0.601400  0.293000  1.0  0.1205
  H  H91  1  0.984300  0.671800  0.112900  1.0  0.1089
  H  H92  1  0.002600  0.759200  0.131300  1.0  0.1121
  H  H93  1  0.132700  0.759500  0.003900  1.0  0.1154
  H  H94  1  0.112200  0.671500  0.983300  1.0  0.1174
  H  H95  1  0.092900  0.524400  0.286000  1.0  0.1049
  H  H96  1  0.983400  0.583300  0.217900  1.0  0.1163
  H  H97  1  0.083700  0.673000  0.421300  1.0  0.1118
  H  H98  1  0.201000  0.615900  0.492900  1.0  0.1351
  H  H99  1  0.815000  0.602600  0.223300  1.0  0.1195
  H  H100  1  0.738600  0.566000  0.283000  1.0  0.1263
  H  H101  1  0.833800  0.671000  0.466700  1.0  0.1203
  H  H102  1  0.917300  0.703700  0.410500  1.0  0.1202
  H  H103  1  0.285700  0.567200  0.738200  1.0  0.1185
  H  H104  1  0.222100  0.602900  0.812600  1.0  0.1288
  H  H105  1  0.411100  0.702600  0.920400  1.0  0.1167
  H  H106  1  0.467000  0.671900  0.833100  1.0  0.1241
  H  H107  1  0.219000  0.583100  0.984500  1.0  0.1195
  H  H108  1  0.287900  0.524900  0.095100  1.0  0.1055
  H  H109  1  0.494700  0.615100  0.200600  1.0  0.1324
  H  H110  1  0.421800  0.672700  0.082900  1.0  0.1114
  C  C111  1  0.835700  0.996220  0.835500  1.0  0.6573
  C  C112  1  0.761100  0.973050  0.761300  1.0  -0.0982
  C  C113  1  0.699900  0.002700  0.699900  1.0  -0.0144
  C  C114  1  0.630400  0.982490  0.630500  1.0  -0.1438
  C  C115  1  0.623800  0.928610  0.623900  1.0  -0.1584
  C  C116  1  0.685600  0.897730  0.685200  1.0  -0.0675
  C  C117  1  0.752300  0.919750  0.752100  1.0  -0.0314
  C  C118  1  0.545200  0.836930  0.545200  1.0  -0.1716
  C  C119  1  0.513700  0.810480  0.590400  1.0  -0.0493
  C  C120  1  0.525700  0.758390  0.602400  1.0  -0.0279
  C  C121  1  0.571900  0.731370  0.572000  1.0  -0.1413
  C  C122  1  0.603000  0.758180  0.526200  1.0  -0.0433
  C  C123  1  0.590300  0.810790  0.513300  1.0  -0.0537
  C  C124  1  0.587800  0.674950  0.587500  1.0  0.7782
  C  C125  1  0.731700  0.973600  0.938900  1.0  0.707
  C  C126  1  0.657600  0.937000  0.895700  1.0  -0.1241
  C  C127  1  0.592400  0.945600  0.814100  1.0  -0.0117
  C  C128  1  0.525700  0.910300  0.773000  1.0  -0.0477
  C  C129  1  0.523000  0.867000  0.813900  1.0  -0.1051
  C  C130  1  0.586500  0.857000  0.894400  1.0  -0.0605
  C  C131  1  0.657600  0.891500  0.938800  1.0  -0.0845
  C  C132  1  0.375800  0.845700  0.813700  1.0  -0.0729
  C  C133  1  0.321000  0.884600  0.774100  1.0  -0.0642
  C  C134  1  0.273600  0.905700  0.808300  1.0  -0.0493
  C  C135  1  0.279400  0.883700  0.881300  1.0  -0.1282
  C  C136  1  0.330900  0.843800  0.918400  1.0  -0.0372
  C  C137  1  0.381000  0.824000  0.884600  1.0  -0.0574
  C  C138  1  0.229600  0.907900  0.920200  1.0  0.7644
  C  C139  1  0.919600  0.907800  0.228800  1.0  0.7608
  C  C140  1  0.881900  0.883500  0.279700  1.0  -0.1048
  C  C141  1  0.810400  0.904500  0.273500  1.0  -0.0451
  C  C142  1  0.773300  0.884100  0.319900  1.0  -0.0786
  C  C143  1  0.812700  0.845700  0.374700  1.0  -0.0572
  C  C144  1  0.884500  0.824200  0.382300  1.0  -0.0723
  C  C145  1  0.919300  0.843400  0.330800  1.0  -0.0563
  C  C146  1  0.814100  0.867300  0.523000  1.0  -0.0805
  C  C147  1  0.774100  0.910300  0.526500  1.0  -0.0653
  C  C148  1  0.816000  0.945100  0.594100  1.0  -0.0165
  C  C149  1  0.896500  0.936700  0.658700  1.0  -0.1123
  C  C150  1  0.940100  0.892000  0.657800  1.0  -0.0901
  C  C151  1  0.895000  0.857300  0.586000  1.0  -0.0611
  C  C152  1  0.940100  0.974300  0.732100  1.0  0.7153
  C  C153  1  0.664300  0.496220  0.664500  1.0  0.6572
  C  C154  1  0.738900  0.473050  0.738700  1.0  -0.098
  C  C155  1  0.800100  0.502700  0.800100  1.0  -0.0148
  C  C156  1  0.869600  0.482490  0.869500  1.0  -0.1471
  C  C157  1  0.876200  0.428610  0.876100  1.0  -0.1561
  C  C158  1  0.814400  0.397730  0.814800  1.0  -0.0675
  C  C159  1  0.747700  0.419750  0.747900  1.0  -0.0281
  C  C160  1  0.954800  0.336930  0.954800  1.0  -0.1687
  C  C161  1  0.986300  0.310480  0.909600  1.0  -0.0477
  C  C162  1  0.974300  0.258390  0.897600  1.0  -0.03
  C  C163  1  0.928100  0.231370  0.928000  1.0  -0.1423
  C  C164  1  0.897000  0.258180  0.973800  1.0  -0.0433
  C  C165  1  0.909700  0.310790  0.986700  1.0  -0.0533
  C  C166  1  0.912200  0.174950  0.912500  1.0  0.7781
  C  C167  1  0.768300  0.473600  0.561100  1.0  0.7085
  C  C168  1  0.842400  0.437000  0.604300  1.0  -0.1235
  C  C169  1  0.907600  0.445600  0.685900  1.0  -0.0118
  C  C170  1  0.974300  0.410300  0.727000  1.0  -0.0483
  C  C171  1  0.977000  0.367000  0.686100  1.0  -0.1046
  C  C172  1  0.913500  0.357000  0.605600  1.0  -0.0616
  C  C173  1  0.842400  0.391500  0.561200  1.0  -0.0861
  C  C174  1  0.124200  0.345700  0.686300  1.0  -0.0728
  C  C175  1  0.179000  0.384600  0.725900  1.0  -0.0642
  C  C176  1  0.226400  0.405700  0.691700  1.0  -0.048
  C  C177  1  0.220600  0.383700  0.618700  1.0  -0.1278
  C  C178  1  0.169100  0.343800  0.581600  1.0  -0.0378
  C  C179  1  0.119000  0.324000  0.615400  1.0  -0.0556
  C  C180  1  0.270400  0.407900  0.579800  1.0  0.7626
  C  C181  1  0.580400  0.407800  0.271200  1.0  0.7621
  C  C182  1  0.618100  0.383500  0.220300  1.0  -0.1033
  C  C183  1  0.689600  0.404500  0.226500  1.0  -0.0452
  C  C184  1  0.726700  0.384100  0.180100  1.0  -0.0792
  C  C185  1  0.687300  0.345700  0.125300  1.0  -0.059
  C  C186  1  0.615500  0.324200  0.117700  1.0  -0.073
  C  C187  1  0.580700  0.343400  0.169200  1.0  -0.0563
  C  C188  1  0.685900  0.367300  0.977000  1.0  -0.0814
  C  C189  1  0.725900  0.410300  0.973500  1.0  -0.0663
  C  C190  1  0.684000  0.445100  0.905900  1.0  -0.0171
  C  C191  1  0.603500  0.436700  0.841300  1.0  -0.113
  C  C192  1  0.559900  0.392000  0.842200  1.0  -0.0938
  C  C193  1  0.605000  0.357300  0.914000  1.0  -0.0636
  C  C194  1  0.559900  0.474300  0.767900  1.0  0.7156
  C  C195  1  0.164300  0.003780  0.164500  1.0  0.6575
  C  C196  1  0.238900  0.026950  0.238700  1.0  -0.0978
  C  C197  1  0.300100  0.997300  0.300100  1.0  -0.0139
  C  C198  1  0.369600  0.017510  0.369500  1.0  -0.1454
  C  C199  1  0.376200  0.071390  0.376100  1.0  -0.1559
  C  C200  1  0.314400  0.102270  0.314800  1.0  -0.0671
  C  C201  1  0.247700  0.080250  0.247900  1.0  -0.029
  C  C202  1  0.454800  0.163070  0.454800  1.0  -0.1687
  C  C203  1  0.486300  0.189520  0.409600  1.0  -0.0484
  C  C204  1  0.474300  0.241610  0.397600  1.0  -0.0295
  C  C205  1  0.428100  0.268630  0.428000  1.0  -0.1421
  C  C206  1  0.397000  0.241820  0.473800  1.0  -0.043
  C  C207  1  0.409700  0.189210  0.486700  1.0  -0.0534
  C  C208  1  0.412200  0.325050  0.412500  1.0  0.7793
  C  C209  1  0.268300  0.026400  0.061100  1.0  0.7081
  C  C210  1  0.342400  0.063000  0.104300  1.0  -0.1247
  C  C211  1  0.407600  0.054400  0.185900  1.0  -0.0113
  C  C212  1  0.474300  0.089700  0.227000  1.0  -0.0476
  C  C213  1  0.477000  0.133000  0.186100  1.0  -0.1051
  C  C214  1  0.413500  0.143000  0.105600  1.0  -0.0635
  C  C215  1  0.342400  0.108500  0.061200  1.0  -0.0864
  C  C216  1  0.624200  0.154300  0.186300  1.0  -0.073
  C  C217  1  0.679000  0.115400  0.225900  1.0  -0.0636
  C  C218  1  0.726400  0.094300  0.191700  1.0  -0.0495
  C  C219  1  0.720600  0.116300  0.118700  1.0  -0.1278
  C  C220  1  0.669100  0.156200  0.081600  1.0  -0.038
  C  C221  1  0.619000  0.176000  0.115400  1.0  -0.0562
  C  C222  1  0.770400  0.092100  0.079800  1.0  0.7623
  C  C223  1  0.080400  0.092200  0.771200  1.0  0.7617
  C  C224  1  0.118100  0.116500  0.720300  1.0  -0.1035
  C  C225  1  0.189600  0.095500  0.726500  1.0  -0.0454
  C  C226  1  0.226700  0.115900  0.680100  1.0  -0.0789
  C  C227  1  0.187300  0.154300  0.625300  1.0  -0.0592
  C  C228  1  0.115500  0.175800  0.617700  1.0  -0.0727
  C  C229  1  0.080700  0.156600  0.669200  1.0  -0.0564
  C  C230  1  0.185900  0.132700  0.477000  1.0  -0.0809
  C  C231  1  0.225900  0.089700  0.473500  1.0  -0.066
  C  C232  1  0.184000  0.054900  0.405900  1.0  -0.0174
  C  C233  1  0.103500  0.063300  0.341300  1.0  -0.1132
  C  C234  1  0.059900  0.108000  0.342200  1.0  -0.0942
  C  C235  1  0.105000  0.142700  0.414000  1.0  -0.0653
  C  C236  1  0.059900  0.025700  0.267900  1.0  0.7151
  C  C237  1  0.335700  0.503780  0.335500  1.0  0.6577
  C  C238  1  0.261100  0.526950  0.261300  1.0  -0.0979
  C  C239  1  0.199900  0.497300  0.199900  1.0  -0.0141
  C  C240  1  0.130400  0.517510  0.130500  1.0  -0.1426
  C  C241  1  0.123800  0.571390  0.123900  1.0  -0.1584
  C  C242  1  0.185600  0.602270  0.185200  1.0  -0.0674
  C  C243  1  0.252300  0.580250  0.252100  1.0  -0.0313
  C  C244  1  0.045200  0.663070  0.045200  1.0  -0.1721
  C  C245  1  0.013700  0.689520  0.090400  1.0  -0.0487
  C  C246  1  0.025700  0.741610  0.102400  1.0  -0.0284
  C  C247  1  0.071900  0.768630  0.072000  1.0  -0.1412
  C  C248  1  0.103000  0.741820  0.026200  1.0  -0.0427
  C  C249  1  0.090300  0.689210  0.013300  1.0  -0.0539
  C  C250  1  0.087800  0.825050  0.087500  1.0  0.7794
  C  C251  1  0.231700  0.526400  0.438900  1.0  0.7065
  C  C252  1  0.157600  0.563000  0.395700  1.0  -0.1241
  C  C253  1  0.092400  0.554400  0.314100  1.0  -0.0111
  C  C254  1  0.025700  0.589700  0.273000  1.0  -0.0476
  C  C255  1  0.023000  0.633000  0.313900  1.0  -0.1051
  C  C256  1  0.086500  0.643000  0.394400  1.0  -0.0614
  C  C257  1  0.157600  0.608500  0.438800  1.0  -0.0844
  C  C258  1  0.875800  0.654300  0.313700  1.0  -0.0726
  C  C259  1  0.821000  0.615400  0.274100  1.0  -0.0644
  C  C260  1  0.773600  0.594300  0.308300  1.0  -0.049
  C  C261  1  0.779400  0.616300  0.381300  1.0  -0.1279
  C  C262  1  0.830900  0.656200  0.418400  1.0  -0.0374
  C  C263  1  0.881000  0.676000  0.384600  1.0  -0.0579
  C  C264  1  0.729600  0.592100  0.420200  1.0  0.7637
  C  C265  1  0.419600  0.592200  0.728800  1.0  0.7601
  C  C266  1  0.381900  0.616500  0.779700  1.0  -0.1051
  C  C267  1  0.310400  0.595500  0.773500  1.0  -0.0459
  C  C268  1  0.273300  0.615900  0.819900  1.0  -0.0783
  C  C269  1  0.312700  0.654300  0.874700  1.0  -0.0573
  C  C270  1  0.384500  0.675800  0.882300  1.0  -0.0721
  C  C271  1  0.419300  0.656600  0.830800  1.0  -0.0567
  C  C272  1  0.314100  0.632700  0.023000  1.0  -0.0804
  C  C273  1  0.274100  0.589700  0.026500  1.0  -0.0653
  C  C274  1  0.316000  0.554900  0.094100  1.0  -0.0167
  C  C275  1  0.396500  0.563300  0.158700  1.0  -0.1119
  C  C276  1  0.440100  0.608000  0.157800  1.0  -0.0903
  C  C277  1  0.395000  0.642700  0.086000  1.0  -0.0632
  C  C278  1  0.440100  0.525700  0.232100  1.0  0.715
  S  S279  1  0.534210  0.903860  0.534070  1.0  1.1724
  S  S280  1  0.439710  0.823770  0.771800  1.0  1.1286
  S  S281  1  0.772400  0.823860  0.440010  1.0  1.1447
  S  S282  1  0.965790  0.403860  0.965930  1.0  1.1727
  S  S283  1  0.060290  0.323770  0.728200  1.0  1.1288
  S  S284  1  0.727600  0.323860  0.059990  1.0  1.1446
  S  S285  1  0.465790  0.096140  0.465930  1.0  1.1729
  S  S286  1  0.560290  0.176230  0.228200  1.0  1.1291
  S  S287  1  0.227600  0.176140  0.559990  1.0  1.1451
  S  S288  1  0.034210  0.596140  0.034070  1.0  1.1719
  S  S289  1  0.939710  0.676230  0.271800  1.0  1.1301
  S  S290  1  0.272400  0.676140  0.940010  1.0  1.145
  O  O291  1  0.915790  0.047860  0.021270  1.0  -0.7465
  O  O292  1  0.020730  0.048110  0.915080  1.0  -0.7306
  O  O293  1  0.890500  0.967580  0.890100  1.0  -0.5564
  O  O294  1  0.629300  0.653110  0.559200  1.0  -0.6413
  O  O295  1  0.230300  0.886290  0.981300  1.0  -0.6057
  O  O296  1  0.720400  0.017030  0.904600  1.0  -0.6221
  O  O297  1  0.837300  0.046240  0.837100  1.0  -0.6621
  O  O298  1  0.559100  0.653220  0.629000  1.0  -0.6304
  O  O299  1  0.981900  0.885610  0.231100  1.0  -0.6014
  O  O300  1  0.905000  0.016950  0.721100  1.0  -0.6154
  O  O301  1  0.192000  0.948200  0.887700  1.0  -0.5916
  O  O302  1  0.887200  0.948300  0.191800  1.0  -0.5916
  O  O303  1  0.793100  0.958120  0.004200  1.0  -0.5885
  O  O304  1  0.003500  0.958190  0.792500  1.0  -0.576
  O  O305  1  0.540400  0.919090  0.460600  1.0  -0.5728
  O  O306  1  0.461000  0.919180  0.540000  1.0  -0.5312
  O  O307  1  0.396100  0.831300  0.681200  1.0  -0.5759
  O  O308  1  0.470200  0.773210  0.805000  1.0  -0.5349
  O  O309  1  0.684200  0.829700  0.397700  1.0  -0.5163
  O  O310  1  0.805100  0.772630  0.469800  1.0  -0.5856
  O  O311  1  0.584210  0.547860  0.478730  1.0  -0.7469
  O  O312  1  0.479270  0.548110  0.584920  1.0  -0.7314
  O  O313  1  0.609500  0.467580  0.609900  1.0  -0.5575
  O  O314  1  0.870700  0.153110  0.940800  1.0  -0.6413
  O  O315  1  0.269700  0.386290  0.518700  1.0  -0.6045
  O  O316  1  0.779600  0.517030  0.595400  1.0  -0.6203
  O  O317  1  0.662700  0.546240  0.662900  1.0  -0.6615
  O  O318  1  0.940900  0.153220  0.871000  1.0  -0.6302
  O  O319  1  0.518100  0.385610  0.268900  1.0  -0.6016
  O  O320  1  0.595000  0.516950  0.778900  1.0  -0.6146
  O  O321  1  0.308000  0.448200  0.612300  1.0  -0.5925
  O  O322  1  0.612800  0.448300  0.308200  1.0  -0.5921
  O  O323  1  0.706900  0.458120  0.495800  1.0  -0.5882
  O  O324  1  0.496500  0.458190  0.707500  1.0  -0.5768
  O  O325  1  0.959600  0.419090  0.039400  1.0  -0.5708
  O  O326  1  0.039000  0.419180  0.960000  1.0  -0.5319
  O  O327  1  0.103900  0.331300  0.818800  1.0  -0.5768
  O  O328  1  0.029800  0.273210  0.695000  1.0  -0.5339
  O  O329  1  0.815800  0.329700  0.102300  1.0  -0.5168
  O  O330  1  0.694900  0.272630  0.030200  1.0  -0.5865
  O  O331  1  0.084210  0.952140  0.978730  1.0  -0.7469
  O  O332  1  0.979270  0.951890  0.084920  1.0  -0.7321
  O  O333  1  0.109500  0.032420  0.109900  1.0  -0.5568
  O  O334  1  0.370700  0.346890  0.440800  1.0  -0.6436
  O  O335  1  0.769700  0.113710  0.018700  1.0  -0.6056
  O  O336  1  0.279600  0.982970  0.095400  1.0  -0.6214
  O  O337  1  0.162700  0.953760  0.162900  1.0  -0.6626
  O  O338  1  0.440900  0.346780  0.371000  1.0  -0.6302
  O  O339  1  0.018100  0.114390  0.768900  1.0  -0.6022
  O  O340  1  0.095000  0.983050  0.278900  1.0  -0.6159
  O  O341  1  0.808000  0.051800  0.112300  1.0  -0.592
  O  O342  1  0.112800  0.051700  0.808200  1.0  -0.5909
  O  O343  1  0.206900  0.041880  0.995800  1.0  -0.5876
  O  O344  1  0.996500  0.041810  0.207500  1.0  -0.5762
  O  O345  1  0.459600  0.080910  0.539400  1.0  -0.571
  O  O346  1  0.539000  0.080820  0.460000  1.0  -0.5329
  O  O347  1  0.603900  0.168700  0.318800  1.0  -0.5767
  O  O348  1  0.529800  0.226790  0.195000  1.0  -0.5346
  O  O349  1  0.315800  0.170300  0.602300  1.0  -0.5167
  O  O350  1  0.194900  0.227370  0.530200  1.0  -0.5862
  O  O351  1  0.415790  0.452140  0.521270  1.0  -0.747
  O  O352  1  0.520730  0.451890  0.415080  1.0  -0.7311
  O  O353  1  0.390500  0.532420  0.390100  1.0  -0.5561
  O  O354  1  0.129300  0.846890  0.059200  1.0  -0.6431
  O  O355  1  0.730300  0.613710  0.481300  1.0  -0.606
  O  O356  1  0.220400  0.482970  0.404600  1.0  -0.6221
  O  O357  1  0.337300  0.453760  0.337100  1.0  -0.6629
  O  O358  1  0.059100  0.846780  0.129000  1.0  -0.6308
  O  O359  1  0.481900  0.614390  0.731100  1.0  -0.6019
  O  O360  1  0.405000  0.483050  0.221100  1.0  -0.6171
  O  O361  1  0.692000  0.551800  0.387700  1.0  -0.5915
  O  O362  1  0.387200  0.551700  0.691800  1.0  -0.5911
  O  O363  1  0.293100  0.541880  0.504200  1.0  -0.5887
  O  O364  1  0.503500  0.541810  0.292500  1.0  -0.5763
  O  O365  1  0.040400  0.580910  0.960600  1.0  -0.5734
  O  O366  1  0.961000  0.580820  0.040000  1.0  -0.5321
  O  O367  1  0.896100  0.668700  0.181200  1.0  -0.5756
  O  O368  1  0.970200  0.726790  0.305000  1.0  -0.5344
  O  O369  1  0.184200  0.670300  0.897700  1.0  -0.5162
  O  O370  1  0.305100  0.727370  0.969800  1.0  -0.5866
