# generated using pymatgen
data_U5P8H28(CO2)12
_symmetry_space_group_name_H-M   'P 1'
_cell_length_a   9.46110000
_cell_length_b   13.42400000
_cell_length_c   13.45300000
_cell_angle_alpha   67.36000000
_cell_angle_beta   70.64900000
_cell_angle_gamma   88.41800000
_symmetry_Int_Tables_number   1
_chemical_formula_structural   U5P8H28(CO2)12
_chemical_formula_sum   'U5 P8 H28 C12 O24'
_cell_volume   1478.02715488
_cell_formula_units_Z   1
loop_
 _symmetry_equiv_pos_site_id
 _symmetry_equiv_pos_as_xyz
  1  'x, y, z'
loop_
 _atom_site_type_symbol
 _atom_site_label
 _atom_site_symmetry_multiplicity
 _atom_site_fract_x
 _atom_site_fract_y
 _atom_site_fract_z
 _atom_site_occupancy
 _atom_site_charge
  U  U1  1  0.977130  0.077860  0.346070  1.0  1.9689
  U  U2  1  0.291290  0.320840  0.077270  1.0  1.9151
  U  U3  1  0.022870  0.922140  0.653930  1.0  1.9607
  U  U4  1  0.708710  0.679150  0.922730  1.0  1.9152
  U  U5  1  0.000000  0.000000  0.000000  1.0  1.8263
  P  P6  1  0.266310  0.148450  0.383410  1.0  1.4275
  P  P7  1  0.525240  0.432470  0.180820  1.0  1.4987
  P  P8  1  0.721210  0.944580  0.280230  1.0  1.5207
  P  P9  1  0.999510  0.250950  0.047560  1.0  1.5778
  P  P10  1  0.733690  0.851550  0.616590  1.0  1.4264
  P  P11  1  0.474760  0.567530  0.819180  1.0  1.5032
  P  P12  1  0.278790  0.055420  0.719770  1.0  1.5102
  P  P13  1  0.000490  0.749050  0.952440  1.0  1.5807
  H  H14  1  0.364000  0.033500  0.243700  1.0  0.0863
  H  H15  1  0.385200  0.938300  0.352600  1.0  0.0786
  H  H16  1  0.693900  0.437400  0.268900  1.0  0.1132
  H  H17  1  0.643500  0.315100  0.295000  1.0  0.115
  H  H18  1  0.903900  0.366500  0.187600  1.0  0.089
  H  H19  1  0.864500  0.457800  0.085100  1.0  0.089
  H  H20  1  0.629500  0.069900  0.151300  1.0  0.1221
  H  H21  1  0.569500  0.949700  0.176500  1.0  0.1161
  H  H22  1  0.789000  0.336400  0.030300  1.0  0.109
  H  H23  1  0.748700  0.240000  0.154300  1.0  0.1136
  H  H24  1  0.518500  0.151800  0.285700  1.0  0.1128
  H  H25  1  0.467800  0.055500  0.410600  1.0  0.1134
  H  H26  1  0.363000  0.367400  0.337400  1.0  0.3861
  H  H27  1  0.670900  0.825000  0.437000  1.0  0.3896
  H  H28  1  0.636000  0.966500  0.756300  1.0  0.0861
  H  H29  1  0.614800  0.061700  0.647400  1.0  0.0821
  H  H30  1  0.306100  0.562600  0.731100  1.0  0.1114
  H  H31  1  0.356500  0.684900  0.705000  1.0  0.1163
  H  H32  1  0.096100  0.633500  0.812400  1.0  0.0898
  H  H33  1  0.135500  0.542200  0.914900  1.0  0.088
  H  H34  1  0.370500  0.930100  0.848700  1.0  0.1208
  H  H35  1  0.430500  0.050300  0.823500  1.0  0.1186
  H  H36  1  0.211000  0.663600  0.969700  1.0  0.1063
  H  H37  1  0.251300  0.760000  0.845700  1.0  0.1142
  H  H38  1  0.481500  0.848200  0.714300  1.0  0.1163
  H  H39  1  0.532200  0.944500  0.589400  1.0  0.112
  H  H40  1  0.637000  0.632600  0.662600  1.0  0.386
  H  H41  1  0.329100  0.175000  0.563000  1.0  0.3905
  C  C42  1  0.430700  0.010000  0.289800  1.0  -0.22
  C  C43  1  0.677100  0.388700  0.233200  1.0  -0.4216
  C  C44  1  0.829400  0.384800  0.148000  1.0  -0.149
  C  C45  1  0.585400  0.997600  0.213300  1.0  -0.4368
  C  C46  1  0.824300  0.302100  0.096000  1.0  -0.5024
  C  C47  1  0.438400  0.091900  0.342100  1.0  -0.4915
  C  C48  1  0.569300  0.990000  0.710200  1.0  -0.2182
  C  C49  1  0.322900  0.611300  0.766800  1.0  -0.4191
  C  C50  1  0.170600  0.615200  0.852000  1.0  -0.1505
  C  C51  1  0.414600  0.002400  0.786700  1.0  -0.44
  C  C52  1  0.175700  0.697900  0.904000  1.0  -0.5007
  C  C53  1  0.561600  0.908100  0.657900  1.0  -0.4926
  O  O54  1  0.135900  0.056200  0.466800  1.0  -1.0051
  O  O55  1  0.215600  0.198000  0.277800  1.0  -0.9938
  O  O56  1  0.048000  0.196700  0.154800  1.0  -0.998
  O  O57  1  0.765800  0.023100  0.324800  1.0  -0.9261
  O  O58  1  0.485300  0.354200  0.134600  1.0  -0.9287
  O  O59  1  0.129800  0.338300  0.964000  1.0  -0.9046
  O  O60  1  0.562600  0.549700  0.095900  1.0  -0.9643
  O  O61  1  0.966900  0.168100  0.004100  1.0  -0.9481
  O  O62  1  0.854300  0.923400  0.193600  1.0  -0.9213
  O  O63  1  0.389300  0.431300  0.287800  1.0  -0.6268
  O  O64  1  0.639800  0.835500  0.382500  1.0  -0.673
  O  O65  1  0.288600  0.227300  0.433200  1.0  -0.7418
  O  O66  1  0.864100  0.943800  0.533200  1.0  -1.0034
  O  O67  1  0.784400  0.802000  0.722200  1.0  -0.9941
  O  O68  1  0.952000  0.803300  0.845200  1.0  -1.0009
  O  O69  1  0.234200  0.976900  0.675200  1.0  -0.925
  O  O70  1  0.514700  0.645800  0.865400  1.0  -0.9307
  O  O71  1  0.870200  0.661700  0.036000  1.0  -0.9032
  O  O72  1  0.437400  0.450300  0.904100  1.0  -0.965
  O  O73  1  0.033100  0.831900  0.995900  1.0  -0.9488
  O  O74  1  0.145700  0.076600  0.806400  1.0  -0.9209
  O  O75  1  0.610700  0.568700  0.712200  1.0  -0.6281
  O  O76  1  0.360200  0.164500  0.617500  1.0  -0.6678
  O  O77  1  0.711400  0.772700  0.566800  1.0  -0.742
