# generated using pymatgen
data_Cu2H15C20NO6
_symmetry_space_group_name_H-M   'P 1'
_cell_length_a   9.71860000
_cell_length_b   25.34600000
_cell_length_c   19.30600000
_cell_angle_alpha   90.00000000
_cell_angle_beta   90.00000000
_cell_angle_gamma   90.00000000
_symmetry_Int_Tables_number   1
_chemical_formula_structural   Cu2H15C20NO6
_chemical_formula_sum   'Cu16 H120 C160 N8 O48'
_cell_volume   4755.60133289
_cell_formula_units_Z   8
loop_
 _symmetry_equiv_pos_site_id
 _symmetry_equiv_pos_as_xyz
  1  'x, y, z'
loop_
 _atom_site_type_symbol
 _atom_site_label
 _atom_site_symmetry_multiplicity
 _atom_site_fract_x
 _atom_site_fract_y
 _atom_site_fract_z
 _atom_site_occupancy
 _atom_site_charge
  Cu  Cu1  1  0.608470  0.475550  0.552420  1.0  0.9059
  Cu  Cu2  1  0.808330  0.434330  0.447120  1.0  0.948
  Cu  Cu3  1  0.891530  0.524450  0.552420  1.0  0.8985
  Cu  Cu4  1  0.691670  0.565670  0.447120  1.0  0.948
  Cu  Cu5  1  0.891530  0.975550  0.947580  1.0  0.9034
  Cu  Cu6  1  0.691670  0.934330  0.052880  1.0  0.9489
  Cu  Cu7  1  0.608470  0.024450  0.947580  1.0  0.9031
  Cu  Cu8  1  0.808330  0.065670  0.052880  1.0  0.9478
  Cu  Cu9  1  0.391530  0.524450  0.447580  1.0  0.9045
  Cu  Cu10  1  0.191670  0.565670  0.552880  1.0  0.9481
  Cu  Cu11  1  0.108470  0.475550  0.447580  1.0  0.8969
  Cu  Cu12  1  0.308330  0.434330  0.552880  1.0  0.9485
  Cu  Cu13  1  0.108470  0.024450  0.052420  1.0  0.9055
  Cu  Cu14  1  0.308330  0.065670  0.947120  1.0  0.9476
  Cu  Cu15  1  0.391530  0.975550  0.052420  1.0  0.8965
  Cu  Cu16  1  0.191670  0.934330  0.947120  1.0  0.9484
  H  H17  1  0.824900  0.455500  0.824500  1.0  0.125
  H  H18  1  0.924500  0.489000  0.921000  1.0  0.1007
  H  H19  1  0.950800  0.438100  0.018400  1.0  0.1094
  H  H20  1  0.762400  0.319400  0.922700  1.0  0.1264
  H  H21  1  0.748100  0.370400  0.824300  1.0  0.1112
  H  H22  1  0.675300  0.400200  0.075100  1.0  0.1095
  H  H23  1  0.618300  0.435400  0.181800  1.0  0.0989
  H  H24  1  0.948400  0.365800  0.265500  1.0  0.107
  H  H25  1  0.004500  0.331200  0.158600  1.0  0.0994
  H  H26  1  0.848100  0.257500  0.118000  1.0  0.1098
  H  H27  1  0.933400  0.173200  0.103900  1.0  0.1009
  H  H28  1  0.131900  0.219600  0.933000  1.0  0.1101
  H  H29  1  0.045600  0.303300  0.946900  1.0  0.1004
  H  H30  1  0.865000  0.453600  0.576800  1.0  0.3973
  H  H31  1  0.405900  0.507300  0.606100  1.0  0.4176
  H  H32  1  0.675100  0.544500  0.824500  1.0  0.1248
  H  H33  1  0.575500  0.511000  0.921000  1.0  0.1009
  H  H34  1  0.549200  0.561900  0.018400  1.0  0.1093
  H  H35  1  0.737600  0.680600  0.922700  1.0  0.1262
  H  H36  1  0.751900  0.629600  0.824300  1.0  0.1112
  H  H37  1  0.824700  0.599800  0.075100  1.0  0.1093
  H  H38  1  0.881700  0.564600  0.181800  1.0  0.0988
  H  H39  1  0.551600  0.634200  0.265500  1.0  0.1066
  H  H40  1  0.495500  0.668800  0.158600  1.0  0.0995
  H  H41  1  0.651900  0.742500  0.118000  1.0  0.1092
  H  H42  1  0.566600  0.826800  0.103900  1.0  0.1002
  H  H43  1  0.368100  0.780400  0.933000  1.0  0.11
  H  H44  1  0.454400  0.696700  0.946900  1.0  0.101
  H  H45  1  0.635000  0.546400  0.576800  1.0  0.3968
  H  H46  1  0.094100  0.492700  0.606100  1.0  0.4183
  H  H47  1  0.675100  0.955500  0.675500  1.0  0.1248
  H  H48  1  0.575500  0.989000  0.579000  1.0  0.1011
  H  H49  1  0.549200  0.938100  0.481600  1.0  0.1093
  H  H50  1  0.737600  0.819400  0.577300  1.0  0.1259
  H  H51  1  0.751900  0.870400  0.675700  1.0  0.1118
  H  H52  1  0.824700  0.900200  0.424900  1.0  0.1095
  H  H53  1  0.881700  0.935400  0.318200  1.0  0.0989
  H  H54  1  0.551600  0.865800  0.234500  1.0  0.1064
  H  H55  1  0.495500  0.831200  0.341400  1.0  0.0987
  H  H56  1  0.651900  0.757500  0.382000  1.0  0.109
  H  H57  1  0.566600  0.673200  0.396100  1.0  0.1004
  H  H58  1  0.368100  0.719600  0.567000  1.0  0.1099
  H  H59  1  0.454400  0.803300  0.553100  1.0  0.1
  H  H60  1  0.635000  0.953600  0.923200  1.0  0.3963
  H  H61  1  0.094100  0.007300  0.893900  1.0  0.4178
  H  H62  1  0.824900  0.044500  0.675500  1.0  0.1248
  H  H63  1  0.924500  0.011000  0.579000  1.0  0.1015
  H  H64  1  0.950800  0.061900  0.481600  1.0  0.1093
  H  H65  1  0.762400  0.180600  0.577300  1.0  0.1253
  H  H66  1  0.748100  0.129600  0.675700  1.0  0.1112
  H  H67  1  0.675300  0.099800  0.424900  1.0  0.1092
  H  H68  1  0.618300  0.064600  0.318200  1.0  0.0988
  H  H69  1  0.948400  0.134200  0.234500  1.0  0.1067
  H  H70  1  0.004500  0.168800  0.341400  1.0  0.0989
  H  H71  1  0.848100  0.242500  0.382000  1.0  0.1093
  H  H72  1  0.933400  0.326800  0.396100  1.0  0.1004
  H  H73  1  0.131900  0.280400  0.567000  1.0  0.1101
  H  H74  1  0.045600  0.196700  0.553100  1.0  0.1007
  H  H75  1  0.865000  0.046400  0.923200  1.0  0.3952
  H  H76  1  0.405900  0.992700  0.893900  1.0  0.4171
  H  H77  1  0.175100  0.544500  0.175500  1.0  0.1247
  H  H78  1  0.075500  0.511000  0.079000  1.0  0.1015
  H  H79  1  0.049200  0.561900  0.981600  1.0  0.1092
  H  H80  1  0.237600  0.680600  0.077300  1.0  0.1253
  H  H81  1  0.251900  0.629600  0.175700  1.0  0.1113
  H  H82  1  0.324700  0.599800  0.924900  1.0  0.1094
  H  H83  1  0.381700  0.564600  0.818200  1.0  0.0989
  H  H84  1  0.051600  0.634200  0.734500  1.0  0.1064
  H  H85  1  0.995500  0.668800  0.841400  1.0  0.0985
  H  H86  1  0.151900  0.742500  0.882000  1.0  0.1091
  H  H87  1  0.066600  0.826800  0.896100  1.0  0.1002
  H  H88  1  0.868100  0.780400  0.067000  1.0  0.1097
  H  H89  1  0.954400  0.696700  0.053100  1.0  0.1001
  H  H90  1  0.135000  0.546400  0.423200  1.0  0.3966
  H  H91  1  0.594100  0.492700  0.393900  1.0  0.4188
  H  H92  1  0.324900  0.455500  0.175500  1.0  0.125
  H  H93  1  0.424500  0.489000  0.079000  1.0  0.1011
  H  H94  1  0.450800  0.438100  0.981600  1.0  0.1093
  H  H95  1  0.262400  0.319400  0.077300  1.0  0.1258
  H  H96  1  0.248100  0.370400  0.175700  1.0  0.1116
  H  H97  1  0.175300  0.400200  0.924900  1.0  0.1093
  H  H98  1  0.118300  0.435400  0.818200  1.0  0.099
  H  H99  1  0.448400  0.365800  0.734500  1.0  0.1067
  H  H100  1  0.504500  0.331200  0.841400  1.0  0.099
  H  H101  1  0.348100  0.257500  0.882000  1.0  0.1089
  H  H102  1  0.433400  0.173200  0.896100  1.0  0.1004
  H  H103  1  0.631900  0.219600  0.067000  1.0  0.1104
  H  H104  1  0.545600  0.303300  0.053100  1.0  0.1002
  H  H105  1  0.365000  0.453600  0.423200  1.0  0.3957
  H  H106  1  0.905900  0.507300  0.393900  1.0  0.4173
  H  H107  1  0.324900  0.044500  0.324500  1.0  0.125
  H  H108  1  0.424500  0.011000  0.421000  1.0  0.1011
  H  H109  1  0.450800  0.061900  0.518400  1.0  0.1095
  H  H110  1  0.262400  0.180600  0.422700  1.0  0.1262
  H  H111  1  0.248100  0.129600  0.324300  1.0  0.1115
  H  H112  1  0.175300  0.099800  0.575100  1.0  0.1092
  H  H113  1  0.118300  0.064600  0.681800  1.0  0.0988
  H  H114  1  0.448400  0.134200  0.765500  1.0  0.1068
  H  H115  1  0.504500  0.168800  0.658600  1.0  0.0997
  H  H116  1  0.348100  0.242500  0.618000  1.0  0.1098
  H  H117  1  0.433400  0.326800  0.603900  1.0  0.1004
  H  H118  1  0.631900  0.280400  0.433000  1.0  0.1101
  H  H119  1  0.545600  0.196700  0.446900  1.0  0.1007
  H  H120  1  0.365000  0.046400  0.076800  1.0  0.3961
  H  H121  1  0.905900  0.992700  0.106100  1.0  0.4189
  H  H122  1  0.175100  0.955500  0.324500  1.0  0.1247
  H  H123  1  0.075500  0.989000  0.421000  1.0  0.1006
  H  H124  1  0.049200  0.938100  0.518400  1.0  0.1091
  H  H125  1  0.237600  0.819400  0.422700  1.0  0.1266
  H  H126  1  0.251900  0.870400  0.324300  1.0  0.1112
  H  H127  1  0.324700  0.900200  0.575100  1.0  0.1095
  H  H128  1  0.381700  0.935400  0.681800  1.0  0.0987
  H  H129  1  0.051600  0.865800  0.765500  1.0  0.1069
  H  H130  1  0.995500  0.831200  0.658600  1.0  0.0994
  H  H131  1  0.151900  0.757500  0.618000  1.0  0.1094
  H  H132  1  0.066600  0.673200  0.603900  1.0  0.1008
  H  H133  1  0.868100  0.719600  0.433000  1.0  0.1098
  H  H134  1  0.954400  0.803300  0.446900  1.0  0.0997
  H  H135  1  0.135000  0.953600  0.076800  1.0  0.3972
  H  H136  1  0.594100  0.007300  0.106100  1.0  0.4181
  C  C137  1  0.834100  0.434690  0.863970  1.0  -0.0831
  C  C138  1  0.893300  0.454350  0.920950  1.0  -0.0606
  C  C139  1  0.908700  0.424030  0.979350  1.0  -0.1505
  C  C140  1  0.861700  0.372500  0.980160  1.0  0.1572
  C  C141  1  0.798500  0.353400  0.922670  1.0  -0.1455
  C  C142  1  0.787700  0.384330  0.864190  1.0  -0.1133
  C  C143  1  0.846100  0.361810  0.106040  1.0  0.1558
  C  C144  1  0.730500  0.393170  0.113390  1.0  -0.1689
  C  C145  1  0.696100  0.414310  0.177570  1.0  -0.0018
  C  C146  1  0.776010  0.404300  0.234950  1.0  -0.1348
  C  C147  1  0.892900  0.372830  0.227350  1.0  -0.0303
  C  C148  1  0.926400  0.352060  0.163120  1.0  -0.1936
  C  C149  1  0.935790  0.289560  0.033670  1.0  0.1741
  C  C150  1  0.904640  0.250020  0.080420  1.0  -0.1557
  C  C151  1  0.956490  0.199320  0.072120  1.0  -0.0174
  C  C152  1  0.041630  0.187340  0.017390  1.0  -0.1347
  C  C153  1  0.074500  0.226980  0.970300  1.0  -0.031
  C  C154  1  0.022400  0.277230  0.978650  1.0  -0.1726
  C  C155  1  0.097640  0.133250  0.008100  1.0  0.6837
  C  C156  1  0.736520  0.425310  0.304570  1.0  0.6891
  C  C157  1  0.665900  0.565310  0.863970  1.0  -0.0832
  C  C158  1  0.606700  0.545650  0.920950  1.0  -0.0616
  C  C159  1  0.591300  0.575970  0.979350  1.0  -0.1493
  C  C160  1  0.638300  0.627500  0.980160  1.0  0.1573
  C  C161  1  0.701500  0.646600  0.922670  1.0  -0.147
  C  C162  1  0.712300  0.615670  0.864190  1.0  -0.1139
  C  C163  1  0.653900  0.638190  0.106040  1.0  0.1558
  C  C164  1  0.769500  0.606830  0.113390  1.0  -0.1679
  C  C165  1  0.803900  0.585690  0.177570  1.0  -0.0038
  C  C166  1  0.723990  0.595700  0.234950  1.0  -0.1344
  C  C167  1  0.607100  0.627170  0.227350  1.0  -0.0309
  C  C168  1  0.573600  0.647940  0.163120  1.0  -0.1945
  C  C169  1  0.564210  0.710440  0.033670  1.0  0.1743
  C  C170  1  0.595360  0.749980  0.080420  1.0  -0.1553
  C  C171  1  0.543510  0.800680  0.072120  1.0  -0.0179
  C  C172  1  0.458370  0.812660  0.017390  1.0  -0.1348
  C  C173  1  0.425500  0.773020  0.970300  1.0  -0.0301
  C  C174  1  0.477600  0.722770  0.978650  1.0  -0.1713
  C  C175  1  0.402360  0.866750  0.008100  1.0  0.6832
  C  C176  1  0.763480  0.574690  0.304570  1.0  0.6906
  C  C177  1  0.665900  0.934690  0.636030  1.0  -0.0821
  C  C178  1  0.606700  0.954350  0.579050  1.0  -0.0594
  C  C179  1  0.591300  0.924030  0.520650  1.0  -0.1499
  C  C180  1  0.638300  0.872500  0.519840  1.0  0.1564
  C  C181  1  0.701500  0.853400  0.577330  1.0  -0.1457
  C  C182  1  0.712300  0.884330  0.635810  1.0  -0.1118
  C  C183  1  0.653900  0.861810  0.393960  1.0  0.1558
  C  C184  1  0.769500  0.893170  0.386610  1.0  -0.1686
  C  C185  1  0.803900  0.914310  0.322430  1.0  -0.0036
  C  C186  1  0.723990  0.904300  0.265050  1.0  -0.1345
  C  C187  1  0.607100  0.872830  0.272650  1.0  -0.0306
  C  C188  1  0.573600  0.852060  0.336880  1.0  -0.1952
  C  C189  1  0.564210  0.789560  0.466330  1.0  0.174
  C  C190  1  0.595360  0.750020  0.419580  1.0  -0.1566
  C  C191  1  0.543510  0.699320  0.427880  1.0  -0.0183
  C  C192  1  0.458370  0.687340  0.482610  1.0  -0.1351
  C  C193  1  0.425500  0.726980  0.529700  1.0  -0.0296
  C  C194  1  0.477600  0.777230  0.521350  1.0  -0.1721
  C  C195  1  0.402360  0.633250  0.491900  1.0  0.6838
  C  C196  1  0.763480  0.925310  0.195430  1.0  0.6907
  C  C197  1  0.834100  0.065310  0.636030  1.0  -0.0826
  C  C198  1  0.893300  0.045650  0.579050  1.0  -0.0607
  C  C199  1  0.908700  0.075970  0.520650  1.0  -0.1498
  C  C200  1  0.861700  0.127500  0.519840  1.0  0.1566
  C  C201  1  0.798500  0.146600  0.577330  1.0  -0.1452
  C  C202  1  0.787700  0.115670  0.635810  1.0  -0.113
  C  C203  1  0.846100  0.138190  0.393960  1.0  0.156
  C  C204  1  0.730500  0.106830  0.386610  1.0  -0.1686
  C  C205  1  0.696100  0.085690  0.322430  1.0  -0.0027
  C  C206  1  0.776010  0.095700  0.265050  1.0  -0.1354
  C  C207  1  0.892900  0.127170  0.272650  1.0  -0.0313
  C  C208  1  0.926400  0.147940  0.336880  1.0  -0.1961
  C  C209  1  0.935790  0.210440  0.466330  1.0  0.1745
  C  C210  1  0.904640  0.249980  0.419580  1.0  -0.1569
  C  C211  1  0.956490  0.300680  0.427880  1.0  -0.0171
  C  C212  1  0.041630  0.312660  0.482610  1.0  -0.1345
  C  C213  1  0.074500  0.273020  0.529700  1.0  -0.0309
  C  C214  1  0.022400  0.222770  0.521350  1.0  -0.1721
  C  C215  1  0.097640  0.366750  0.491900  1.0  0.6834
  C  C216  1  0.736520  0.074690  0.195430  1.0  0.6895
  C  C217  1  0.165900  0.565310  0.136030  1.0  -0.0822
  C  C218  1  0.106700  0.545650  0.079050  1.0  -0.0605
  C  C219  1  0.091300  0.575970  0.020650  1.0  -0.1498
  C  C220  1  0.138300  0.627500  0.019840  1.0  0.1565
  C  C221  1  0.201500  0.646600  0.077330  1.0  -0.1456
  C  C222  1  0.212300  0.615670  0.135810  1.0  -0.1123
  C  C223  1  0.153900  0.638190  0.893960  1.0  0.1559
  C  C224  1  0.269500  0.606830  0.886610  1.0  -0.1679
  C  C225  1  0.303900  0.585690  0.822430  1.0  -0.0038
  C  C226  1  0.223990  0.595700  0.765050  1.0  -0.135
  C  C227  1  0.107100  0.627170  0.772650  1.0  -0.031
  C  C228  1  0.073600  0.647940  0.836880  1.0  -0.1956
  C  C229  1  0.064210  0.710440  0.966330  1.0  0.1743
  C  C230  1  0.095360  0.749980  0.919580  1.0  -0.1564
  C  C231  1  0.043510  0.800680  0.927880  1.0  -0.0181
  C  C232  1  0.958370  0.812660  0.982610  1.0  -0.135
  C  C233  1  0.925500  0.773020  0.029700  1.0  -0.0296
  C  C234  1  0.977600  0.722770  0.021350  1.0  -0.1722
  C  C235  1  0.902360  0.866750  0.991900  1.0  0.6832
  C  C236  1  0.263480  0.574690  0.695430  1.0  0.6904
  C  C237  1  0.334100  0.434690  0.136030  1.0  -0.0825
  C  C238  1  0.393300  0.454350  0.079050  1.0  -0.0592
  C  C239  1  0.408700  0.424030  0.020650  1.0  -0.1497
  C  C240  1  0.361700  0.372500  0.019840  1.0  0.1565
  C  C241  1  0.298500  0.353400  0.077330  1.0  -0.1452
  C  C242  1  0.287700  0.384330  0.135810  1.0  -0.1124
  C  C243  1  0.346100  0.361810  0.893960  1.0  0.1558
  C  C244  1  0.230500  0.393170  0.886610  1.0  -0.1692
  C  C245  1  0.196100  0.414310  0.822430  1.0  -0.0024
  C  C246  1  0.276010  0.404300  0.765050  1.0  -0.1347
  C  C247  1  0.392900  0.372830  0.772650  1.0  -0.031
  C  C248  1  0.426400  0.352060  0.836880  1.0  -0.1956
  C  C249  1  0.435790  0.289560  0.966330  1.0  0.1741
  C  C250  1  0.404640  0.250020  0.919580  1.0  -0.157
  C  C251  1  0.456490  0.199320  0.927880  1.0  -0.0172
  C  C252  1  0.541630  0.187340  0.982610  1.0  -0.1347
  C  C253  1  0.574500  0.226980  0.029700  1.0  -0.0312
  C  C254  1  0.522400  0.277230  0.021350  1.0  -0.1721
  C  C255  1  0.597640  0.133250  0.991900  1.0  0.6838
  C  C256  1  0.236520  0.425310  0.695430  1.0  0.6896
  C  C257  1  0.334100  0.065310  0.363970  1.0  -0.083
  C  C258  1  0.393300  0.045650  0.420950  1.0  -0.0616
  C  C259  1  0.408700  0.075970  0.479350  1.0  -0.149
  C  C260  1  0.361700  0.127500  0.480160  1.0  0.1574
  C  C261  1  0.298500  0.146600  0.422670  1.0  -0.1455
  C  C262  1  0.287700  0.115670  0.364190  1.0  -0.1135
  C  C263  1  0.346100  0.138190  0.606040  1.0  0.1559
  C  C264  1  0.230500  0.106830  0.613390  1.0  -0.1687
  C  C265  1  0.196100  0.085690  0.677570  1.0  -0.0024
  C  C266  1  0.276010  0.095700  0.734950  1.0  -0.1349
  C  C267  1  0.392900  0.127170  0.727350  1.0  -0.0307
  C  C268  1  0.426400  0.147940  0.663120  1.0  -0.194
  C  C269  1  0.435790  0.210440  0.533670  1.0  0.1745
  C  C270  1  0.404640  0.249980  0.580420  1.0  -0.1555
  C  C271  1  0.456490  0.300680  0.572120  1.0  -0.0171
  C  C272  1  0.541630  0.312660  0.517390  1.0  -0.1344
  C  C273  1  0.574500  0.273020  0.470300  1.0  -0.0306
  C  C274  1  0.522400  0.222770  0.478650  1.0  -0.1721
  C  C275  1  0.597640  0.366750  0.508100  1.0  0.6834
  C  C276  1  0.236520  0.074690  0.804570  1.0  0.6893
  C  C277  1  0.165900  0.934690  0.363970  1.0  -0.0831
  C  C278  1  0.106700  0.954350  0.420950  1.0  -0.0607
  C  C279  1  0.091300  0.924030  0.479350  1.0  -0.1508
  C  C280  1  0.138300  0.872500  0.480160  1.0  0.1571
  C  C281  1  0.201500  0.853400  0.422670  1.0  -0.1472
  C  C282  1  0.212300  0.884330  0.364190  1.0  -0.1137
  C  C283  1  0.153900  0.861810  0.606040  1.0  0.1558
  C  C284  1  0.269500  0.893170  0.613390  1.0  -0.1682
  C  C285  1  0.303900  0.914310  0.677570  1.0  -0.0031
  C  C286  1  0.223990  0.904300  0.734950  1.0  -0.1346
  C  C287  1  0.107100  0.872830  0.727350  1.0  -0.0303
  C  C288  1  0.073600  0.852060  0.663120  1.0  -0.1944
  C  C289  1  0.064210  0.789560  0.533670  1.0  0.174
  C  C290  1  0.095360  0.750020  0.580420  1.0  -0.1556
  C  C291  1  0.043510  0.699320  0.572120  1.0  -0.0181
  C  C292  1  0.958370  0.687340  0.517390  1.0  -0.1351
  C  C293  1  0.925500  0.726980  0.470300  1.0  -0.0301
  C  C294  1  0.977600  0.777230  0.478650  1.0  -0.1718
  C  C295  1  0.902360  0.633250  0.508100  1.0  0.6836
  C  C296  1  0.263480  0.925310  0.804570  1.0  0.6905
  N  N297  1  0.880110  0.340430  0.040600  1.0  -0.1567
  N  N298  1  0.619890  0.659570  0.040600  1.0  -0.1564
  N  N299  1  0.619890  0.840430  0.459400  1.0  -0.1567
  N  N300  1  0.880110  0.159570  0.459400  1.0  -0.1567
  N  N301  1  0.119890  0.659570  0.959400  1.0  -0.1566
  N  N302  1  0.380110  0.340430  0.959400  1.0  -0.1568
  N  N303  1  0.380110  0.159570  0.540600  1.0  -0.1566
  N  N304  1  0.119890  0.840430  0.540600  1.0  -0.1565
  O  O305  1  0.044990  0.097020  0.045320  1.0  -0.6328
  O  O306  1  0.192730  0.126840  0.964610  1.0  -0.5992
  O  O307  1  0.628980  0.450070  0.312340  1.0  -0.5656
  O  O308  1  0.824080  0.415380  0.352040  1.0  -0.6004
  O  O309  1  0.802370  0.454220  0.546090  1.0  -0.9701
  O  O310  1  0.418860  0.498080  0.564260  1.0  -0.8135
  O  O311  1  0.455010  0.902980  0.045320  1.0  -0.6329
  O  O312  1  0.307270  0.873160  0.964610  1.0  -0.5994
  O  O313  1  0.871020  0.549930  0.312340  1.0  -0.5658
  O  O314  1  0.675920  0.584620  0.352040  1.0  -0.6005
  O  O315  1  0.697630  0.545780  0.546090  1.0  -0.9695
  O  O316  1  0.081140  0.501920  0.564260  1.0  -0.8123
  O  O317  1  0.455010  0.597020  0.454680  1.0  -0.6331
  O  O318  1  0.307270  0.626840  0.535390  1.0  -0.5996
  O  O319  1  0.871020  0.950070  0.187660  1.0  -0.5657
  O  O320  1  0.675920  0.915380  0.147960  1.0  -0.6
  O  O321  1  0.697630  0.954220  0.953910  1.0  -0.9688
  O  O322  1  0.081140  0.998080  0.935740  1.0  -0.8125
  O  O323  1  0.044990  0.402980  0.454680  1.0  -0.6323
  O  O324  1  0.192730  0.373160  0.535390  1.0  -0.5999
  O  O325  1  0.628980  0.049930  0.187660  1.0  -0.5656
  O  O326  1  0.824080  0.084620  0.147960  1.0  -0.5999
  O  O327  1  0.802370  0.045780  0.953910  1.0  -0.9673
  O  O328  1  0.418860  0.001920  0.935740  1.0  -0.8136
  O  O329  1  0.955010  0.902980  0.954680  1.0  -0.6322
  O  O330  1  0.807270  0.873160  0.035390  1.0  -0.6
  O  O331  1  0.371020  0.549930  0.687660  1.0  -0.5654
  O  O332  1  0.175920  0.584620  0.647960  1.0  -0.6001
  O  O333  1  0.197630  0.545780  0.453910  1.0  -0.9676
  O  O334  1  0.581140  0.501920  0.435740  1.0  -0.8128
  O  O335  1  0.544990  0.097020  0.954680  1.0  -0.6327
  O  O336  1  0.692730  0.126840  0.035390  1.0  -0.5997
  O  O337  1  0.128980  0.450070  0.687660  1.0  -0.5649
  O  O338  1  0.324080  0.415380  0.647960  1.0  -0.5997
  O  O339  1  0.302370  0.454220  0.453910  1.0  -0.9685
  O  O340  1  0.918860  0.498080  0.435740  1.0  -0.8134
  O  O341  1  0.544990  0.402980  0.545320  1.0  -0.6326
  O  O342  1  0.692730  0.373160  0.464610  1.0  -0.5996
  O  O343  1  0.128980  0.049930  0.812340  1.0  -0.5658
  O  O344  1  0.324080  0.084620  0.852040  1.0  -0.6003
  O  O345  1  0.302370  0.045780  0.046090  1.0  -0.9692
  O  O346  1  0.918860  0.001920  0.064260  1.0  -0.8134
  O  O347  1  0.955010  0.597020  0.545320  1.0  -0.6335
  O  O348  1  0.807270  0.626840  0.464610  1.0  -0.599
  O  O349  1  0.371020  0.950070  0.812340  1.0  -0.5664
  O  O350  1  0.175920  0.915380  0.852040  1.0  -0.6007
  O  O351  1  0.197630  0.954220  0.046090  1.0  -0.9704
  O  O352  1  0.581140  0.998080  0.064260  1.0  -0.8122
