# generated using pymatgen
data_Cu4WC6(S2N)2
_symmetry_space_group_name_H-M   'P 1'
_cell_length_a   10.89680000
_cell_length_b   23.05530000
_cell_length_c   23.28700000
_cell_angle_alpha   90.00000000
_cell_angle_beta   90.00000000
_cell_angle_gamma   90.00000000
_symmetry_Int_Tables_number   1
_chemical_formula_structural   Cu4WC6(S2N)2
_chemical_formula_sum   'Cu32 W8 C48 S32 N16'
_cell_volume   5850.36956092
_cell_formula_units_Z   8
loop_
 _symmetry_equiv_pos_site_id
 _symmetry_equiv_pos_as_xyz
  1  'x, y, z'
loop_
 _atom_site_type_symbol
 _atom_site_label
 _atom_site_symmetry_multiplicity
 _atom_site_fract_x
 _atom_site_fract_y
 _atom_site_fract_z
 _atom_site_occupancy
 _atom_site_charge
  Cu  Cu1  1  0.375000  0.875000  0.494920  1.0  0.3286
  Cu  Cu2  1  0.375000  0.375000  0.994920  1.0  0.3286
  Cu  Cu3  1  0.875000  0.875000  0.994920  1.0  0.3286
  Cu  Cu4  1  0.875000  0.375000  0.494920  1.0  0.3286
  Cu  Cu5  1  0.375000  0.875000  0.255080  1.0  0.3285
  Cu  Cu6  1  0.375000  0.375000  0.755080  1.0  0.3285
  Cu  Cu7  1  0.875000  0.875000  0.755080  1.0  0.3285
  Cu  Cu8  1  0.875000  0.375000  0.255080  1.0  0.3285
  Cu  Cu9  1  0.625000  0.125000  0.505080  1.0  0.3305
  Cu  Cu10  1  0.625000  0.625000  0.005080  1.0  0.3305
  Cu  Cu11  1  0.125000  0.125000  0.005080  1.0  0.3305
  Cu  Cu12  1  0.125000  0.625000  0.505080  1.0  0.3305
  Cu  Cu13  1  0.625000  0.125000  0.744920  1.0  0.3307
  Cu  Cu14  1  0.625000  0.625000  0.244920  1.0  0.3307
  Cu  Cu15  1  0.125000  0.125000  0.244920  1.0  0.3307
  Cu  Cu16  1  0.125000  0.625000  0.744920  1.0  0.3307
  Cu  Cu17  1  0.375000  0.994870  0.375000  1.0  0.3358
  Cu  Cu18  1  0.375000  0.494870  0.875000  1.0  0.3358
  Cu  Cu19  1  0.875000  0.994870  0.875000  1.0  0.3358
  Cu  Cu20  1  0.875000  0.494870  0.375000  1.0  0.3358
  Cu  Cu21  1  0.375000  0.755130  0.375000  1.0  0.3352
  Cu  Cu22  1  0.375000  0.255130  0.875000  1.0  0.3352
  Cu  Cu23  1  0.875000  0.755130  0.875000  1.0  0.3352
  Cu  Cu24  1  0.875000  0.255130  0.375000  1.0  0.3352
  Cu  Cu25  1  0.625000  0.005130  0.625000  1.0  0.3352
  Cu  Cu26  1  0.625000  0.505130  0.125000  1.0  0.3352
  Cu  Cu27  1  0.125000  0.005130  0.125000  1.0  0.3352
  Cu  Cu28  1  0.125000  0.505130  0.625000  1.0  0.3352
  Cu  Cu29  1  0.625000  0.244870  0.625000  1.0  0.3358
  Cu  Cu30  1  0.625000  0.744870  0.125000  1.0  0.3358
  Cu  Cu31  1  0.125000  0.244870  0.125000  1.0  0.3358
  Cu  Cu32  1  0.125000  0.744870  0.625000  1.0  0.3358
  W  W33  1  0.375000  0.875000  0.375000  1.0  0.5009
  W  W34  1  0.375000  0.375000  0.875000  1.0  0.5009
  W  W35  1  0.875000  0.875000  0.875000  1.0  0.5009
  W  W36  1  0.875000  0.375000  0.375000  1.0  0.5009
  W  W37  1  0.625000  0.125000  0.625000  1.0  0.5009
  W  W38  1  0.625000  0.625000  0.125000  1.0  0.5009
  W  W39  1  0.125000  0.125000  0.125000  1.0  0.5009
  W  W40  1  0.125000  0.625000  0.625000  1.0  0.5009
  C  C41  1  0.225900  0.072930  0.292090  1.0  -0.0264
  C  C42  1  0.276800  0.042910  0.322690  1.0  0.0378
  C  C43  1  0.225900  0.572930  0.792090  1.0  -0.0264
  C  C44  1  0.276800  0.542910  0.822690  1.0  0.0378
  C  C45  1  0.725900  0.072930  0.792090  1.0  -0.0264
  C  C46  1  0.776800  0.042910  0.822690  1.0  0.0378
  C  C47  1  0.725900  0.572930  0.292090  1.0  -0.0264
  C  C48  1  0.776800  0.542910  0.322690  1.0  0.0378
  C  C49  1  0.524100  0.677070  0.292090  1.0  -0.0271
  C  C50  1  0.473200  0.707090  0.322690  1.0  0.0395
  C  C51  1  0.524100  0.177070  0.792090  1.0  -0.0271
  C  C52  1  0.473200  0.207090  0.822690  1.0  0.0395
  C  C53  1  0.024100  0.677070  0.792090  1.0  -0.0271
  C  C54  1  0.973200  0.707090  0.822690  1.0  0.0395
  C  C55  1  0.024100  0.177070  0.292090  1.0  -0.0271
  C  C56  1  0.973200  0.207090  0.322690  1.0  0.0395
  C  C57  1  0.524100  0.072930  0.457910  1.0  -0.0281
  C  C58  1  0.473200  0.042910  0.427310  1.0  0.041
  C  C59  1  0.524100  0.572930  0.957910  1.0  -0.0281
  C  C60  1  0.473200  0.542910  0.927310  1.0  0.041
  C  C61  1  0.024100  0.072930  0.957910  1.0  -0.0281
  C  C62  1  0.973200  0.042910  0.927310  1.0  0.041
  C  C63  1  0.024100  0.572930  0.457910  1.0  -0.0281
  C  C64  1  0.973200  0.542910  0.427310  1.0  0.041
  C  C65  1  0.225900  0.677070  0.457910  1.0  -0.0248
  C  C66  1  0.276800  0.707090  0.427310  1.0  0.0382
  C  C67  1  0.225900  0.177070  0.957910  1.0  -0.0248
  C  C68  1  0.276800  0.207090  0.927310  1.0  0.0382
  C  C69  1  0.725900  0.677070  0.957910  1.0  -0.0248
  C  C70  1  0.776800  0.707090  0.927310  1.0  0.0382
  C  C71  1  0.725900  0.177070  0.457910  1.0  -0.0248
  C  C72  1  0.776800  0.207090  0.427310  1.0  0.0382
  C  C73  1  0.723200  0.957090  0.677310  1.0  0.0726
  C  C74  1  0.723200  0.457090  0.177310  1.0  0.0726
  C  C75  1  0.223200  0.957090  0.177310  1.0  0.0726
  C  C76  1  0.223200  0.457090  0.677310  1.0  0.0726
  C  C77  1  0.526800  0.292910  0.677310  1.0  0.0709
  C  C78  1  0.526800  0.792910  0.177310  1.0  0.0709
  C  C79  1  0.026800  0.292910  0.177310  1.0  0.0709
  C  C80  1  0.026800  0.792910  0.677310  1.0  0.0709
  C  C81  1  0.526800  0.957090  0.572690  1.0  0.0708
  C  C82  1  0.526800  0.457090  0.072690  1.0  0.0708
  C  C83  1  0.026800  0.957090  0.072690  1.0  0.0708
  C  C84  1  0.026800  0.457090  0.572690  1.0  0.0708
  C  C85  1  0.723200  0.292910  0.572690  1.0  0.0723
  C  C86  1  0.723200  0.792910  0.072690  1.0  0.0723
  C  C87  1  0.223200  0.292910  0.072690  1.0  0.0723
  C  C88  1  0.223200  0.792910  0.572690  1.0  0.0723
  S  S89  1  0.258690  0.930330  0.429800  1.0  -0.3052
  S  S90  1  0.258690  0.430330  0.929800  1.0  -0.3052
  S  S91  1  0.758690  0.930330  0.929800  1.0  -0.3052
  S  S92  1  0.758690  0.430330  0.429800  1.0  -0.3052
  S  S93  1  0.491310  0.819670  0.429800  1.0  -0.3053
  S  S94  1  0.491310  0.319670  0.929800  1.0  -0.3053
  S  S95  1  0.991310  0.819670  0.929800  1.0  -0.3053
  S  S96  1  0.991310  0.319670  0.429800  1.0  -0.3053
  S  S97  1  0.491310  0.930330  0.320200  1.0  -0.3053
  S  S98  1  0.491310  0.430330  0.820200  1.0  -0.3053
  S  S99  1  0.991310  0.930330  0.820200  1.0  -0.3053
  S  S100  1  0.991310  0.430330  0.320200  1.0  -0.3053
  S  S101  1  0.258690  0.819670  0.320200  1.0  -0.3054
  S  S102  1  0.258690  0.319670  0.820200  1.0  -0.3054
  S  S103  1  0.758690  0.819670  0.820200  1.0  -0.3054
  S  S104  1  0.758690  0.319670  0.320200  1.0  -0.3054
  S  S105  1  0.741310  0.069670  0.570200  1.0  -0.3054
  S  S106  1  0.741310  0.569670  0.070200  1.0  -0.3054
  S  S107  1  0.241310  0.069670  0.070200  1.0  -0.3054
  S  S108  1  0.241310  0.569670  0.570200  1.0  -0.3054
  S  S109  1  0.508690  0.180330  0.570200  1.0  -0.3051
  S  S110  1  0.508690  0.680330  0.070200  1.0  -0.3051
  S  S111  1  0.008690  0.180330  0.070200  1.0  -0.3051
  S  S112  1  0.008690  0.680330  0.570200  1.0  -0.3051
  S  S113  1  0.508690  0.069670  0.679800  1.0  -0.3054
  S  S114  1  0.508690  0.569670  0.179800  1.0  -0.3054
  S  S115  1  0.008690  0.069670  0.179800  1.0  -0.3054
  S  S116  1  0.008690  0.569670  0.679800  1.0  -0.3054
  S  S117  1  0.741310  0.180330  0.679800  1.0  -0.3054
  S  S118  1  0.741310  0.680330  0.179800  1.0  -0.3054
  S  S119  1  0.241310  0.180330  0.179800  1.0  -0.3054
  S  S120  1  0.241310  0.680330  0.679800  1.0  -0.3054
  N  N121  1  0.274100  0.822930  0.542090  1.0  -0.3906
  N  N122  1  0.274100  0.322930  0.042090  1.0  -0.3906
  N  N123  1  0.774100  0.822930  0.042090  1.0  -0.3906
  N  N124  1  0.774100  0.322930  0.542090  1.0  -0.3906
  N  N125  1  0.475900  0.927070  0.542090  1.0  -0.3875
  N  N126  1  0.475900  0.427070  0.042090  1.0  -0.3875
  N  N127  1  0.975900  0.927070  0.042090  1.0  -0.3875
  N  N128  1  0.975900  0.427070  0.542090  1.0  -0.3875
  N  N129  1  0.475900  0.822930  0.207910  1.0  -0.3892
  N  N130  1  0.475900  0.322930  0.707910  1.0  -0.3892
  N  N131  1  0.975900  0.822930  0.707910  1.0  -0.3892
  N  N132  1  0.975900  0.322930  0.207910  1.0  -0.3892
  N  N133  1  0.274100  0.927070  0.207910  1.0  -0.389
  N  N134  1  0.274100  0.427070  0.707910  1.0  -0.389
  N  N135  1  0.774100  0.927070  0.707910  1.0  -0.389
  N  N136  1  0.774100  0.427070  0.207910  1.0  -0.389
