# generated using pymatgen
data_Cu4MoC6(S2N)2
_symmetry_space_group_name_H-M   'P 1'
_cell_length_a   10.96960000
_cell_length_b   23.07920000
_cell_length_c   23.32760000
_cell_angle_alpha   90.00000000
_cell_angle_beta   90.00000000
_cell_angle_gamma   90.00000000
_symmetry_Int_Tables_number   1
_chemical_formula_structural   Cu4MoC6(S2N)2
_chemical_formula_sum   'Cu32 Mo8 C48 S32 N16'
_cell_volume   5905.83898180
_cell_formula_units_Z   8
loop_
 _symmetry_equiv_pos_site_id
 _symmetry_equiv_pos_as_xyz
  1  'x, y, z'
loop_
 _atom_site_type_symbol
 _atom_site_label
 _atom_site_symmetry_multiplicity
 _atom_site_fract_x
 _atom_site_fract_y
 _atom_site_fract_z
 _atom_site_occupancy
 _atom_site_charge
  Cu  Cu1  1  0.375000  0.875000  0.494110  1.0  0.331
  Cu  Cu2  1  0.375000  0.375000  0.994110  1.0  0.331
  Cu  Cu3  1  0.875000  0.875000  0.994110  1.0  0.331
  Cu  Cu4  1  0.875000  0.375000  0.494110  1.0  0.331
  Cu  Cu5  1  0.375000  0.875000  0.255890  1.0  0.3308
  Cu  Cu6  1  0.375000  0.375000  0.755890  1.0  0.3308
  Cu  Cu7  1  0.875000  0.875000  0.755890  1.0  0.3308
  Cu  Cu8  1  0.875000  0.375000  0.255890  1.0  0.3308
  Cu  Cu9  1  0.625000  0.125000  0.505890  1.0  0.3308
  Cu  Cu10  1  0.625000  0.625000  0.005890  1.0  0.3308
  Cu  Cu11  1  0.125000  0.125000  0.005890  1.0  0.3308
  Cu  Cu12  1  0.125000  0.625000  0.505890  1.0  0.3308
  Cu  Cu13  1  0.625000  0.125000  0.744110  1.0  0.331
  Cu  Cu14  1  0.625000  0.625000  0.244110  1.0  0.331
  Cu  Cu15  1  0.125000  0.125000  0.244110  1.0  0.331
  Cu  Cu16  1  0.125000  0.625000  0.744110  1.0  0.331
  Cu  Cu17  1  0.375000  0.994210  0.375000  1.0  0.3198
  Cu  Cu18  1  0.375000  0.494210  0.875000  1.0  0.3198
  Cu  Cu19  1  0.875000  0.994210  0.875000  1.0  0.3198
  Cu  Cu20  1  0.875000  0.494210  0.375000  1.0  0.3198
  Cu  Cu21  1  0.375000  0.755790  0.375000  1.0  0.3196
  Cu  Cu22  1  0.375000  0.255790  0.875000  1.0  0.3196
  Cu  Cu23  1  0.875000  0.755790  0.875000  1.0  0.3196
  Cu  Cu24  1  0.875000  0.255790  0.375000  1.0  0.3196
  Cu  Cu25  1  0.625000  0.005790  0.625000  1.0  0.3196
  Cu  Cu26  1  0.625000  0.505790  0.125000  1.0  0.3196
  Cu  Cu27  1  0.125000  0.005790  0.125000  1.0  0.3196
  Cu  Cu28  1  0.125000  0.505790  0.625000  1.0  0.3196
  Cu  Cu29  1  0.625000  0.244210  0.625000  1.0  0.3198
  Cu  Cu30  1  0.625000  0.744210  0.125000  1.0  0.3198
  Cu  Cu31  1  0.125000  0.244210  0.125000  1.0  0.3198
  Cu  Cu32  1  0.125000  0.744210  0.625000  1.0  0.3198
  Mo  Mo33  1  0.375000  0.875000  0.375000  1.0  0.5357
  Mo  Mo34  1  0.375000  0.375000  0.875000  1.0  0.5357
  Mo  Mo35  1  0.875000  0.875000  0.875000  1.0  0.5357
  Mo  Mo36  1  0.875000  0.375000  0.375000  1.0  0.5357
  Mo  Mo37  1  0.625000  0.125000  0.625000  1.0  0.5357
  Mo  Mo38  1  0.625000  0.625000  0.125000  1.0  0.5357
  Mo  Mo39  1  0.125000  0.125000  0.125000  1.0  0.5357
  Mo  Mo40  1  0.125000  0.625000  0.625000  1.0  0.5357
  C  C41  1  0.274100  0.823230  0.542150  1.0  0.016
  C  C42  1  0.277100  0.043180  0.322500  1.0  0.01
  C  C43  1  0.274100  0.323230  0.042150  1.0  0.016
  C  C44  1  0.277100  0.543180  0.822500  1.0  0.01
  C  C45  1  0.774100  0.823230  0.042150  1.0  0.016
  C  C46  1  0.777100  0.043180  0.822500  1.0  0.01
  C  C47  1  0.774100  0.323230  0.542150  1.0  0.016
  C  C48  1  0.777100  0.543180  0.322500  1.0  0.01
  C  C49  1  0.475900  0.926770  0.542150  1.0  0.0186
  C  C50  1  0.472900  0.706820  0.322500  1.0  0.0115
  C  C51  1  0.475900  0.426770  0.042150  1.0  0.0186
  C  C52  1  0.472900  0.206820  0.822500  1.0  0.0115
  C  C53  1  0.975900  0.926770  0.042150  1.0  0.0186
  C  C54  1  0.972900  0.706820  0.822500  1.0  0.0115
  C  C55  1  0.975900  0.426770  0.542150  1.0  0.0186
  C  C56  1  0.972900  0.206820  0.322500  1.0  0.0115
  C  C57  1  0.475900  0.823230  0.207850  1.0  -0.0075
  C  C58  1  0.475900  0.323230  0.707850  1.0  -0.0075
  C  C59  1  0.975900  0.823230  0.707850  1.0  -0.0075
  C  C60  1  0.975900  0.323230  0.207850  1.0  -0.0075
  C  C61  1  0.274100  0.926770  0.207850  1.0  -0.0069
  C  C62  1  0.274100  0.426770  0.707850  1.0  -0.0069
  C  C63  1  0.774100  0.926770  0.707850  1.0  -0.0069
  C  C64  1  0.774100  0.426770  0.207850  1.0  -0.0069
  C  C65  1  0.725900  0.176770  0.457850  1.0  0.0177
  C  C66  1  0.722900  0.956820  0.677500  1.0  0.0123
  C  C67  1  0.725900  0.676770  0.957850  1.0  0.0177
  C  C68  1  0.722900  0.456820  0.177500  1.0  0.0123
  C  C69  1  0.225900  0.176770  0.957850  1.0  0.0177
  C  C70  1  0.222900  0.956820  0.177500  1.0  0.0123
  C  C71  1  0.225900  0.676770  0.457850  1.0  0.0177
  C  C72  1  0.222900  0.456820  0.677500  1.0  0.0123
  C  C73  1  0.524100  0.073230  0.457850  1.0  0.0156
  C  C74  1  0.527100  0.293180  0.677500  1.0  0.0106
  C  C75  1  0.524100  0.573230  0.957850  1.0  0.0156
  C  C76  1  0.527100  0.793180  0.177500  1.0  0.0106
  C  C77  1  0.024100  0.073230  0.957850  1.0  0.0156
  C  C78  1  0.027100  0.293180  0.177500  1.0  0.0106
  C  C79  1  0.024100  0.573230  0.457850  1.0  0.0156
  C  C80  1  0.027100  0.793180  0.677500  1.0  0.0106
  C  C81  1  0.524100  0.176770  0.792150  1.0  -0.0091
  C  C82  1  0.524100  0.676770  0.292150  1.0  -0.0091
  C  C83  1  0.024100  0.176770  0.292150  1.0  -0.0091
  C  C84  1  0.024100  0.676770  0.792150  1.0  -0.0091
  C  C85  1  0.725900  0.073230  0.792150  1.0  -0.009
  C  C86  1  0.725900  0.573230  0.292150  1.0  -0.009
  C  C87  1  0.225900  0.073230  0.292150  1.0  -0.009
  C  C88  1  0.225900  0.573230  0.792150  1.0  -0.009
  S  S89  1  0.259410  0.930630  0.430140  1.0  -0.2688
  S  S90  1  0.259410  0.430630  0.930140  1.0  -0.2688
  S  S91  1  0.759410  0.930630  0.930140  1.0  -0.2688
  S  S92  1  0.759410  0.430630  0.430140  1.0  -0.2688
  S  S93  1  0.490590  0.819370  0.430140  1.0  -0.2691
  S  S94  1  0.490590  0.319370  0.930140  1.0  -0.2691
  S  S95  1  0.990590  0.819370  0.930140  1.0  -0.2691
  S  S96  1  0.990590  0.319370  0.430140  1.0  -0.2691
  S  S97  1  0.490590  0.930630  0.319860  1.0  -0.2685
  S  S98  1  0.490590  0.430630  0.819860  1.0  -0.2685
  S  S99  1  0.990590  0.930630  0.819860  1.0  -0.2685
  S  S100  1  0.990590  0.430630  0.319860  1.0  -0.2685
  S  S101  1  0.259410  0.819370  0.319860  1.0  -0.2691
  S  S102  1  0.259410  0.319370  0.819860  1.0  -0.2691
  S  S103  1  0.759410  0.819370  0.819860  1.0  -0.2691
  S  S104  1  0.759410  0.319370  0.319860  1.0  -0.2691
  S  S105  1  0.740590  0.069370  0.569860  1.0  -0.2686
  S  S106  1  0.740590  0.569370  0.069860  1.0  -0.2686
  S  S107  1  0.240590  0.069370  0.069860  1.0  -0.2686
  S  S108  1  0.240590  0.569370  0.569860  1.0  -0.2686
  S  S109  1  0.509410  0.180630  0.569860  1.0  -0.2686
  S  S110  1  0.509410  0.680630  0.069860  1.0  -0.2686
  S  S111  1  0.009410  0.180630  0.069860  1.0  -0.2686
  S  S112  1  0.009410  0.680630  0.569860  1.0  -0.2686
  S  S113  1  0.509410  0.069370  0.680140  1.0  -0.2691
  S  S114  1  0.509410  0.569370  0.180140  1.0  -0.2691
  S  S115  1  0.009410  0.069370  0.180140  1.0  -0.2691
  S  S116  1  0.009410  0.569370  0.680140  1.0  -0.2691
  S  S117  1  0.740590  0.180630  0.680140  1.0  -0.2691
  S  S118  1  0.740590  0.680630  0.180140  1.0  -0.2691
  S  S119  1  0.240590  0.180630  0.180140  1.0  -0.2691
  S  S120  1  0.240590  0.680630  0.680140  1.0  -0.2691
  N  N121  1  0.277100  0.706820  0.427500  1.0  -0.4017
  N  N122  1  0.277100  0.206820  0.927500  1.0  -0.4017
  N  N123  1  0.777100  0.706820  0.927500  1.0  -0.4017
  N  N124  1  0.777100  0.206820  0.427500  1.0  -0.4017
  N  N125  1  0.472900  0.043180  0.427500  1.0  -0.3988
  N  N126  1  0.472900  0.543180  0.927500  1.0  -0.3988
  N  N127  1  0.972900  0.043180  0.927500  1.0  -0.3988
  N  N128  1  0.972900  0.543180  0.427500  1.0  -0.3988
  N  N129  1  0.722900  0.293180  0.572500  1.0  -0.4002
  N  N130  1  0.722900  0.793180  0.072500  1.0  -0.4002
  N  N131  1  0.222900  0.293180  0.072500  1.0  -0.4002
  N  N132  1  0.222900  0.793180  0.572500  1.0  -0.4002
  N  N133  1  0.527100  0.956820  0.572500  1.0  -0.4025
  N  N134  1  0.527100  0.456820  0.072500  1.0  -0.4025
  N  N135  1  0.027100  0.956820  0.072500  1.0  -0.4025
  N  N136  1  0.027100  0.456820  0.572500  1.0  -0.4025
