# generated using pymatgen
data_Mn2Ga5(PO4)8
_symmetry_space_group_name_H-M   'P 1'
_cell_length_a   9.13140000
_cell_length_b   12.74960000
_cell_length_c   14.74790000
_cell_angle_alpha   89.48000000
_cell_angle_beta   86.24900000
_cell_angle_gamma   72.41900000
_symmetry_Int_Tables_number   1
_chemical_formula_structural   Mn2Ga5(PO4)8
_chemical_formula_sum   'Mn4 Ga10 P16 O64'
_cell_volume   1633.16777107
_cell_formula_units_Z   2
loop_
 _symmetry_equiv_pos_site_id
 _symmetry_equiv_pos_as_xyz
  1  'x, y, z'
loop_
 _atom_site_type_symbol
 _atom_site_label
 _atom_site_symmetry_multiplicity
 _atom_site_fract_x
 _atom_site_fract_y
 _atom_site_fract_z
 _atom_site_occupancy
 _atom_site_charge
  Mn  Mn1  1  0.819690  0.435320  0.256790  1.0  1.1429
  Mn  Mn2  1  0.036840  0.299380  0.893130  1.0  1.1347
  Mn  Mn3  1  0.180310  0.564680  0.743210  1.0  1.144
  Mn  Mn4  1  0.963160  0.700620  0.106870  1.0  1.1372
  Ga  Ga5  1  0.957030  0.133290  0.389840  1.0  1.6797
  Ga  Ga6  1  0.942810  0.127960  0.139900  1.0  1.7011
  Ga  Ga7  1  0.314590  0.307230  0.245110  1.0  1.7093
  Ga  Ga8  1  0.943570  0.644750  0.380060  1.0  1.731
  Ga  Ga9  1  0.320040  0.809910  0.234240  1.0  1.751
  Ga  Ga10  1  0.042970  0.866710  0.610160  1.0  1.6795
  Ga  Ga11  1  0.057190  0.872040  0.860100  1.0  1.7034
  Ga  Ga12  1  0.685410  0.692770  0.754890  1.0  1.7081
  Ga  Ga13  1  0.056430  0.355250  0.619940  1.0  1.7308
  Ga  Ga14  1  0.679960  0.190090  0.765760  1.0  1.7503
  P  P15  1  0.673110  0.264470  0.282710  1.0  1.8965
  P  P16  1  0.220230  0.074640  0.283120  1.0  1.7908
  P  P17  1  0.042570  0.369380  0.399160  1.0  1.8617
  P  P18  1  0.092100  0.326870  0.093040  1.0  1.9249
  P  P19  1  0.686080  0.692800  0.244890  1.0  2.019
  P  P20  1  0.233050  0.575540  0.230190  1.0  2.0525
  P  P21  1  0.037120  0.865900  0.394810  1.0  1.9835
  P  P22  1  0.856800  0.120920  0.937230  1.0  1.8595
  P  P23  1  0.326890  0.735530  0.717290  1.0  1.9029
  P  P24  1  0.779770  0.925360  0.716880  1.0  1.7889
  P  P25  1  0.957430  0.630620  0.600840  1.0  1.8615
  P  P26  1  0.907900  0.673130  0.906960  1.0  1.9255
  P  P27  1  0.313920  0.307200  0.755110  1.0  2.0206
  P  P28  1  0.766950  0.424460  0.769810  1.0  2.0458
  P  P29  1  0.962880  0.134100  0.605190  1.0  1.9837
  P  P30  1  0.143200  0.879080  0.062770  1.0  1.8608
  O  O31  1  0.646200  0.382500  0.316600  1.0  -0.7102
  O  O32  1  0.744200  0.179900  0.355300  1.0  -0.7296
  O  O33  1  0.523400  0.247300  0.258900  1.0  -0.8984
  O  O34  1  0.786700  0.251400  0.199000  1.0  -0.8902
  O  O35  1  0.051400  0.106500  0.253800  1.0  -0.8588
  O  O36  1  0.317300  0.964100  0.245200  1.0  -0.7981
  O  O37  1  0.189400  0.076400  0.387600  1.0  -0.7366
  O  O38  1  0.301600  0.157400  0.249900  1.0  -0.8365
  O  O39  1  0.939500  0.478200  0.360200  1.0  -0.8863
  O  O40  1  0.954600  0.616600  0.500100  1.0  -0.9283
  O  O41  1  0.969000  0.283900  0.372000  1.0  -0.8933
  O  O42  1  0.209000  0.345100  0.358900  1.0  -0.8174
  O  O43  1  0.975100  0.408700  0.152800  1.0  -0.8017
  O  O44  1  0.255500  0.310900  0.122900  1.0  -0.7499
  O  O45  1  0.065000  0.215400  0.088100  1.0  -0.8385
  O  O46  1  0.092800  0.369700  0.994500  1.0  -0.7247
  O  O47  1  0.693600  0.582000  0.204900  1.0  -0.7126
  O  O48  1  0.213200  0.253400  0.814500  1.0  -0.8437
  O  O49  1  0.747000  0.677200  0.339700  1.0  -0.8052
  O  O50  1  0.525400  0.772300  0.255800  1.0  -0.9072
  O  O51  1  0.331000  0.456800  0.227200  1.0  -0.8
  O  O52  1  0.862000  0.402700  0.853300  1.0  -0.8441
  O  O53  1  0.135300  0.597400  0.319500  1.0  -0.9178
  O  O54  1  0.338600  0.648600  0.227700  1.0  -0.781
  O  O55  1  0.929900  0.794800  0.388500  1.0  -0.8092
  O  O56  1  0.169800  0.828700  0.324200  1.0  -0.9553
  O  O57  1  0.893800  0.145700  0.514100  1.0  -0.8281
  O  O58  1  0.937700  0.983300  0.379100  1.0  -0.7725
  O  O59  1  0.989800  0.164100  0.900000  1.0  -0.793
  O  O60  1  0.290500  0.821300  0.111300  1.0  -0.8224
  O  O61  1  0.816500  0.148400  0.037100  1.0  -0.733
  O  O62  1  0.098800  0.001800  0.081200  1.0  -0.8128
  O  O63  1  0.353800  0.617500  0.683400  1.0  -0.7099
  O  O64  1  0.255800  0.820100  0.644700  1.0  -0.7318
  O  O65  1  0.476600  0.752700  0.741100  1.0  -0.9009
  O  O66  1  0.213300  0.748600  0.801000  1.0  -0.8907
  O  O67  1  0.948600  0.893500  0.746200  1.0  -0.8591
  O  O68  1  0.682700  0.035900  0.754800  1.0  -0.7984
  O  O69  1  0.810600  0.923600  0.612400  1.0  -0.7379
  O  O70  1  0.698400  0.842600  0.750100  1.0  -0.8376
  O  O71  1  0.060500  0.521800  0.639800  1.0  -0.8857
  O  O72  1  0.045400  0.383400  0.499900  1.0  -0.926
  O  O73  1  0.031000  0.716100  0.628000  1.0  -0.894
  O  O74  1  0.791000  0.654900  0.641100  1.0  -0.8221
  O  O75  1  0.024900  0.591300  0.847200  1.0  -0.7988
  O  O76  1  0.744500  0.689100  0.877100  1.0  -0.7465
  O  O77  1  0.935000  0.784600  0.911900  1.0  -0.8383
  O  O78  1  0.907200  0.630300  0.005500  1.0  -0.7239
  O  O79  1  0.306400  0.418000  0.795100  1.0  -0.7115
  O  O80  1  0.786800  0.746600  0.185500  1.0  -0.8458
  O  O81  1  0.253000  0.322800  0.660300  1.0  -0.8045
  O  O82  1  0.474600  0.227700  0.744200  1.0  -0.9069
  O  O83  1  0.669000  0.543200  0.772800  1.0  -0.8009
  O  O84  1  0.138000  0.597300  0.146700  1.0  -0.8427
  O  O85  1  0.864700  0.402600  0.680500  1.0  -0.9196
  O  O86  1  0.661400  0.351400  0.772300  1.0  -0.7807
  O  O87  1  0.070100  0.205200  0.611500  1.0  -0.8085
  O  O88  1  0.830200  0.171300  0.675800  1.0  -0.9563
  O  O89  1  0.106200  0.854300  0.485900  1.0  -0.8305
  O  O90  1  0.062300  0.016700  0.620900  1.0  -0.7719
  O  O91  1  0.010200  0.835900  0.100000  1.0  -0.7936
  O  O92  1  0.709500  0.178700  0.888700  1.0  -0.8209
  O  O93  1  0.183500  0.851600  0.962900  1.0  -0.7347
  O  O94  1  0.901200  0.998200  0.918800  1.0  -0.8136
