# generated using pymatgen
data_Zn4H28C28N8O5
_symmetry_space_group_name_H-M   'P 1'
_cell_length_a   11.52280000
_cell_length_b   11.52280000
_cell_length_c   25.76920000
_cell_angle_alpha   90.00000000
_cell_angle_beta   90.00000000
_cell_angle_gamma   90.00000000
_symmetry_Int_Tables_number   1
_chemical_formula_structural   Zn4H28C28N8O5
_chemical_formula_sum   'Zn8 H56 C56 N16 O10'
_cell_volume   3421.50346434
_cell_formula_units_Z   2
loop_
 _symmetry_equiv_pos_site_id
 _symmetry_equiv_pos_as_xyz
  1  'x, y, z'
loop_
 _atom_site_type_symbol
 _atom_site_label
 _atom_site_symmetry_multiplicity
 _atom_site_fract_x
 _atom_site_fract_y
 _atom_site_fract_z
 _atom_site_occupancy
 _atom_site_charge
  Zn  Zn1  1  0.598610  0.598610  0.792180  1.0  0.8716
  Zn  Zn2  1  0.401390  0.401390  0.792180  1.0  0.8715
  Zn  Zn3  1  0.401390  0.598610  0.292180  1.0  0.8716
  Zn  Zn4  1  0.598610  0.401390  0.292180  1.0  0.8715
  Zn  Zn5  1  0.401390  0.598610  0.707820  1.0  0.8717
  Zn  Zn6  1  0.598610  0.401390  0.707820  1.0  0.8716
  Zn  Zn7  1  0.598610  0.598610  0.207820  1.0  0.8716
  Zn  Zn8  1  0.401390  0.401390  0.207820  1.0  0.8718
  H  H9  1  0.909500  0.715900  0.812800  1.0  0.126
  H  H10  1  0.827800  0.645100  0.849800  1.0  0.1241
  H  H11  1  0.958800  0.610600  0.844400  1.0  0.1291
  H  H12  1  0.090500  0.284100  0.812800  1.0  0.1243
  H  H13  1  0.172200  0.354900  0.849800  1.0  0.1239
  H  H14  1  0.041200  0.389400  0.844400  1.0  0.1299
  H  H15  1  0.284100  0.909500  0.312800  1.0  0.1247
  H  H16  1  0.354900  0.827800  0.349800  1.0  0.1245
  H  H17  1  0.389400  0.958800  0.344400  1.0  0.1303
  H  H18  1  0.715900  0.090500  0.312800  1.0  0.125
  H  H19  1  0.645100  0.172200  0.349800  1.0  0.1243
  H  H20  1  0.610600  0.041200  0.344400  1.0  0.1309
  H  H21  1  0.090500  0.715900  0.687200  1.0  0.1251
  H  H22  1  0.172200  0.645100  0.650200  1.0  0.123
  H  H23  1  0.041200  0.610600  0.655600  1.0  0.1291
  H  H24  1  0.909500  0.284100  0.687200  1.0  0.1245
  H  H25  1  0.827800  0.354900  0.650200  1.0  0.1241
  H  H26  1  0.958800  0.389400  0.655600  1.0  0.1298
  H  H27  1  0.715900  0.909500  0.187200  1.0  0.1257
  H  H28  1  0.645100  0.827800  0.150200  1.0  0.1246
  H  H29  1  0.610600  0.958800  0.155600  1.0  0.1312
  H  H30  1  0.284100  0.090500  0.187200  1.0  0.1244
  H  H31  1  0.354900  0.172200  0.150200  1.0  0.1237
  H  H32  1  0.389400  0.041200  0.155600  1.0  0.1299
  H  H33  1  0.090500  0.284100  0.187200  1.0  0.1242
  H  H34  1  0.172200  0.354900  0.150200  1.0  0.1227
  H  H35  1  0.041200  0.389400  0.155600  1.0  0.1296
  H  H36  1  0.909500  0.715900  0.187200  1.0  0.1258
  H  H37  1  0.827800  0.645100  0.150200  1.0  0.1243
  H  H38  1  0.958800  0.610600  0.155600  1.0  0.1292
  H  H39  1  0.715900  0.090500  0.687200  1.0  0.1252
  H  H40  1  0.645100  0.172200  0.650200  1.0  0.124
  H  H41  1  0.610600  0.041200  0.655600  1.0  0.1306
  H  H42  1  0.284100  0.909500  0.687200  1.0  0.1241
  H  H43  1  0.354900  0.827800  0.650200  1.0  0.1243
  H  H44  1  0.389400  0.958800  0.655600  1.0  0.1303
  H  H45  1  0.909500  0.284100  0.312800  1.0  0.1245
  H  H46  1  0.827800  0.354900  0.349800  1.0  0.1244
  H  H47  1  0.958800  0.389400  0.344400  1.0  0.1295
  H  H48  1  0.090500  0.715900  0.312800  1.0  0.1255
  H  H49  1  0.172200  0.645100  0.349800  1.0  0.1237
  H  H50  1  0.041200  0.610600  0.344400  1.0  0.1298
  H  H51  1  0.284100  0.090500  0.812800  1.0  0.1249
  H  H52  1  0.354900  0.172200  0.849800  1.0  0.1237
  H  H53  1  0.389400  0.041200  0.844400  1.0  0.1307
  H  H54  1  0.715900  0.909500  0.812800  1.0  0.1254
  H  H55  1  0.645100  0.827800  0.849800  1.0  0.1251
  H  H56  1  0.610600  0.958800  0.844400  1.0  0.1306
  H  H57  1  0.621100  0.621100  0.955600  1.0  0.102
  H  H58  1  0.378900  0.378900  0.955600  1.0  0.1019
  H  H59  1  0.378900  0.621100  0.455600  1.0  0.1023
  H  H60  1  0.621100  0.378900  0.455600  1.0  0.1021
  H  H61  1  0.378900  0.621100  0.544400  1.0  0.1017
  H  H62  1  0.621100  0.378900  0.544400  1.0  0.1019
  H  H63  1  0.621100  0.621100  0.044400  1.0  0.1015
  H  H64  1  0.378900  0.378900  0.044400  1.0  0.1018
  C  C65  1  0.892300  0.640100  0.826300  1.0  -0.3741
  C  C66  1  0.862500  0.561000  0.782780  1.0  0.2434
  C  C67  1  0.107700  0.359900  0.826300  1.0  -0.375
  C  C68  1  0.137500  0.439000  0.782780  1.0  0.2439
  C  C69  1  0.359900  0.892300  0.326300  1.0  -0.3726
  C  C70  1  0.439000  0.862500  0.282780  1.0  0.2432
  C  C71  1  0.640100  0.107700  0.326300  1.0  -0.3745
  C  C72  1  0.561000  0.137500  0.282780  1.0  0.2437
  C  C73  1  0.107700  0.640100  0.673700  1.0  -0.3738
  C  C74  1  0.137500  0.561000  0.717220  1.0  0.2413
  C  C75  1  0.892300  0.359900  0.673700  1.0  -0.3754
  C  C76  1  0.862500  0.439000  0.717220  1.0  0.2419
  C  C77  1  0.640100  0.892300  0.173700  1.0  -0.3735
  C  C78  1  0.561000  0.862500  0.217220  1.0  0.2417
  C  C79  1  0.359900  0.107700  0.173700  1.0  -0.3742
  C  C80  1  0.439000  0.137500  0.217220  1.0  0.2418
  C  C81  1  0.107700  0.359900  0.173700  1.0  -0.3733
  C  C82  1  0.137500  0.439000  0.217220  1.0  0.244
  C  C83  1  0.892300  0.640100  0.173700  1.0  -0.3766
  C  C84  1  0.862500  0.561000  0.217220  1.0  0.2435
  C  C85  1  0.640100  0.107700  0.673700  1.0  -0.3734
  C  C86  1  0.561000  0.137500  0.717220  1.0  0.2438
  C  C87  1  0.359900  0.892300  0.673700  1.0  -0.3742
  C  C88  1  0.439000  0.862500  0.717220  1.0  0.2435
  C  C89  1  0.892300  0.359900  0.326300  1.0  -0.3737
  C  C90  1  0.862500  0.439000  0.282780  1.0  0.2417
  C  C91  1  0.107700  0.640100  0.326300  1.0  -0.375
  C  C92  1  0.137500  0.561000  0.282780  1.0  0.2414
  C  C93  1  0.359900  0.107700  0.826300  1.0  -0.3725
  C  C94  1  0.439000  0.137500  0.782780  1.0  0.2415
  C  C95  1  0.640100  0.892300  0.826300  1.0  -0.3746
  C  C96  1  0.561000  0.862500  0.782780  1.0  0.2415
  C  C97  1  0.571400  0.571400  0.973300  1.0  -0.0579
  C  C98  1  0.428600  0.428600  0.973300  1.0  -0.057
  C  C99  1  0.428600  0.571400  0.473300  1.0  -0.0582
  C  C100  1  0.571400  0.428600  0.473300  1.0  -0.057
  C  C101  1  0.428600  0.571400  0.526700  1.0  -0.0642
  C  C102  1  0.571400  0.428600  0.526700  1.0  -0.0626
  C  C103  1  0.571400  0.571400  0.026700  1.0  -0.0637
  C  C104  1  0.428600  0.428600  0.026700  1.0  -0.0585
  C  C105  1  0.935200  0.500000  0.750000  1.0  -0.201
  C  C106  1  0.064800  0.500000  0.750000  1.0  -0.2012
  C  C107  1  0.500000  0.935200  0.250000  1.0  -0.2007
  C  C108  1  0.500000  0.064800  0.250000  1.0  -0.201
  C  C109  1  0.064800  0.500000  0.250000  1.0  -0.2012
  C  C110  1  0.935200  0.500000  0.250000  1.0  -0.201
  C  C111  1  0.500000  0.064800  0.750000  1.0  -0.201
  C  C112  1  0.500000  0.935200  0.750000  1.0  -0.2007
  C  C113  1  0.500000  0.500000  0.888100  1.0  0.7116
  C  C114  1  0.500000  0.500000  0.946000  1.0  -0.1226
  C  C115  1  0.500000  0.500000  0.388100  1.0  0.7116
  C  C116  1  0.500000  0.500000  0.446000  1.0  -0.1226
  C  C117  1  0.500000  0.500000  0.611900  1.0  0.7108
  C  C118  1  0.500000  0.500000  0.554000  1.0  -0.1224
  C  C119  1  0.500000  0.500000  0.111900  1.0  0.7108
  C  C120  1  0.500000  0.500000  0.054000  1.0  -0.1224
  N  N121  1  0.752300  0.538500  0.770580  1.0  -0.3302
  N  N122  1  0.247700  0.461500  0.770580  1.0  -0.3306
  N  N123  1  0.461500  0.752300  0.270580  1.0  -0.3293
  N  N124  1  0.538500  0.247700  0.270580  1.0  -0.3298
  N  N125  1  0.247700  0.538500  0.729420  1.0  -0.33
  N  N126  1  0.752300  0.461500  0.729420  1.0  -0.33
  N  N127  1  0.538500  0.752300  0.229420  1.0  -0.3289
  N  N128  1  0.461500  0.247700  0.229420  1.0  -0.3293
  N  N129  1  0.247700  0.461500  0.229420  1.0  -0.3302
  N  N130  1  0.752300  0.538500  0.229420  1.0  -0.3297
  N  N131  1  0.538500  0.247700  0.729420  1.0  -0.3294
  N  N132  1  0.461500  0.752300  0.729420  1.0  -0.329
  N  N133  1  0.752300  0.461500  0.270580  1.0  -0.3303
  N  N134  1  0.247700  0.538500  0.270580  1.0  -0.3305
  N  N135  1  0.461500  0.247700  0.770580  1.0  -0.3298
  N  N136  1  0.538500  0.752300  0.770580  1.0  -0.3292
  O  O137  1  0.568400  0.568400  0.866190  1.0  -0.597
  O  O138  1  0.431600  0.431600  0.866190  1.0  -0.597
  O  O139  1  0.431600  0.568400  0.366190  1.0  -0.5969
  O  O140  1  0.568400  0.431600  0.366190  1.0  -0.597
  O  O141  1  0.431600  0.568400  0.633810  1.0  -0.5968
  O  O142  1  0.568400  0.431600  0.633810  1.0  -0.5968
  O  O143  1  0.568400  0.568400  0.133810  1.0  -0.597
  O  O144  1  0.431600  0.431600  0.133810  1.0  -0.5968
  O  O145  1  0.500000  0.500000  0.750000  1.0  -0.9819
  O  O146  1  0.500000  0.500000  0.250000  1.0  -0.9819
