# generated using pymatgen
data_TbH24C31N5O14
_symmetry_space_group_name_H-M   'P 1'
_cell_length_a   19.85300000
_cell_length_b   24.15120000
_cell_length_c   30.57340000
_cell_angle_alpha   90.00000000
_cell_angle_beta   90.00000000
_cell_angle_gamma   109.41100000
_symmetry_Int_Tables_number   1
_chemical_formula_structural   TbH24C31N5O14
_chemical_formula_sum   'Tb4 H96 C124 N20 O56'
_cell_volume   13825.90119314
_cell_formula_units_Z   4
loop_
 _symmetry_equiv_pos_site_id
 _symmetry_equiv_pos_as_xyz
  1  'x, y, z'
loop_
 _atom_site_type_symbol
 _atom_site_label
 _atom_site_symmetry_multiplicity
 _atom_site_fract_x
 _atom_site_fract_y
 _atom_site_fract_z
 _atom_site_occupancy
 _atom_site_charge
  Tb  Tb1  1  0.978170  0.913660  0.495440  1.0  2.223
  Tb  Tb2  1  0.021830  0.586340  0.995440  1.0  2.2225
  Tb  Tb3  1  0.021830  0.086340  0.504560  1.0  2.2219
  Tb  Tb4  1  0.978170  0.413660  0.004560  1.0  2.2223
  H  H5  1  0.790200  0.568700  0.497100  1.0  0.1353
  H  H6  1  0.909300  0.611800  0.513100  1.0  0.1257
  H  H7  1  0.958100  0.712600  0.520400  1.0  0.1319
  H  H8  1  0.767700  0.727900  0.488700  1.0  0.1324
  H  H9  1  0.687400  0.583800  0.455300  1.0  0.139
  H  H10  1  0.674900  0.645000  0.460800  1.0  0.1416
  H  H11  1  0.223500  0.991400  0.299400  1.0  0.1389
  H  H12  1  0.246200  0.088200  0.321600  1.0  0.1188
  H  H13  1  0.187600  0.109300  0.381800  1.0  0.1299
  H  H14  1  0.093300  0.936000  0.403200  1.0  0.1217
  H  H15  1  0.183300  0.887500  0.320800  1.0  0.1198
  H  H16  1  0.137200  0.867400  0.363900  1.0  0.126
  H  H17  1  0.049900  0.780700  0.325500  1.0  0.1391
  H  H18  1  0.102100  0.798800  0.285000  1.0  0.1265
  H  H19  1  0.006000  0.804700  0.242000  1.0  0.1271
  H  H20  1  0.954600  0.781900  0.282600  1.0  0.1255
  H  H21  1  0.751800  0.006100  0.298100  1.0  0.1404
  H  H22  1  0.738500  0.915300  0.330100  1.0  0.1221
  H  H23  1  0.810800  0.908800  0.388300  1.0  0.1259
  H  H24  1  0.911500  0.083400  0.381900  1.0  0.1306
  H  H25  1  0.801100  0.111200  0.300400  1.0  0.1172
  H  H26  1  0.845700  0.141500  0.342200  1.0  0.1179
  H  H27  1  0.925300  0.721200  0.201800  1.0  0.1319
  H  H28  1  0.879000  0.693600  0.243500  1.0  0.129
  H  H29  1  0.209800  0.931300  0.997100  1.0  0.1347
  H  H30  1  0.090700  0.888200  0.013100  1.0  0.1251
  H  H31  1  0.041900  0.787400  0.020400  1.0  0.1315
  H  H32  1  0.232300  0.772100  0.988700  1.0  0.1319
  H  H33  1  0.312600  0.916200  0.955300  1.0  0.1381
  H  H34  1  0.325100  0.855000  0.960800  1.0  0.1424
  H  H35  1  0.776500  0.508600  0.799400  1.0  0.1393
  H  H36  1  0.753800  0.411800  0.821600  1.0  0.1182
  H  H37  1  0.812400  0.390700  0.881800  1.0  0.1297
  H  H38  1  0.906700  0.564000  0.903200  1.0  0.1214
  H  H39  1  0.816700  0.612500  0.820800  1.0  0.1181
  H  H40  1  0.862800  0.632600  0.863900  1.0  0.1262
  H  H41  1  0.950100  0.719300  0.825500  1.0  0.1389
  H  H42  1  0.897900  0.701200  0.785000  1.0  0.1249
  H  H43  1  0.994000  0.695300  0.742000  1.0  0.1266
  H  H44  1  0.045400  0.718100  0.782600  1.0  0.1254
  H  H45  1  0.248200  0.493900  0.798100  1.0  0.1403
  H  H46  1  0.261500  0.584700  0.830100  1.0  0.1227
  H  H47  1  0.189200  0.591200  0.888300  1.0  0.1269
  H  H48  1  0.088500  0.416600  0.881900  1.0  0.1306
  H  H49  1  0.198900  0.388800  0.800400  1.0  0.1197
  H  H50  1  0.154300  0.358500  0.842200  1.0  0.1171
  H  H51  1  0.074700  0.778800  0.701800  1.0  0.1316
  H  H52  1  0.121000  0.806400  0.743500  1.0  0.1299
  H  H53  1  0.209800  0.431300  0.502900  1.0  0.1354
  H  H54  1  0.090700  0.388200  0.486900  1.0  0.1249
  H  H55  1  0.041900  0.287400  0.479600  1.0  0.1314
  H  H56  1  0.232300  0.272100  0.511300  1.0  0.132
  H  H57  1  0.312600  0.416200  0.544700  1.0  0.1385
  H  H58  1  0.325100  0.355000  0.539200  1.0  0.1419
  H  H59  1  0.776500  0.008600  0.700600  1.0  0.1396
  H  H60  1  0.753800  0.911800  0.678400  1.0  0.1189
  H  H61  1  0.812400  0.890700  0.618200  1.0  0.13
  H  H62  1  0.906700  0.064000  0.596800  1.0  0.1215
  H  H63  1  0.816700  0.112500  0.679200  1.0  0.1181
  H  H64  1  0.862800  0.132600  0.636100  1.0  0.1261
  H  H65  1  0.950100  0.219300  0.674500  1.0  0.1377
  H  H66  1  0.897900  0.201200  0.715000  1.0  0.1247
  H  H67  1  0.994000  0.195300  0.758000  1.0  0.1268
  H  H68  1  0.045400  0.218100  0.717400  1.0  0.1271
  H  H69  1  0.248200  0.993900  0.701900  1.0  0.1402
  H  H70  1  0.261500  0.084700  0.669900  1.0  0.1228
  H  H71  1  0.189200  0.091200  0.611700  1.0  0.1267
  H  H72  1  0.088500  0.916600  0.618100  1.0  0.131
  H  H73  1  0.198900  0.888800  0.699600  1.0  0.119
  H  H74  1  0.154300  0.858500  0.657800  1.0  0.1156
  H  H75  1  0.074700  0.278800  0.798200  1.0  0.132
  H  H76  1  0.121000  0.306400  0.756500  1.0  0.1286
  H  H77  1  0.790200  0.068700  0.002900  1.0  0.1347
  H  H78  1  0.909300  0.111800  0.986900  1.0  0.1254
  H  H79  1  0.958100  0.212600  0.979600  1.0  0.1321
  H  H80  1  0.767700  0.227900  0.011300  1.0  0.1325
  H  H81  1  0.687400  0.083800  0.044700  1.0  0.1402
  H  H82  1  0.674900  0.145000  0.039200  1.0  0.1413
  H  H83  1  0.223500  0.491400  0.200600  1.0  0.1386
  H  H84  1  0.246200  0.588200  0.178400  1.0  0.1193
  H  H85  1  0.187600  0.609300  0.118200  1.0  0.1302
  H  H86  1  0.093300  0.436000  0.096800  1.0  0.1213
  H  H87  1  0.183300  0.387500  0.179200  1.0  0.1196
  H  H88  1  0.137200  0.367400  0.136100  1.0  0.1268
  H  H89  1  0.049900  0.280700  0.174500  1.0  0.1383
  H  H90  1  0.102100  0.298800  0.215000  1.0  0.1259
  H  H91  1  0.006000  0.304700  0.258000  1.0  0.1275
  H  H92  1  0.954600  0.281900  0.217400  1.0  0.1267
  H  H93  1  0.751800  0.506100  0.201900  1.0  0.1405
  H  H94  1  0.738500  0.415300  0.169900  1.0  0.1228
  H  H95  1  0.810800  0.408800  0.111700  1.0  0.1259
  H  H96  1  0.911500  0.583400  0.118100  1.0  0.1312
  H  H97  1  0.801100  0.611200  0.199600  1.0  0.1171
  H  H98  1  0.845700  0.641500  0.157800  1.0  0.1164
  H  H99  1  0.925300  0.221200  0.298200  1.0  0.1325
  H  H100  1  0.879000  0.193600  0.256500  1.0  0.1274
  C  C101  1  0.767200  0.643600  0.490100  1.0  0.1536
  C  C102  1  0.809900  0.609800  0.498500  1.0  -0.0747
  C  C103  1  0.880600  0.635400  0.508700  1.0  -0.0621
  C  C104  1  0.909800  0.695400  0.512700  1.0  -0.0242
  C  C105  1  0.867900  0.730700  0.505200  1.0  -0.1624
  C  C106  1  0.796400  0.704400  0.493900  1.0  -0.016
  C  C107  1  0.899100  0.795400  0.506500  1.0  0.7225
  C  C108  1  0.690800  0.615800  0.475900  1.0  -0.2
  C  C109  1  0.568500  0.555000  0.499700  1.0  0.3835
  C  C110  1  0.521400  0.525600  0.533400  1.0  0.0175
  C  C111  1  0.558400  0.505100  0.483900  1.0  0.0339
  C  C112  1  0.156200  0.954300  0.349200  1.0  0.1676
  C  C113  1  0.201500  0.999600  0.324600  1.0  -0.0637
  C  C114  1  0.214200  0.057400  0.337600  1.0  -0.1007
  C  C115  1  0.180200  0.070100  0.374000  1.0  -0.0288
  C  C116  1  0.135500  0.024700  0.398900  1.0  -0.1233
  C  C117  1  0.123600  0.966800  0.386400  1.0  -0.0603
  C  C118  1  0.098500  0.039100  0.438600  1.0  0.7784
  C  C119  1  0.142300  0.890800  0.337100  1.0  -0.131
  C  C120  1  0.059800  0.803900  0.298500  1.0  0.0032
  C  C121  1  0.998000  0.780000  0.268300  1.0  -0.2288
  C  C122  1  0.833500  0.053400  0.337700  1.0  0.1031
  C  C123  1  0.781200  0.003400  0.321500  1.0  -0.0659
  C  C124  1  0.773300  0.949400  0.340700  1.0  -0.0928
  C  C125  1  0.816500  0.945500  0.375500  1.0  -0.0271
  C  C126  1  0.867800  0.995400  0.391200  1.0  -0.1399
  C  C127  1  0.876100  0.049400  0.371600  1.0  -0.0545
  C  C128  1  0.911200  0.993600  0.431200  1.0  0.7706
  C  C129  1  0.842600  0.113300  0.318500  1.0  -0.1461
  C  C130  1  0.920900  0.694200  0.226400  1.0  -0.1988
  C  C131  1  0.986700  0.716600  0.254800  1.0  -0.0154
  C  C132  1  0.232800  0.856400  0.990100  1.0  0.153
  C  C133  1  0.190100  0.890200  0.998500  1.0  -0.0753
  C  C134  1  0.119400  0.864600  0.008700  1.0  -0.0607
  C  C135  1  0.090200  0.804600  0.012700  1.0  -0.0232
  C  C136  1  0.132100  0.769300  0.005200  1.0  -0.1628
  C  C137  1  0.203600  0.795600  0.993900  1.0  -0.0159
  C  C138  1  0.100900  0.704600  0.006500  1.0  0.7232
  C  C139  1  0.309200  0.884200  0.975900  1.0  -0.2014
  C  C140  1  0.431500  0.945000  0.999700  1.0  0.3895
  C  C141  1  0.478600  0.974400  0.033400  1.0  0.0173
  C  C142  1  0.441600  0.994900  0.983900  1.0  0.0299
  C  C143  1  0.843800  0.545700  0.849200  1.0  0.166
  C  C144  1  0.798500  0.500400  0.824600  1.0  -0.0628
  C  C145  1  0.785800  0.442600  0.837600  1.0  -0.1017
  C  C146  1  0.819800  0.429900  0.874000  1.0  -0.0284
  C  C147  1  0.864500  0.475300  0.898900  1.0  -0.1246
  C  C148  1  0.876400  0.533200  0.886400  1.0  -0.06
  C  C149  1  0.901500  0.460900  0.938600  1.0  0.7769
  C  C150  1  0.857700  0.609200  0.837100  1.0  -0.1322
  C  C151  1  0.940200  0.696100  0.798500  1.0  0.0031
  C  C152  1  0.002000  0.720000  0.768300  1.0  -0.2299
  C  C153  1  0.166500  0.446600  0.837700  1.0  0.1043
  C  C154  1  0.218800  0.496600  0.821500  1.0  -0.0646
  C  C155  1  0.226700  0.550600  0.840700  1.0  -0.0918
  C  C156  1  0.183500  0.554500  0.875500  1.0  -0.0266
  C  C157  1  0.132200  0.504600  0.891200  1.0  -0.1398
  C  C158  1  0.123900  0.450600  0.871600  1.0  -0.055
  C  C159  1  0.088800  0.506400  0.931200  1.0  0.7697
  C  C160  1  0.157400  0.386700  0.818500  1.0  -0.1462
  C  C161  1  0.079100  0.805800  0.726400  1.0  -0.1967
  C  C162  1  0.013300  0.783400  0.754800  1.0  -0.0169
  C  C163  1  0.232800  0.356400  0.509900  1.0  0.1526
  C  C164  1  0.190100  0.390200  0.501500  1.0  -0.0753
  C  C165  1  0.119400  0.364600  0.491300  1.0  -0.0607
  C  C166  1  0.090200  0.304600  0.487300  1.0  -0.0236
  C  C167  1  0.132100  0.269300  0.494800  1.0  -0.163
  C  C168  1  0.203600  0.295600  0.506100  1.0  -0.0163
  C  C169  1  0.100900  0.204600  0.493500  1.0  0.723
  C  C170  1  0.309200  0.384200  0.524100  1.0  -0.203
  C  C171  1  0.431500  0.445000  0.500300  1.0  0.3887
  C  C172  1  0.478600  0.474400  0.466600  1.0  0.0191
  C  C173  1  0.441600  0.494900  0.516100  1.0  0.0338
  C  C174  1  0.843800  0.045700  0.650800  1.0  0.1661
  C  C175  1  0.798500  0.000400  0.675400  1.0  -0.0629
  C  C176  1  0.785800  0.942600  0.662400  1.0  -0.1023
  C  C177  1  0.819800  0.929900  0.626000  1.0  -0.0282
  C  C178  1  0.864500  0.975300  0.601100  1.0  -0.1232
  C  C179  1  0.876400  0.033200  0.613600  1.0  -0.0603
  C  C180  1  0.901500  0.960900  0.561400  1.0  0.778
  C  C181  1  0.857700  0.109200  0.662900  1.0  -0.1323
  C  C182  1  0.940200  0.196100  0.701500  1.0  0.0032
  C  C183  1  0.002000  0.220000  0.731700  1.0  -0.2302
  C  C184  1  0.166500  0.946600  0.662300  1.0  0.1042
  C  C185  1  0.218800  0.996600  0.678500  1.0  -0.0647
  C  C186  1  0.226700  0.050600  0.659300  1.0  -0.0913
  C  C187  1  0.183500  0.054500  0.624500  1.0  -0.0269
  C  C188  1  0.132200  0.004600  0.608800  1.0  -0.1394
  C  C189  1  0.123900  0.950600  0.628400  1.0  -0.0549
  C  C190  1  0.088800  0.006400  0.568800  1.0  0.7716
  C  C191  1  0.157400  0.886700  0.681500  1.0  -0.1471
  C  C192  1  0.079100  0.305800  0.773600  1.0  -0.1965
  C  C193  1  0.013300  0.283400  0.745200  1.0  -0.0168
  C  C194  1  0.767200  0.143600  0.009900  1.0  0.1532
  C  C195  1  0.809900  0.109800  0.001500  1.0  -0.0744
  C  C196  1  0.880600  0.135400  0.991300  1.0  -0.0622
  C  C197  1  0.909800  0.195400  0.987300  1.0  -0.0243
  C  C198  1  0.867900  0.230700  0.994800  1.0  -0.1625
  C  C199  1  0.796400  0.204400  0.006100  1.0  -0.0168
  C  C200  1  0.899100  0.295400  0.993500  1.0  0.7222
  C  C201  1  0.690800  0.115800  0.024100  1.0  -0.2028
  C  C202  1  0.568500  0.055000  0.000300  1.0  0.3827
  C  C203  1  0.521400  0.025600  0.966600  1.0  0.0198
  C  C204  1  0.558400  0.005100  0.016100  1.0  0.0315
  C  C205  1  0.156200  0.454300  0.150800  1.0  0.1673
  C  C206  1  0.201500  0.499600  0.175400  1.0  -0.0627
  C  C207  1  0.214200  0.557400  0.162400  1.0  -0.0997
  C  C208  1  0.180200  0.570100  0.126000  1.0  -0.0289
  C  C209  1  0.135500  0.524700  0.101100  1.0  -0.1212
  C  C210  1  0.123600  0.466800  0.113600  1.0  -0.0596
  C  C211  1  0.098500  0.539100  0.061400  1.0  0.779
  C  C212  1  0.142300  0.390800  0.162900  1.0  -0.1312
  C  C213  1  0.059800  0.303900  0.201500  1.0  0.0029
  C  C214  1  0.998000  0.280000  0.231700  1.0  -0.229
  C  C215  1  0.833500  0.553400  0.162300  1.0  0.1029
  C  C216  1  0.781200  0.503400  0.178500  1.0  -0.0659
  C  C217  1  0.773300  0.449400  0.159300  1.0  -0.0936
  C  C218  1  0.816500  0.445500  0.124500  1.0  -0.027
  C  C219  1  0.867800  0.495400  0.108800  1.0  -0.1394
  C  C220  1  0.876100  0.549400  0.128400  1.0  -0.0544
  C  C221  1  0.911200  0.493600  0.068800  1.0  0.7725
  C  C222  1  0.842600  0.613300  0.181500  1.0  -0.1468
  C  C223  1  0.920900  0.194200  0.273600  1.0  -0.1987
  C  C224  1  0.986700  0.216600  0.245200  1.0  -0.0147
  N  N225  1  0.643000  0.591900  0.514600  1.0  -0.2222
  N  N226  1  0.076300  0.866700  0.310000  1.0  -0.4344
  N  N227  1  0.909600  0.133700  0.291100  1.0  -0.3078
  N  N228  1  0.357000  0.908100  0.014600  1.0  -0.2216
  N  N229  1  0.923700  0.633300  0.810000  1.0  -0.4333
  N  N230  1  0.090400  0.366300  0.791100  1.0  -0.3067
  N  N231  1  0.357000  0.408100  0.485400  1.0  -0.2263
  N  N232  1  0.923700  0.133300  0.690000  1.0  -0.4343
  N  N233  1  0.090400  0.866300  0.708900  1.0  -0.3063
  N  N234  1  0.643000  0.091900  0.985400  1.0  -0.2261
  N  N235  1  0.076300  0.366700  0.190000  1.0  -0.4359
  N  N236  1  0.909600  0.633700  0.208900  1.0  -0.3058
  N  N237  1  0.603800  0.768900  0.703900  1.0  0.7747
  N  N238  1  0.782000  0.868400  0.087100  1.0  0.59
  N  N239  1  0.396200  0.731100  0.203900  1.0  0.7759
  N  N240  1  0.218000  0.631600  0.587100  1.0  0.5896
  N  N241  1  0.396200  0.231100  0.296100  1.0  0.7763
  N  N242  1  0.218000  0.131600  0.912900  1.0  0.5896
  N  N243  1  0.603800  0.268900  0.796100  1.0  0.7749
  N  N244  1  0.782000  0.368400  0.412900  1.0  0.59
  O  O245  1  0.084500  0.883800  0.491500  1.0  -0.2862
  O  O246  1  0.987600  0.870700  0.424350  1.0  -0.2796
  O  O247  1  0.955800  0.818300  0.527900  1.0  -0.5789
  O  O248  1  0.871100  0.826100  0.484380  1.0  -0.5791
  O  O249  1  0.060200  0.996400  0.462210  1.0  -0.834
  O  O250  1  0.892600  0.909400  0.552700  1.0  -0.5886
  O  O251  1  0.906900  0.945000  0.446800  1.0  -0.6785
  O  O252  1  0.051100  0.956100  0.553140  1.0  -0.6724
  O  O253  1  0.915500  0.616200  0.991500  1.0  -0.2876
  O  O254  1  0.012400  0.629300  0.924350  1.0  -0.2801
  O  O255  1  0.044200  0.681700  0.027900  1.0  -0.5793
  O  O256  1  0.128900  0.673900  0.984380  1.0  -0.5807
  O  O257  1  0.939800  0.503600  0.962210  1.0  -0.8361
  O  O258  1  0.107400  0.590600  0.052700  1.0  -0.588
  O  O259  1  0.093100  0.555000  0.946800  1.0  -0.6772
  O  O260  1  0.948900  0.543900  0.053140  1.0  -0.6731
  O  O261  1  0.915500  0.116200  0.508500  1.0  -0.2876
  O  O262  1  0.012400  0.129300  0.575650  1.0  -0.2823
  O  O263  1  0.044200  0.181700  0.472100  1.0  -0.578
  O  O264  1  0.128900  0.173900  0.515620  1.0  -0.5815
  O  O265  1  0.939800  0.003600  0.537790  1.0  -0.8378
  O  O266  1  0.107400  0.090600  0.447300  1.0  -0.5881
  O  O267  1  0.093100  0.055000  0.553200  1.0  -0.6773
  O  O268  1  0.948900  0.043900  0.446860  1.0  -0.6736
  O  O269  1  0.084500  0.383800  0.008500  1.0  -0.2865
  O  O270  1  0.987600  0.370700  0.075650  1.0  -0.2813
  O  O271  1  0.955800  0.318300  0.972100  1.0  -0.5788
  O  O272  1  0.871100  0.326100  0.015620  1.0  -0.5793
  O  O273  1  0.060200  0.496400  0.037790  1.0  -0.8369
  O  O274  1  0.892600  0.409400  0.947300  1.0  -0.5883
  O  O275  1  0.906900  0.445000  0.053200  1.0  -0.679
  O  O276  1  0.051100  0.456100  0.946860  1.0  -0.6733
  O  O277  1  0.541600  0.761100  0.695900  1.0  -0.4108
  O  O278  1  0.624900  0.726500  0.709900  1.0  -0.4387
  O  O279  1  0.647500  0.818300  0.708700  1.0  -0.4597
  O  O280  1  0.778100  0.905100  0.112800  1.0  -0.306
  O  O281  1  0.736300  0.821900  0.085800  1.0  -0.3121
  O  O282  1  0.837000  0.881100  0.066900  1.0  -0.4036
  O  O283  1  0.458400  0.738900  0.195900  1.0  -0.4071
  O  O284  1  0.375100  0.773500  0.209900  1.0  -0.441
  O  O285  1  0.352500  0.681700  0.208700  1.0  -0.4597
  O  O286  1  0.221900  0.594900  0.612800  1.0  -0.305
  O  O287  1  0.263700  0.678100  0.585800  1.0  -0.3117
  O  O288  1  0.163000  0.618900  0.566900  1.0  -0.406
  O  O289  1  0.458400  0.238900  0.304100  1.0  -0.4079
  O  O290  1  0.375100  0.273500  0.290100  1.0  -0.4409
  O  O291  1  0.352500  0.181700  0.291300  1.0  -0.4601
  O  O292  1  0.221900  0.094900  0.887200  1.0  -0.3033
  O  O293  1  0.263700  0.178100  0.914200  1.0  -0.3115
  O  O294  1  0.163000  0.118900  0.933100  1.0  -0.4066
  O  O295  1  0.541600  0.261100  0.804100  1.0  -0.4112
  O  O296  1  0.624900  0.226500  0.790100  1.0  -0.4391
  O  O297  1  0.647500  0.318300  0.791300  1.0  -0.4599
  O  O298  1  0.778100  0.405100  0.387200  1.0  -0.3044
  O  O299  1  0.736300  0.321900  0.414200  1.0  -0.3131
  O  O300  1  0.837000  0.381100  0.433100  1.0  -0.4054
