# generated using pymatgen
data_Tb2H24C34NO11
_symmetry_space_group_name_H-M   'P 1'
_cell_length_a   13.07710000
_cell_length_b   26.59990000
_cell_length_c   13.14580000
_cell_angle_alpha   90.00000000
_cell_angle_beta   116.36300000
_cell_angle_gamma   90.00000000
_symmetry_Int_Tables_number   1
_chemical_formula_structural   Tb2H24C34NO11
_chemical_formula_sum   'Tb8 H96 C136 N4 O44'
_cell_volume   4097.18762180
_cell_formula_units_Z   4
loop_
 _symmetry_equiv_pos_site_id
 _symmetry_equiv_pos_as_xyz
  1  'x, y, z'
loop_
 _atom_site_type_symbol
 _atom_site_label
 _atom_site_symmetry_multiplicity
 _atom_site_fract_x
 _atom_site_fract_y
 _atom_site_fract_z
 _atom_site_occupancy
 _atom_site_charge
  Tb  Tb1  1  0.820280  0.005200  0.919420  1.0  2.2735
  Tb  Tb2  1  0.452400  0.006850  0.503600  1.0  2.0949
  Tb  Tb3  1  0.179720  0.505200  0.580580  1.0  2.2732
  Tb  Tb4  1  0.547600  0.506850  0.996400  1.0  2.1019
  Tb  Tb5  1  0.179720  0.994800  0.080580  1.0  2.2731
  Tb  Tb6  1  0.547600  0.993150  0.496400  1.0  2.1041
  Tb  Tb7  1  0.820280  0.494800  0.419420  1.0  2.2735
  Tb  Tb8  1  0.452400  0.493150  0.003600  1.0  2.0972
  H  H9  1  0.168700  0.129800  0.162600  1.0  0.0878
  H  H10  1  0.873700  0.141100  0.186800  1.0  0.1247
  H  H11  1  0.477800  0.152000  0.582200  1.0  0.1042
  H  H12  1  0.722200  0.129800  0.900700  1.0  0.0875
  H  H13  1  0.217900  0.211000  0.231500  1.0  0.1057
  H  H14  1  0.694300  0.209500  0.951700  1.0  0.1116
  H  H15  1  0.876500  0.246000  0.419600  1.0  0.1058
  H  H16  1  0.986100  0.214000  0.441500  1.0  0.1031
  H  H17  1  0.861800  0.191100  0.375400  1.0  0.1133
  H  H18  1  0.752800  0.275400  0.212900  1.0  0.1008
  H  H19  1  0.742700  0.219300  0.176900  1.0  0.1068
  H  H20  1  0.787000  0.259000  0.118700  1.0  0.1061
  H  H21  1  0.284800  0.222000  0.632500  1.0  0.1072
  H  H22  1  0.281600  0.206200  0.517600  1.0  0.1087
  H  H23  1  0.244000  0.260100  0.532600  1.0  0.1033
  H  H24  1  0.393400  0.294700  0.474500  1.0  0.0981
  H  H25  1  0.420400  0.239000  0.459400  1.0  0.0968
  H  H26  1  0.520800  0.274600  0.537500  1.0  0.1061
  H  H27  1  0.219800  0.309100  0.287400  1.0  0.0906
  H  H28  1  0.897800  0.340500  0.343900  1.0  0.1027
  H  H29  1  0.636200  0.306300  0.962700  1.0  0.1135
  H  H30  1  0.337200  0.350200  0.614000  1.0  0.1121
  H  H31  1  0.192500  0.387800  0.347000  1.0  0.1014
  H  H32  1  0.555700  0.384600  0.937400  1.0  0.0937
  H  H33  1  0.831300  0.629800  0.337400  1.0  0.0881
  H  H34  1  0.126300  0.641100  0.313200  1.0  0.1248
  H  H35  1  0.522200  0.652000  0.917800  1.0  0.1045
  H  H36  1  0.277800  0.629800  0.599300  1.0  0.0871
  H  H37  1  0.782100  0.711000  0.268500  1.0  0.1055
  H  H38  1  0.305700  0.709500  0.548300  1.0  0.1115
  H  H39  1  0.123500  0.746000  0.080400  1.0  0.1057
  H  H40  1  0.013900  0.714000  0.058500  1.0  0.1059
  H  H41  1  0.138200  0.691100  0.124600  1.0  0.1133
  H  H42  1  0.247200  0.775400  0.287100  1.0  0.1011
  H  H43  1  0.257300  0.719300  0.323100  1.0  0.107
  H  H44  1  0.213000  0.759000  0.381300  1.0  0.1061
  H  H45  1  0.715200  0.722000  0.867500  1.0  0.1068
  H  H46  1  0.718400  0.706200  0.982400  1.0  0.1093
  H  H47  1  0.756000  0.760100  0.967400  1.0  0.1039
  H  H48  1  0.606600  0.794700  0.025500  1.0  0.0969
  H  H49  1  0.579600  0.739000  0.040600  1.0  0.0965
  H  H50  1  0.479200  0.774600  0.962500  1.0  0.1085
  H  H51  1  0.780200  0.809100  0.212600  1.0  0.0908
  H  H52  1  0.102200  0.840500  0.156100  1.0  0.1031
  H  H53  1  0.363800  0.806300  0.537300  1.0  0.1145
  H  H54  1  0.662800  0.850200  0.886000  1.0  0.1119
  H  H55  1  0.807500  0.887800  0.153000  1.0  0.102
  H  H56  1  0.444300  0.884600  0.562600  1.0  0.0938
  H  H57  1  0.831300  0.870200  0.837400  1.0  0.0878
  H  H58  1  0.126300  0.858900  0.813200  1.0  0.1246
  H  H59  1  0.522200  0.848000  0.417800  1.0  0.1042
  H  H60  1  0.277800  0.870200  0.099300  1.0  0.0875
  H  H61  1  0.782100  0.789000  0.768500  1.0  0.1057
  H  H62  1  0.305700  0.790500  0.048300  1.0  0.1118
  H  H63  1  0.123500  0.754000  0.580400  1.0  0.1053
  H  H64  1  0.013900  0.786000  0.558500  1.0  0.1058
  H  H65  1  0.138200  0.808900  0.624600  1.0  0.1159
  H  H66  1  0.247200  0.724600  0.787100  1.0  0.1012
  H  H67  1  0.257300  0.780700  0.823100  1.0  0.1069
  H  H68  1  0.213000  0.741000  0.881300  1.0  0.106
  H  H69  1  0.715200  0.778000  0.367500  1.0  0.1075
  H  H70  1  0.718400  0.793800  0.482400  1.0  0.1095
  H  H71  1  0.756000  0.739900  0.467400  1.0  0.1044
  H  H72  1  0.606600  0.705300  0.525500  1.0  0.0972
  H  H73  1  0.579600  0.761000  0.540600  1.0  0.0964
  H  H74  1  0.479200  0.725400  0.462500  1.0  0.1081
  H  H75  1  0.780200  0.690900  0.712600  1.0  0.0911
  H  H76  1  0.102200  0.659500  0.656100  1.0  0.1035
  H  H77  1  0.363800  0.693700  0.037300  1.0  0.1141
  H  H78  1  0.662800  0.649800  0.386000  1.0  0.1123
  H  H79  1  0.807500  0.612200  0.653000  1.0  0.1015
  H  H80  1  0.444300  0.615400  0.062600  1.0  0.0941
  H  H81  1  0.168700  0.370200  0.662600  1.0  0.0878
  H  H82  1  0.873700  0.358900  0.686800  1.0  0.1243
  H  H83  1  0.477800  0.348000  0.082200  1.0  0.1043
  H  H84  1  0.722200  0.370200  0.400700  1.0  0.0874
  H  H85  1  0.217900  0.289000  0.731500  1.0  0.1059
  H  H86  1  0.694300  0.290500  0.451700  1.0  0.111
  H  H87  1  0.876500  0.254000  0.919600  1.0  0.1052
  H  H88  1  0.986100  0.286000  0.941500  1.0  0.103
  H  H89  1  0.861800  0.308900  0.875400  1.0  0.1157
  H  H90  1  0.752800  0.224600  0.712900  1.0  0.1014
  H  H91  1  0.742700  0.280700  0.676900  1.0  0.1075
  H  H92  1  0.787000  0.241000  0.618700  1.0  0.106
  H  H93  1  0.284800  0.278000  0.132500  1.0  0.107
  H  H94  1  0.281600  0.293800  0.017600  1.0  0.1104
  H  H95  1  0.244000  0.239900  0.032600  1.0  0.103
  H  H96  1  0.393400  0.205300  0.974500  1.0  0.097
  H  H97  1  0.420400  0.261000  0.959400  1.0  0.0971
  H  H98  1  0.520800  0.225400  0.037500  1.0  0.1051
  H  H99  1  0.219800  0.190900  0.787400  1.0  0.0908
  H  H100  1  0.897800  0.159500  0.843900  1.0  0.1035
  H  H101  1  0.636200  0.193700  0.462700  1.0  0.1135
  H  H102  1  0.337200  0.149800  0.114000  1.0  0.1114
  H  H103  1  0.192500  0.112200  0.847000  1.0  0.1013
  H  H104  1  0.555700  0.115400  0.437400  1.0  0.0939
  C  C105  1  0.982700  0.076500  0.114700  1.0  0.7327
  C  C106  1  0.621500  0.080800  0.703600  1.0  0.6891
  C  C107  1  0.017000  0.127800  0.168400  1.0  -0.1268
  C  C108  1  0.603100  0.132900  0.736300  1.0  -0.145
  C  C109  1  0.119600  0.148600  0.181400  1.0  -0.0023
  C  C110  1  0.942700  0.155000  0.196300  1.0  -0.0839
  C  C111  1  0.521000  0.163700  0.655800  1.0  -0.0939
  C  C112  1  0.667600  0.150600  0.847100  1.0  -0.002
  C  C113  1  0.149100  0.197000  0.222300  1.0  -0.0828
  C  C114  1  0.972700  0.203100  0.238600  1.0  -0.0097
  C  C115  1  0.503800  0.211700  0.685600  1.0  0.0155
  C  C116  1  0.651500  0.198100  0.877800  1.0  -0.1045
  C  C117  1  0.073800  0.224600  0.249400  1.0  -0.0767
  C  C118  1  0.908200  0.240000  0.278300  1.0  -0.0509
  C  C119  1  0.569600  0.229300  0.796100  1.0  -0.0401
  C  C120  1  0.418200  0.251300  0.612400  1.0  0.0026
  C  C121  1  0.078600  0.277200  0.283800  1.0  -0.0354
  C  C122  1  0.907100  0.220900  0.389000  1.0  -0.3468
  C  C123  1  0.786900  0.249400  0.188200  1.0  -0.3338
  C  C124  1  0.982400  0.286600  0.302400  1.0  -0.0082
  C  C125  1  0.535900  0.280600  0.801800  1.0  -0.0537
  C  C126  1  0.296300  0.233200  0.569700  1.0  -0.3466
  C  C127  1  0.440500  0.266300  0.511500  1.0  -0.3462
  C  C128  1  0.445800  0.294400  0.698100  1.0  -0.0091
  C  C129  1  0.156200  0.315200  0.299900  1.0  -0.0718
  C  C130  1  0.962800  0.334000  0.334100  1.0  -0.0838
  C  C131  1  0.576900  0.315200  0.893100  1.0  -0.1156
  C  C132  1  0.397000  0.341200  0.683200  1.0  -0.1078
  C  C133  1  0.139400  0.362400  0.334700  1.0  -0.0368
  C  C134  1  0.043300  0.371800  0.351000  1.0  -0.1449
  C  C135  1  0.528600  0.361600  0.877900  1.0  -0.0265
  C  C136  1  0.438400  0.375200  0.773400  1.0  -0.1489
  C  C137  1  0.024500  0.423700  0.386100  1.0  0.7534
  C  C138  1  0.383600  0.426300  0.759700  1.0  0.7032
  C  C139  1  0.017300  0.576500  0.385300  1.0  0.7335
  C  C140  1  0.378500  0.580800  0.796400  1.0  0.6901
  C  C141  1  0.983000  0.627800  0.331600  1.0  -0.1279
  C  C142  1  0.396900  0.632900  0.763700  1.0  -0.1454
  C  C143  1  0.880400  0.648600  0.318600  1.0  -0.0029
  C  C144  1  0.057300  0.655000  0.303700  1.0  -0.0849
  C  C145  1  0.479000  0.663700  0.844200  1.0  -0.0941
  C  C146  1  0.332400  0.650600  0.652900  1.0  -0.0024
  C  C147  1  0.850900  0.697000  0.277700  1.0  -0.0815
  C  C148  1  0.027300  0.703100  0.261400  1.0  -0.0097
  C  C149  1  0.496200  0.711700  0.814400  1.0  0.015
  C  C150  1  0.348500  0.698100  0.622200  1.0  -0.105
  C  C151  1  0.926200  0.724600  0.250600  1.0  -0.0772
  C  C152  1  0.091800  0.740000  0.221700  1.0  -0.0521
  C  C153  1  0.430400  0.729300  0.703900  1.0  -0.039
  C  C154  1  0.581800  0.751300  0.887600  1.0  0.004
  C  C155  1  0.921400  0.777200  0.216200  1.0  -0.0348
  C  C156  1  0.092900  0.720900  0.111000  1.0  -0.3456
  C  C157  1  0.213100  0.749400  0.311800  1.0  -0.3334
  C  C158  1  0.017600  0.786600  0.197600  1.0  -0.0083
  C  C159  1  0.464100  0.780600  0.698200  1.0  -0.0524
  C  C160  1  0.703700  0.733200  0.930300  1.0  -0.3463
  C  C161  1  0.559500  0.766300  0.988500  1.0  -0.3453
  C  C162  1  0.554200  0.794400  0.801900  1.0  -0.009
  C  C163  1  0.843800  0.815200  0.200100  1.0  -0.0726
  C  C164  1  0.037200  0.834000  0.165900  1.0  -0.0816
  C  C165  1  0.423100  0.815200  0.606900  1.0  -0.118
  C  C166  1  0.603000  0.841200  0.816800  1.0  -0.1082
  C  C167  1  0.860600  0.862400  0.165300  1.0  -0.0383
  C  C168  1  0.956700  0.871800  0.149000  1.0  -0.1443
  C  C169  1  0.471400  0.861600  0.622100  1.0  -0.0259
  C  C170  1  0.561600  0.875200  0.726600  1.0  -0.148
  C  C171  1  0.975500  0.923700  0.113900  1.0  0.7522
  C  C172  1  0.616400  0.926300  0.740300  1.0  0.7026
  C  C173  1  0.017300  0.923500  0.885300  1.0  0.7349
  C  C174  1  0.378500  0.919200  0.296400  1.0  0.6923
  C  C175  1  0.983000  0.872200  0.831600  1.0  -0.1268
  C  C176  1  0.396900  0.867100  0.263700  1.0  -0.1455
  C  C177  1  0.880400  0.851400  0.818600  1.0  -0.002
  C  C178  1  0.057300  0.845000  0.803700  1.0  -0.0827
  C  C179  1  0.479000  0.836300  0.344200  1.0  -0.0964
  C  C180  1  0.332400  0.849400  0.152900  1.0  0.0003
  C  C181  1  0.850900  0.803000  0.777700  1.0  -0.0815
  C  C182  1  0.027300  0.796900  0.761400  1.0  -0.009
  C  C183  1  0.496200  0.788300  0.314400  1.0  0.0149
  C  C184  1  0.348500  0.801900  0.122200  1.0  -0.1038
  C  C185  1  0.926200  0.775400  0.750600  1.0  -0.0762
  C  C186  1  0.091800  0.760000  0.721700  1.0  -0.0522
  C  C187  1  0.430400  0.770700  0.203900  1.0  -0.0385
  C  C188  1  0.581800  0.748700  0.387600  1.0  0.0039
  C  C189  1  0.921400  0.722800  0.716200  1.0  -0.0357
  C  C190  1  0.092900  0.779100  0.611000  1.0  -0.3465
  C  C191  1  0.213100  0.750600  0.811800  1.0  -0.3339
  C  C192  1  0.017600  0.713400  0.697600  1.0  -0.008
  C  C193  1  0.464100  0.719400  0.198200  1.0  -0.0527
  C  C194  1  0.703700  0.766800  0.430300  1.0  -0.3457
  C  C195  1  0.559500  0.733700  0.488500  1.0  -0.3463
  C  C196  1  0.554200  0.705600  0.301900  1.0  -0.0093
  C  C197  1  0.843800  0.684800  0.700100  1.0  -0.0717
  C  C198  1  0.037200  0.666000  0.665900  1.0  -0.0808
  C  C199  1  0.423100  0.684800  0.106900  1.0  -0.1175
  C  C200  1  0.603000  0.658800  0.316800  1.0  -0.1065
  C  C201  1  0.860600  0.637600  0.665300  1.0  -0.037
  C  C202  1  0.956700  0.628200  0.649000  1.0  -0.1436
  C  C203  1  0.471400  0.638400  0.122100  1.0  -0.0272
  C  C204  1  0.561600  0.624800  0.226600  1.0  -0.1471
  C  C205  1  0.975500  0.576300  0.613900  1.0  0.7507
  C  C206  1  0.616400  0.573700  0.240300  1.0  0.7027
  C  C207  1  0.982700  0.423500  0.614700  1.0  0.7326
  C  C208  1  0.621500  0.419200  0.203600  1.0  0.6917
  C  C209  1  0.017000  0.372200  0.668400  1.0  -0.1258
  C  C210  1  0.603100  0.367100  0.236300  1.0  -0.1454
  C  C211  1  0.119600  0.351400  0.681400  1.0  -0.0015
  C  C212  1  0.942700  0.345000  0.696300  1.0  -0.0848
  C  C213  1  0.521000  0.336300  0.155800  1.0  -0.0962
  C  C214  1  0.667600  0.349400  0.347100  1.0  -0.0006
  C  C215  1  0.149100  0.303000  0.722300  1.0  -0.0825
  C  C216  1  0.972700  0.296900  0.738600  1.0  -0.0092
  C  C217  1  0.503800  0.288300  0.185600  1.0  0.015
  C  C218  1  0.651500  0.301900  0.377800  1.0  -0.1036
  C  C219  1  0.073800  0.275400  0.749400  1.0  -0.076
  C  C220  1  0.908200  0.260000  0.778300  1.0  -0.0513
  C  C221  1  0.569600  0.270700  0.296100  1.0  -0.0394
  C  C222  1  0.418200  0.248700  0.112400  1.0  0.0026
  C  C223  1  0.078600  0.222800  0.783800  1.0  -0.0361
  C  C224  1  0.907100  0.279100  0.889000  1.0  -0.3472
  C  C225  1  0.786900  0.250600  0.688200  1.0  -0.3338
  C  C226  1  0.982400  0.213400  0.802400  1.0  -0.008
  C  C227  1  0.535900  0.219400  0.301800  1.0  -0.0541
  C  C228  1  0.296300  0.266800  0.069700  1.0  -0.3468
  C  C229  1  0.440500  0.233700  0.011500  1.0  -0.3459
  C  C230  1  0.445800  0.205600  0.198100  1.0  -0.0091
  C  C231  1  0.156200  0.184800  0.799900  1.0  -0.072
  C  C232  1  0.962800  0.166000  0.834100  1.0  -0.0821
  C  C233  1  0.576900  0.184800  0.393100  1.0  -0.1155
  C  C234  1  0.397000  0.158800  0.183200  1.0  -0.1071
  C  C235  1  0.139400  0.137600  0.834700  1.0  -0.0392
  C  C236  1  0.043300  0.128200  0.851000  1.0  -0.1449
  C  C237  1  0.528600  0.138400  0.377900  1.0  -0.0276
  C  C238  1  0.438400  0.124800  0.273400  1.0  -0.1482
  C  C239  1  0.024500  0.076300  0.886100  1.0  0.7511
  C  C240  1  0.383600  0.073700  0.259700  1.0  0.7032
  N  N241  1  0.314000  0.061400  0.592000  1.0  0.7095
  N  N242  1  0.686000  0.561400  0.908000  1.0  0.71
  N  N243  1  0.686000  0.938600  0.408000  1.0  0.7098
  N  N244  1  0.314000  0.438600  0.092000  1.0  0.708
  O  O245  1  0.880300  0.066800  0.063500  1.0  -0.6305
  O  O246  1  0.689400  0.052600  0.780600  1.0  -0.7645
  O  O247  1  0.062200  0.046200  0.122600  1.0  -0.7896
  O  O248  1  0.110100  0.452400  0.427300  1.0  -0.6928
  O  O249  1  0.924800  0.435100  0.371500  1.0  -0.7452
  O  O250  1  0.306000  0.438200  0.667900  1.0  -0.7176
  O  O251  1  0.569300  0.068300  0.603400  1.0  -0.6671
  O  O252  1  0.317000  0.074100  0.500000  1.0  -0.6527
  O  O253  1  0.387000  0.031300  0.647000  1.0  -0.5561
  O  O254  1  0.425700  0.455300  0.846200  1.0  -0.7476
  O  O255  1  0.269000  0.087100  0.637000  1.0  -0.4788
  O  O256  1  0.119700  0.566800  0.436500  1.0  -0.6289
  O  O257  1  0.310600  0.552600  0.719400  1.0  -0.7647
  O  O258  1  0.937800  0.546200  0.377400  1.0  -0.7911
  O  O259  1  0.889900  0.952400  0.072700  1.0  -0.6915
  O  O260  1  0.075200  0.935100  0.128500  1.0  -0.7445
  O  O261  1  0.694000  0.938200  0.832100  1.0  -0.7185
  O  O262  1  0.430700  0.568300  0.896600  1.0  -0.6664
  O  O263  1  0.683000  0.574100  0.000000  1.0  -0.6551
  O  O264  1  0.613000  0.531300  0.853000  1.0  -0.5577
  O  O265  1  0.574300  0.955300  0.653800  1.0  -0.7476
  O  O266  1  0.731000  0.587100  0.863000  1.0  -0.4786
  O  O267  1  0.119700  0.933200  0.936500  1.0  -0.6287
  O  O268  1  0.310600  0.947400  0.219400  1.0  -0.7656
  O  O269  1  0.937800  0.953800  0.877400  1.0  -0.7905
  O  O270  1  0.889900  0.547600  0.572700  1.0  -0.6907
  O  O271  1  0.075200  0.564900  0.628500  1.0  -0.7442
  O  O272  1  0.694000  0.561800  0.332100  1.0  -0.7179
  O  O273  1  0.430700  0.931700  0.396600  1.0  -0.6673
  O  O274  1  0.683000  0.925900  0.500000  1.0  -0.6559
  O  O275  1  0.613000  0.968700  0.353000  1.0  -0.5567
  O  O276  1  0.574300  0.544700  0.153800  1.0  -0.7476
  O  O277  1  0.731000  0.912900  0.363000  1.0  -0.478
  O  O278  1  0.880300  0.433200  0.563500  1.0  -0.6305
  O  O279  1  0.689400  0.447400  0.280600  1.0  -0.7678
  O  O280  1  0.062200  0.453800  0.622600  1.0  -0.7918
  O  O281  1  0.110100  0.047600  0.927300  1.0  -0.6919
  O  O282  1  0.924800  0.064900  0.871500  1.0  -0.7455
  O  O283  1  0.306000  0.061800  0.167900  1.0  -0.7181
  O  O284  1  0.569300  0.431700  0.103400  1.0  -0.6664
  O  O285  1  0.317000  0.425900  0.000000  1.0  -0.6543
  O  O286  1  0.387000  0.468700  0.147000  1.0  -0.5553
  O  O287  1  0.425700  0.044700  0.346200  1.0  -0.7482
  O  O288  1  0.269000  0.412900  0.137000  1.0  -0.4791
