# generated using pymatgen
data_Gd2H24C34NO11
_symmetry_space_group_name_H-M   'P 1'
_cell_length_a   13.08820000
_cell_length_b   26.66650000
_cell_length_c   13.13360000
_cell_angle_alpha   90.00000000
_cell_angle_beta   116.07200000
_cell_angle_gamma   90.00000000
_symmetry_Int_Tables_number   1
_chemical_formula_structural   Gd2H24C34NO11
_chemical_formula_sum   'Gd8 H96 C136 N4 O44'
_cell_volume   4117.40234831
_cell_formula_units_Z   4
loop_
 _symmetry_equiv_pos_site_id
 _symmetry_equiv_pos_as_xyz
  1  'x, y, z'
loop_
 _atom_site_type_symbol
 _atom_site_label
 _atom_site_symmetry_multiplicity
 _atom_site_fract_x
 _atom_site_fract_y
 _atom_site_fract_z
 _atom_site_occupancy
 _atom_site_charge
  Gd  Gd1  1  0.820700  0.004860  0.918890  1.0  2.208
  Gd  Gd2  1  0.450810  0.006760  0.503690  1.0  2.1016
  Gd  Gd3  1  0.179300  0.504860  0.581110  1.0  2.2073
  Gd  Gd4  1  0.549190  0.506760  0.996310  1.0  2.0908
  Gd  Gd5  1  0.179300  0.995140  0.081110  1.0  2.2071
  Gd  Gd6  1  0.549190  0.993240  0.496310  1.0  2.0859
  Gd  Gd7  1  0.820700  0.495140  0.418890  1.0  2.2078
  Gd  Gd8  1  0.450810  0.493240  0.003690  1.0  2.0969
  H  H9  1  0.167000  0.129500  0.162400  1.0  0.0985
  H  H10  1  0.872000  0.141900  0.185500  1.0  0.1271
  H  H11  1  0.474400  0.152100  0.582900  1.0  0.1156
  H  H12  1  0.722700  0.130200  0.900400  1.0  0.0979
  H  H13  1  0.214000  0.211100  0.228900  1.0  0.105
  H  H14  1  0.696600  0.210900  0.950500  1.0  0.1157
  H  H15  1  0.873400  0.247000  0.418100  1.0  0.1213
  H  H16  1  0.983000  0.215000  0.440000  1.0  0.1117
  H  H17  1  0.858700  0.192000  0.373900  1.0  0.1257
  H  H18  1  0.753700  0.276400  0.210300  1.0  0.1006
  H  H19  1  0.743700  0.220400  0.174200  1.0  0.1108
  H  H20  1  0.788000  0.260000  0.116100  1.0  0.1022
  H  H21  1  0.283800  0.221200  0.635500  1.0  0.1144
  H  H22  1  0.280600  0.205500  0.520500  1.0  0.1118
  H  H23  1  0.242900  0.259400  0.535600  1.0  0.1153
  H  H24  1  0.392300  0.294800  0.476400  1.0  0.112
  H  H25  1  0.419300  0.239100  0.461300  1.0  0.1118
  H  H26  1  0.519600  0.274700  0.539400  1.0  0.1177
  H  H27  1  0.219200  0.309000  0.287300  1.0  0.104
  H  H28  1  0.897600  0.341300  0.340500  1.0  0.1028
  H  H29  1  0.631600  0.305000  0.960600  1.0  0.1106
  H  H30  1  0.338800  0.349900  0.614500  1.0  0.1176
  H  H31  1  0.194300  0.386100  0.349700  1.0  0.1041
  H  H32  1  0.557900  0.384400  0.935100  1.0  0.1071
  H  H33  1  0.833000  0.629500  0.337600  1.0  0.0985
  H  H34  1  0.128000  0.641900  0.314500  1.0  0.127
  H  H35  1  0.525600  0.652100  0.917100  1.0  0.1162
  H  H36  1  0.277300  0.630200  0.599600  1.0  0.0977
  H  H37  1  0.786000  0.711100  0.271100  1.0  0.1045
  H  H38  1  0.303400  0.710900  0.549500  1.0  0.1147
  H  H39  1  0.126600  0.747000  0.081900  1.0  0.1204
  H  H40  1  0.017000  0.715000  0.060000  1.0  0.1147
  H  H41  1  0.141300  0.692000  0.126100  1.0  0.1254
  H  H42  1  0.246300  0.776400  0.289700  1.0  0.1003
  H  H43  1  0.256300  0.720400  0.325800  1.0  0.1113
  H  H44  1  0.212000  0.760000  0.383900  1.0  0.1008
  H  H45  1  0.716200  0.721200  0.864500  1.0  0.1148
  H  H46  1  0.719400  0.705500  0.979500  1.0  0.1121
  H  H47  1  0.757100  0.759400  0.964400  1.0  0.1154
  H  H48  1  0.607700  0.794800  0.023600  1.0  0.1103
  H  H49  1  0.580700  0.739100  0.038700  1.0  0.1123
  H  H50  1  0.480400  0.774700  0.960600  1.0  0.1177
  H  H51  1  0.780800  0.809000  0.212700  1.0  0.1041
  H  H52  1  0.102400  0.841300  0.159500  1.0  0.1024
  H  H53  1  0.368400  0.805000  0.539400  1.0  0.1103
  H  H54  1  0.661200  0.849900  0.885500  1.0  0.117
  H  H55  1  0.805700  0.886100  0.150300  1.0  0.1048
  H  H56  1  0.442100  0.884400  0.564900  1.0  0.1078
  H  H57  1  0.833000  0.870500  0.837600  1.0  0.0983
  H  H58  1  0.128000  0.858100  0.814500  1.0  0.1265
  H  H59  1  0.525600  0.847900  0.417100  1.0  0.1156
  H  H60  1  0.277300  0.869800  0.099600  1.0  0.0984
  H  H61  1  0.786000  0.788900  0.771100  1.0  0.1047
  H  H62  1  0.303400  0.789100  0.049500  1.0  0.1162
  H  H63  1  0.126600  0.753000  0.581900  1.0  0.12
  H  H64  1  0.017000  0.785000  0.560000  1.0  0.1149
  H  H65  1  0.141300  0.808000  0.626100  1.0  0.1281
  H  H66  1  0.246300  0.723600  0.789700  1.0  0.0999
  H  H67  1  0.256300  0.779600  0.825800  1.0  0.1108
  H  H68  1  0.212000  0.740000  0.883900  1.0  0.1
  H  H69  1  0.716200  0.778800  0.364500  1.0  0.1152
  H  H70  1  0.719400  0.794500  0.479500  1.0  0.1118
  H  H71  1  0.757100  0.740600  0.464400  1.0  0.1155
  H  H72  1  0.607700  0.705200  0.523600  1.0  0.1107
  H  H73  1  0.580700  0.760900  0.538700  1.0  0.1125
  H  H74  1  0.480400  0.725300  0.460600  1.0  0.1177
  H  H75  1  0.780800  0.691000  0.712700  1.0  0.1053
  H  H76  1  0.102400  0.658700  0.659500  1.0  0.1024
  H  H77  1  0.368400  0.695000  0.039400  1.0  0.1105
  H  H78  1  0.661200  0.650100  0.385500  1.0  0.1177
  H  H79  1  0.805700  0.613900  0.650300  1.0  0.1042
  H  H80  1  0.442100  0.615600  0.064900  1.0  0.1077
  H  H81  1  0.167000  0.370500  0.662400  1.0  0.0983
  H  H82  1  0.872000  0.358100  0.685500  1.0  0.1265
  H  H83  1  0.474400  0.347900  0.082900  1.0  0.1158
  H  H84  1  0.722700  0.369800  0.400400  1.0  0.098
  H  H85  1  0.214000  0.288900  0.728900  1.0  0.1054
  H  H86  1  0.696600  0.289100  0.450500  1.0  0.1164
  H  H87  1  0.873400  0.253000  0.918100  1.0  0.1206
  H  H88  1  0.983000  0.285000  0.940000  1.0  0.1117
  H  H89  1  0.858700  0.308000  0.873900  1.0  0.1276
  H  H90  1  0.753700  0.223600  0.710300  1.0  0.1007
  H  H91  1  0.743700  0.279600  0.674200  1.0  0.1113
  H  H92  1  0.788000  0.240000  0.616100  1.0  0.1015
  H  H93  1  0.283800  0.278800  0.135500  1.0  0.1142
  H  H94  1  0.280600  0.294500  0.020500  1.0  0.113
  H  H95  1  0.242900  0.240600  0.035600  1.0  0.1151
  H  H96  1  0.392300  0.205200  0.976400  1.0  0.111
  H  H97  1  0.419300  0.260900  0.961300  1.0  0.1125
  H  H98  1  0.519600  0.225300  0.039400  1.0  0.1174
  H  H99  1  0.219200  0.191000  0.787300  1.0  0.1051
  H  H100  1  0.897600  0.158700  0.840500  1.0  0.1026
  H  H101  1  0.631600  0.195000  0.460600  1.0  0.1106
  H  H102  1  0.338800  0.150100  0.114500  1.0  0.1172
  H  H103  1  0.194300  0.113900  0.849700  1.0  0.1043
  H  H104  1  0.557900  0.115600  0.435100  1.0  0.1074
  C  C105  1  0.979800  0.076900  0.112800  1.0  0.7469
  C  C106  1  0.621800  0.081200  0.703800  1.0  0.7339
  C  C107  1  0.014100  0.128000  0.166300  1.0  -0.1241
  C  C108  1  0.602800  0.133000  0.736600  1.0  -0.1322
  C  C109  1  0.117200  0.148400  0.180000  1.0  -0.0063
  C  C110  1  0.940900  0.155500  0.194800  1.0  -0.0722
  C  C111  1  0.518500  0.163800  0.655900  1.0  -0.095
  C  C112  1  0.668100  0.150900  0.847200  1.0  -0.0003
  C  C113  1  0.145500  0.197200  0.220300  1.0  -0.0544
  C  C114  1  0.971000  0.203300  0.237100  1.0  0.0029
  C  C115  1  0.502400  0.211300  0.686300  1.0  0.0066
  C  C116  1  0.652100  0.198900  0.877800  1.0  -0.1132
  C  C117  1  0.073100  0.224500  0.247000  1.0  -0.0555
  C  C118  1  0.907100  0.240000  0.278500  1.0  -0.0215
  C  C119  1  0.566900  0.229200  0.796200  1.0  -0.0149
  C  C120  1  0.419300  0.251200  0.613300  1.0  0.0164
  C  C121  1  0.077600  0.276600  0.284200  1.0  -0.0248
  C  C122  1  0.904000  0.221900  0.387500  1.0  -0.3567
  C  C123  1  0.787900  0.250400  0.185600  1.0  -0.3379
  C  C124  1  0.982000  0.286600  0.302400  1.0  0.0002
  C  C125  1  0.534900  0.281100  0.802800  1.0  -0.022
  C  C126  1  0.295200  0.232400  0.572600  1.0  -0.3291
  C  C127  1  0.439300  0.266400  0.513400  1.0  -0.3331
  C  C128  1  0.446600  0.293900  0.698900  1.0  -0.0086
  C  C129  1  0.156000  0.315000  0.300400  1.0  -0.1103
  C  C130  1  0.963300  0.334400  0.332400  1.0  -0.0309
  C  C131  1  0.573900  0.314400  0.890800  1.0  -0.1084
  C  C132  1  0.397800  0.340900  0.683900  1.0  -0.0949
  C  C133  1  0.139800  0.361300  0.335400  1.0  -0.0288
  C  C134  1  0.042500  0.372000  0.350200  1.0  -0.1586
  C  C135  1  0.528500  0.361200  0.876400  1.0  -0.0184
  C  C136  1  0.437500  0.374500  0.773200  1.0  -0.1495
  C  C137  1  0.025300  0.423400  0.384700  1.0  0.7593
  C  C138  1  0.381000  0.425400  0.759400  1.0  0.7242
  C  C139  1  0.020200  0.576900  0.387200  1.0  0.7476
  C  C140  1  0.378200  0.581200  0.796200  1.0  0.735
  C  C141  1  0.985900  0.628000  0.333700  1.0  -0.1248
  C  C142  1  0.397200  0.633000  0.763400  1.0  -0.1322
  C  C143  1  0.882800  0.648400  0.320000  1.0  -0.0063
  C  C144  1  0.059100  0.655500  0.305200  1.0  -0.0742
  C  C145  1  0.481500  0.663800  0.844100  1.0  -0.0945
  C  C146  1  0.331900  0.650900  0.652800  1.0  -0.0008
  C  C147  1  0.854500  0.697200  0.279700  1.0  -0.0552
  C  C148  1  0.029000  0.703300  0.262900  1.0  0.0032
  C  C149  1  0.497600  0.711300  0.813700  1.0  0.0056
  C  C150  1  0.347900  0.698900  0.622200  1.0  -0.1133
  C  C151  1  0.926900  0.724500  0.253000  1.0  -0.0545
  C  C152  1  0.092900  0.740000  0.221500  1.0  -0.022
  C  C153  1  0.433100  0.729200  0.703800  1.0  -0.015
  C  C154  1  0.580700  0.751200  0.886700  1.0  0.0171
  C  C155  1  0.922400  0.776600  0.215800  1.0  -0.0254
  C  C156  1  0.096000  0.721900  0.112500  1.0  -0.3575
  C  C157  1  0.212100  0.750400  0.314400  1.0  -0.338
  C  C158  1  0.018000  0.786600  0.197600  1.0  0.0006
  C  C159  1  0.465100  0.781100  0.697200  1.0  -0.0215
  C  C160  1  0.704800  0.732400  0.927400  1.0  -0.3286
  C  C161  1  0.560700  0.766400  0.986600  1.0  -0.332
  C  C162  1  0.553400  0.793900  0.801100  1.0  -0.0084
  C  C163  1  0.844000  0.815000  0.199600  1.0  -0.1101
  C  C164  1  0.036700  0.834400  0.167600  1.0  -0.0293
  C  C165  1  0.426100  0.814400  0.609200  1.0  -0.1081
  C  C166  1  0.602200  0.840900  0.816100  1.0  -0.0939
  C  C167  1  0.860200  0.861300  0.164600  1.0  -0.0291
  C  C168  1  0.957500  0.872000  0.149800  1.0  -0.1579
  C  C169  1  0.471500  0.861200  0.623600  1.0  -0.0168
  C  C170  1  0.562500  0.874500  0.726800  1.0  -0.1505
  C  C171  1  0.974700  0.923400  0.115300  1.0  0.7575
  C  C172  1  0.619000  0.925400  0.740600  1.0  0.7231
  C  C173  1  0.020200  0.923100  0.887200  1.0  0.7501
  C  C174  1  0.378200  0.918800  0.296200  1.0  0.7378
  C  C175  1  0.985900  0.872000  0.833700  1.0  -0.1237
  C  C176  1  0.397200  0.867000  0.263400  1.0  -0.1317
  C  C177  1  0.882800  0.851600  0.820000  1.0  -0.0065
  C  C178  1  0.059100  0.844500  0.805200  1.0  -0.0714
  C  C179  1  0.481500  0.836200  0.344100  1.0  -0.0962
  C  C180  1  0.331900  0.849100  0.152800  1.0  -0.0008
  C  C181  1  0.854500  0.802800  0.779700  1.0  -0.0543
  C  C182  1  0.029000  0.796700  0.762900  1.0  0.0034
  C  C183  1  0.497600  0.788700  0.313700  1.0  0.0059
  C  C184  1  0.347900  0.801100  0.122200  1.0  -0.1126
  C  C185  1  0.926900  0.775500  0.753000  1.0  -0.0542
  C  C186  1  0.092900  0.760000  0.721500  1.0  -0.0224
  C  C187  1  0.433100  0.770800  0.203800  1.0  -0.0151
  C  C188  1  0.580700  0.748800  0.386700  1.0  0.0169
  C  C189  1  0.922400  0.723400  0.715800  1.0  -0.0264
  C  C190  1  0.096000  0.778100  0.612500  1.0  -0.3583
  C  C191  1  0.212100  0.749600  0.814400  1.0  -0.3383
  C  C192  1  0.018000  0.713400  0.697600  1.0  0.0013
  C  C193  1  0.465100  0.718900  0.197200  1.0  -0.0217
  C  C194  1  0.704800  0.767600  0.427400  1.0  -0.3287
  C  C195  1  0.560700  0.733600  0.486600  1.0  -0.3328
  C  C196  1  0.553400  0.706100  0.301100  1.0  -0.0078
  C  C197  1  0.844000  0.685000  0.699600  1.0  -0.1106
  C  C198  1  0.036700  0.665600  0.667600  1.0  -0.0286
  C  C199  1  0.426100  0.685600  0.109200  1.0  -0.1084
  C  C200  1  0.602200  0.659100  0.316100  1.0  -0.0943
  C  C201  1  0.860200  0.638700  0.664600  1.0  -0.029
  C  C202  1  0.957500  0.628000  0.649800  1.0  -0.1578
  C  C203  1  0.471500  0.638800  0.123600  1.0  -0.0174
  C  C204  1  0.562500  0.625500  0.226800  1.0  -0.1504
  C  C205  1  0.974700  0.576600  0.615300  1.0  0.7739
  C  C206  1  0.619000  0.574600  0.240600  1.0  0.7245
  C  C207  1  0.979800  0.423100  0.612800  1.0  0.7479
  C  C208  1  0.621800  0.418800  0.203800  1.0  0.7367
  C  C209  1  0.014100  0.372000  0.666300  1.0  -0.1231
  C  C210  1  0.602800  0.367000  0.236600  1.0  -0.1316
  C  C211  1  0.117200  0.351600  0.680000  1.0  -0.0065
  C  C212  1  0.940900  0.344500  0.694800  1.0  -0.0728
  C  C213  1  0.518500  0.336200  0.155900  1.0  -0.0967
  C  C214  1  0.668100  0.349100  0.347200  1.0  -0.0006
  C  C215  1  0.145500  0.302800  0.720300  1.0  -0.0536
  C  C216  1  0.971000  0.296700  0.737100  1.0  0.0033
  C  C217  1  0.502400  0.288700  0.186300  1.0  0.0067
  C  C218  1  0.652100  0.301100  0.377800  1.0  -0.1127
  C  C219  1  0.073100  0.275500  0.747000  1.0  -0.0551
  C  C220  1  0.907100  0.260000  0.778500  1.0  -0.0219
  C  C221  1  0.566900  0.270800  0.296200  1.0  -0.015
  C  C222  1  0.419300  0.248800  0.113300  1.0  0.0163
  C  C223  1  0.077600  0.223400  0.784200  1.0  -0.0254
  C  C224  1  0.904000  0.278100  0.887500  1.0  -0.3568
  C  C225  1  0.787900  0.249600  0.685600  1.0  -0.3379
  C  C226  1  0.982000  0.213400  0.802400  1.0  0.0008
  C  C227  1  0.534900  0.218900  0.302800  1.0  -0.0219
  C  C228  1  0.295200  0.267600  0.072600  1.0  -0.3292
  C  C229  1  0.439300  0.233600  0.013400  1.0  -0.3329
  C  C230  1  0.446600  0.206100  0.198900  1.0  -0.0081
  C  C231  1  0.156000  0.185000  0.800400  1.0  -0.1119
  C  C232  1  0.963300  0.165600  0.832400  1.0  -0.0286
  C  C233  1  0.573900  0.185600  0.390800  1.0  -0.1085
  C  C234  1  0.397800  0.159100  0.183900  1.0  -0.0955
  C  C235  1  0.139800  0.138700  0.835400  1.0  -0.0316
  C  C236  1  0.042500  0.128000  0.850200  1.0  -0.1592
  C  C237  1  0.528500  0.138800  0.376400  1.0  -0.0188
  C  C238  1  0.437500  0.125500  0.273200  1.0  -0.1495
  C  C239  1  0.025300  0.076600  0.884700  1.0  0.7756
  C  C240  1  0.381000  0.074600  0.259400  1.0  0.7257
  N  N241  1  0.308500  0.066000  0.597000  1.0  0.1848
  N  N242  1  0.691500  0.566000  0.903000  1.0  0.1887
  N  N243  1  0.691500  0.934000  0.403000  1.0  0.1891
  N  N244  1  0.308500  0.434000  0.097000  1.0  0.1837
  O  O245  1  0.877100  0.067500  0.063700  1.0  -0.6414
  O  O246  1  0.688900  0.053240  0.782000  1.0  -0.7606
  O  O247  1  0.943400  0.952960  0.883600  1.0  -0.7718
  O  O248  1  0.890800  0.951880  0.074000  1.0  -0.7186
  O  O249  1  0.926100  0.065270  0.870300  1.0  -0.7235
  O  O250  1  0.695300  0.937360  0.832100  1.0  -0.7029
  O  O251  1  0.569900  0.068450  0.603400  1.0  -0.6553
  O  O252  1  0.312500  0.075100  0.508700  1.0  -0.6174
  O  O253  1  0.384500  0.032800  0.649000  1.0  -0.5958
  O  O254  1  0.578300  0.953900  0.654900  1.0  -0.7073
  O  O255  1  0.270200  0.088500  0.639000  1.0  -0.4528
  O  O256  1  0.122900  0.567500  0.436300  1.0  -0.6401
  O  O257  1  0.311100  0.553240  0.718000  1.0  -0.7612
  O  O258  1  0.056600  0.452960  0.616400  1.0  -0.7736
  O  O259  1  0.109200  0.451880  0.426000  1.0  -0.7192
  O  O260  1  0.073900  0.565270  0.629700  1.0  -0.7219
  O  O261  1  0.304700  0.437360  0.667900  1.0  -0.7025
  O  O262  1  0.430100  0.568450  0.896600  1.0  -0.6546
  O  O263  1  0.687500  0.575100  0.991300  1.0  -0.6167
  O  O264  1  0.615500  0.532800  0.851000  1.0  -0.6006
  O  O265  1  0.421700  0.453900  0.845100  1.0  -0.708
  O  O266  1  0.729800  0.588500  0.861000  1.0  -0.4533
  O  O267  1  0.122900  0.932500  0.936300  1.0  -0.64
  O  O268  1  0.311100  0.946760  0.218000  1.0  -0.7621
  O  O269  1  0.056600  0.047040  0.116400  1.0  -0.772
  O  O270  1  0.109200  0.048120  0.926000  1.0  -0.7191
  O  O271  1  0.073900  0.934730  0.129700  1.0  -0.7226
  O  O272  1  0.304700  0.062640  0.167900  1.0  -0.7022
  O  O273  1  0.430100  0.931550  0.396600  1.0  -0.6552
  O  O274  1  0.687500  0.924900  0.491300  1.0  -0.6156
  O  O275  1  0.615500  0.967200  0.351000  1.0  -0.6006
  O  O276  1  0.421700  0.046100  0.345100  1.0  -0.7079
  O  O277  1  0.729800  0.911500  0.361000  1.0  -0.4531
  O  O278  1  0.877100  0.432500  0.563700  1.0  -0.6415
  O  O279  1  0.688900  0.446760  0.282000  1.0  -0.7642
  O  O280  1  0.943400  0.547040  0.383600  1.0  -0.7738
  O  O281  1  0.890800  0.548120  0.574000  1.0  -0.7184
  O  O282  1  0.926100  0.434730  0.370300  1.0  -0.7229
  O  O283  1  0.695300  0.562640  0.332100  1.0  -0.7023
  O  O284  1  0.569900  0.431550  0.103400  1.0  -0.6545
  O  O285  1  0.312500  0.424900  0.008700  1.0  -0.6193
  O  O286  1  0.384500  0.467200  0.149000  1.0  -0.596
  O  O287  1  0.578300  0.546100  0.154900  1.0  -0.7069
  O  O288  1  0.270200  0.411500  0.139000  1.0  -0.4544
