# generated using pymatgen
data_Dy2H24C34NO11
_symmetry_space_group_name_H-M   'P 1'
_cell_length_a   13.07690000
_cell_length_b   26.56730000
_cell_length_c   13.15790000
_cell_angle_alpha   90.00000000
_cell_angle_beta   116.58800000
_cell_angle_gamma   90.00000000
_symmetry_Int_Tables_number   1
_chemical_formula_structural   Dy2H24C34NO11
_chemical_formula_sum   'Dy8 H96 C136 N4 O44'
_cell_volume   4087.86720650
_cell_formula_units_Z   4
loop_
 _symmetry_equiv_pos_site_id
 _symmetry_equiv_pos_as_xyz
  1  'x, y, z'
loop_
 _atom_site_type_symbol
 _atom_site_label
 _atom_site_symmetry_multiplicity
 _atom_site_fract_x
 _atom_site_fract_y
 _atom_site_fract_z
 _atom_site_occupancy
 _atom_site_charge
  Dy  Dy1  1  0.180230  0.994550  0.080210  1.0  2.2806
  Dy  Dy2  1  0.546250  0.993020  0.496230  1.0  2.1045
  Dy  Dy3  1  0.819770  0.494550  0.419790  1.0  2.2811
  Dy  Dy4  1  0.453750  0.493020  0.003770  1.0  2.1007
  Dy  Dy5  1  0.819770  0.005450  0.919790  1.0  2.2809
  Dy  Dy6  1  0.453750  0.006980  0.503770  1.0  2.0953
  Dy  Dy7  1  0.180230  0.505450  0.580210  1.0  2.2805
  Dy  Dy8  1  0.546250  0.506980  0.996230  1.0  2.0996
  H  H9  1  0.827100  0.870100  0.834800  1.0  0.0948
  H  H10  1  0.122600  0.859800  0.810300  1.0  0.116
  H  H11  1  0.522400  0.847800  0.417400  1.0  0.0974
  H  H12  1  0.277600  0.870400  0.098900  1.0  0.089
  H  H13  1  0.781000  0.788900  0.768900  1.0  0.1007
  H  H14  1  0.302000  0.790200  0.049000  1.0  0.1133
  H  H15  1  0.121100  0.755000  0.579400  1.0  0.1015
  H  H16  1  0.011500  0.787000  0.557400  1.0  0.1023
  H  H17  1  0.135800  0.809900  0.623500  1.0  0.1137
  H  H18  1  0.246400  0.725300  0.785400  1.0  0.0993
  H  H19  1  0.256400  0.781400  0.821500  1.0  0.1074
  H  H20  1  0.212100  0.741700  0.879600  1.0  0.1059
  H  H21  1  0.715700  0.778000  0.367000  1.0  0.1054
  H  H22  1  0.718900  0.793700  0.481900  1.0  0.1116
  H  H23  1  0.756600  0.739800  0.466800  1.0  0.108
  H  H24  1  0.606600  0.704700  0.525100  1.0  0.096
  H  H25  1  0.579500  0.760300  0.540200  1.0  0.0958
  H  H26  1  0.479200  0.724800  0.462100  1.0  0.1056
  H  H27  1  0.782200  0.689500  0.715200  1.0  0.0889
  H  H28  1  0.102000  0.659800  0.655100  1.0  0.1048
  H  H29  1  0.364500  0.693900  0.035800  1.0  0.1132
  H  H30  1  0.661900  0.649500  0.386700  1.0  0.1075
  H  H31  1  0.806700  0.612200  0.650300  1.0  0.1064
  H  H32  1  0.437700  0.614600  0.064400  1.0  0.0976
  H  H33  1  0.172900  0.370100  0.665200  1.0  0.0951
  H  H34  1  0.877400  0.359800  0.689700  1.0  0.1158
  H  H35  1  0.477600  0.347800  0.082600  1.0  0.0971
  H  H36  1  0.722400  0.370400  0.401100  1.0  0.0889
  H  H37  1  0.219000  0.288900  0.731100  1.0  0.1011
  H  H38  1  0.698000  0.290200  0.451000  1.0  0.1123
  H  H39  1  0.878900  0.255000  0.920600  1.0  0.1015
  H  H40  1  0.988500  0.287000  0.942600  1.0  0.1007
  H  H41  1  0.864200  0.309900  0.876500  1.0  0.1136
  H  H42  1  0.753600  0.225300  0.714600  1.0  0.0997
  H  H43  1  0.743600  0.281400  0.678500  1.0  0.1084
  H  H44  1  0.787900  0.241700  0.620400  1.0  0.1056
  H  H45  1  0.284300  0.278000  0.133000  1.0  0.1053
  H  H46  1  0.281100  0.293700  0.018100  1.0  0.1132
  H  H47  1  0.243400  0.239800  0.033200  1.0  0.1067
  H  H48  1  0.393400  0.204700  0.974900  1.0  0.0963
  H  H49  1  0.420500  0.260300  0.959800  1.0  0.0962
  H  H50  1  0.520800  0.224800  0.037900  1.0  0.1044
  H  H51  1  0.217800  0.189500  0.784800  1.0  0.0887
  H  H52  1  0.898000  0.159800  0.844900  1.0  0.1049
  H  H53  1  0.635500  0.193900  0.464200  1.0  0.1128
  H  H54  1  0.338100  0.149500  0.113300  1.0  0.1065
  H  H55  1  0.193300  0.112200  0.849700  1.0  0.1069
  H  H56  1  0.562300  0.114600  0.435600  1.0  0.0967
  H  H57  1  0.172900  0.129900  0.165200  1.0  0.095
  H  H58  1  0.877400  0.140200  0.189700  1.0  0.1161
  H  H59  1  0.477600  0.152200  0.582600  1.0  0.0968
  H  H60  1  0.722400  0.129600  0.901100  1.0  0.0891
  H  H61  1  0.219000  0.211100  0.231100  1.0  0.1009
  H  H62  1  0.698000  0.209800  0.951000  1.0  0.1128
  H  H63  1  0.878900  0.245000  0.420600  1.0  0.1018
  H  H64  1  0.988500  0.213000  0.442600  1.0  0.1009
  H  H65  1  0.864200  0.190100  0.376500  1.0  0.1125
  H  H66  1  0.753600  0.274700  0.214600  1.0  0.099
  H  H67  1  0.743600  0.218600  0.178500  1.0  0.1076
  H  H68  1  0.787900  0.258300  0.120400  1.0  0.106
  H  H69  1  0.284300  0.222000  0.633000  1.0  0.1056
  H  H70  1  0.281100  0.206300  0.518100  1.0  0.1117
  H  H71  1  0.243400  0.260200  0.533200  1.0  0.1072
  H  H72  1  0.393400  0.295300  0.474900  1.0  0.0974
  H  H73  1  0.420500  0.239700  0.459800  1.0  0.096
  H  H74  1  0.520800  0.275200  0.537900  1.0  0.105
  H  H75  1  0.217800  0.310500  0.284800  1.0  0.0882
  H  H76  1  0.898000  0.340200  0.344900  1.0  0.1047
  H  H77  1  0.635500  0.306100  0.964200  1.0  0.1126
  H  H78  1  0.338100  0.350500  0.613300  1.0  0.1068
  H  H79  1  0.193300  0.387800  0.349700  1.0  0.107
  H  H80  1  0.562300  0.385400  0.935600  1.0  0.0966
  H  H81  1  0.827100  0.629900  0.334800  1.0  0.0949
  H  H82  1  0.122600  0.640200  0.310300  1.0  0.1159
  H  H83  1  0.522400  0.652200  0.917400  1.0  0.0975
  H  H84  1  0.277600  0.629600  0.598900  1.0  0.0887
  H  H85  1  0.781000  0.711100  0.268900  1.0  0.1007
  H  H86  1  0.302000  0.709800  0.549000  1.0  0.1131
  H  H87  1  0.121100  0.745000  0.079400  1.0  0.1017
  H  H88  1  0.011500  0.713000  0.057400  1.0  0.1027
  H  H89  1  0.135800  0.690100  0.123500  1.0  0.1125
  H  H90  1  0.246400  0.774700  0.285400  1.0  0.099
  H  H91  1  0.256400  0.718600  0.321500  1.0  0.1075
  H  H92  1  0.212100  0.758300  0.379600  1.0  0.1057
  H  H93  1  0.715700  0.722000  0.867000  1.0  0.1046
  H  H94  1  0.718900  0.706300  0.981900  1.0  0.1115
  H  H95  1  0.756600  0.760200  0.966800  1.0  0.1074
  H  H96  1  0.606600  0.795300  0.025100  1.0  0.0957
  H  H97  1  0.579500  0.739700  0.040200  1.0  0.0959
  H  H98  1  0.479200  0.775200  0.962100  1.0  0.1056
  H  H99  1  0.782200  0.810500  0.215200  1.0  0.0885
  H  H100  1  0.102000  0.840200  0.155100  1.0  0.1048
  H  H101  1  0.364500  0.806100  0.535800  1.0  0.1129
  H  H102  1  0.661900  0.850500  0.886700  1.0  0.107
  H  H103  1  0.806700  0.887800  0.150300  1.0  0.1072
  H  H104  1  0.437700  0.885400  0.564400  1.0  0.0977
  C  C105  1  0.012400  0.924600  0.883000  1.0  0.7286
  C  C106  1  0.377900  0.919500  0.297000  1.0  0.7292
  C  C107  1  0.980100  0.872700  0.828800  1.0  -0.134
  C  C108  1  0.396000  0.867300  0.263600  1.0  -0.1451
  C  C109  1  0.876700  0.851400  0.816600  1.0  0.0013
  C  C110  1  0.054100  0.845500  0.801300  1.0  -0.0672
  C  C111  1  0.478500  0.836100  0.343900  1.0  -0.0829
  C  C112  1  0.331600  0.849400  0.152900  1.0  -0.0019
  C  C113  1  0.849400  0.803100  0.777600  1.0  -0.0739
  C  C114  1  0.026200  0.797100  0.760400  1.0  0.0033
  C  C115  1  0.495100  0.788300  0.314900  1.0  -0.017
  C  C116  1  0.346200  0.801900  0.122500  1.0  -0.1394
  C  C117  1  0.924400  0.775400  0.751100  1.0  -0.0767
  C  C118  1  0.090200  0.760600  0.719300  1.0  -0.0377
  C  C119  1  0.429200  0.770800  0.204100  1.0  -0.0504
  C  C120  1  0.581600  0.748500  0.388000  1.0  0.0012
  C  C121  1  0.921400  0.722700  0.716600  1.0  -0.0627
  C  C122  1  0.090500  0.780100  0.610000  1.0  -0.339
  C  C123  1  0.212200  0.751300  0.810100  1.0  -0.3548
  C  C124  1  0.018100  0.713200  0.696700  1.0  0.004
  C  C125  1  0.462500  0.719200  0.197100  1.0  -0.0289
  C  C126  1  0.704200  0.766800  0.429800  1.0  -0.3604
  C  C127  1  0.559500  0.733000  0.488200  1.0  -0.337
  C  C128  1  0.553300  0.705500  0.302300  1.0  -0.0149
  C  C129  1  0.844800  0.683900  0.700900  1.0  -0.0752
  C  C130  1  0.037200  0.666100  0.665100  1.0  -0.0755
  C  C131  1  0.422200  0.684700  0.106400  1.0  -0.1169
  C  C132  1  0.602100  0.658400  0.317200  1.0  -0.1066
  C  C133  1  0.860500  0.637500  0.664400  1.0  -0.0429
  C  C134  1  0.958200  0.628400  0.648600  1.0  -0.1446
  C  C135  1  0.467900  0.638100  0.122800  1.0  -0.0319
  C  C136  1  0.561400  0.624400  0.227500  1.0  -0.1491
  C  C137  1  0.976800  0.576200  0.614500  1.0  0.7567
  C  C138  1  0.615200  0.573400  0.242000  1.0  0.6887
  C  C139  1  0.987600  0.424600  0.617000  1.0  0.7265
  C  C140  1  0.622100  0.419500  0.203000  1.0  0.7288
  C  C141  1  0.019900  0.372700  0.671200  1.0  -0.1348
  C  C142  1  0.604000  0.367300  0.236400  1.0  -0.1454
  C  C143  1  0.123300  0.351400  0.683400  1.0  0.0018
  C  C144  1  0.945900  0.345500  0.698700  1.0  -0.0692
  C  C145  1  0.521500  0.336100  0.156100  1.0  -0.0833
  C  C146  1  0.668400  0.349400  0.347100  1.0  -0.0032
  C  C147  1  0.150600  0.303100  0.722400  1.0  -0.0738
  C  C148  1  0.973800  0.297100  0.739600  1.0  0.0033
  C  C149  1  0.504900  0.288300  0.185100  1.0  -0.0164
  C  C150  1  0.653800  0.301900  0.377500  1.0  -0.1392
  C  C151  1  0.075600  0.275400  0.748900  1.0  -0.0762
  C  C152  1  0.909800  0.260600  0.780700  1.0  -0.0371
  C  C153  1  0.570800  0.270800  0.295900  1.0  -0.0496
  C  C154  1  0.418400  0.248500  0.112000  1.0  -0.0009
  C  C155  1  0.078600  0.222700  0.783400  1.0  -0.0631
  C  C156  1  0.909500  0.280100  0.890000  1.0  -0.3392
  C  C157  1  0.787800  0.251300  0.689900  1.0  -0.3547
  C  C158  1  0.981900  0.213200  0.803300  1.0  0.0036
  C  C159  1  0.537500  0.219200  0.302900  1.0  -0.0297
  C  C160  1  0.295800  0.266800  0.070200  1.0  -0.3612
  C  C161  1  0.440500  0.233000  0.011800  1.0  -0.3377
  C  C162  1  0.446700  0.205500  0.197700  1.0  -0.015
  C  C163  1  0.155200  0.183900  0.799100  1.0  -0.0765
  C  C164  1  0.962800  0.166100  0.834900  1.0  -0.0751
  C  C165  1  0.577800  0.184700  0.393600  1.0  -0.1164
  C  C166  1  0.397900  0.158400  0.182800  1.0  -0.1071
  C  C167  1  0.139500  0.137500  0.835600  1.0  -0.0452
  C  C168  1  0.041800  0.128400  0.851400  1.0  -0.1448
  C  C169  1  0.532100  0.138100  0.377200  1.0  -0.0327
  C  C170  1  0.438600  0.124400  0.272500  1.0  -0.1496
  C  C171  1  0.023200  0.076200  0.885500  1.0  0.7568
  C  C172  1  0.384800  0.073400  0.258000  1.0  0.6892
  C  C173  1  0.987600  0.075400  0.117000  1.0  0.7259
  C  C174  1  0.622100  0.080500  0.703000  1.0  0.7265
  C  C175  1  0.019900  0.127300  0.171200  1.0  -0.1368
  C  C176  1  0.604000  0.132700  0.736400  1.0  -0.1452
  C  C177  1  0.123300  0.148600  0.183400  1.0  0.0014
  C  C178  1  0.945900  0.154500  0.198700  1.0  -0.0679
  C  C179  1  0.521500  0.163900  0.656100  1.0  -0.0811
  C  C180  1  0.668400  0.150600  0.847100  1.0  -0.0038
  C  C181  1  0.150600  0.196900  0.222400  1.0  -0.0738
  C  C182  1  0.973800  0.202900  0.239600  1.0  0.0032
  C  C183  1  0.504900  0.211700  0.685100  1.0  -0.016
  C  C184  1  0.653800  0.198100  0.877500  1.0  -0.1391
  C  C185  1  0.075600  0.224600  0.248900  1.0  -0.0766
  C  C186  1  0.909800  0.239400  0.280700  1.0  -0.0369
  C  C187  1  0.570800  0.229200  0.795900  1.0  -0.0505
  C  C188  1  0.418400  0.251500  0.612000  1.0  -0.0009
  C  C189  1  0.078600  0.277300  0.283400  1.0  -0.0627
  C  C190  1  0.909500  0.219900  0.390000  1.0  -0.3386
  C  C191  1  0.787800  0.248700  0.189900  1.0  -0.3543
  C  C192  1  0.981900  0.286800  0.303300  1.0  0.0031
  C  C193  1  0.537500  0.280800  0.802900  1.0  -0.0293
  C  C194  1  0.295800  0.233200  0.570200  1.0  -0.3607
  C  C195  1  0.440500  0.267000  0.511800  1.0  -0.3378
  C  C196  1  0.446700  0.294500  0.697700  1.0  -0.0149
  C  C197  1  0.155200  0.316100  0.299100  1.0  -0.0752
  C  C198  1  0.962800  0.333900  0.334900  1.0  -0.0765
  C  C199  1  0.577800  0.315300  0.893600  1.0  -0.1167
  C  C200  1  0.397900  0.341600  0.682800  1.0  -0.1077
  C  C201  1  0.139500  0.362500  0.335600  1.0  -0.0426
  C  C202  1  0.041800  0.371600  0.351400  1.0  -0.1438
  C  C203  1  0.532100  0.361900  0.877200  1.0  -0.0332
  C  C204  1  0.438600  0.375600  0.772500  1.0  -0.1494
  C  C205  1  0.023200  0.423800  0.385500  1.0  0.7584
  C  C206  1  0.384800  0.426600  0.758000  1.0  0.6897
  C  C207  1  0.012400  0.575400  0.383000  1.0  0.726
  C  C208  1  0.377900  0.580500  0.797000  1.0  0.7271
  C  C209  1  0.980100  0.627300  0.328800  1.0  -0.1359
  C  C210  1  0.396000  0.632700  0.763600  1.0  -0.1453
  C  C211  1  0.876700  0.648600  0.316600  1.0  0.0009
  C  C212  1  0.054100  0.654500  0.301300  1.0  -0.0691
  C  C213  1  0.478500  0.663900  0.843900  1.0  -0.0815
  C  C214  1  0.331600  0.650600  0.652900  1.0  -0.0042
  C  C215  1  0.849400  0.696900  0.277600  1.0  -0.0739
  C  C216  1  0.026200  0.702900  0.260400  1.0  0.0031
  C  C217  1  0.495100  0.711700  0.814900  1.0  -0.017
  C  C218  1  0.346200  0.698100  0.622500  1.0  -0.14
  C  C219  1  0.924400  0.724600  0.251100  1.0  -0.0774
  C  C220  1  0.090200  0.739400  0.219300  1.0  -0.0376
  C  C221  1  0.429200  0.729200  0.704100  1.0  -0.0507
  C  C222  1  0.581600  0.751500  0.888000  1.0  0.0013
  C  C223  1  0.921400  0.777300  0.216600  1.0  -0.062
  C  C224  1  0.090500  0.719900  0.110000  1.0  -0.338
  C  C225  1  0.212200  0.748700  0.310100  1.0  -0.3536
  C  C226  1  0.018100  0.786800  0.196700  1.0  0.0036
  C  C227  1  0.462500  0.780800  0.697100  1.0  -0.028
  C  C228  1  0.704200  0.733200  0.929800  1.0  -0.3605
  C  C229  1  0.559500  0.767000  0.988200  1.0  -0.3362
  C  C230  1  0.553300  0.794500  0.802300  1.0  -0.0146
  C  C231  1  0.844800  0.816100  0.200900  1.0  -0.0748
  C  C232  1  0.037200  0.833900  0.165100  1.0  -0.0753
  C  C233  1  0.422200  0.815300  0.606400  1.0  -0.1178
  C  C234  1  0.602100  0.841600  0.817200  1.0  -0.108
  C  C235  1  0.860500  0.862500  0.164400  1.0  -0.0441
  C  C236  1  0.958200  0.871600  0.148600  1.0  -0.144
  C  C237  1  0.467900  0.861900  0.622800  1.0  -0.032
  C  C238  1  0.561400  0.875600  0.727500  1.0  -0.149
  C  C239  1  0.976800  0.923800  0.114500  1.0  0.7576
  C  C240  1  0.615200  0.926600  0.742000  1.0  0.6895
  N  N241  1  0.689000  0.936800  0.406000  1.0  0.6751
  N  N242  1  0.311000  0.436800  0.094000  1.0  0.6741
  N  N243  1  0.311000  0.063200  0.594000  1.0  0.6751
  N  N244  1  0.689000  0.563200  0.906000  1.0  0.6751
  O  O245  1  0.116500  0.933600  0.934900  1.0  -0.6411
  O  O246  1  0.309300  0.947700  0.219800  1.0  -0.7659
  O  O247  1  0.066700  0.045800  0.126500  1.0  -0.7502
  O  O248  1  0.109400  0.047500  0.929700  1.0  -0.7091
  O  O249  1  0.074900  0.934900  0.126300  1.0  -0.7356
  O  O250  1  0.307000  0.061000  0.167300  1.0  -0.6787
  O  O251  1  0.431500  0.931500  0.397600  1.0  -0.6577
  O  O252  1  0.686000  0.926500  0.499000  1.0  -0.6717
  O  O253  1  0.610000  0.967900  0.349000  1.0  -0.6271
  O  O254  1  0.426600  0.044500  0.347200  1.0  -0.7121
  O  O255  1  0.737000  0.910400  0.371000  1.0  -0.4258
  O  O256  1  0.883500  0.433600  0.565100  1.0  -0.6436
  O  O257  1  0.690700  0.447700  0.280200  1.0  -0.7666
  O  O258  1  0.933300  0.545800  0.373500  1.0  -0.7525
  O  O259  1  0.890600  0.547500  0.570300  1.0  -0.7082
  O  O260  1  0.925100  0.434900  0.373700  1.0  -0.7362
  O  O261  1  0.693000  0.561000  0.332700  1.0  -0.6798
  O  O262  1  0.568500  0.431500  0.102400  1.0  -0.657
  O  O263  1  0.314000  0.426500  0.001000  1.0  -0.6699
  O  O264  1  0.390000  0.467900  0.151000  1.0  -0.6274
  O  O265  1  0.573400  0.544500  0.152800  1.0  -0.7127
  O  O266  1  0.263000  0.410400  0.129000  1.0  -0.4265
  O  O267  1  0.883500  0.066400  0.065100  1.0  -0.643
  O  O268  1  0.690700  0.052300  0.780200  1.0  -0.7643
  O  O269  1  0.933300  0.954200  0.873500  1.0  -0.7511
  O  O270  1  0.890600  0.952500  0.070300  1.0  -0.7083
  O  O271  1  0.925100  0.065100  0.873700  1.0  -0.7366
  O  O272  1  0.693000  0.939000  0.832700  1.0  -0.68
  O  O273  1  0.568500  0.068500  0.602400  1.0  -0.6514
  O  O274  1  0.314000  0.073500  0.501000  1.0  -0.6695
  O  O275  1  0.390000  0.032100  0.651000  1.0  -0.626
  O  O276  1  0.573400  0.955500  0.652800  1.0  -0.7126
  O  O277  1  0.263000  0.089600  0.629000  1.0  -0.4267
  O  O278  1  0.116500  0.566400  0.434900  1.0  -0.6414
  O  O279  1  0.309300  0.552300  0.719800  1.0  -0.7657
  O  O280  1  0.066700  0.454200  0.626500  1.0  -0.7513
  O  O281  1  0.109400  0.452500  0.429700  1.0  -0.7093
  O  O282  1  0.074900  0.565100  0.626300  1.0  -0.7348
  O  O283  1  0.307000  0.439000  0.667300  1.0  -0.6779
  O  O284  1  0.431500  0.568500  0.897600  1.0  -0.6508
  O  O285  1  0.686000  0.573500  0.999000  1.0  -0.6714
  O  O286  1  0.610000  0.532100  0.849000  1.0  -0.627
  O  O287  1  0.426600  0.455500  0.847200  1.0  -0.7114
  O  O288  1  0.737000  0.589600  0.871000  1.0  -0.4272
