# generated using pymatgen
data_Sm2H24C34NO11
_symmetry_space_group_name_H-M   'P 1'
_cell_length_a   12.91900000
_cell_length_b   26.84330000
_cell_length_c   13.29240000
_cell_angle_alpha   90.00000000
_cell_angle_beta   116.75900000
_cell_angle_gamma   90.00000000
_symmetry_Int_Tables_number   1
_chemical_formula_structural   Sm2H24C34NO11
_chemical_formula_sum   'Sm8 H96 C136 N4 O44'
_cell_volume   4115.99682905
_cell_formula_units_Z   4
loop_
 _symmetry_equiv_pos_site_id
 _symmetry_equiv_pos_as_xyz
  1  'x, y, z'
loop_
 _atom_site_type_symbol
 _atom_site_label
 _atom_site_symmetry_multiplicity
 _atom_site_fract_x
 _atom_site_fract_y
 _atom_site_fract_z
 _atom_site_occupancy
 _atom_site_charge
  Sm  Sm1  1  0.821630  0.001780  0.923280  1.0  2.3174
  Sm  Sm2  1  0.444910  0.006420  0.497250  1.0  2.1051
  Sm  Sm3  1  0.178370  0.501780  0.576720  1.0  2.3179
  Sm  Sm4  1  0.555090  0.506420  0.002750  1.0  2.0985
  Sm  Sm5  1  0.178370  0.998220  0.076720  1.0  2.3178
  Sm  Sm6  1  0.555090  0.993580  0.502750  1.0  2.0927
  Sm  Sm7  1  0.821630  0.498220  0.423280  1.0  2.3174
  Sm  Sm8  1  0.444910  0.493580  0.997250  1.0  2.0988
  H  H9  1  0.147700  0.126200  0.156100  1.0  0.0852
  H  H10  1  0.857800  0.135000  0.195800  1.0  0.1147
  H  H11  1  0.467900  0.149100  0.592300  1.0  0.1104
  H  H12  1  0.715500  0.126600  0.909100  1.0  0.0903
  H  H13  1  0.197100  0.207000  0.222300  1.0  0.1113
  H  H14  1  0.688300  0.207000  0.958100  1.0  0.1065
  H  H15  1  0.868200  0.239500  0.429200  1.0  0.1122
  H  H16  1  0.977700  0.207400  0.451100  1.0  0.12
  H  H17  1  0.853500  0.184500  0.385000  1.0  0.1159
  H  H18  1  0.735500  0.268100  0.222900  1.0  0.0993
  H  H19  1  0.725500  0.212000  0.186800  1.0  0.1076
  H  H20  1  0.769800  0.251700  0.128700  1.0  0.1071
  H  H21  1  0.271700  0.219400  0.641500  1.0  0.1057
  H  H22  1  0.268500  0.203600  0.526600  1.0  0.1101
  H  H23  1  0.230900  0.257500  0.541600  1.0  0.1098
  H  H24  1  0.382400  0.291800  0.484300  1.0  0.1036
  H  H25  1  0.409500  0.236100  0.469100  1.0  0.1078
  H  H26  1  0.509800  0.271700  0.547200  1.0  0.1056
  H  H27  1  0.206400  0.303300  0.288200  1.0  0.1223
  H  H28  1  0.884400  0.333800  0.348900  1.0  0.0923
  H  H29  1  0.633100  0.301900  0.968400  1.0  0.1096
  H  H30  1  0.329700  0.346800  0.622700  1.0  0.1091
  H  H31  1  0.178100  0.380500  0.349100  1.0  0.0981
  H  H32  1  0.550300  0.380700  0.942500  1.0  0.0897
  H  H33  1  0.852300  0.626200  0.343900  1.0  0.086
  H  H34  1  0.142200  0.635000  0.304200  1.0  0.1134
  H  H35  1  0.532100  0.649100  0.907700  1.0  0.1105
  H  H36  1  0.284500  0.626600  0.590900  1.0  0.0902
  H  H37  1  0.802900  0.707000  0.277700  1.0  0.1105
  H  H38  1  0.311700  0.707000  0.541900  1.0  0.1057
  H  H39  1  0.131800  0.739500  0.070800  1.0  0.1117
  H  H40  1  0.022300  0.707400  0.048900  1.0  0.1225
  H  H41  1  0.146500  0.684500  0.115000  1.0  0.1153
  H  H42  1  0.264500  0.768100  0.277100  1.0  0.0996
  H  H43  1  0.274500  0.712000  0.313200  1.0  0.1076
  H  H44  1  0.230200  0.751700  0.371300  1.0  0.1067
  H  H45  1  0.728300  0.719400  0.858500  1.0  0.1054
  H  H46  1  0.731500  0.703600  0.973400  1.0  0.111
  H  H47  1  0.769100  0.757500  0.958400  1.0  0.11
  H  H48  1  0.617600  0.791800  0.015700  1.0  0.1026
  H  H49  1  0.590500  0.736100  0.030900  1.0  0.1077
  H  H50  1  0.490200  0.771700  0.952800  1.0  0.1059
  H  H51  1  0.793600  0.803300  0.211800  1.0  0.1223
  H  H52  1  0.115600  0.833800  0.151100  1.0  0.0921
  H  H53  1  0.366900  0.801900  0.531600  1.0  0.1101
  H  H54  1  0.670300  0.846800  0.877300  1.0  0.109
  H  H55  1  0.821900  0.880500  0.150900  1.0  0.0986
  H  H56  1  0.449700  0.880700  0.557500  1.0  0.0906
  H  H57  1  0.852300  0.873800  0.843900  1.0  0.0859
  H  H58  1  0.142200  0.865000  0.804200  1.0  0.1135
  H  H59  1  0.532100  0.850900  0.407700  1.0  0.1099
  H  H60  1  0.284500  0.873400  0.090900  1.0  0.0908
  H  H61  1  0.802900  0.793000  0.777700  1.0  0.1105
  H  H62  1  0.311700  0.793000  0.041900  1.0  0.1061
  H  H63  1  0.131800  0.760500  0.570800  1.0  0.1116
  H  H64  1  0.022300  0.792600  0.548900  1.0  0.1229
  H  H65  1  0.146500  0.815500  0.615000  1.0  0.1172
  H  H66  1  0.264500  0.731900  0.777100  1.0  0.0994
  H  H67  1  0.274500  0.788000  0.813200  1.0  0.1077
  H  H68  1  0.230200  0.748300  0.871300  1.0  0.1066
  H  H69  1  0.728300  0.780600  0.358500  1.0  0.1057
  H  H70  1  0.731500  0.796400  0.473400  1.0  0.1106
  H  H71  1  0.769100  0.742500  0.458400  1.0  0.1103
  H  H72  1  0.617600  0.708200  0.515700  1.0  0.1035
  H  H73  1  0.590500  0.763900  0.530900  1.0  0.1079
  H  H74  1  0.490200  0.728300  0.452800  1.0  0.1063
  H  H75  1  0.793600  0.696700  0.711800  1.0  0.1235
  H  H76  1  0.115600  0.666200  0.651100  1.0  0.0921
  H  H77  1  0.366900  0.698100  0.031600  1.0  0.1103
  H  H78  1  0.670300  0.653200  0.377300  1.0  0.1098
  H  H79  1  0.821900  0.619500  0.650900  1.0  0.0977
  H  H80  1  0.449700  0.619300  0.057500  1.0  0.0901
  H  H81  1  0.147700  0.373800  0.656100  1.0  0.0854
  H  H82  1  0.857800  0.365000  0.695800  1.0  0.114
  H  H83  1  0.467900  0.350900  0.092300  1.0  0.1102
  H  H84  1  0.715500  0.373400  0.409100  1.0  0.0902
  H  H85  1  0.197100  0.293000  0.722300  1.0  0.1115
  H  H86  1  0.688300  0.293000  0.458100  1.0  0.1064
  H  H87  1  0.868200  0.260500  0.929200  1.0  0.1119
  H  H88  1  0.977700  0.292600  0.951100  1.0  0.1202
  H  H89  1  0.853500  0.315500  0.885000  1.0  0.1168
  H  H90  1  0.735500  0.231900  0.722900  1.0  0.0994
  H  H91  1  0.725500  0.288000  0.686800  1.0  0.1083
  H  H92  1  0.769800  0.248300  0.628700  1.0  0.107
  H  H93  1  0.271700  0.280600  0.141500  1.0  0.105
  H  H94  1  0.268500  0.296400  0.026600  1.0  0.1111
  H  H95  1  0.230900  0.242500  0.041600  1.0  0.1097
  H  H96  1  0.382400  0.208200  0.984300  1.0  0.1028
  H  H97  1  0.409500  0.263900  0.969100  1.0  0.1084
  H  H98  1  0.509800  0.228300  0.047200  1.0  0.1056
  H  H99  1  0.206400  0.196700  0.788200  1.0  0.1234
  H  H100  1  0.884400  0.166200  0.848900  1.0  0.0924
  H  H101  1  0.633100  0.198100  0.468400  1.0  0.11
  H  H102  1  0.329700  0.153200  0.122700  1.0  0.109
  H  H103  1  0.178100  0.119500  0.849100  1.0  0.0979
  H  H104  1  0.550300  0.119300  0.442500  1.0  0.0901
  C  C105  1  0.960100  0.072600  0.114100  1.0  0.707
  C  C106  1  0.612900  0.078000  0.715700  1.0  0.7305
  C  C107  1  0.996000  0.122700  0.166700  1.0  -0.1403
  C  C108  1  0.594000  0.130200  0.746400  1.0  -0.106
  C  C109  1  0.099000  0.144300  0.176700  1.0  -0.0135
  C  C110  1  0.925800  0.149200  0.201300  1.0  -0.0692
  C  C111  1  0.511500  0.160700  0.665400  1.0  -0.0828
  C  C112  1  0.660400  0.147300  0.855700  1.0  0.0036
  C  C113  1  0.129200  0.192700  0.216900  1.0  -0.0743
  C  C114  1  0.957200  0.197100  0.244300  1.0  0.0142
  C  C115  1  0.494900  0.208300  0.694300  1.0  0.0098
  C  C116  1  0.644600  0.195300  0.885200  1.0  -0.0768
  C  C117  1  0.056700  0.219300  0.248900  1.0  -0.056
  C  C118  1  0.893900  0.233000  0.287400  1.0  -0.0354
  C  C119  1  0.562300  0.225600  0.803500  1.0  -0.057
  C  C120  1  0.408900  0.248600  0.621100  1.0  -0.0104
  C  C121  1  0.062600  0.270600  0.287000  1.0  -0.0263
  C  C122  1  0.898800  0.214400  0.398600  1.0  -0.3467
  C  C123  1  0.769600  0.242000  0.198200  1.0  -0.333
  C  C124  1  0.967500  0.279900  0.307600  1.0  0.0018
  C  C125  1  0.529100  0.277700  0.810700  1.0  -0.0809
  C  C126  1  0.283200  0.230600  0.578600  1.0  -0.3392
  C  C127  1  0.429500  0.263400  0.521200  1.0  -0.3451
  C  C128  1  0.438500  0.291000  0.705700  1.0  -0.0121
  C  C129  1  0.142700  0.308900  0.301700  1.0  -0.1503
  C  C130  1  0.949600  0.327400  0.338400  1.0  -0.0669
  C  C131  1  0.572100  0.310800  0.899600  1.0  -0.0978
  C  C132  1  0.389800  0.337600  0.691800  1.0  -0.1026
  C  C133  1  0.124300  0.355200  0.336600  1.0  -0.0234
  C  C134  1  0.027800  0.365100  0.353400  1.0  -0.1519
  C  C135  1  0.522300  0.357700  0.883800  1.0  -0.0124
  C  C136  1  0.430700  0.370700  0.780900  1.0  -0.1522
  C  C137  1  0.011000  0.416500  0.387800  1.0  0.7572
  C  C138  1  0.375400  0.421400  0.767900  1.0  0.7305
  C  C139  1  0.039900  0.572600  0.385900  1.0  0.7076
  C  C140  1  0.387100  0.578000  0.784300  1.0  0.7299
  C  C141  1  0.004000  0.622700  0.333333  1.0  -0.1432
  C  C142  1  0.406000  0.630200  0.753600  1.0  -0.1068
  C  C143  1  0.901000  0.644300  0.323300  1.0  -0.0146
  C  C144  1  0.074200  0.649200  0.298700  1.0  -0.0704
  C  C145  1  0.488500  0.660700  0.834600  1.0  -0.0828
  C  C146  1  0.339600  0.647300  0.644300  1.0  0.0018
  C  C147  1  0.870800  0.692700  0.283100  1.0  -0.0747
  C  C148  1  0.042800  0.697100  0.255700  1.0  0.0137
  C  C149  1  0.505100  0.708300  0.805700  1.0  0.0086
  C  C150  1  0.355400  0.695300  0.614800  1.0  -0.0759
  C  C151  1  0.943300  0.719300  0.251100  1.0  -0.0559
  C  C152  1  0.106100  0.733000  0.212600  1.0  -0.0358
  C  C153  1  0.437700  0.725600  0.696500  1.0  -0.0569
  C  C154  1  0.591100  0.748600  0.878900  1.0  -0.0101
  C  C155  1  0.937400  0.770600  0.213000  1.0  -0.026
  C  C156  1  0.101200  0.714400  0.101400  1.0  -0.3461
  C  C157  1  0.230400  0.742000  0.301800  1.0  -0.3329
  C  C158  1  0.032500  0.779900  0.192400  1.0  0.0015
  C  C159  1  0.470900  0.777700  0.689300  1.0  -0.0806
  C  C160  1  0.716800  0.730600  0.921400  1.0  -0.3393
  C  C161  1  0.570500  0.763400  0.978800  1.0  -0.3441
  C  C162  1  0.561500  0.791000  0.794300  1.0  -0.0126
  C  C163  1  0.857300  0.808900  0.198300  1.0  -0.152
  C  C164  1  0.050400  0.827400  0.161600  1.0  -0.0663
  C  C165  1  0.427900  0.810800  0.600400  1.0  -0.0973
  C  C166  1  0.610200  0.837600  0.808200  1.0  -0.1032
  C  C167  1  0.875700  0.855200  0.163400  1.0  -0.0249
  C  C168  1  0.972200  0.865100  0.146600  1.0  -0.1514
  C  C169  1  0.477700  0.857700  0.616200  1.0  -0.0107
  C  C170  1  0.569300  0.870700  0.719100  1.0  -0.1524
  C  C171  1  0.989000  0.916500  0.112200  1.0  0.7547
  C  C172  1  0.624600  0.921400  0.732100  1.0  0.7294
  C  C173  1  0.039900  0.927400  0.885900  1.0  0.7091
  C  C174  1  0.387100  0.922000  0.284300  1.0  0.7343
  C  C175  1  0.004000  0.877300  0.833300  1.0  -0.1395
  C  C176  1  0.406000  0.869800  0.253600  1.0  -0.1096
  C  C177  1  0.901000  0.855700  0.823300  1.0  -0.0148
  C  C178  1  0.074200  0.850800  0.798700  1.0  -0.0682
  C  C179  1  0.488500  0.839300  0.334600  1.0  -0.0848
  C  C180  1  0.339600  0.852700  0.144300  1.0  0.0029
  C  C181  1  0.870800  0.807300  0.783100  1.0  -0.0743
  C  C182  1  0.042800  0.802900  0.755700  1.0  0.0142
  C  C183  1  0.505100  0.791700  0.305700  1.0  0.0089
  C  C184  1  0.355400  0.804700  0.114800  1.0  -0.0754
  C  C185  1  0.943300  0.780700  0.751100  1.0  -0.0551
  C  C186  1  0.106100  0.767000  0.712600  1.0  -0.0358
  C  C187  1  0.437700  0.774400  0.196500  1.0  -0.0564
  C  C188  1  0.591100  0.751400  0.378900  1.0  -0.0103
  C  C189  1  0.937400  0.729400  0.713000  1.0  -0.0261
  C  C190  1  0.101200  0.785600  0.601400  1.0  -0.3469
  C  C191  1  0.230400  0.758000  0.801800  1.0  -0.3334
  C  C192  1  0.032500  0.720100  0.692400  1.0  0.0021
  C  C193  1  0.470900  0.722300  0.189300  1.0  -0.0809
  C  C194  1  0.716800  0.769400  0.421400  1.0  -0.3392
  C  C195  1  0.570500  0.736600  0.478800  1.0  -0.3442
  C  C196  1  0.561500  0.709000  0.294300  1.0  -0.0133
  C  C197  1  0.857300  0.691100  0.698300  1.0  -0.1519
  C  C198  1  0.050400  0.672600  0.661600  1.0  -0.0657
  C  C199  1  0.427900  0.689200  0.100400  1.0  -0.0966
  C  C200  1  0.610200  0.662400  0.308200  1.0  -0.1017
  C  C201  1  0.875700  0.644800  0.663400  1.0  -0.0234
  C  C202  1  0.972200  0.634900  0.646600  1.0  -0.155
  C  C203  1  0.477700  0.642300  0.116200  1.0  -0.0113
  C  C204  1  0.569300  0.629300  0.219100  1.0  -0.1513
  C  C205  1  0.989000  0.583500  0.612200  1.0  0.738
  C  C206  1  0.624600  0.578600  0.232100  1.0  0.73
  C  C207  1  0.960100  0.427400  0.614100  1.0  0.7069
  C  C208  1  0.612900  0.422000  0.215700  1.0  0.7338
  C  C209  1  0.996000  0.377300  0.666667  1.0  -0.1419
  C  C210  1  0.594000  0.369800  0.246400  1.0  -0.1083
  C  C211  1  0.099000  0.355700  0.676700  1.0  -0.0129
  C  C212  1  0.925800  0.350800  0.701300  1.0  -0.072
  C  C213  1  0.511500  0.339300  0.165400  1.0  -0.0845
  C  C214  1  0.660400  0.352700  0.355700  1.0  0.0033
  C  C215  1  0.129200  0.307300  0.716900  1.0  -0.074
  C  C216  1  0.957200  0.302900  0.744300  1.0  0.0147
  C  C217  1  0.494900  0.291700  0.194300  1.0  0.0097
  C  C218  1  0.644600  0.304700  0.385200  1.0  -0.0763
  C  C219  1  0.056700  0.280700  0.748900  1.0  -0.0554
  C  C220  1  0.893900  0.267000  0.787400  1.0  -0.0356
  C  C221  1  0.562300  0.274400  0.303500  1.0  -0.0561
  C  C222  1  0.408900  0.251400  0.121100  1.0  -0.0105
  C  C223  1  0.062600  0.229400  0.787000  1.0  -0.0264
  C  C224  1  0.898800  0.285600  0.898600  1.0  -0.3467
  C  C225  1  0.769600  0.258000  0.698200  1.0  -0.3332
  C  C226  1  0.967500  0.220100  0.807600  1.0  0.002
  C  C227  1  0.529100  0.222300  0.310700  1.0  -0.0809
  C  C228  1  0.283200  0.269400  0.078600  1.0  -0.3398
  C  C229  1  0.429500  0.236600  0.021200  1.0  -0.3438
  C  C230  1  0.438500  0.209000  0.205700  1.0  -0.0126
  C  C231  1  0.142700  0.191100  0.801700  1.0  -0.1514
  C  C232  1  0.949600  0.172600  0.838400  1.0  -0.0653
  C  C233  1  0.572100  0.189200  0.399600  1.0  -0.0972
  C  C234  1  0.389800  0.162400  0.191800  1.0  -0.1015
  C  C235  1  0.124300  0.144800  0.836600  1.0  -0.0251
  C  C236  1  0.027800  0.134900  0.853400  1.0  -0.1555
  C  C237  1  0.522300  0.142300  0.383800  1.0  -0.012
  C  C238  1  0.430700  0.129300  0.280900  1.0  -0.1516
  C  C239  1  0.011000  0.083500  0.887800  1.0  0.7356
  C  C240  1  0.375400  0.078600  0.267900  1.0  0.731
  N  N241  1  0.298400  0.063800  0.586000  1.0  0.4967
  N  N242  1  0.701600  0.563800  0.914000  1.0  0.5007
  N  N243  1  0.701600  0.936200  0.414000  1.0  0.5006
  N  N244  1  0.298400  0.436200  0.086000  1.0  0.497
  O  O245  1  0.034400  0.043290  0.106700  1.0  -0.8476
  O  O246  1  0.854300  0.061620  0.070600  1.0  -0.6675
  O  O247  1  0.670100  0.048490  0.794300  1.0  -0.7386
  O  O248  1  0.901300  0.944500  0.071500  1.0  -0.7441
  O  O249  1  0.910600  0.071270  0.873000  1.0  -0.7143
  O  O250  1  0.706400  0.932900  0.820000  1.0  -0.6766
  O  O251  1  0.566500  0.066710  0.612400  1.0  -0.6812
  O  O252  1  0.302000  0.074300  0.504200  1.0  -0.6099
  O  O253  1  0.366300  0.028100  0.634500  1.0  -0.6108
  O  O254  1  0.575200  0.950900  0.649300  1.0  -0.7196
  O  O255  1  0.256200  0.086800  0.636900  1.0  -0.429
  O  O256  1  0.965600  0.543290  0.393300  1.0  -0.8476
  O  O257  1  0.145700  0.561620  0.429400  1.0  -0.6697
  O  O258  1  0.329900  0.548490  0.705700  1.0  -0.7383
  O  O259  1  0.098700  0.444500  0.428500  1.0  -0.7456
  O  O260  1  0.089400  0.571270  0.627000  1.0  -0.7152
  O  O261  1  0.293600  0.432900  0.680000  1.0  -0.6739
  O  O262  1  0.433500  0.566710  0.887600  1.0  -0.6809
  O  O263  1  0.698000  0.574300  0.995800  1.0  -0.606
  O  O264  1  0.633700  0.528100  0.865500  1.0  -0.6125
  O  O265  1  0.424800  0.450900  0.850700  1.0  -0.719
  O  O266  1  0.743800  0.586800  0.863100  1.0  -0.4294
  O  O267  1  0.965600  0.956710  0.893300  1.0  -0.8472
  O  O268  1  0.145700  0.938380  0.929400  1.0  -0.6691
  O  O269  1  0.329900  0.951510  0.205700  1.0  -0.7374
  O  O270  1  0.098700  0.055500  0.928500  1.0  -0.7466
  O  O271  1  0.089400  0.928730  0.127000  1.0  -0.7158
  O  O272  1  0.293600  0.067100  0.180000  1.0  -0.6746
  O  O273  1  0.433500  0.933290  0.387600  1.0  -0.681
  O  O274  1  0.698000  0.925700  0.495800  1.0  -0.605
  O  O275  1  0.633700  0.971900  0.365500  1.0  -0.6127
  O  O276  1  0.424800  0.049100  0.350700  1.0  -0.72
  O  O277  1  0.743800  0.913200  0.363100  1.0  -0.4284
  O  O278  1  0.034400  0.456710  0.606700  1.0  -0.8488
  O  O279  1  0.854300  0.438380  0.570600  1.0  -0.6693
  O  O280  1  0.670100  0.451510  0.294300  1.0  -0.7389
  O  O281  1  0.901300  0.555500  0.571500  1.0  -0.7445
  O  O282  1  0.910600  0.428730  0.373000  1.0  -0.7134
  O  O283  1  0.706400  0.567100  0.320000  1.0  -0.6765
  O  O284  1  0.566500  0.433290  0.112400  1.0  -0.6798
  O  O285  1  0.302000  0.425700  0.004200  1.0  -0.6121
  O  O286  1  0.366300  0.471900  0.134500  1.0  -0.6126
  O  O287  1  0.575200  0.549100  0.149300  1.0  -0.7201
  O  O288  1  0.256200  0.413200  0.136900  1.0  -0.4289
