# generated using pymatgen
data_Co5H2(C11O10)2
_symmetry_space_group_name_H-M   'P 1'
_cell_length_a   11.37680000
_cell_length_b   12.61620000
_cell_length_c   15.34010000
_cell_angle_alpha   91.53900000
_cell_angle_beta   90.00000000
_cell_angle_gamma   90.00000000
_symmetry_Int_Tables_number   1
_chemical_formula_structural   Co5H2(C11O10)2
_chemical_formula_sum   'Co10 H4 C44 O40'
_cell_volume   2201.00074840
_cell_formula_units_Z   2
loop_
 _symmetry_equiv_pos_site_id
 _symmetry_equiv_pos_as_xyz
  1  'x, y, z'
loop_
 _atom_site_type_symbol
 _atom_site_label
 _atom_site_symmetry_multiplicity
 _atom_site_fract_x
 _atom_site_fract_y
 _atom_site_fract_z
 _atom_site_occupancy
 _atom_site_charge
  Co  Co1  1  0.900040  0.287660  0.771220  1.0  1.11
  Co  Co2  1  0.998030  0.505990  0.707580  1.0  1.1002
  Co  Co3  1  0.400040  0.712340  0.728780  1.0  1.1154
  Co  Co4  1  0.498030  0.494010  0.792420  1.0  1.1018
  Co  Co5  1  0.099960  0.712340  0.228780  1.0  1.1138
  Co  Co6  1  0.001970  0.494010  0.292420  1.0  1.1022
  Co  Co7  1  0.599960  0.287660  0.271220  1.0  1.1069
  Co  Co8  1  0.501970  0.505990  0.207580  1.0  1.1007
  Co  Co9  1  0.000000  0.000000  0.000000  1.0  0.802
  Co  Co10  1  0.500000  0.000000  0.500000  1.0  0.802
  H  H11  1  0.074000  0.320000  0.064000  1.0  0.1323
  H  H12  1  0.574000  0.680000  0.436000  1.0  0.1309
  H  H13  1  0.926000  0.680000  0.936000  1.0  0.1316
  H  H14  1  0.426000  0.320000  0.564000  1.0  0.133
  C  C15  1  0.111900  0.317900  0.929480  1.0  -0.11
  C  C16  1  0.152800  0.378900  0.861090  1.0  -0.0453
  C  C17  1  0.193600  0.482500  0.878210  1.0  -0.1717
  C  C18  1  0.189000  0.527400  0.962260  1.0  0.0325
  C  C19  1  0.140500  0.467400  0.029330  1.0  -0.1455
  C  C20  1  0.107200  0.363200  0.012990  1.0  0.009
  C  C21  1  0.063100  0.208300  0.915620  1.0  0.7403
  C  C22  1  0.152100  0.334600  0.768730  1.0  0.6734
  C  C23  1  0.233800  0.549200  0.804200  1.0  0.7432
  C  C24  1  0.233300  0.640000  0.977500  1.0  0.6207
  C  C25  1  0.108800  0.516700  0.115860  1.0  0.6975
  C  C26  1  0.611900  0.682100  0.570520  1.0  -0.1068
  C  C27  1  0.652800  0.621100  0.638910  1.0  -0.0467
  C  C28  1  0.693600  0.517500  0.621790  1.0  -0.172
  C  C29  1  0.689000  0.472600  0.537740  1.0  0.0324
  C  C30  1  0.640500  0.532600  0.470670  1.0  -0.1451
  C  C31  1  0.607200  0.636800  0.487010  1.0  0.0081
  C  C32  1  0.563100  0.791700  0.584380  1.0  0.7436
  C  C33  1  0.652100  0.665400  0.731270  1.0  0.6725
  C  C34  1  0.733800  0.450800  0.695800  1.0  0.7424
  C  C35  1  0.733300  0.360000  0.522500  1.0  0.6191
  C  C36  1  0.608800  0.483300  0.384140  1.0  0.6969
  C  C37  1  0.888100  0.682100  0.070520  1.0  -0.105
  C  C38  1  0.847200  0.621100  0.138910  1.0  -0.0463
  C  C39  1  0.806400  0.517500  0.121790  1.0  -0.1736
  C  C40  1  0.811000  0.472600  0.037740  1.0  0.0332
  C  C41  1  0.859500  0.532600  0.970670  1.0  -0.1449
  C  C42  1  0.892800  0.636800  0.987010  1.0  0.0065
  C  C43  1  0.936900  0.791700  0.084380  1.0  0.7438
  C  C44  1  0.847900  0.665400  0.231270  1.0  0.672
  C  C45  1  0.766200  0.450800  0.195800  1.0  0.7429
  C  C46  1  0.766700  0.360000  0.022500  1.0  0.6203
  C  C47  1  0.891200  0.483300  0.884140  1.0  0.6976
  C  C48  1  0.388100  0.317900  0.429480  1.0  -0.1094
  C  C49  1  0.347200  0.378900  0.361090  1.0  -0.0461
  C  C50  1  0.306400  0.482500  0.378210  1.0  -0.1735
  C  C51  1  0.311000  0.527400  0.462260  1.0  0.0328
  C  C52  1  0.359500  0.467400  0.529330  1.0  -0.144
  C  C53  1  0.392800  0.363200  0.512990  1.0  0.0063
  C  C54  1  0.436900  0.208300  0.415620  1.0  0.7409
  C  C55  1  0.347900  0.334600  0.268730  1.0  0.6743
  C  C56  1  0.266200  0.549200  0.304200  1.0  0.7437
  C  C57  1  0.266700  0.640000  0.477500  1.0  0.6295
  C  C58  1  0.391200  0.516700  0.615860  1.0  0.6978
  O  O59  1  0.078810  0.145650  0.976670  1.0  -0.5574
  O  O60  1  0.008110  0.185200  0.845680  1.0  -0.6246
  O  O61  1  0.057580  0.348490  0.724480  1.0  -0.6888
  O  O62  1  0.240480  0.289100  0.740030  1.0  -0.463
  O  O63  1  0.165900  0.564970  0.742400  1.0  -0.5735
  O  O64  1  0.336910  0.588930  0.810840  1.0  -0.6873
  O  O65  1  0.181430  0.712780  0.938250  1.0  -0.4992
  O  O66  1  0.322750  0.653480  0.024590  1.0  -0.5096
  O  O67  1  0.070450  0.456530  0.173730  1.0  -0.5952
  O  O68  1  0.115960  0.616120  0.122300  1.0  -0.5887
  O  O69  1  0.578810  0.854350  0.523330  1.0  -0.5602
  O  O70  1  0.508110  0.814800  0.654320  1.0  -0.6262
  O  O71  1  0.557580  0.651510  0.775520  1.0  -0.6875
  O  O72  1  0.740480  0.710900  0.759970  1.0  -0.465
  O  O73  1  0.665900  0.435030  0.757600  1.0  -0.5751
  O  O74  1  0.836910  0.411070  0.689160  1.0  -0.6869
  O  O75  1  0.681430  0.287220  0.561750  1.0  -0.5004
  O  O76  1  0.822750  0.346520  0.475410  1.0  -0.509
  O  O77  1  0.570450  0.543470  0.326270  1.0  -0.5971
  O  O78  1  0.615960  0.383880  0.377700  1.0  -0.5909
  O  O79  1  0.921190  0.854350  0.023330  1.0  -0.5598
  O  O80  1  0.991890  0.814800  0.154320  1.0  -0.6267
  O  O81  1  0.942420  0.651510  0.275520  1.0  -0.6881
  O  O82  1  0.759520  0.710900  0.259970  1.0  -0.4639
  O  O83  1  0.834100  0.435030  0.257600  1.0  -0.5749
  O  O84  1  0.663090  0.411070  0.189160  1.0  -0.6878
  O  O85  1  0.818570  0.287220  0.061750  1.0  -0.4992
  O  O86  1  0.677250  0.346520  0.975410  1.0  -0.5088
  O  O87  1  0.929550  0.543470  0.826270  1.0  -0.5984
  O  O88  1  0.884040  0.383880  0.877700  1.0  -0.5899
  O  O89  1  0.421190  0.145650  0.476670  1.0  -0.557
  O  O90  1  0.491890  0.185200  0.345680  1.0  -0.6245
  O  O91  1  0.442420  0.348490  0.224480  1.0  -0.6888
  O  O92  1  0.259520  0.289100  0.240030  1.0  -0.4639
  O  O93  1  0.334100  0.564970  0.242400  1.0  -0.5734
  O  O94  1  0.163090  0.588930  0.310840  1.0  -0.688
  O  O95  1  0.318570  0.712780  0.438250  1.0  -0.4994
  O  O96  1  0.177250  0.653480  0.524590  1.0  -0.5078
  O  O97  1  0.429550  0.456530  0.673730  1.0  -0.5949
  O  O98  1  0.384040  0.616120  0.622300  1.0  -0.5895
