# generated using pymatgen
data_ZnHC4O3
_symmetry_space_group_name_H-M   'P 1'
_cell_length_a   6.32020000
_cell_length_b   15.28430000
_cell_length_c   15.28430000
_cell_angle_alpha   61.86820000
_cell_angle_beta   82.07730000
_cell_angle_gamma   97.92270000
_symmetry_Int_Tables_number   1
_chemical_formula_structural   ZnHC4O3
_chemical_formula_sum   'Zn6 H6 C24 O18'
_cell_volume   1254.35947167
_cell_formula_units_Z   6
loop_
 _symmetry_equiv_pos_site_id
 _symmetry_equiv_pos_as_xyz
  1  'x, y, z'
loop_
 _atom_site_type_symbol
 _atom_site_label
 _atom_site_symmetry_multiplicity
 _atom_site_fract_x
 _atom_site_fract_y
 _atom_site_fract_z
 _atom_site_occupancy
 _atom_site_charge
  Zn  Zn1  1  0.635960  0.312910  0.423430  1.0  0.9231
  Zn  Zn2  1  0.059390  0.423430  0.263660  1.0  0.924
  Zn  Zn3  1  0.323050  0.263660  0.312910  1.0  0.922
  Zn  Zn4  1  0.364040  0.687090  0.576570  1.0  0.9231
  Zn  Zn5  1  0.940610  0.576570  0.736340  1.0  0.9229
  Zn  Zn6  1  0.676950  0.736340  0.687090  1.0  0.9228
  H  H7  1  0.317770  0.465160  0.566440  1.0  0.1308
  H  H8  1  0.884210  0.566440  0.968400  1.0  0.1307
  H  H9  1  0.852610  0.968400  0.465160  1.0  0.1301
  H  H10  1  0.682230  0.534840  0.433560  1.0  0.1311
  H  H11  1  0.115790  0.433560  0.031600  1.0  0.1304
  H  H12  1  0.147390  0.031600  0.534840  1.0  0.1309
  C  C13  1  0.265320  0.393720  0.441210  1.0  0.7252
  C  C14  1  0.138660  0.451950  0.465300  1.0  -0.0701
  C  C15  1  0.942930  0.467130  0.431160  1.0  0.2407
  C  C16  1  0.188350  0.479800  0.539920  1.0  -0.0714
  C  C17  1  0.706530  0.441210  0.165070  1.0  0.7321
  C  C18  1  0.603960  0.465300  0.082750  1.0  -0.0707
  C  C19  1  0.374090  0.431160  0.101710  1.0  0.236
  C  C20  1  0.728270  0.539920  0.980280  1.0  -0.0705
  C  C21  1  0.871600  0.165070  0.393720  1.0  0.7248
  C  C22  1  0.686710  0.082750  0.451950  1.0  -0.0705
  C  C23  1  0.475800  0.101710  0.467130  1.0  0.2361
  C  C24  1  0.708550  0.980280  0.479800  1.0  -0.0702
  C  C25  1  0.734680  0.606280  0.558790  1.0  0.7261
  C  C26  1  0.861340  0.548050  0.534700  1.0  -0.07
  C  C27  1  0.057070  0.532870  0.568840  1.0  0.2403
  C  C28  1  0.811650  0.520200  0.460080  1.0  -0.071
  C  C29  1  0.293470  0.558790  0.834930  1.0  0.7328
  C  C30  1  0.396040  0.534700  0.917250  1.0  -0.0698
  C  C31  1  0.625910  0.568840  0.898290  1.0  0.2355
  C  C32  1  0.271730  0.460080  0.019720  1.0  -0.0705
  C  C33  1  0.128400  0.834930  0.606280  1.0  0.7264
  C  C34  1  0.313290  0.917250  0.548050  1.0  -0.0698
  C  C35  1  0.524200  0.898290  0.532870  1.0  0.2353
  C  C36  1  0.291450  0.019720  0.520200  1.0  -0.0701
  O  O37  1  0.392460  0.351680  0.497180  1.0  -0.5865
  O  O38  1  0.284880  0.400530  0.354570  1.0  -0.6229
  O  O39  1  0.889160  0.436310  0.363320  1.0  -0.6673
  O  O40  1  0.889640  0.497180  0.151140  1.0  -0.5879
  O  O41  1  0.639450  0.354570  0.244900  1.0  -0.6242
  O  O42  1  0.252480  0.363320  0.200370  1.0  -0.6671
  O  O43  1  0.040780  0.151140  0.351680  1.0  -0.5871
  O  O44  1  0.884350  0.244900  0.400530  1.0  -0.623
  O  O45  1  0.452850  0.200370  0.436310  1.0  -0.6666
  O  O46  1  0.607540  0.648320  0.502820  1.0  -0.5868
  O  O47  1  0.715120  0.599470  0.645430  1.0  -0.6248
  O  O48  1  0.110840  0.563690  0.636680  1.0  -0.6664
  O  O49  1  0.110360  0.502820  0.848860  1.0  -0.5872
  O  O50  1  0.360550  0.645430  0.755100  1.0  -0.6247
  O  O51  1  0.747520  0.636680  0.799630  1.0  -0.6653
  O  O52  1  0.959220  0.848860  0.648320  1.0  -0.5892
  O  O53  1  0.115650  0.755100  0.599470  1.0  -0.6243
  O  O54  1  0.547150  0.799630  0.563690  1.0  -0.6671
