# generated using pymatgen
data_CuH11C18(NO2)2
_symmetry_space_group_name_H-M   'P 1'
_cell_length_a   15.65300000
_cell_length_b   13.53300000
_cell_length_c   13.61500000
_cell_angle_alpha   90.00000000
_cell_angle_beta   103.91800000
_cell_angle_gamma   90.00000000
_symmetry_Int_Tables_number   1
_chemical_formula_structural   CuH11C18(NO2)2
_chemical_formula_sum   'Cu4 H44 C72 N8 O16'
_cell_volume   2799.41914618
_cell_formula_units_Z   4
loop_
 _symmetry_equiv_pos_site_id
 _symmetry_equiv_pos_as_xyz
  1  'x, y, z'
loop_
 _atom_site_type_symbol
 _atom_site_label
 _atom_site_symmetry_multiplicity
 _atom_site_fract_x
 _atom_site_fract_y
 _atom_site_fract_z
 _atom_site_occupancy
 _atom_site_charge
  Cu  Cu1  1  0.572630  0.057580  0.524460  1.0  0.8351
  Cu  Cu2  1  0.427370  0.557580  0.975540  1.0  0.8353
  Cu  Cu3  1  0.427370  0.942420  0.475540  1.0  0.8342
  Cu  Cu4  1  0.572630  0.442420  0.024460  1.0  0.8336
  H  H5  1  0.498300  0.258100  0.260300  1.0  0.1195
  H  H6  1  0.271600  0.388800  0.112200  1.0  0.1177
  H  H7  1  0.263300  0.164500  0.306500  1.0  0.1194
  H  H8  1  0.168700  0.439700  0.196700  1.0  0.1219
  H  H9  1  0.020600  0.466400  0.160900  1.0  0.1129
  H  H10  1  0.979200  0.174500  0.135800  1.0  0.1113
  H  H11  1  0.128900  0.150200  0.168700  1.0  0.1222
  H  H12  1  0.896000  0.492400  0.091000  1.0  0.1354
  H  H13  1  0.747700  0.522500  0.052900  1.0  0.0768
  H  H14  1  0.695200  0.242800  0.079400  1.0  0.0791
  H  H15  1  0.842800  0.204300  0.121500  1.0  0.1227
  H  H16  1  0.501700  0.758100  0.239700  1.0  0.119
  H  H17  1  0.728400  0.888800  0.387800  1.0  0.1169
  H  H18  1  0.736700  0.664500  0.193500  1.0  0.1197
  H  H19  1  0.831300  0.939700  0.303300  1.0  0.1222
  H  H20  1  0.979400  0.966400  0.339100  1.0  0.1134
  H  H21  1  0.020800  0.674500  0.364200  1.0  0.1124
  H  H22  1  0.871100  0.650200  0.331300  1.0  0.1221
  H  H23  1  0.104000  0.992400  0.409000  1.0  0.1363
  H  H24  1  0.252300  0.022500  0.447100  1.0  0.0766
  H  H25  1  0.304800  0.742800  0.420600  1.0  0.0801
  H  H26  1  0.157200  0.704300  0.378500  1.0  0.1225
  H  H27  1  0.501700  0.741900  0.739700  1.0  0.1188
  H  H28  1  0.728400  0.611200  0.887800  1.0  0.1174
  H  H29  1  0.736700  0.835500  0.693500  1.0  0.1198
  H  H30  1  0.831300  0.560300  0.803300  1.0  0.1218
  H  H31  1  0.979400  0.533600  0.839100  1.0  0.114
  H  H32  1  0.020800  0.825500  0.864200  1.0  0.1131
  H  H33  1  0.871100  0.849800  0.831300  1.0  0.1221
  H  H34  1  0.104000  0.507600  0.909000  1.0  0.1363
  H  H35  1  0.252300  0.477500  0.947100  1.0  0.0767
  H  H36  1  0.304800  0.757200  0.920600  1.0  0.0805
  H  H37  1  0.157200  0.795700  0.878500  1.0  0.1228
  H  H38  1  0.498300  0.241900  0.760300  1.0  0.1192
  H  H39  1  0.271600  0.111200  0.612200  1.0  0.1176
  H  H40  1  0.263300  0.335500  0.806500  1.0  0.1195
  H  H41  1  0.168700  0.060300  0.696700  1.0  0.122
  H  H42  1  0.020600  0.033600  0.660900  1.0  0.1137
  H  H43  1  0.979200  0.325500  0.635800  1.0  0.1126
  H  H44  1  0.128900  0.349800  0.668700  1.0  0.1222
  H  H45  1  0.896000  0.007600  0.591000  1.0  0.136
  H  H46  1  0.747700  0.977500  0.552900  1.0  0.0768
  H  H47  1  0.695200  0.257200  0.579400  1.0  0.0794
  H  H48  1  0.842800  0.295700  0.621500  1.0  0.1233
  C  C49  1  0.387900  0.199900  0.293200  1.0  -0.1382
  C  C50  1  0.435900  0.263200  0.245900  1.0  -0.0313
  C  C51  1  0.392600  0.333000  0.178400  1.0  -0.1723
  C  C52  1  0.301800  0.341100  0.159200  1.0  -0.1764
  C  C53  1  0.255600  0.280100  0.208300  1.0  0.1486
  C  C54  1  0.296300  0.207500  0.274600  1.0  -0.1412
  C  C55  1  0.129400  0.385200  0.184000  1.0  -0.0089
  C  C56  1  0.041700  0.400500  0.162000  1.0  -0.171
  C  C57  1  0.982300  0.325100  0.141300  1.0  0.0728
  C  C58  1  0.017600  0.229900  0.146900  1.0  -0.1564
  C  C59  1  0.106000  0.215300  0.168000  1.0  -0.001
  C  C60  1  0.886200  0.343600  0.113900  1.0  0.0846
  C  C61  1  0.855800  0.439700  0.090600  1.0  -0.2373
  C  C62  1  0.767300  0.456500  0.067200  1.0  0.1343
  C  C63  1  0.736400  0.294900  0.082800  1.0  0.1347
  C  C64  1  0.824900  0.271100  0.108100  1.0  -0.2074
  C  C65  1  0.433900  0.126200  0.368700  1.0  0.6837
  C  C66  1  0.440100  0.397000  0.120700  1.0  0.6862
  C  C67  1  0.612100  0.699900  0.206800  1.0  -0.1381
  C  C68  1  0.564100  0.763200  0.254100  1.0  -0.0326
  C  C69  1  0.607400  0.833000  0.321600  1.0  -0.1726
  C  C70  1  0.698200  0.841100  0.340800  1.0  -0.1757
  C  C71  1  0.744400  0.780100  0.291700  1.0  0.1488
  C  C72  1  0.703700  0.707500  0.225400  1.0  -0.1396
  C  C73  1  0.870600  0.885200  0.316000  1.0  -0.0076
  C  C74  1  0.958300  0.900500  0.338000  1.0  -0.1705
  C  C75  1  0.017700  0.825100  0.358700  1.0  0.072
  C  C76  1  0.982400  0.729900  0.353100  1.0  -0.1561
  C  C77  1  0.894000  0.715300  0.332000  1.0  -0.0026
  C  C78  1  0.113800  0.843600  0.386100  1.0  0.0852
  C  C79  1  0.144200  0.939700  0.409400  1.0  -0.2371
  C  C80  1  0.232700  0.956500  0.432800  1.0  0.136
  C  C81  1  0.263600  0.794900  0.417200  1.0  0.1334
  C  C82  1  0.175100  0.771100  0.391900  1.0  -0.2071
  C  C83  1  0.566100  0.626200  0.131300  1.0  0.6831
  C  C84  1  0.559900  0.897000  0.379300  1.0  0.687
  C  C85  1  0.612100  0.800100  0.706800  1.0  -0.1381
  C  C86  1  0.564100  0.736800  0.754100  1.0  -0.0326
  C  C87  1  0.607400  0.667000  0.821600  1.0  -0.1731
  C  C88  1  0.698200  0.658900  0.840800  1.0  -0.1756
  C  C89  1  0.744400  0.719900  0.791700  1.0  0.1489
  C  C90  1  0.703700  0.792500  0.725400  1.0  -0.1396
  C  C91  1  0.870600  0.614800  0.816000  1.0  -0.0092
  C  C92  1  0.958300  0.599500  0.838000  1.0  -0.1703
  C  C93  1  0.017700  0.674900  0.858700  1.0  0.0727
  C  C94  1  0.982400  0.770100  0.853100  1.0  -0.1559
  C  C95  1  0.894000  0.784700  0.832000  1.0  -0.0009
  C  C96  1  0.113800  0.656400  0.886100  1.0  0.086
  C  C97  1  0.144200  0.560300  0.909400  1.0  -0.2362
  C  C98  1  0.232700  0.543500  0.932800  1.0  0.1371
  C  C99  1  0.263600  0.705100  0.917200  1.0  0.1319
  C  C100  1  0.175100  0.728900  0.891900  1.0  -0.2071
  C  C101  1  0.566100  0.873800  0.631300  1.0  0.6835
  C  C102  1  0.559900  0.603000  0.879300  1.0  0.6868
  C  C103  1  0.387900  0.300100  0.793200  1.0  -0.1383
  C  C104  1  0.435900  0.236800  0.745900  1.0  -0.0312
  C  C105  1  0.392600  0.167000  0.678400  1.0  -0.1725
  C  C106  1  0.301800  0.158900  0.659200  1.0  -0.1762
  C  C107  1  0.255600  0.219900  0.708300  1.0  0.1486
  C  C108  1  0.296300  0.292500  0.774600  1.0  -0.1409
  C  C109  1  0.129400  0.114800  0.684000  1.0  -0.0094
  C  C110  1  0.041700  0.099500  0.662000  1.0  -0.1698
  C  C111  1  0.982300  0.174900  0.641300  1.0  0.0736
  C  C112  1  0.017600  0.270100  0.646900  1.0  -0.157
  C  C113  1  0.106000  0.284700  0.668000  1.0  0.0004
  C  C114  1  0.886200  0.156400  0.613900  1.0  0.0849
  C  C115  1  0.855800  0.060300  0.590600  1.0  -0.2365
  C  C116  1  0.767300  0.043500  0.567200  1.0  0.1353
  C  C117  1  0.736400  0.205100  0.582800  1.0  0.1322
  C  C118  1  0.824900  0.228900  0.608100  1.0  -0.2079
  C  C119  1  0.433900  0.373800  0.868700  1.0  0.6843
  C  C120  1  0.440100  0.103000  0.620700  1.0  0.6858
  N  N121  1  0.705400  0.385600  0.063000  1.0  -0.332
  N  N122  1  0.161100  0.292800  0.187800  1.0  0.0672
  N  N123  1  0.294600  0.885600  0.437000  1.0  -0.33
  N  N124  1  0.838900  0.792800  0.312200  1.0  0.0672
  N  N125  1  0.294600  0.614400  0.937000  1.0  -0.33
  N  N126  1  0.838900  0.707200  0.812200  1.0  0.0672
  N  N127  1  0.705400  0.114400  0.563000  1.0  -0.3309
  N  N128  1  0.161100  0.207200  0.687800  1.0  0.067
  O  O129  1  0.511100  0.145200  0.416400  1.0  -0.5722
  O  O130  1  0.390900  0.048800  0.376700  1.0  -0.5941
  O  O131  1  0.398100  0.469700  0.077900  1.0  -0.5862
  O  O132  1  0.517300  0.372600  0.118500  1.0  -0.5665
  O  O133  1  0.488900  0.645200  0.083600  1.0  -0.5719
  O  O134  1  0.609100  0.548800  0.123300  1.0  -0.594
  O  O135  1  0.601900  0.969700  0.422100  1.0  -0.5866
  O  O136  1  0.482700  0.872600  0.381500  1.0  -0.5666
  O  O137  1  0.488900  0.854800  0.583600  1.0  -0.571
  O  O138  1  0.609100  0.951200  0.623300  1.0  -0.5942
  O  O139  1  0.601900  0.530300  0.922100  1.0  -0.5853
  O  O140  1  0.482700  0.627400  0.881500  1.0  -0.5661
  O  O141  1  0.511100  0.354800  0.916400  1.0  -0.5717
  O  O142  1  0.390900  0.451200  0.876700  1.0  -0.5943
  O  O143  1  0.398100  0.030300  0.577900  1.0  -0.5859
  O  O144  1  0.517300  0.127400  0.618500  1.0  -0.5662
