# generated using pymatgen
data_Zr3H26(C21O8)2
_symmetry_space_group_name_H-M   'P 1'
_cell_length_a   26.78300000
_cell_length_b   26.78300000
_cell_length_c   26.78300000
_cell_angle_alpha   90.00000000
_cell_angle_beta   90.00000000
_cell_angle_gamma   90.00000000
_symmetry_Int_Tables_number   1
_chemical_formula_structural   Zr3H26(C21O8)2
_chemical_formula_sum   'Zr24 H208 C336 O128'
_cell_volume   19212.22499069
_cell_formula_units_Z   8
loop_
 _symmetry_equiv_pos_site_id
 _symmetry_equiv_pos_as_xyz
  1  'x, y, z'
loop_
 _atom_site_type_symbol
 _atom_site_label
 _atom_site_symmetry_multiplicity
 _atom_site_fract_x
 _atom_site_fract_y
 _atom_site_fract_z
 _atom_site_occupancy
 _atom_site_charge
  Zr  Zr1  1  0.000110  0.088390  0.000010  1.0  1.7958
  Zr  Zr2  1  0.088400  0.999850  0.000030  1.0  1.7899
  Zr  Zr3  1  0.911610  0.000160  0.000030  1.0  1.7936
  Zr  Zr4  1  0.000000  0.000010  0.088390  1.0  1.8048
  Zr  Zr5  1  0.000000  0.000010  0.911640  1.0  1.7979
  Zr  Zr6  1  0.999900  0.911630  0.000010  1.0  1.7972
  Zr  Zr7  1  0.500110  0.588390  0.000010  1.0  1.7958
  Zr  Zr8  1  0.588400  0.499850  0.000030  1.0  1.7899
  Zr  Zr9  1  0.411610  0.500160  0.000030  1.0  1.7936
  Zr  Zr10  1  0.500000  0.500010  0.088390  1.0  1.8048
  Zr  Zr11  1  0.500000  0.500010  0.911640  1.0  1.7979
  Zr  Zr12  1  0.499900  0.411630  0.000010  1.0  1.7972
  Zr  Zr13  1  0.999900  0.588410  0.499980  1.0  1.7937
  Zr  Zr14  1  0.088380  0.500170  0.499940  1.0  1.7924
  Zr  Zr15  1  0.911630  0.499850  0.499940  1.0  1.7952
  Zr  Zr16  1  0.000000  0.500010  0.588350  1.0  1.804
  Zr  Zr17  1  0.000000  0.500010  0.411600  1.0  1.7988
  Zr  Zr18  1  0.000110  0.411610  0.499980  1.0  1.7952
  Zr  Zr19  1  0.499900  0.088410  0.499980  1.0  1.7937
  Zr  Zr20  1  0.588380  0.000170  0.499940  1.0  1.7924
  Zr  Zr21  1  0.411630  0.999850  0.499940  1.0  1.7952
  Zr  Zr22  1  0.500000  0.000010  0.588350  1.0  1.804
  Zr  Zr23  1  0.500000  0.000010  0.411600  1.0  1.7988
  Zr  Zr24  1  0.500110  0.911610  0.499980  1.0  1.7952
  H  H25  1  0.066500  0.066320  0.066390  1.0  0.344
  H  H26  1  0.933690  0.066510  0.933600  1.0  0.3427
  H  H27  1  0.933510  0.933700  0.066390  1.0  0.3447
  H  H28  1  0.066320  0.933500  0.933600  1.0  0.3439
  H  H29  1  0.566500  0.566320  0.066390  1.0  0.344
  H  H30  1  0.433690  0.566510  0.933600  1.0  0.3427
  H  H31  1  0.433510  0.433700  0.066390  1.0  0.3447
  H  H32  1  0.566320  0.433500  0.933600  1.0  0.3439
  H  H33  1  0.066310  0.566520  0.566380  1.0  0.3445
  H  H34  1  0.933510  0.566330  0.433600  1.0  0.3441
  H  H35  1  0.933700  0.433500  0.566380  1.0  0.3456
  H  H36  1  0.066500  0.433690  0.433600  1.0  0.3451
  H  H37  1  0.566310  0.066520  0.566380  1.0  0.3445
  H  H38  1  0.433510  0.066330  0.433600  1.0  0.3441
  H  H39  1  0.433700  0.933500  0.566380  1.0  0.3456
  H  H40  1  0.566500  0.933690  0.433600  1.0  0.3451
  H  H41  1  0.105120  0.214770  0.018480  1.0  0.1233
  H  H42  1  0.214580  0.104860  0.975170  1.0  0.1164
  H  H43  1  0.394890  0.285250  0.018480  1.0  0.1237
  H  H44  1  0.285430  0.395160  0.975170  1.0  0.1178
  H  H45  1  0.278760  0.169380  0.973380  1.0  0.1199
  H  H46  1  0.330480  0.221040  0.018850  1.0  0.1214
  H  H47  1  0.169530  0.278980  0.018850  1.0  0.1227
  H  H48  1  0.221250  0.330630  0.973380  1.0  0.1193
  H  H49  1  0.104910  0.714560  0.474830  1.0  0.1136
  H  H50  1  0.214700  0.605190  0.518690  1.0  0.1131
  H  H51  1  0.395100  0.785460  0.474830  1.0  0.1135
  H  H52  1  0.285310  0.894820  0.518690  1.0  0.1144
  H  H53  1  0.278940  0.669600  0.518990  1.0  0.1208
  H  H54  1  0.330560  0.721270  0.473090  1.0  0.12
  H  H55  1  0.169450  0.778750  0.473090  1.0  0.1209
  H  H56  1  0.221070  0.830420  0.518990  1.0  0.1212
  H  H57  1  0.785430  0.895160  0.975170  1.0  0.1178
  H  H58  1  0.894890  0.785250  0.018480  1.0  0.1237
  H  H59  1  0.714580  0.604860  0.975170  1.0  0.1164
  H  H60  1  0.605120  0.714770  0.018480  1.0  0.1233
  H  H61  1  0.830480  0.721040  0.018850  1.0  0.1214
  H  H62  1  0.778760  0.669380  0.973380  1.0  0.1199
  H  H63  1  0.721250  0.830630  0.973380  1.0  0.1193
  H  H64  1  0.669530  0.778980  0.018850  1.0  0.1227
  H  H65  1  0.785310  0.394820  0.518690  1.0  0.1144
  H  H66  1  0.895100  0.285460  0.474830  1.0  0.1135
  H  H67  1  0.714700  0.105190  0.518690  1.0  0.1131
  H  H68  1  0.604910  0.214560  0.474830  1.0  0.1136
  H  H69  1  0.830560  0.221270  0.473090  1.0  0.12
  H  H70  1  0.778940  0.169600  0.518990  1.0  0.1208
  H  H71  1  0.721070  0.330420  0.518990  1.0  0.1212
  H  H72  1  0.669450  0.278750  0.473090  1.0  0.1209
  H  H73  1  0.785790  0.105010  0.025180  1.0  0.1155
  H  H74  1  0.894970  0.215100  0.981610  1.0  0.1208
  H  H75  1  0.714220  0.395010  0.025180  1.0  0.1151
  H  H76  1  0.605040  0.284910  0.981610  1.0  0.1199
  H  H77  1  0.830390  0.279180  0.981280  1.0  0.1175
  H  H78  1  0.778540  0.330650  0.026950  1.0  0.1199
  H  H79  1  0.721470  0.169360  0.026950  1.0  0.1215
  H  H80  1  0.669620  0.220840  0.981280  1.0  0.1207
  H  H81  1  0.784960  0.605060  0.481440  1.0  0.1174
  H  H82  1  0.895000  0.714220  0.525180  1.0  0.1135
  H  H83  1  0.715050  0.894960  0.481440  1.0  0.118
  H  H84  1  0.605010  0.785800  0.525180  1.0  0.1127
  H  H85  1  0.830630  0.778540  0.526920  1.0  0.1213
  H  H86  1  0.779140  0.830390  0.481110  1.0  0.1193
  H  H87  1  0.720870  0.669630  0.481110  1.0  0.119
  H  H88  1  0.669380  0.721480  0.526920  1.0  0.1205
  H  H89  1  0.105010  0.285800  0.525180  1.0  0.1127
  H  H90  1  0.215050  0.394960  0.481440  1.0  0.118
  H  H91  1  0.395000  0.214220  0.525180  1.0  0.1135
  H  H92  1  0.284960  0.105060  0.481440  1.0  0.1174
  H  H93  1  0.279140  0.330390  0.481110  1.0  0.1193
  H  H94  1  0.330630  0.278540  0.526920  1.0  0.1213
  H  H95  1  0.169380  0.221480  0.526920  1.0  0.1205
  H  H96  1  0.220870  0.169630  0.481110  1.0  0.119
  H  H97  1  0.105040  0.784910  0.981610  1.0  0.1199
  H  H98  1  0.214220  0.895010  0.025180  1.0  0.1151
  H  H99  1  0.394970  0.715100  0.981610  1.0  0.1208
  H  H100  1  0.285790  0.605010  0.025180  1.0  0.1155
  H  H101  1  0.278540  0.830650  0.026950  1.0  0.1199
  H  H102  1  0.330390  0.779180  0.981280  1.0  0.1218
  H  H103  1  0.169620  0.720840  0.981280  1.0  0.1164
  H  H104  1  0.221470  0.669360  0.026950  1.0  0.1215
  H  H105  1  0.018330  0.105000  0.214940  1.0  0.1149
  H  H106  1  0.975550  0.214530  0.104880  1.0  0.1156
  H  H107  1  0.019400  0.394790  0.285260  1.0  0.1127
  H  H108  1  0.974560  0.285710  0.394940  1.0  0.1108
  H  H109  1  0.973940  0.278780  0.169330  1.0  0.1243
  H  H110  1  0.019810  0.330290  0.221100  1.0  0.1172
  H  H111  1  0.018780  0.169490  0.279110  1.0  0.1229
  H  H112  1  0.972920  0.221450  0.330480  1.0  0.1206
  H  H113  1  0.475350  0.285510  0.895150  1.0  0.1168
  H  H114  1  0.517710  0.395050  0.784950  1.0  0.1183
  H  H115  1  0.474340  0.214280  0.604990  1.0  0.1124
  H  H116  1  0.518810  0.105190  0.714810  1.0  0.12
  H  H117  1  0.518080  0.330560  0.720810  1.0  0.121
  H  H118  1  0.472530  0.278540  0.669440  1.0  0.1208
  H  H119  1  0.473570  0.221260  0.830720  1.0  0.1233
  H  H120  1  0.519120  0.169690  0.778950  1.0  0.1265
  H  H121  1  0.975350  0.785510  0.895150  1.0  0.1168
  H  H122  1  0.017710  0.895050  0.784950  1.0  0.1183
  H  H123  1  0.974340  0.714280  0.604990  1.0  0.1124
  H  H124  1  0.018810  0.605190  0.714810  1.0  0.12
  H  H125  1  0.018070  0.830560  0.720810  1.0  0.121
  H  H126  1  0.972530  0.778540  0.669440  1.0  0.1208
  H  H127  1  0.973570  0.721260  0.830720  1.0  0.1233
  H  H128  1  0.019120  0.669690  0.778950  1.0  0.1265
  H  H129  1  0.518330  0.605000  0.214940  1.0  0.1149
  H  H130  1  0.475550  0.714530  0.104880  1.0  0.1156
  H  H131  1  0.519400  0.894790  0.285260  1.0  0.1127
  H  H132  1  0.474560  0.785710  0.394940  1.0  0.1108
  H  H133  1  0.473940  0.778780  0.169330  1.0  0.1243
  H  H134  1  0.519810  0.830290  0.221100  1.0  0.1172
  H  H135  1  0.518780  0.669490  0.279110  1.0  0.1221
  H  H136  1  0.472920  0.721450  0.330480  1.0  0.1206
  H  H137  1  0.024460  0.785490  0.104880  1.0  0.1156
  H  H138  1  0.981680  0.895010  0.214940  1.0  0.1161
  H  H139  1  0.025450  0.714310  0.394940  1.0  0.1107
  H  H140  1  0.980610  0.605230  0.285260  1.0  0.1113
  H  H141  1  0.981230  0.830530  0.279110  1.0  0.1229
  H  H142  1  0.027090  0.778560  0.330480  1.0  0.1215
  H  H143  1  0.026070  0.721240  0.169330  1.0  0.125
  H  H144  1  0.980200  0.669720  0.221100  1.0  0.1175
  H  H145  1  0.482300  0.604970  0.784950  1.0  0.1181
  H  H146  1  0.524660  0.714510  0.895150  1.0  0.1169
  H  H147  1  0.481200  0.894820  0.714810  1.0  0.1198
  H  H148  1  0.525670  0.785730  0.604990  1.0  0.112
  H  H149  1  0.526440  0.778760  0.830720  1.0  0.1247
  H  H150  1  0.480890  0.830330  0.778950  1.0  0.1265
  H  H151  1  0.481930  0.669450  0.720810  1.0  0.1216
  H  H152  1  0.527480  0.721480  0.669440  1.0  0.1192
  H  H153  1  0.524460  0.285490  0.104880  1.0  0.1156
  H  H154  1  0.481680  0.395010  0.214940  1.0  0.1161
  H  H155  1  0.525450  0.214310  0.394940  1.0  0.1107
  H  H156  1  0.480610  0.105230  0.285260  1.0  0.1113
  H  H157  1  0.481230  0.330530  0.279110  1.0  0.1218
  H  H158  1  0.527090  0.278560  0.330480  1.0  0.1215
  H  H159  1  0.526070  0.221240  0.169330  1.0  0.125
  H  H160  1  0.480200  0.169720  0.221100  1.0  0.1175
  H  H161  1  0.982300  0.104970  0.784950  1.0  0.1181
  H  H162  1  0.024660  0.214510  0.895150  1.0  0.1169
  H  H163  1  0.981200  0.394820  0.714810  1.0  0.1198
  H  H164  1  0.025670  0.285730  0.604990  1.0  0.112
  H  H165  1  0.026440  0.278760  0.830720  1.0  0.1247
  H  H166  1  0.980890  0.330330  0.778950  1.0  0.1265
  H  H167  1  0.981930  0.169450  0.720810  1.0  0.1216
  H  H168  1  0.027480  0.221480  0.669440  1.0  0.1192
  H  H169  1  0.214260  0.974210  0.105050  1.0  0.1102
  H  H170  1  0.105230  0.019110  0.214750  1.0  0.1114
  H  H171  1  0.285530  0.975190  0.395080  1.0  0.1159
  H  H172  1  0.395010  0.018040  0.285000  1.0  0.1135
  H  H173  1  0.169740  0.019480  0.278900  1.0  0.1197
  H  H174  1  0.221270  0.973550  0.330640  1.0  0.1254
  H  H175  1  0.278530  0.972540  0.169500  1.0  0.1191
  H  H176  1  0.330510  0.018460  0.220850  1.0  0.1201
  H  H177  1  0.395190  0.475990  0.785450  1.0  0.1154
  H  H178  1  0.284910  0.517910  0.895080  1.0  0.1184
  H  H179  1  0.105080  0.474460  0.714220  1.0  0.1168
  H  H180  1  0.214750  0.519400  0.605170  1.0  0.1106
  H  H181  1  0.220780  0.518370  0.830580  1.0  0.117
  H  H182  1  0.169520  0.472820  0.778470  1.0  0.1187
  H  H183  1  0.330780  0.474310  0.721180  1.0  0.1257
  H  H184  1  0.278880  0.519870  0.669690  1.0  0.1201
  H  H185  1  0.895190  0.975990  0.785450  1.0  0.1154
  H  H186  1  0.784910  0.017910  0.895080  1.0  0.1184
  H  H187  1  0.605080  0.974460  0.714220  1.0  0.1168
  H  H188  1  0.714750  0.019400  0.605170  1.0  0.1106
  H  H189  1  0.720780  0.018370  0.830580  1.0  0.1198
  H  H190  1  0.669520  0.972820  0.778470  1.0  0.1187
  H  H191  1  0.830780  0.974310  0.721180  1.0  0.1257
  H  H192  1  0.778880  0.019870  0.669690  1.0  0.1201
  H  H193  1  0.714260  0.474210  0.105050  1.0  0.1102
  H  H194  1  0.605230  0.519110  0.214750  1.0  0.1114
  H  H195  1  0.785530  0.475190  0.395080  1.0  0.1159
  H  H196  1  0.895010  0.518040  0.285000  1.0  0.1135
  H  H197  1  0.669740  0.519480  0.278900  1.0  0.1197
  H  H198  1  0.721270  0.473550  0.330640  1.0  0.1254
  H  H199  1  0.778530  0.472540  0.169500  1.0  0.1191
  H  H200  1  0.830510  0.518460  0.220850  1.0  0.1186
  H  H201  1  0.104820  0.024030  0.785450  1.0  0.1154
  H  H202  1  0.215100  0.982100  0.895080  1.0  0.1178
  H  H203  1  0.394930  0.025560  0.714220  1.0  0.1169
  H  H204  1  0.285260  0.980620  0.605170  1.0  0.1106
  H  H205  1  0.279230  0.981650  0.830580  1.0  0.1203
  H  H206  1  0.330490  0.027200  0.778470  1.0  0.1156
  H  H207  1  0.169230  0.025710  0.721180  1.0  0.1253
  H  H208  1  0.221130  0.980140  0.669690  1.0  0.1188
  H  H209  1  0.285750  0.525810  0.105050  1.0  0.1099
  H  H210  1  0.394780  0.480910  0.214750  1.0  0.1125
  H  H211  1  0.214480  0.524830  0.395080  1.0  0.1155
  H  H212  1  0.105000  0.481970  0.285000  1.0  0.1134
  H  H213  1  0.330270  0.480540  0.278900  1.0  0.1196
  H  H214  1  0.278740  0.526460  0.330640  1.0  0.1251
  H  H215  1  0.221470  0.527470  0.169500  1.0  0.1199
  H  H216  1  0.169500  0.481560  0.220850  1.0  0.1185
  H  H217  1  0.785750  0.025810  0.105050  1.0  0.1099
  H  H218  1  0.894780  0.980910  0.214750  1.0  0.1125
  H  H219  1  0.714480  0.024830  0.395080  1.0  0.1155
  H  H220  1  0.605000  0.981970  0.285000  1.0  0.1134
  H  H221  1  0.830270  0.980540  0.278900  1.0  0.1196
  H  H222  1  0.778740  0.026460  0.330640  1.0  0.1251
  H  H223  1  0.721470  0.027470  0.169500  1.0  0.1199
  H  H224  1  0.669500  0.981560  0.220850  1.0  0.1204
  H  H225  1  0.604820  0.524030  0.785450  1.0  0.1154
  H  H226  1  0.715100  0.482100  0.895080  1.0  0.1178
  H  H227  1  0.894930  0.525560  0.714220  1.0  0.1169
  H  H228  1  0.785260  0.480620  0.605170  1.0  0.1106
  H  H229  1  0.779230  0.481650  0.830580  1.0  0.1172
  H  H230  1  0.830490  0.527200  0.778470  1.0  0.1156
  H  H231  1  0.669230  0.525710  0.721180  1.0  0.1253
  H  H232  1  0.721130  0.480140  0.669690  1.0  0.1188
  C  C233  1  0.885540  0.114840  0.002250  1.0  0.6948
  C  C234  1  0.114710  0.114550  0.997850  1.0  0.6942
  C  C235  1  0.997820  0.114600  0.114670  1.0  0.6911
  C  C236  1  0.002400  0.114570  0.885310  1.0  0.6885
  C  C237  1  0.114470  0.885180  0.002250  1.0  0.6952
  C  C238  1  0.885300  0.885470  0.997850  1.0  0.6943
  C  C239  1  0.114610  0.997660  0.114680  1.0  0.6934
  C  C240  1  0.114710  0.002090  0.885450  1.0  0.69
  C  C241  1  0.885300  0.997930  0.885450  1.0  0.6887
  C  C242  1  0.885400  0.002350  0.114680  1.0  0.6926
  C  C243  1  0.002190  0.885420  0.114670  1.0  0.6892
  C  C244  1  0.997610  0.885440  0.885310  1.0  0.6897
  C  C245  1  0.385540  0.614840  0.002250  1.0  0.6959
  C  C246  1  0.614710  0.614550  0.997850  1.0  0.6939
  C  C247  1  0.497820  0.614600  0.114670  1.0  0.6911
  C  C248  1  0.502400  0.614570  0.885310  1.0  0.6885
  C  C249  1  0.614470  0.385180  0.002250  1.0  0.6941
  C  C250  1  0.385300  0.385470  0.997850  1.0  0.6947
  C  C251  1  0.614610  0.497660  0.114680  1.0  0.6934
  C  C252  1  0.614710  0.502090  0.885450  1.0  0.69
  C  C253  1  0.385300  0.497930  0.885450  1.0  0.6887
  C  C254  1  0.385400  0.502350  0.114680  1.0  0.6926
  C  C255  1  0.502190  0.385420  0.114670  1.0  0.6892
  C  C256  1  0.497610  0.385440  0.885310  1.0  0.6897
  C  C257  1  0.885220  0.614470  0.502190  1.0  0.6924
  C  C258  1  0.114550  0.614760  0.497790  1.0  0.6918
  C  C259  1  0.997730  0.614600  0.614660  1.0  0.691
  C  C260  1  0.002080  0.614630  0.385330  1.0  0.6853
  C  C261  1  0.114790  0.385550  0.502190  1.0  0.6929
  C  C262  1  0.885460  0.385260  0.497790  1.0  0.6906
  C  C263  1  0.114690  0.497820  0.614530  1.0  0.6914
  C  C264  1  0.114570  0.502470  0.385280  1.0  0.6907
  C  C265  1  0.885440  0.497550  0.385280  1.0  0.6897
  C  C266  1  0.885320  0.502200  0.614530  1.0  0.6903
  C  C267  1  0.002280  0.385420  0.614660  1.0  0.6911
  C  C268  1  0.997930  0.385390  0.385330  1.0  0.6863
  C  C269  1  0.385220  0.114470  0.502190  1.0  0.6923
  C  C270  1  0.614550  0.114760  0.497790  1.0  0.691
  C  C271  1  0.497730  0.114600  0.614660  1.0  0.691
  C  C272  1  0.502080  0.114630  0.385330  1.0  0.6856
  C  C273  1  0.614790  0.885550  0.502190  1.0  0.693
  C  C274  1  0.385460  0.885260  0.497790  1.0  0.6903
  C  C275  1  0.614690  0.997820  0.614530  1.0  0.6914
  C  C276  1  0.614570  0.002470  0.385280  1.0  0.6908
  C  C277  1  0.385440  0.997550  0.385280  1.0  0.6897
  C  C278  1  0.385320  0.002200  0.614530  1.0  0.6903
  C  C279  1  0.502280  0.885420  0.614660  1.0  0.6911
  C  C280  1  0.497930  0.885390  0.385330  1.0  0.6863
  C  C281  1  0.230010  0.230040  0.996100  1.0  0.048
  C  C282  1  0.180040  0.241410  0.008380  1.0  -0.1094
  C  C283  1  0.142880  0.204280  0.008510  1.0  -0.0642
  C  C284  1  0.154340  0.154270  0.996930  1.0  -0.0973
  C  C285  1  0.204180  0.142740  0.984740  1.0  -0.0653
  C  C286  1  0.241270  0.179970  0.984060  1.0  -0.1098
  C  C287  1  0.270000  0.269970  0.996100  1.0  0.0481
  C  C288  1  0.319970  0.258610  0.008380  1.0  -0.1081
  C  C289  1  0.357130  0.295730  0.008510  1.0  -0.0642
  C  C290  1  0.345670  0.345750  0.996930  1.0  -0.0989
  C  C291  1  0.295830  0.357270  0.984740  1.0  -0.0672
  C  C292  1  0.258740  0.320050  0.984060  1.0  -0.1104
  C  C293  1  0.230040  0.730020  0.496020  1.0  0.0448
  C  C294  1  0.180000  0.741270  0.483860  1.0  -0.1103
  C  C295  1  0.142770  0.704190  0.484530  1.0  -0.0618
  C  C296  1  0.154270  0.654370  0.496870  1.0  -0.0942
  C  C297  1  0.204250  0.642930  0.508590  1.0  -0.0604
  C  C298  1  0.241380  0.680080  0.508440  1.0  -0.1049
  C  C299  1  0.269970  0.769990  0.496020  1.0  0.0442
  C  C300  1  0.320010  0.758750  0.483860  1.0  -0.1093
  C  C301  1  0.357240  0.795830  0.484530  1.0  -0.061
  C  C302  1  0.345740  0.845640  0.496870  1.0  -0.0951
  C  C303  1  0.295760  0.857090  0.508590  1.0  -0.0605
  C  C304  1  0.258630  0.819930  0.508440  1.0  -0.108
  C  C305  1  0.770000  0.769970  0.996100  1.0  0.0481
  C  C306  1  0.758740  0.820050  0.984060  1.0  -0.1104
  C  C307  1  0.795830  0.857270  0.984740  1.0  -0.0672
  C  C308  1  0.845670  0.845750  0.996930  1.0  -0.0989
  C  C309  1  0.857130  0.795730  0.008510  1.0  -0.0642
  C  C310  1  0.819970  0.758610  0.008380  1.0  -0.1081
  C  C311  1  0.730010  0.730040  0.996100  1.0  0.048
  C  C312  1  0.741270  0.679970  0.984060  1.0  -0.1098
  C  C313  1  0.704180  0.642740  0.984740  1.0  -0.0653
  C  C314  1  0.654340  0.654270  0.996930  1.0  -0.0973
  C  C315  1  0.642880  0.704280  0.008510  1.0  -0.0642
  C  C316  1  0.680040  0.741410  0.008380  1.0  -0.1094
  C  C317  1  0.769970  0.269990  0.496020  1.0  0.0442
  C  C318  1  0.758630  0.319930  0.508440  1.0  -0.108
  C  C319  1  0.795760  0.357090  0.508590  1.0  -0.0605
  C  C320  1  0.845740  0.345640  0.496870  1.0  -0.0951
  C  C321  1  0.857240  0.295830  0.484530  1.0  -0.061
  C  C322  1  0.820010  0.258750  0.483860  1.0  -0.1093
  C  C323  1  0.730040  0.230020  0.496020  1.0  0.0448
  C  C324  1  0.741380  0.180080  0.508440  1.0  -0.1049
  C  C325  1  0.704250  0.142930  0.508590  1.0  -0.0604
  C  C326  1  0.654270  0.154380  0.496870  1.0  -0.0947
  C  C327  1  0.642770  0.204190  0.484530  1.0  -0.0618
  C  C328  1  0.680000  0.241270  0.483860  1.0  -0.1103
  C  C329  1  0.770050  0.230110  0.004120  1.0  0.0318
  C  C330  1  0.758930  0.180030  0.016220  1.0  -0.1123
  C  C331  1  0.796100  0.142900  0.015540  1.0  -0.0641
  C  C332  1  0.845900  0.154530  0.003270  1.0  -0.0957
  C  C333  1  0.857250  0.204550  0.991630  1.0  -0.0647
  C  C334  1  0.819990  0.241590  0.991780  1.0  -0.1098
  C  C335  1  0.729960  0.269910  0.004120  1.0  0.0331
  C  C336  1  0.741080  0.319990  0.016220  1.0  -0.1096
  C  C337  1  0.703910  0.357110  0.015540  1.0  -0.0642
  C  C338  1  0.654110  0.345480  0.003270  1.0  -0.0956
  C  C339  1  0.642760  0.295460  0.991630  1.0  -0.065
  C  C340  1  0.680020  0.258430  0.991780  1.0  -0.1099
  C  C341  1  0.769910  0.729960  0.504020  1.0  0.0632
  C  C342  1  0.758450  0.680030  0.491640  1.0  -0.1046
  C  C343  1  0.795500  0.642770  0.491500  1.0  -0.0655
  C  C344  1  0.845510  0.654110  0.503190  1.0  -0.0988
  C  C345  1  0.857120  0.703910  0.515500  1.0  -0.0598
  C  C346  1  0.819980  0.741090  0.516160  1.0  -0.107
  C  C347  1  0.730100  0.770050  0.504020  1.0  0.0646
  C  C348  1  0.741560  0.819980  0.491640  1.0  -0.1055
  C  C349  1  0.704510  0.857240  0.491500  1.0  -0.065
  C  C350  1  0.654500  0.845910  0.503190  1.0  -0.0976
  C  C351  1  0.642890  0.796100  0.515500  1.0  -0.0593
  C  C352  1  0.680030  0.758930  0.516160  1.0  -0.1053
  C  C353  1  0.230100  0.270050  0.504020  1.0  0.0646
  C  C354  1  0.180030  0.258930  0.516160  1.0  -0.1053
  C  C355  1  0.142890  0.296100  0.515500  1.0  -0.0593
  C  C356  1  0.154500  0.345910  0.503190  1.0  -0.0976
  C  C357  1  0.204510  0.357240  0.491500  1.0  -0.065
  C  C358  1  0.241560  0.319980  0.491640  1.0  -0.1055
  C  C359  1  0.269910  0.229960  0.504020  1.0  0.0632
  C  C360  1  0.319980  0.241090  0.516160  1.0  -0.107
  C  C361  1  0.357120  0.203910  0.515500  1.0  -0.0598
  C  C362  1  0.345510  0.154110  0.503190  1.0  -0.0988
  C  C363  1  0.295500  0.142770  0.491500  1.0  -0.0655
  C  C364  1  0.258450  0.180030  0.491640  1.0  -0.1046
  C  C365  1  0.229960  0.769910  0.004120  1.0  0.0331
  C  C366  1  0.180020  0.758430  0.991780  1.0  -0.1099
  C  C367  1  0.142760  0.795460  0.991630  1.0  -0.065
  C  C368  1  0.154110  0.845480  0.003270  1.0  -0.0956
  C  C369  1  0.203910  0.857110  0.015540  1.0  -0.0642
  C  C370  1  0.241080  0.819990  0.016220  1.0  -0.1096
  C  C371  1  0.270050  0.730110  0.004120  1.0  0.0318
  C  C372  1  0.319990  0.741590  0.991780  1.0  -0.1098
  C  C373  1  0.357250  0.704550  0.991630  1.0  -0.0647
  C  C374  1  0.345900  0.654530  0.003270  1.0  -0.0957
  C  C375  1  0.296100  0.642900  0.015540  1.0  -0.0641
  C  C376  1  0.258930  0.680030  0.016220  1.0  -0.1123
  C  C377  1  0.996330  0.229990  0.230070  1.0  0.0411
  C  C378  1  0.008420  0.179990  0.241500  1.0  -0.1085
  C  C379  1  0.008490  0.142780  0.204420  1.0  -0.0632
  C  C380  1  0.996980  0.154240  0.154380  1.0  -0.0973
  C  C381  1  0.985020  0.204130  0.142790  1.0  -0.0685
  C  C382  1  0.984440  0.241250  0.179970  1.0  -0.108
  C  C383  1  0.996350  0.270010  0.269950  1.0  0.0418
  C  C384  1  0.009020  0.319900  0.258610  1.0  -0.1072
  C  C385  1  0.009100  0.357110  0.295700  1.0  -0.0627
  C  C386  1  0.997060  0.345760  0.345620  1.0  -0.096
  C  C387  1  0.984500  0.296000  0.357120  1.0  -0.0614
  C  C388  1  0.983890  0.258870  0.319940  1.0  -0.107
  C  C389  1  0.495810  0.270040  0.769910  1.0  0.0347
  C  C390  1  0.484030  0.258790  0.820040  1.0  -0.1074
  C  C391  1  0.484710  0.295920  0.857220  1.0  -0.0613
  C  C392  1  0.496630  0.345810  0.845590  1.0  -0.0922
  C  C393  1  0.507960  0.357260  0.795520  1.0  -0.0692
  C  C394  1  0.507820  0.320050  0.758440  1.0  -0.112
  C  C395  1  0.495820  0.229990  0.730040  1.0  0.041
  C  C396  1  0.483470  0.241120  0.680020  1.0  -0.1135
  C  C397  1  0.484180  0.203990  0.642840  1.0  -0.0641
  C  C398  1  0.496710  0.154230  0.654370  1.0  -0.1003
  C  C399  1  0.508580  0.142880  0.704340  1.0  -0.0629
  C  C400  1  0.508420  0.180100  0.741410  1.0  -0.086
  C  C401  1  0.995810  0.770040  0.769910  1.0  0.0347
  C  C402  1  0.984030  0.758790  0.820040  1.0  -0.1074
  C  C403  1  0.984710  0.795920  0.857220  1.0  -0.0613
  C  C404  1  0.996630  0.845810  0.845590  1.0  -0.0922
  C  C405  1  0.007960  0.857260  0.795520  1.0  -0.0692
  C  C406  1  0.007820  0.820050  0.758440  1.0  -0.1117
  C  C407  1  0.995820  0.729990  0.730040  1.0  0.041
  C  C408  1  0.983470  0.741120  0.680020  1.0  -0.1135
  C  C409  1  0.984180  0.703990  0.642840  1.0  -0.0641
  C  C410  1  0.996710  0.654230  0.654370  1.0  -0.1003
  C  C411  1  0.008580  0.642880  0.704340  1.0  -0.0629
  C  C412  1  0.008420  0.680100  0.741410  1.0  -0.086
  C  C413  1  0.496330  0.729990  0.230070  1.0  0.0411
  C  C414  1  0.508420  0.679990  0.241500  1.0  -0.1085
  C  C415  1  0.508490  0.642780  0.204420  1.0  -0.0632
  C  C416  1  0.496980  0.654240  0.154380  1.0  -0.0973
  C  C417  1  0.485020  0.704130  0.142790  1.0  -0.0685
  C  C418  1  0.484440  0.741250  0.179970  1.0  -0.108
  C  C419  1  0.496350  0.770010  0.269950  1.0  0.0418
  C  C420  1  0.509020  0.819900  0.258610  1.0  -0.1072
  C  C421  1  0.509100  0.857110  0.295700  1.0  -0.0627
  C  C422  1  0.497060  0.845760  0.345620  1.0  -0.096
  C  C423  1  0.484500  0.796000  0.357120  1.0  -0.0614
  C  C424  1  0.483890  0.758870  0.319940  1.0  -0.107
  C  C425  1  0.003670  0.770020  0.230070  1.0  0.0411
  C  C426  1  0.015570  0.758760  0.179970  1.0  -0.1105
  C  C427  1  0.014990  0.795890  0.142790  1.0  -0.0687
  C  C428  1  0.003030  0.845780  0.154380  1.0  -0.0959
  C  C429  1  0.991520  0.857230  0.204420  1.0  -0.0645
  C  C430  1  0.991580  0.820030  0.241500  1.0  -0.1085
  C  C431  1  0.003660  0.730000  0.269950  1.0  0.0422
  C  C432  1  0.016120  0.741140  0.319940  1.0  -0.1084
  C  C433  1  0.015510  0.704020  0.357120  1.0  -0.0606
  C  C434  1  0.002950  0.654260  0.345620  1.0  -0.0964
  C  C435  1  0.990900  0.642910  0.295700  1.0  -0.0613
  C  C436  1  0.990990  0.680120  0.258610  1.0  -0.1069
  C  C437  1  0.504200  0.729980  0.769910  1.0  0.0335
  C  C438  1  0.492190  0.679970  0.758440  1.0  -0.1124
  C  C439  1  0.492050  0.642750  0.795520  1.0  -0.0682
  C  C440  1  0.503380  0.654210  0.845590  1.0  -0.0931
  C  C441  1  0.515300  0.704100  0.857220  1.0  -0.0622
  C  C442  1  0.515970  0.741230  0.820040  1.0  -0.1074
  C  C443  1  0.504190  0.770020  0.730040  1.0  0.0412
  C  C444  1  0.491590  0.819920  0.741410  1.0  -0.0863
  C  C445  1  0.491430  0.857130  0.704340  1.0  -0.0645
  C  C446  1  0.503300  0.845790  0.654370  1.0  -0.0996
  C  C447  1  0.515830  0.796030  0.642840  1.0  -0.064
  C  C448  1  0.516540  0.758900  0.680020  1.0  -0.1119
  C  C449  1  0.503670  0.270020  0.230070  1.0  0.0411
  C  C450  1  0.515570  0.258760  0.179970  1.0  -0.1105
  C  C451  1  0.514990  0.295890  0.142790  1.0  -0.0687
  C  C452  1  0.503030  0.345780  0.154380  1.0  -0.0959
  C  C453  1  0.491520  0.357230  0.204420  1.0  -0.0645
  C  C454  1  0.491580  0.320030  0.241500  1.0  -0.1085
  C  C455  1  0.503660  0.230000  0.269950  1.0  0.0422
  C  C456  1  0.516120  0.241140  0.319940  1.0  -0.1084
  C  C457  1  0.515510  0.204020  0.357120  1.0  -0.0606
  C  C458  1  0.502950  0.154260  0.345620  1.0  -0.0963
  C  C459  1  0.490900  0.142910  0.295700  1.0  -0.0613
  C  C460  1  0.490990  0.180120  0.258610  1.0  -0.1069
  C  C461  1  0.004200  0.229980  0.769910  1.0  0.0335
  C  C462  1  0.992190  0.179970  0.758440  1.0  -0.1124
  C  C463  1  0.992050  0.142750  0.795520  1.0  -0.0682
  C  C464  1  0.003380  0.154210  0.845590  1.0  -0.0931
  C  C465  1  0.015300  0.204100  0.857220  1.0  -0.0622
  C  C466  1  0.015970  0.241230  0.820040  1.0  -0.1074
  C  C467  1  0.004190  0.270020  0.730040  1.0  0.0412
  C  C468  1  0.991590  0.319920  0.741410  1.0  -0.0863
  C  C469  1  0.991430  0.357130  0.704340  1.0  -0.0645
  C  C470  1  0.003300  0.345790  0.654370  1.0  -0.0996
  C  C471  1  0.015830  0.296030  0.642840  1.0  -0.064
  C  C472  1  0.016540  0.258900  0.680020  1.0  -0.1119
  C  C473  1  0.230000  0.995990  0.230040  1.0  0.0446
  C  C474  1  0.241120  0.983530  0.180050  1.0  -0.1097
  C  C475  1  0.203990  0.984150  0.142880  1.0  -0.0585
  C  C476  1  0.154230  0.996740  0.154380  1.0  -0.0978
  C  C477  1  0.142900  0.008790  0.204310  1.0  -0.0605
  C  C478  1  0.180120  0.008680  0.241390  1.0  -0.1073
  C  C479  1  0.270030  0.995980  0.269900  1.0  0.0421
  C  C480  1  0.258790  0.984070  0.320000  1.0  -0.1083
  C  C481  1  0.295920  0.984670  0.357170  1.0  -0.0698
  C  C482  1  0.345800  0.996660  0.345570  1.0  -0.0975
  C  C483  1  0.357240  0.008180  0.295530  1.0  -0.0603
  C  C484  1  0.320020  0.008100  0.258450  1.0  -0.108
  C  C485  1  0.269930  0.496320  0.770000  1.0  0.0334
  C  C486  1  0.320080  0.484660  0.758730  1.0  -0.1059
  C  C487  1  0.357240  0.485270  0.795870  1.0  -0.0647
  C  C488  1  0.345590  0.497040  0.845800  1.0  -0.095
  C  C489  1  0.295500  0.508280  0.857270  1.0  -0.0624
  C  C490  1  0.258430  0.508200  0.820040  1.0  -0.1057
  C  C491  1  0.230060  0.496320  0.729960  1.0  0.0423
  C  C492  1  0.180070  0.483820  0.741070  1.0  -0.109
  C  C493  1  0.142900  0.484410  0.703930  1.0  -0.0614
  C  C494  1  0.154390  0.496970  0.654170  1.0  -0.1008
  C  C495  1  0.204310  0.509080  0.642850  1.0  -0.0616
  C  C496  1  0.241380  0.509030  0.680080  1.0  -0.1028
  C  C497  1  0.769930  0.996320  0.770000  1.0  0.0334
  C  C498  1  0.820080  0.984660  0.758730  1.0  -0.1059
  C  C499  1  0.857240  0.985270  0.795870  1.0  -0.0647
  C  C500  1  0.845590  0.997040  0.845800  1.0  -0.095
  C  C501  1  0.795500  0.008280  0.857270  1.0  -0.0624
  C  C502  1  0.758430  0.008200  0.820040  1.0  -0.1057
  C  C503  1  0.730060  0.996320  0.729960  1.0  0.0423
  C  C504  1  0.680070  0.983820  0.741070  1.0  -0.109
  C  C505  1  0.642900  0.984410  0.703930  1.0  -0.0614
  C  C506  1  0.654390  0.996970  0.654170  1.0  -0.1008
  C  C507  1  0.704310  0.009080  0.642850  1.0  -0.0616
  C  C508  1  0.741380  0.009030  0.680080  1.0  -0.1028
  C  C509  1  0.730000  0.495990  0.230040  1.0  0.0446
  C  C510  1  0.741120  0.483530  0.180050  1.0  -0.1097
  C  C511  1  0.703990  0.484150  0.142880  1.0  -0.0585
  C  C512  1  0.654230  0.496740  0.154380  1.0  -0.0978
  C  C513  1  0.642900  0.508790  0.204310  1.0  -0.0605
  C  C514  1  0.680120  0.508680  0.241390  1.0  -0.1073
  C  C515  1  0.770030  0.495980  0.269900  1.0  0.0421
  C  C516  1  0.758790  0.484070  0.320000  1.0  -0.1083
  C  C517  1  0.795920  0.484670  0.357170  1.0  -0.0698
  C  C518  1  0.845800  0.496660  0.345570  1.0  -0.0975
  C  C519  1  0.857240  0.508180  0.295530  1.0  -0.0603
  C  C520  1  0.820020  0.508100  0.258450  1.0  -0.108
  C  C521  1  0.230080  0.003690  0.770000  1.0  0.0337
  C  C522  1  0.179930  0.015360  0.758730  1.0  -0.1068
  C  C523  1  0.142770  0.014750  0.795870  1.0  -0.0637
  C  C524  1  0.154420  0.002980  0.845800  1.0  -0.0935
  C  C525  1  0.204510  0.991740  0.857270  1.0  -0.0617
  C  C526  1  0.241580  0.991820  0.820040  1.0  -0.1052
  C  C527  1  0.269950  0.003700  0.729960  1.0  0.042
  C  C528  1  0.319940  0.016200  0.741070  1.0  -0.1088
  C  C529  1  0.357110  0.015610  0.703930  1.0  -0.0608
  C  C530  1  0.345620  0.003050  0.654170  1.0  -0.1021
  C  C531  1  0.295700  0.990940  0.642850  1.0  -0.0617
  C  C532  1  0.258630  0.990990  0.680080  1.0  -0.1023
  C  C533  1  0.270010  0.504020  0.230040  1.0  0.0438
  C  C534  1  0.258890  0.516490  0.180050  1.0  -0.1103
  C  C535  1  0.296020  0.515870  0.142880  1.0  -0.0581
  C  C536  1  0.345780  0.503280  0.154380  1.0  -0.0972
  C  C537  1  0.357100  0.491230  0.204310  1.0  -0.062
  C  C538  1  0.319890  0.491330  0.241390  1.0  -0.1066
  C  C539  1  0.229980  0.504040  0.269900  1.0  0.0429
  C  C540  1  0.241220  0.515940  0.320000  1.0  -0.1083
  C  C541  1  0.204090  0.515350  0.357170  1.0  -0.0696
  C  C542  1  0.154210  0.503360  0.345570  1.0  -0.0959
  C  C543  1  0.142770  0.491840  0.295530  1.0  -0.0593
  C  C544  1  0.179990  0.491920  0.258450  1.0  -0.1067
  C  C545  1  0.770010  0.004020  0.230040  1.0  0.0438
  C  C546  1  0.758890  0.016490  0.180050  1.0  -0.1103
  C  C547  1  0.796020  0.015870  0.142880  1.0  -0.0581
  C  C548  1  0.845780  0.003280  0.154380  1.0  -0.0972
  C  C549  1  0.857100  0.991230  0.204310  1.0  -0.062
  C  C550  1  0.819890  0.991330  0.241390  1.0  -0.1066
  C  C551  1  0.729980  0.004040  0.269900  1.0  0.0429
  C  C552  1  0.741220  0.015940  0.320000  1.0  -0.1083
  C  C553  1  0.704090  0.015350  0.357170  1.0  -0.0696
  C  C554  1  0.654210  0.003360  0.345570  1.0  -0.0959
  C  C555  1  0.642770  0.991840  0.295530  1.0  -0.0593
  C  C556  1  0.679990  0.991920  0.258450  1.0  -0.1067
  C  C557  1  0.730080  0.503690  0.770000  1.0  0.0337
  C  C558  1  0.679930  0.515360  0.758730  1.0  -0.1068
  C  C559  1  0.642770  0.514750  0.795870  1.0  -0.0637
  C  C560  1  0.654420  0.502980  0.845800  1.0  -0.0935
  C  C561  1  0.704510  0.491740  0.857270  1.0  -0.0617
  C  C562  1  0.741580  0.491820  0.820040  1.0  -0.1052
  C  C563  1  0.769950  0.503700  0.729960  1.0  0.042
  C  C564  1  0.819940  0.516200  0.741070  1.0  -0.1088
  C  C565  1  0.857110  0.515610  0.703930  1.0  -0.0608
  C  C566  1  0.845620  0.503050  0.654170  1.0  -0.1021
  C  C567  1  0.795700  0.490940  0.642850  1.0  -0.0617
  C  C568  1  0.758630  0.490990  0.680080  1.0  -0.1023
  O  O569  1  0.871030  0.068400  0.002010  1.0  -0.5897
  O  O570  1  0.129150  0.068070  0.998100  1.0  -0.5873
  O  O571  1  0.998130  0.129070  0.068220  1.0  -0.5925
  O  O572  1  0.002230  0.129040  0.931770  1.0  -0.5918
  O  O573  1  0.001120  0.068140  0.870860  1.0  -0.5906
  O  O574  1  0.998830  0.068160  0.129120  1.0  -0.5967
  O  O575  1  0.068290  0.129050  0.998990  1.0  -0.5943
  O  O576  1  0.932000  0.129250  0.001050  1.0  -0.5961
  O  O577  1  0.045430  0.045290  0.954670  1.0  -0.9416
  O  O578  1  0.954700  0.045460  0.045400  1.0  -0.9363
  O  O579  1  0.045160  0.045030  0.045090  1.0  -0.841
  O  O580  1  0.954960  0.045170  0.954910  1.0  -0.8417
  O  O581  1  0.128980  0.931610  0.002010  1.0  -0.5874
  O  O582  1  0.870860  0.931950  0.998100  1.0  -0.588
  O  O583  1  0.068160  0.998690  0.129130  1.0  -0.5931
  O  O584  1  0.068250  0.001980  0.870990  1.0  -0.5911
  O  O585  1  0.931760  0.998030  0.870990  1.0  -0.5894
  O  O586  1  0.931850  0.001330  0.129130  1.0  -0.5927
  O  O587  1  0.001880  0.870940  0.068220  1.0  -0.6017
  O  O588  1  0.997780  0.870970  0.931770  1.0  -0.5921
  O  O589  1  0.001180  0.931860  0.129120  1.0  -0.5917
  O  O590  1  0.998890  0.931880  0.870860  1.0  -0.5904
  O  O591  1  0.129090  0.998030  0.068230  1.0  -0.5922
  O  O592  1  0.870920  0.001990  0.068230  1.0  -0.5924
  O  O593  1  0.870840  0.999190  0.931890  1.0  -0.591
  O  O594  1  0.129170  0.000830  0.931890  1.0  -0.5901
  O  O595  1  0.068010  0.870770  0.001050  1.0  -0.5947
  O  O596  1  0.931720  0.870970  0.998990  1.0  -0.595
  O  O597  1  0.954580  0.954720  0.954670  1.0  -0.9399
  O  O598  1  0.045310  0.954560  0.045400  1.0  -0.9414
  O  O599  1  0.954850  0.954980  0.045090  1.0  -0.842
  O  O600  1  0.045050  0.954840  0.954910  1.0  -0.8418
  O  O601  1  0.371030  0.568400  0.002010  1.0  -0.5897
  O  O602  1  0.629150  0.568070  0.998100  1.0  -0.5873
  O  O603  1  0.498130  0.629070  0.068220  1.0  -0.5925
  O  O604  1  0.502230  0.629040  0.931770  1.0  -0.5918
  O  O605  1  0.501120  0.568140  0.870860  1.0  -0.5906
  O  O606  1  0.498830  0.568160  0.129120  1.0  -0.5967
  O  O607  1  0.568290  0.629050  0.998990  1.0  -0.5943
  O  O608  1  0.432000  0.629250  0.001050  1.0  -0.5961
  O  O609  1  0.545430  0.545290  0.954670  1.0  -0.9416
  O  O610  1  0.454700  0.545460  0.045400  1.0  -0.9363
  O  O611  1  0.545160  0.545030  0.045090  1.0  -0.841
  O  O612  1  0.454960  0.545170  0.954910  1.0  -0.8417
  O  O613  1  0.628980  0.431610  0.002010  1.0  -0.5874
  O  O614  1  0.370860  0.431950  0.998100  1.0  -0.588
  O  O615  1  0.568160  0.498690  0.129130  1.0  -0.5931
  O  O616  1  0.568250  0.501980  0.870990  1.0  -0.5911
  O  O617  1  0.431760  0.498030  0.870990  1.0  -0.5894
  O  O618  1  0.431850  0.501330  0.129130  1.0  -0.5927
  O  O619  1  0.501880  0.370940  0.068220  1.0  -0.6017
  O  O620  1  0.497780  0.370970  0.931770  1.0  -0.5921
  O  O621  1  0.501180  0.431860  0.129120  1.0  -0.5917
  O  O622  1  0.498890  0.431880  0.870860  1.0  -0.5904
  O  O623  1  0.629090  0.498030  0.068230  1.0  -0.5922
  O  O624  1  0.370920  0.501990  0.068230  1.0  -0.5924
  O  O625  1  0.370840  0.499190  0.931890  1.0  -0.591
  O  O626  1  0.629170  0.500830  0.931890  1.0  -0.5901
  O  O627  1  0.568010  0.370770  0.001050  1.0  -0.5947
  O  O628  1  0.431720  0.370970  0.998990  1.0  -0.595
  O  O629  1  0.454580  0.454720  0.954670  1.0  -0.9399
  O  O630  1  0.545310  0.454560  0.045400  1.0  -0.9414
  O  O631  1  0.454850  0.454980  0.045090  1.0  -0.842
  O  O632  1  0.545050  0.454840  0.954910  1.0  -0.8418
  O  O633  1  0.870810  0.568000  0.501120  1.0  -0.5934
  O  O634  1  0.129040  0.568340  0.498800  1.0  -0.5924
  O  O635  1  0.998010  0.629090  0.568200  1.0  -0.5958
  O  O636  1  0.001640  0.629120  0.431780  1.0  -0.5976
  O  O637  1  0.001170  0.568180  0.370880  1.0  -0.5967
  O  O638  1  0.998900  0.568160  0.629110  1.0  -0.5928
  O  O639  1  0.068080  0.629200  0.498180  1.0  -0.5901
  O  O640  1  0.931650  0.629000  0.501810  1.0  -0.6045
  O  O641  1  0.045310  0.545460  0.454580  1.0  -0.9406
  O  O642  1  0.954580  0.545290  0.545310  1.0  -0.9371
  O  O643  1  0.045040  0.545180  0.545070  1.0  -0.8398
  O  O644  1  0.954860  0.545050  0.454890  1.0  -0.8423
  O  O645  1  0.129200  0.432010  0.501120  1.0  -0.5904
  O  O646  1  0.870970  0.431680  0.498800  1.0  -0.592
  O  O647  1  0.068230  0.498010  0.629010  1.0  -0.5971
  O  O648  1  0.068140  0.501340  0.370830  1.0  -0.5994
  O  O649  1  0.931870  0.498680  0.370830  1.0  -0.6005
  O  O650  1  0.931780  0.502000  0.629010  1.0  -0.5969
  O  O651  1  0.002000  0.370930  0.568200  1.0  -0.5973
  O  O652  1  0.998370  0.370900  0.431780  1.0  -0.599
  O  O653  1  0.001110  0.431860  0.629110  1.0  -0.5907
  O  O654  1  0.998840  0.431830  0.370880  1.0  -0.5951
  O  O655  1  0.129140  0.498960  0.568090  1.0  -0.5963
  O  O656  1  0.870870  0.501050  0.568090  1.0  -0.597
  O  O657  1  0.870960  0.497790  0.431730  1.0  -0.5923
  O  O658  1  0.129050  0.502230  0.431730  1.0  -0.5909
  O  O659  1  0.068360  0.371020  0.501810  1.0  -0.6045
  O  O660  1  0.931930  0.370810  0.498180  1.0  -0.5899
  O  O661  1  0.954700  0.454550  0.454580  1.0  -0.9392
  O  O662  1  0.045430  0.454730  0.545310  1.0  -0.9415
  O  O663  1  0.954970  0.454840  0.545070  1.0  -0.8416
  O  O664  1  0.045150  0.454970  0.454890  1.0  -0.8421
  O  O665  1  0.370810  0.068000  0.501120  1.0  -0.5934
  O  O666  1  0.629040  0.068340  0.498800  1.0  -0.5924
  O  O667  1  0.498010  0.129090  0.568200  1.0  -0.5958
  O  O668  1  0.501640  0.129120  0.431780  1.0  -0.5976
  O  O669  1  0.501170  0.068180  0.370880  1.0  -0.5967
  O  O670  1  0.498900  0.068160  0.629110  1.0  -0.5928
  O  O671  1  0.568080  0.129200  0.498180  1.0  -0.5901
  O  O672  1  0.431650  0.129000  0.501810  1.0  -0.6045
  O  O673  1  0.545310  0.045460  0.454580  1.0  -0.9406
  O  O674  1  0.454580  0.045290  0.545310  1.0  -0.9371
  O  O675  1  0.545040  0.045180  0.545070  1.0  -0.8398
  O  O676  1  0.454860  0.045050  0.454890  1.0  -0.8423
  O  O677  1  0.629200  0.932010  0.501120  1.0  -0.5904
  O  O678  1  0.370970  0.931680  0.498800  1.0  -0.592
  O  O679  1  0.568230  0.998010  0.629010  1.0  -0.5971
  O  O680  1  0.568140  0.001340  0.370830  1.0  -0.5994
  O  O681  1  0.431870  0.998680  0.370830  1.0  -0.6005
  O  O682  1  0.431780  0.002000  0.629010  1.0  -0.5969
  O  O683  1  0.502000  0.870930  0.568200  1.0  -0.5973
  O  O684  1  0.498370  0.870900  0.431780  1.0  -0.599
  O  O685  1  0.501110  0.931860  0.629110  1.0  -0.5907
  O  O686  1  0.498840  0.931830  0.370880  1.0  -0.5951
  O  O687  1  0.629140  0.998960  0.568090  1.0  -0.5963
  O  O688  1  0.370870  0.001050  0.568090  1.0  -0.597
  O  O689  1  0.370960  0.997790  0.431730  1.0  -0.5923
  O  O690  1  0.629050  0.002230  0.431730  1.0  -0.5909
  O  O691  1  0.568360  0.871020  0.501810  1.0  -0.6045
  O  O692  1  0.431930  0.870810  0.498180  1.0  -0.5899
  O  O693  1  0.454700  0.954550  0.454580  1.0  -0.9392
  O  O694  1  0.545430  0.954730  0.545310  1.0  -0.9415
  O  O695  1  0.454970  0.954840  0.545070  1.0  -0.8416
  O  O696  1  0.545150  0.954970  0.454890  1.0  -0.8421
