# generated using pymatgen
data_EuH8C8(NO3)2
_symmetry_space_group_name_H-M   'P 1'
_cell_length_a   7.57390000
_cell_length_b   8.61670000
_cell_length_c   9.86700000
_cell_angle_alpha   86.99000000
_cell_angle_beta   89.87000000
_cell_angle_gamma   85.24000000
_symmetry_Int_Tables_number   1
_chemical_formula_structural   EuH8C8(NO3)2
_chemical_formula_sum   'Eu2 H16 C16 N4 O12'
_cell_volume   640.83272709
_cell_formula_units_Z   2
loop_
 _symmetry_equiv_pos_site_id
 _symmetry_equiv_pos_as_xyz
  1  'x, y, z'
loop_
 _atom_site_type_symbol
 _atom_site_label
 _atom_site_symmetry_multiplicity
 _atom_site_fract_x
 _atom_site_fract_y
 _atom_site_fract_z
 _atom_site_occupancy
 _atom_site_charge
  Eu  Eu1  1  0.565470  0.884730  0.833120  1.0  2.1181
  Eu  Eu2  1  0.434530  0.115270  0.166880  1.0  2.1187
  H  H3  1  0.746400  0.483900  0.905700  1.0  0.0873
  H  H4  1  0.896100  0.481500  0.791500  1.0  0.0829
  H  H5  1  0.136700  0.792300  0.163900  1.0  0.0683
  H  H6  1  0.989900  0.878800  0.063600  1.0  0.063
  H  H7  1  0.218600  0.394600  0.730400  1.0  0.0732
  H  H8  1  0.335400  0.504900  0.811600  1.0  0.0652
  H  H9  1  0.568900  0.739700  0.471800  1.0  0.0953
  H  H10  1  0.740800  0.621900  0.498200  1.0  0.0941
  H  H11  1  0.253600  0.516100  0.094300  1.0  0.0878
  H  H12  1  0.103900  0.518500  0.208500  1.0  0.0833
  H  H13  1  0.863300  0.207700  0.836100  1.0  0.0689
  H  H14  1  0.010100  0.121200  0.936400  1.0  0.0634
  H  H15  1  0.781400  0.605400  0.269600  1.0  0.0726
  H  H16  1  0.664600  0.495100  0.188400  1.0  0.0653
  H  H17  1  0.431100  0.260300  0.528200  1.0  0.0958
  H  H18  1  0.259200  0.378100  0.501800  1.0  0.0981
  C  C19  1  0.425700  0.273100  0.834500  1.0  0.7521
  C  C20  1  0.926100  0.642500  0.931000  1.0  0.5514
  C  C21  1  0.875100  0.488400  0.890100  1.0  -0.2304
  C  C22  1  0.534500  0.573600  0.622100  1.0  0.5357
  C  C23  1  0.234800  0.846100  0.974200  1.0  0.6884
  C  C24  1  0.091200  0.798400  0.069700  1.0  -0.1106
  C  C25  1  0.341600  0.414400  0.753400  1.0  -0.2029
  C  C26  1  0.610200  0.628400  0.489400  1.0  -0.1995
  C  C27  1  0.574300  0.726900  0.165500  1.0  0.7521
  C  C28  1  0.073900  0.357500  0.069000  1.0  0.5509
  C  C29  1  0.124900  0.511600  0.109900  1.0  -0.2302
  C  C30  1  0.465500  0.426400  0.377900  1.0  0.5368
  C  C31  1  0.765200  0.153900  0.025800  1.0  0.6881
  C  C32  1  0.908800  0.201600  0.930300  1.0  -0.1079
  C  C33  1  0.658400  0.585600  0.246600  1.0  -0.2046
  C  C34  1  0.389800  0.371600  0.510600  1.0  -0.1966
  N  N35  1  0.030600  0.649000  0.038700  1.0  -0.1689
  N  N36  1  0.433800  0.456000  0.628000  1.0  -0.0937
  N  N37  1  0.969400  0.351000  0.961300  1.0  -0.1683
  N  N38  1  0.566200  0.544000  0.372000  1.0  -0.0927
  O  O39  1  0.410400  0.277800  0.961100  1.0  -0.7189
  O  O40  1  0.866900  0.761200  0.864700  1.0  -0.6329
  O  O41  1  0.570400  0.644500  0.724500  1.0  -0.6833
  O  O42  1  0.501400  0.162000  0.772400  1.0  -0.7253
  O  O43  1  0.309800  0.970600  0.992700  1.0  -0.8345
  O  O44  1  0.282900  0.760200  0.881900  1.0  -0.6818
  O  O45  1  0.589600  0.722200  0.038900  1.0  -0.7179
  O  O46  1  0.133100  0.238800  0.135300  1.0  -0.6327
  O  O47  1  0.429600  0.355500  0.275500  1.0  -0.6809
  O  O48  1  0.498600  0.838000  0.227600  1.0  -0.7262
  O  O49  1  0.690200  0.029400  0.007300  1.0  -0.8347
  O  O50  1  0.717100  0.239800  0.118100  1.0  -0.681
