# generated using pymatgen
data_LaH8C8(NO3)2
_symmetry_space_group_name_H-M   'P 1'
_cell_length_a   7.64970000
_cell_length_b   8.73640000
_cell_length_c   10.00640000
_cell_angle_alpha   86.49800000
_cell_angle_beta   89.45600000
_cell_angle_gamma   85.13500000
_symmetry_Int_Tables_number   1
_chemical_formula_structural   LaH8C8(NO3)2
_chemical_formula_sum   'La2 H16 C16 N4 O12'
_cell_volume   665.07633348
_cell_formula_units_Z   2
loop_
 _symmetry_equiv_pos_site_id
 _symmetry_equiv_pos_as_xyz
  1  'x, y, z'
loop_
 _atom_site_type_symbol
 _atom_site_label
 _atom_site_symmetry_multiplicity
 _atom_site_fract_x
 _atom_site_fract_y
 _atom_site_fract_z
 _atom_site_occupancy
 _atom_site_charge
  La  La1  1  0.430490  0.115320  0.169020  1.0  2.1468
  La  La2  1  0.569510  0.884680  0.830980  1.0  2.1444
  H  H3  1  0.013600  0.125400  0.940100  1.0  0.0623
  H  H4  1  0.872400  0.210600  0.837300  1.0  0.0614
  H  H5  1  0.573500  0.734700  0.472400  1.0  0.0919
  H  H6  1  0.741700  0.616100  0.498500  1.0  0.0897
  H  H7  1  0.095800  0.518800  0.206200  1.0  0.0785
  H  H8  1  0.247100  0.515200  0.095300  1.0  0.0701
  H  H9  1  0.661200  0.494000  0.191300  1.0  0.064
  H  H10  1  0.781400  0.599500  0.269500  1.0  0.0684
  H  H11  1  0.986400  0.874600  0.059900  1.0  0.0614
  H  H12  1  0.127600  0.789400  0.162700  1.0  0.0597
  H  H13  1  0.426500  0.265300  0.527600  1.0  0.0924
  H  H14  1  0.258300  0.383900  0.501500  1.0  0.0928
  H  H15  1  0.904200  0.481200  0.793800  1.0  0.0787
  H  H16  1  0.752900  0.484800  0.904700  1.0  0.0705
  H  H17  1  0.338800  0.506000  0.808700  1.0  0.0635
  H  H18  1  0.218600  0.400500  0.730500  1.0  0.0682
  C  C19  1  0.913600  0.205100  0.931100  1.0  -0.1217
  C  C20  1  0.463900  0.429600  0.379900  1.0  0.51
  C  C21  1  0.612400  0.624300  0.489600  1.0  -0.2165
  C  C22  1  0.119100  0.511600  0.109200  1.0  -0.2426
  C  C23  1  0.766000  0.160300  0.024600  1.0  0.6988
  C  C24  1  0.069100  0.359500  0.069600  1.0  0.5779
  C  C25  1  0.658500  0.582600  0.248700  1.0  -0.1812
  C  C26  1  0.575600  0.725500  0.169600  1.0  0.7196
  C  C27  1  0.086400  0.794900  0.068900  1.0  -0.1227
  C  C28  1  0.536100  0.570400  0.620100  1.0  0.5099
  C  C29  1  0.387600  0.375700  0.510400  1.0  -0.2152
  C  C30  1  0.880900  0.488400  0.890800  1.0  -0.2429
  C  C31  1  0.234000  0.839700  0.975400  1.0  0.6977
  C  C32  1  0.930900  0.640500  0.930400  1.0  0.58
  C  C33  1  0.341500  0.417400  0.751300  1.0  -0.1817
  C  C34  1  0.424400  0.274500  0.830400  1.0  0.7183
  N  N35  1  0.568700  0.543000  0.372900  1.0  -0.1174
  N  N36  1  0.971000  0.352900  0.962500  1.0  -0.1115
  N  N37  1  0.431300  0.457000  0.627100  1.0  -0.119
  N  N38  1  0.029000  0.647100  0.037500  1.0  -0.1114
  O  O39  1  0.125500  0.242570  0.136910  1.0  -0.6468
  O  O40  1  0.425700  0.361080  0.279720  1.0  -0.6374
  O  O41  1  0.598800  0.724300  0.045950  1.0  -0.7094
  O  O42  1  0.698200  0.033980  0.006630  1.0  -0.8243
  O  O43  1  0.497500  0.831800  0.231940  1.0  -0.7314
  O  O44  1  0.714300  0.246000  0.113000  1.0  -0.6972
  O  O45  1  0.874500  0.757430  0.863090  1.0  -0.6487
  O  O46  1  0.574300  0.638920  0.720280  1.0  -0.6369
  O  O47  1  0.401200  0.275700  0.954050  1.0  -0.7098
  O  O48  1  0.301800  0.966020  0.993370  1.0  -0.8245
  O  O49  1  0.502500  0.168200  0.768060  1.0  -0.7302
  O  O50  1  0.285700  0.754000  0.887000  1.0  -0.6965
