# generated using pymatgen
data_TbH8C8(NO3)2
_symmetry_space_group_name_H-M   'P 1'
_cell_length_a   7.56980000
_cell_length_b   8.60500000
_cell_length_c   9.84000000
_cell_angle_alpha   87.10000000
_cell_angle_beta   89.92000000
_cell_angle_gamma   85.22000000
_symmetry_Int_Tables_number   1
_chemical_formula_structural   TbH8C8(NO3)2
_chemical_formula_sum   'Tb2 H16 C16 N4 O12'
_cell_volume   637.90939316
_cell_formula_units_Z   2
loop_
 _symmetry_equiv_pos_site_id
 _symmetry_equiv_pos_as_xyz
  1  'x, y, z'
loop_
 _atom_site_type_symbol
 _atom_site_label
 _atom_site_symmetry_multiplicity
 _atom_site_fract_x
 _atom_site_fract_y
 _atom_site_fract_z
 _atom_site_occupancy
 _atom_site_charge
  Tb  Tb1  1  0.434980  0.115300  0.166730  1.0  2.2205
  Tb  Tb2  1  0.565020  0.884700  0.833270  1.0  2.2186
  H  H3  1  0.101400  0.518800  0.209100  1.0  0.0734
  H  H4  1  0.253900  0.516900  0.096800  1.0  0.0784
  H  H5  1  0.011100  0.120100  0.933300  1.0  0.0546
  H  H6  1  0.863400  0.208500  0.833900  1.0  0.0558
  H  H7  1  0.259800  0.378700  0.500700  1.0  0.094
  H  H8  1  0.431800  0.261100  0.527600  1.0  0.0919
  H  H9  1  0.216200  0.395900  0.733200  1.0  0.0708
  H  H10  1  0.335000  0.505500  0.814300  1.0  0.0659
  H  H11  1  0.898600  0.481200  0.790900  1.0  0.0731
  H  H12  1  0.746100  0.483100  0.903200  1.0  0.0779
  H  H13  1  0.988900  0.879900  0.066700  1.0  0.0543
  H  H14  1  0.136600  0.791500  0.166100  1.0  0.0549
  H  H15  1  0.740200  0.621300  0.499300  1.0  0.0909
  H  H16  1  0.568200  0.738900  0.472400  1.0  0.0931
  H  H17  1  0.783800  0.604100  0.266800  1.0  0.0696
  H  H18  1  0.665000  0.494500  0.185700  1.0  0.0657
  C  C19  1  0.124800  0.512200  0.110500  1.0  -0.2279
  C  C20  1  0.074400  0.357400  0.067100  1.0  0.5848
  C  C21  1  0.909900  0.200800  0.928300  1.0  -0.1038
  C  C22  1  0.764300  0.153300  0.026600  1.0  0.6714
  C  C23  1  0.534900  0.574500  0.623100  1.0  0.4786
  C  C24  1  0.390500  0.372500  0.509700  1.0  -0.2186
  C  C25  1  0.339700  0.415200  0.755600  1.0  -0.1988
  C  C26  1  0.425600  0.272800  0.835000  1.0  0.7118
  C  C27  1  0.875200  0.487800  0.889500  1.0  -0.2277
  C  C28  1  0.925600  0.642600  0.932900  1.0  0.588
  C  C29  1  0.090100  0.799200  0.071700  1.0  -0.1023
  C  C30  1  0.235700  0.846700  0.973400  1.0  0.6734
  C  C31  1  0.465100  0.425500  0.376900  1.0  0.4782
  C  C32  1  0.609500  0.627500  0.490300  1.0  -0.2208
  C  C33  1  0.660300  0.584800  0.244400  1.0  -0.1995
  C  C34  1  0.574400  0.727200  0.165000  1.0  0.7129
  N  N35  1  0.433100  0.456500  0.627400  1.0  -0.1343
  N  N36  1  0.969400  0.350000  0.962500  1.0  -0.1127
  N  N37  1  0.566900  0.543500  0.372600  1.0  -0.133
  N  N38  1  0.030600  0.650000  0.037500  1.0  -0.1134
  O  O39  1  0.134900  0.238900  0.133400  1.0  -0.6434
  O  O40  1  0.716500  0.238600  0.119400  1.0  -0.6674
  O  O41  1  0.689900  0.028800  0.007800  1.0  -0.8356
  O  O42  1  0.570300  0.644900  0.724500  1.0  -0.6636
  O  O43  1  0.500500  0.161500  0.772400  1.0  -0.7248
  O  O44  1  0.410700  0.278800  0.962000  1.0  -0.7194
  O  O45  1  0.865100  0.761100  0.866600  1.0  -0.6442
  O  O46  1  0.283500  0.761400  0.880600  1.0  -0.6688
  O  O47  1  0.310100  0.971200  0.992200  1.0  -0.8362
  O  O48  1  0.429700  0.355100  0.275500  1.0  -0.6626
  O  O49  1  0.499500  0.838500  0.227600  1.0  -0.7253
  O  O50  1  0.589300  0.721200  0.038000  1.0  -0.7183
