# generated using pymatgen
data_Cd(CO2)4
_symmetry_space_group_name_H-M   'P 1'
_cell_length_a   13.20630000
_cell_length_b   11.27840000
_cell_length_c   15.33340000
_cell_angle_alpha   90.00000000
_cell_angle_beta   103.85400000
_cell_angle_gamma   90.00000000
_symmetry_Int_Tables_number   1
_chemical_formula_structural   Cd(CO2)4
_chemical_formula_sum   'Cd8 C32 O64'
_cell_volume   2217.40825567
_cell_formula_units_Z   8
loop_
 _symmetry_equiv_pos_site_id
 _symmetry_equiv_pos_as_xyz
  1  'x, y, z'
loop_
 _atom_site_type_symbol
 _atom_site_label
 _atom_site_symmetry_multiplicity
 _atom_site_fract_x
 _atom_site_fract_y
 _atom_site_fract_z
 _atom_site_occupancy
 _atom_site_charge
  Cd  Cd1  1  0.195190  0.820760  0.179100  1.0  1.0911
  Cd  Cd2  1  0.695190  0.320760  0.179100  1.0  1.0912
  Cd  Cd3  1  0.804810  0.820760  0.320900  1.0  1.0965
  Cd  Cd4  1  0.304810  0.320760  0.320900  1.0  1.0964
  Cd  Cd5  1  0.804810  0.179240  0.820900  1.0  1.0976
  Cd  Cd6  1  0.304810  0.679240  0.820900  1.0  1.0976
  Cd  Cd7  1  0.195190  0.179240  0.679100  1.0  1.0955
  Cd  Cd8  1  0.695190  0.679240  0.679100  1.0  1.0955
  C  C9  1  0.281300  0.596000  0.299100  1.0  0.6667
  C  C10  1  0.184600  0.551000  0.228100  1.0  0.6571
  C  C11  1  0.965000  0.849100  0.201400  1.0  0.6573
  C  C12  1  0.191600  0.752400  0.973900  1.0  0.6907
  C  C13  1  0.781300  0.096000  0.299100  1.0  0.6667
  C  C14  1  0.684600  0.051000  0.228100  1.0  0.6588
  C  C15  1  0.465000  0.349100  0.201400  1.0  0.6573
  C  C16  1  0.691600  0.252400  0.973900  1.0  0.6907
  C  C17  1  0.718700  0.596000  0.200900  1.0  0.667
  C  C18  1  0.815400  0.551000  0.271900  1.0  0.6577
  C  C19  1  0.035000  0.849100  0.298600  1.0  0.6599
  C  C20  1  0.808400  0.752400  0.526100  1.0  0.6908
  C  C21  1  0.218700  0.096000  0.200900  1.0  0.667
  C  C22  1  0.315400  0.051000  0.271900  1.0  0.6594
  C  C23  1  0.535000  0.349100  0.298600  1.0  0.6599
  C  C24  1  0.308400  0.252400  0.526100  1.0  0.6908
  C  C25  1  0.718700  0.404000  0.700900  1.0  0.6672
  C  C26  1  0.815400  0.449000  0.771900  1.0  0.6576
  C  C27  1  0.035000  0.150900  0.798600  1.0  0.6577
  C  C28  1  0.808400  0.247600  0.026100  1.0  0.691
  C  C29  1  0.218700  0.904000  0.700900  1.0  0.6672
  C  C30  1  0.315400  0.949000  0.771900  1.0  0.6592
  C  C31  1  0.535000  0.650900  0.798600  1.0  0.6577
  C  C32  1  0.308400  0.747600  0.026100  1.0  0.691
  C  C33  1  0.281300  0.404000  0.799100  1.0  0.6672
  C  C34  1  0.184600  0.449000  0.728100  1.0  0.6571
  C  C35  1  0.965000  0.150900  0.701400  1.0  0.6597
  C  C36  1  0.191600  0.247600  0.473900  1.0  0.6907
  C  C37  1  0.781300  0.904000  0.799100  1.0  0.6672
  C  C38  1  0.684600  0.949000  0.728100  1.0  0.6588
  C  C39  1  0.465000  0.650900  0.701400  1.0  0.6597
  C  C40  1  0.691600  0.747600  0.473900  1.0  0.6907
  O  O41  1  0.309900  0.700200  0.291900  1.0  -0.471
  O  O42  1  0.137600  0.624200  0.170990  1.0  -0.4514
  O  O43  1  0.321400  0.525100  0.360370  1.0  -0.5094
  O  O44  1  0.161300  0.444600  0.234160  1.0  -0.4546
  O  O45  1  0.009600  0.844000  0.138940  1.0  -0.4392
  O  O46  1  0.868600  0.856700  0.193560  1.0  -0.4902
  O  O47  1  0.129600  0.795900  0.014020  1.0  -0.4619
  O  O48  1  0.171000  0.713300  0.895710  1.0  -0.4888
  O  O49  1  0.809900  0.200200  0.291900  1.0  -0.471
  O  O50  1  0.637600  0.124200  0.170990  1.0  -0.4514
  O  O51  1  0.821400  0.025100  0.360370  1.0  -0.5094
  O  O52  1  0.661300  0.944600  0.234160  1.0  -0.4546
  O  O53  1  0.509600  0.344000  0.138940  1.0  -0.4392
  O  O54  1  0.368600  0.356700  0.193560  1.0  -0.4902
  O  O55  1  0.629600  0.295900  0.014020  1.0  -0.4619
  O  O56  1  0.671000  0.213300  0.895710  1.0  -0.4888
  O  O57  1  0.690100  0.700200  0.208100  1.0  -0.4727
  O  O58  1  0.862400  0.624200  0.329010  1.0  -0.4517
  O  O59  1  0.678600  0.525100  0.139630  1.0  -0.5092
  O  O60  1  0.838700  0.444600  0.265840  1.0  -0.4552
  O  O61  1  0.990400  0.844000  0.361060  1.0  -0.4404
  O  O62  1  0.131400  0.856700  0.306440  1.0  -0.4905
  O  O63  1  0.870400  0.795900  0.485980  1.0  -0.4605
  O  O64  1  0.829000  0.713300  0.604290  1.0  -0.4903
  O  O65  1  0.190100  0.200200  0.208100  1.0  -0.4727
  O  O66  1  0.362400  0.124200  0.329010  1.0  -0.4517
  O  O67  1  0.178600  0.025100  0.139630  1.0  -0.5091
  O  O68  1  0.338700  0.944600  0.265840  1.0  -0.4552
  O  O69  1  0.490400  0.344000  0.361060  1.0  -0.4404
  O  O70  1  0.631400  0.356700  0.306440  1.0  -0.4905
  O  O71  1  0.370400  0.295900  0.485980  1.0  -0.4605
  O  O72  1  0.329000  0.213300  0.604290  1.0  -0.4903
  O  O73  1  0.690100  0.299800  0.708100  1.0  -0.4736
  O  O74  1  0.862400  0.375800  0.829010  1.0  -0.4526
  O  O75  1  0.678600  0.474900  0.639630  1.0  -0.5072
  O  O76  1  0.838700  0.555400  0.765840  1.0  -0.4531
  O  O77  1  0.990400  0.156000  0.861060  1.0  -0.4399
  O  O78  1  0.131400  0.143300  0.806440  1.0  -0.4902
  O  O79  1  0.870400  0.204100  0.985980  1.0  -0.4611
  O  O80  1  0.829000  0.286700  0.104290  1.0  -0.4914
  O  O81  1  0.190100  0.799800  0.708100  1.0  -0.4736
  O  O82  1  0.362400  0.875800  0.829010  1.0  -0.4526
  O  O83  1  0.178600  0.974900  0.639630  1.0  -0.5072
  O  O84  1  0.338700  0.055400  0.765840  1.0  -0.4531
  O  O85  1  0.490400  0.656000  0.861060  1.0  -0.4399
  O  O86  1  0.631400  0.643300  0.806440  1.0  -0.4902
  O  O87  1  0.370400  0.704100  0.985980  1.0  -0.4611
  O  O88  1  0.329000  0.786700  0.104290  1.0  -0.4914
  O  O89  1  0.309900  0.299800  0.791900  1.0  -0.4725
  O  O90  1  0.137600  0.375800  0.670990  1.0  -0.452
  O  O91  1  0.321400  0.474900  0.860370  1.0  -0.5107
  O  O92  1  0.161300  0.555400  0.734160  1.0  -0.4543
  O  O93  1  0.009600  0.156000  0.638940  1.0  -0.4399
  O  O94  1  0.868600  0.143300  0.693560  1.0  -0.49
  O  O95  1  0.129600  0.204100  0.514020  1.0  -0.4641
  O  O96  1  0.171000  0.286700  0.395710  1.0  -0.4896
  O  O97  1  0.809900  0.799800  0.791900  1.0  -0.4726
  O  O98  1  0.637600  0.875800  0.670990  1.0  -0.452
  O  O99  1  0.821400  0.974900  0.860370  1.0  -0.5107
  O  O100  1  0.661300  0.055400  0.734160  1.0  -0.4543
  O  O101  1  0.509600  0.656000  0.638940  1.0  -0.4399
  O  O102  1  0.368600  0.643300  0.693560  1.0  -0.49
  O  O103  1  0.629600  0.704100  0.514020  1.0  -0.4641
  O  O104  1  0.671000  0.786700  0.395710  1.0  -0.4896
