# generated using pymatgen
data_Zn2H10C11NO7
_symmetry_space_group_name_H-M   'P 1'
_cell_length_a   10.33490000
_cell_length_b   11.89620000
_cell_length_c   20.28940000
_cell_angle_alpha   90.00000000
_cell_angle_beta   90.00000000
_cell_angle_gamma   90.00000000
_symmetry_Int_Tables_number   1
_chemical_formula_structural   Zn2H10C11NO7
_chemical_formula_sum   'Zn8 H40 C44 N4 O28'
_cell_volume   2494.50133082
_cell_formula_units_Z   4
loop_
 _symmetry_equiv_pos_site_id
 _symmetry_equiv_pos_as_xyz
  1  'x, y, z'
loop_
 _atom_site_type_symbol
 _atom_site_label
 _atom_site_symmetry_multiplicity
 _atom_site_fract_x
 _atom_site_fract_y
 _atom_site_fract_z
 _atom_site_occupancy
 _atom_site_charge
  Zn  Zn1  1  0.142460  0.676500  0.990720  1.0  0.9713
  Zn  Zn2  1  0.455620  0.583250  0.990260  1.0  1.0698
  Zn  Zn3  1  0.357540  0.323500  0.490720  1.0  0.972
  Zn  Zn4  1  0.044380  0.416750  0.490260  1.0  1.0698
  Zn  Zn5  1  0.857540  0.176500  0.509280  1.0  0.9719
  Zn  Zn6  1  0.544380  0.083250  0.509740  1.0  1.0704
  Zn  Zn7  1  0.642460  0.823500  0.009280  1.0  0.9719
  Zn  Zn8  1  0.955620  0.916750  0.009740  1.0  1.0693
  H  H9  1  0.449600  0.494800  0.793700  1.0  0.0872
  H  H10  1  0.057000  0.511200  0.688900  1.0  0.095
  H  H11  1  0.439700  0.447000  0.681800  1.0  0.1066
  H  H12  1  0.234000  0.968000  0.011000  1.0  0.0792
  H  H13  1  0.041800  0.580200  0.845700  1.0  0.2453
  H  H14  1  0.969100  0.526900  0.792900  1.0  0.2765
  H  H15  1  0.011600  0.642800  0.786100  1.0  0.3139
  H  H16  1  0.139300  0.932000  0.119400  1.0  0.1038
  H  H17  1  0.287200  0.960900  0.120700  1.0  0.0949
  H  H18  1  0.241700  0.835700  0.127400  1.0  0.113
  H  H19  1  0.050400  0.505200  0.293700  1.0  0.0871
  H  H20  1  0.443000  0.488800  0.188900  1.0  0.0951
  H  H21  1  0.060300  0.553000  0.181800  1.0  0.1069
  H  H22  1  0.266000  0.032000  0.511000  1.0  0.0801
  H  H23  1  0.458200  0.419800  0.345700  1.0  0.2456
  H  H24  1  0.530900  0.473100  0.292900  1.0  0.2759
  H  H25  1  0.488400  0.357200  0.286100  1.0  0.3115
  H  H26  1  0.360700  0.068000  0.619400  1.0  0.101
  H  H27  1  0.212800  0.039100  0.620700  1.0  0.0955
  H  H28  1  0.258300  0.164300  0.627400  1.0  0.1129
  H  H29  1  0.550400  0.994800  0.706300  1.0  0.0871
  H  H30  1  0.943000  0.011200  0.811100  1.0  0.0954
  H  H31  1  0.560300  0.947000  0.818200  1.0  0.1065
  H  H32  1  0.766000  0.468000  0.489000  1.0  0.0801
  H  H33  1  0.958200  0.080200  0.654300  1.0  0.2452
  H  H34  1  0.030900  0.026900  0.707100  1.0  0.2767
  H  H35  1  0.988400  0.142800  0.713900  1.0  0.3139
  H  H36  1  0.860700  0.432000  0.380600  1.0  0.1014
  H  H37  1  0.712800  0.460900  0.379300  1.0  0.0956
  H  H38  1  0.758300  0.335700  0.372600  1.0  0.1118
  H  H39  1  0.949600  0.005200  0.206300  1.0  0.087
  H  H40  1  0.557000  0.988800  0.311100  1.0  0.095
  H  H41  1  0.939700  0.053000  0.318200  1.0  0.1061
  H  H42  1  0.734000  0.532000  0.989000  1.0  0.0815
  H  H43  1  0.541800  0.919800  0.154300  1.0  0.2456
  H  H44  1  0.469100  0.973100  0.207100  1.0  0.2787
  H  H45  1  0.511600  0.857200  0.213900  1.0  0.3139
  H  H46  1  0.639300  0.568000  0.880600  1.0  0.1041
  H  H47  1  0.787200  0.539100  0.879300  1.0  0.0955
  H  H48  1  0.741700  0.664300  0.872600  1.0  0.1133
  C  C49  1  0.258800  0.529900  0.805700  1.0  -0.0718
  C  C50  1  0.242300  0.473500  0.672400  1.0  -0.1531
  C  C51  1  0.148500  0.538400  0.773500  1.0  0.2082
  C  C52  1  0.370800  0.497300  0.771600  1.0  -0.0636
  C  C53  1  0.137900  0.508200  0.709000  1.0  -0.2176
  C  C54  1  0.365600  0.468500  0.704600  1.0  -0.0845
  C  C55  1  0.278300  0.558600  0.877900  1.0  0.7158
  C  C56  1  0.353000  0.828500  0.013500  1.0  0.6928
  C  C57  1  0.229900  0.893400  0.031400  1.0  0.1174
  C  C58  1  0.232500  0.443900  0.602500  1.0  0.7297
  C  C59  1  0.224000  0.906800  0.106800  1.0  -0.3538
  C  C60  1  0.241200  0.470100  0.305700  1.0  -0.0724
  C  C61  1  0.257700  0.526500  0.172400  1.0  -0.1525
  C  C62  1  0.351500  0.461600  0.273500  1.0  0.2044
  C  C63  1  0.129200  0.502700  0.271600  1.0  -0.0649
  C  C64  1  0.362100  0.491800  0.209000  1.0  -0.2153
  C  C65  1  0.134400  0.531500  0.204600  1.0  -0.0876
  C  C66  1  0.221700  0.441400  0.377900  1.0  0.715
  C  C67  1  0.147000  0.171500  0.513500  1.0  0.6919
  C  C68  1  0.270100  0.106600  0.531400  1.0  0.1191
  C  C69  1  0.267500  0.556100  0.102500  1.0  0.7285
  C  C70  1  0.276000  0.093200  0.606800  1.0  -0.3534
  C  C71  1  0.741200  0.029900  0.694300  1.0  -0.0722
  C  C72  1  0.757700  0.973500  0.827600  1.0  -0.1543
  C  C73  1  0.851500  0.038400  0.726500  1.0  0.2052
  C  C74  1  0.629200  0.997300  0.728400  1.0  -0.065
  C  C75  1  0.862100  0.008200  0.791000  1.0  -0.2145
  C  C76  1  0.634400  0.968500  0.795400  1.0  -0.087
  C  C77  1  0.721700  0.058600  0.622100  1.0  0.7149
  C  C78  1  0.647000  0.328500  0.486500  1.0  0.6935
  C  C79  1  0.770100  0.393400  0.468600  1.0  0.1161
  C  C80  1  0.767500  0.943900  0.897500  1.0  0.7295
  C  C81  1  0.776000  0.406800  0.393200  1.0  -0.3539
  C  C82  1  0.758800  0.970100  0.194300  1.0  -0.0715
  C  C83  1  0.742300  0.026500  0.327600  1.0  -0.1549
  C  C84  1  0.648500  0.961600  0.226500  1.0  0.2088
  C  C85  1  0.870800  0.002700  0.228400  1.0  -0.0651
  C  C86  1  0.637900  0.991800  0.291000  1.0  -0.2175
  C  C87  1  0.865600  0.031500  0.295400  1.0  -0.0845
  C  C88  1  0.778300  0.941400  0.122100  1.0  0.7138
  C  C89  1  0.853000  0.671500  0.986500  1.0  0.6962
  C  C90  1  0.729900  0.606600  0.968600  1.0  0.1172
  C  C91  1  0.732500  0.056100  0.397500  1.0  0.7299
  C  C92  1  0.724000  0.593200  0.893200  1.0  -0.353
  N  N93  1  0.032000  0.575500  0.802200  1.0  -0.4252
  N  N94  1  0.468000  0.424500  0.302200  1.0  -0.4267
  N  N95  1  0.968000  0.075500  0.697800  1.0  -0.4311
  N  N96  1  0.532000  0.924500  0.197800  1.0  -0.4298
  O  O97  1  0.179600  0.598000  0.906800  1.0  -0.6806
  O  O98  1  0.384800  0.543000  0.903600  1.0  -0.6348
  O  O99  1  0.122000  0.454700  0.576500  1.0  -0.6731
  O  O100  1  0.332500  0.412500  0.573000  1.0  -0.6356
  O  O101  1  0.119200  0.838000  0.007800  1.0  -0.7339
  O  O102  1  0.339600  0.731600  0.991200  1.0  -0.6691
  O  O103  1  0.458700  0.875300  0.024600  1.0  -0.6192
  O  O104  1  0.320400  0.402000  0.406800  1.0  -0.6807
  O  O105  1  0.115200  0.457000  0.403600  1.0  -0.6341
  O  O106  1  0.378000  0.545300  0.076500  1.0  -0.6716
  O  O107  1  0.167500  0.587500  0.073000  1.0  -0.6347
  O  O108  1  0.380800  0.162000  0.507800  1.0  -0.7327
  O  O109  1  0.160400  0.268400  0.491200  1.0  -0.6686
  O  O110  1  0.041300  0.124700  0.524600  1.0  -0.6181
  O  O111  1  0.820400  0.098000  0.593200  1.0  -0.6815
  O  O112  1  0.615200  0.043000  0.596400  1.0  -0.6344
  O  O113  1  0.878000  0.954700  0.923500  1.0  -0.6725
  O  O114  1  0.667500  0.912500  0.927000  1.0  -0.6358
  O  O115  1  0.880800  0.338000  0.492200  1.0  -0.7364
  O  O116  1  0.660400  0.231600  0.508800  1.0  -0.6688
  O  O117  1  0.541300  0.375300  0.475400  1.0  -0.6166
  O  O118  1  0.679600  0.902000  0.093200  1.0  -0.6813
  O  O119  1  0.884800  0.957000  0.096400  1.0  -0.6346
  O  O120  1  0.622000  0.045300  0.423500  1.0  -0.6729
  O  O121  1  0.832500  0.087500  0.427000  1.0  -0.6358
  O  O122  1  0.619200  0.662000  0.992200  1.0  -0.7365
  O  O123  1  0.839600  0.768400  0.008800  1.0  -0.668
  O  O124  1  0.958700  0.624700  0.975400  1.0  -0.6172
