# generated using pymatgen
data_ZnHC4O3
_symmetry_space_group_name_H-M   'P 1'
_cell_length_a   6.66940000
_cell_length_b   15.32280000
_cell_length_c   15.32280000
_cell_angle_alpha   62.06790000
_cell_angle_beta   81.65770000
_cell_angle_gamma   98.34230000
_symmetry_Int_Tables_number   1
_chemical_formula_structural   ZnHC4O3
_chemical_formula_sum   'Zn6 H6 C24 O18'
_cell_volume   1327.55975237
_cell_formula_units_Z   6
loop_
 _symmetry_equiv_pos_site_id
 _symmetry_equiv_pos_as_xyz
  1  'x, y, z'
loop_
 _atom_site_type_symbol
 _atom_site_label
 _atom_site_symmetry_multiplicity
 _atom_site_fract_x
 _atom_site_fract_y
 _atom_site_fract_z
 _atom_site_occupancy
 _atom_site_charge
  Zn  Zn1  1  0.383380  0.426340  0.311000  1.0  1.0281
  Zn  Zn2  1  0.694380  0.311000  0.262660  1.0  1.031
  Zn  Zn3  1  0.957040  0.262660  0.426340  1.0  1.0296
  Zn  Zn4  1  0.616620  0.573660  0.689000  1.0  1.0294
  Zn  Zn5  1  0.305620  0.689000  0.737340  1.0  1.0289
  Zn  Zn6  1  0.042960  0.737340  0.573660  1.0  1.0293
  H  H7  1  0.682900  0.549900  0.469200  1.0  0.1286
  H  H8  1  0.152100  0.469200  0.980900  1.0  0.1302
  H  H9  1  0.133000  0.980900  0.549900  1.0  0.1316
  H  H10  1  0.317100  0.450100  0.530800  1.0  0.1297
  H  H11  1  0.847900  0.530800  0.019100  1.0  0.1316
  H  H12  1  0.867000  0.019100  0.450100  1.0  0.1322
  C  C13  1  0.755910  0.438470  0.386240  1.0  0.7677
  C  C14  1  0.885390  0.466110  0.446340  1.0  -0.263
  C  C15  1  0.820190  0.530180  0.480710  1.0  -0.0715
  C  C16  1  0.071090  0.434370  0.467700  1.0  0.3309
  C  C17  1  0.142150  0.386240  0.175290  1.0  0.7663
  C  C18  1  0.331730  0.446340  0.087550  1.0  -0.2621
  C  C19  1  0.300900  0.480710  0.989110  1.0  -0.0719
  C  C20  1  0.538790  0.467700  0.097930  1.0  0.3306
  C  C21  1  0.317440  0.175290  0.438470  1.0  0.7671
  C  C22  1  0.419280  0.087550  0.466110  1.0  -0.263
  C  C23  1  0.290010  0.989110  0.530180  1.0  -0.0716
  C  C24  1  0.636720  0.097930  0.434370  1.0  0.3273
  C  C25  1  0.244090  0.561530  0.613760  1.0  0.7699
  C  C26  1  0.114610  0.533890  0.553660  1.0  -0.2625
  C  C27  1  0.179810  0.469820  0.519290  1.0  -0.0712
  C  C28  1  0.928910  0.565630  0.532300  1.0  0.3299
  C  C29  1  0.857850  0.613760  0.824710  1.0  0.7673
  C  C30  1  0.668270  0.553660  0.912450  1.0  -0.2626
  C  C31  1  0.699100  0.519290  0.010890  1.0  -0.0711
  C  C32  1  0.461210  0.532300  0.902070  1.0  0.3329
  C  C33  1  0.682560  0.824710  0.561530  1.0  0.7649
  C  C34  1  0.580720  0.912450  0.533890  1.0  -0.2628
  C  C35  1  0.709990  0.010890  0.469820  1.0  -0.0715
  C  C36  1  0.363280  0.902070  0.565630  1.0  0.3275
  O  O37  1  0.603560  0.477530  0.366350  1.0  -0.5931
  O  O38  1  0.804900  0.378840  0.356340  1.0  -0.6218
  O  O39  1  0.147640  0.370090  0.440170  1.0  -0.7045
  O  O40  1  0.969910  0.366350  0.156120  1.0  -0.6
  O  O41  1  0.161240  0.356340  0.264820  1.0  -0.6219
  O  O42  1  0.587810  0.440170  0.189740  1.0  -0.7051
  O  O43  1  0.126030  0.156120  0.477530  1.0  -0.5976
  O  O44  1  0.426060  0.264820  0.378840  1.0  -0.6212
  O  O45  1  0.777550  0.189740  0.370090  1.0  -0.7047
  O  O46  1  0.396440  0.522470  0.633650  1.0  -0.5925
  O  O47  1  0.195100  0.621160  0.643660  1.0  -0.6209
  O  O48  1  0.852360  0.629910  0.559830  1.0  -0.7044
  O  O49  1  0.030090  0.633650  0.843880  1.0  -0.5986
  O  O50  1  0.838760  0.643660  0.735180  1.0  -0.6219
  O  O51  1  0.412190  0.559830  0.810260  1.0  -0.7042
  O  O52  1  0.873970  0.843880  0.522470  1.0  -0.5992
  O  O53  1  0.573940  0.735180  0.621160  1.0  -0.6219
  O  O54  1  0.222450  0.810260  0.629910  1.0  -0.7042
