# generated using pymatgen
data_ZnHC4O3
_symmetry_space_group_name_H-M   'P 1'
_cell_length_a   6.86420000
_cell_length_b   15.13830000
_cell_length_c   15.13830000
_cell_angle_alpha   62.24230000
_cell_angle_beta   81.30680000
_cell_angle_gamma   98.69320000
_symmetry_Int_Tables_number   1
_chemical_formula_structural   ZnHC4O3
_chemical_formula_sum   'Zn6 H6 C24 O18'
_cell_volume   1331.18533084
_cell_formula_units_Z   6
loop_
 _symmetry_equiv_pos_site_id
 _symmetry_equiv_pos_as_xyz
  1  'x, y, z'
loop_
 _atom_site_type_symbol
 _atom_site_label
 _atom_site_symmetry_multiplicity
 _atom_site_fract_x
 _atom_site_fract_y
 _atom_site_fract_z
 _atom_site_occupancy
 _atom_site_charge
  Zn  Zn1  1  0.611470  0.328270  0.409000  1.0  0.9943
  Zn  Zn2  1  0.020470  0.409000  0.262730  1.0  0.9957
  Zn  Zn3  1  0.283200  0.262730  0.328270  1.0  0.9945
  Zn  Zn4  1  0.388530  0.671730  0.591000  1.0  0.9948
  Zn  Zn5  1  0.979530  0.591000  0.737270  1.0  0.9937
  Zn  Zn6  1  0.716800  0.737270  0.671730  1.0  0.9941
  H  H7  1  0.305280  0.474470  0.554660  1.0  0.1326
  H  H8  1  0.859940  0.554660  0.970870  1.0  0.1317
  H  H9  1  0.830810  0.970870  0.474470  1.0  0.1322
  H  H10  1  0.694720  0.525530  0.445340  1.0  0.1316
  H  H11  1  0.140060  0.445340  0.029130  1.0  0.1306
  H  H12  1  0.169190  0.029130  0.525530  1.0  0.1319
  C  C13  1  0.240660  0.395370  0.434850  1.0  0.7439
  C  C14  1  0.113310  0.442320  0.471720  1.0  -0.0812
  C  C15  1  0.931960  0.457390  0.439750  1.0  0.2467
  C  C16  1  0.179230  0.483810  0.534330  1.0  -0.0737
  C  C17  1  0.675510  0.434850  0.169780  1.0  0.7443
  C  C18  1  0.585030  0.471720  0.085960  1.0  -0.0814
  C  C19  1  0.371710  0.439750  0.102860  1.0  0.2498
  C  C20  1  0.713560  0.534330  0.981860  1.0  -0.0893
  C  C21  1  0.845290  0.169780  0.395370  1.0  0.7433
  C  C22  1  0.670990  0.085960  0.442320  1.0  -0.0811
  C  C23  1  0.474570  0.102860  0.457390  1.0  0.2452
  C  C24  1  0.695420  0.981860  0.483810  1.0  -0.0851
  C  C25  1  0.759340  0.604630  0.565150  1.0  0.7451
  C  C26  1  0.886690  0.557680  0.528280  1.0  -0.0816
  C  C27  1  0.068040  0.542610  0.560250  1.0  0.2461
  C  C28  1  0.820770  0.516190  0.465670  1.0  -0.0756
  C  C29  1  0.324490  0.565150  0.830220  1.0  0.7448
  C  C30  1  0.414970  0.528280  0.914040  1.0  -0.0812
  C  C31  1  0.628290  0.560250  0.897140  1.0  0.2475
  C  C32  1  0.286440  0.465670  0.018140  1.0  -0.09
  C  C33  1  0.154710  0.830220  0.604630  1.0  0.7429
  C  C34  1  0.329010  0.914040  0.557680  1.0  -0.0812
  C  C35  1  0.525430  0.897140  0.542610  1.0  0.2444
  C  C36  1  0.304580  0.018140  0.516190  1.0  -0.0869
  O  O37  1  0.395300  0.376270  0.469420  1.0  -0.5799
  O  O38  1  0.179120  0.354250  0.384670  1.0  -0.6828
  O  O39  1  0.887860  0.433020  0.365580  1.0  -0.6884
  O  O40  1  0.864720  0.469420  0.154310  1.0  -0.5827
  O  O41  1  0.563790  0.384670  0.261080  1.0  -0.6827
  O  O42  1  0.253440  0.365580  0.201400  1.0  -0.6875
  O  O43  1  0.019030  0.154310  0.376270  1.0  -0.5817
  O  O44  1  0.824870  0.261080  0.354250  1.0  -0.6835
  O  O45  1  0.454840  0.201400  0.433020  1.0  -0.6892
  O  O46  1  0.604700  0.623730  0.530580  1.0  -0.5806
  O  O47  1  0.820880  0.645750  0.615330  1.0  -0.6836
  O  O48  1  0.112140  0.566980  0.634420  1.0  -0.6892
  O  O49  1  0.135280  0.530580  0.845690  1.0  -0.5798
  O  O50  1  0.436210  0.615330  0.738920  1.0  -0.6825
  O  O51  1  0.746560  0.634420  0.798600  1.0  -0.6877
  O  O52  1  0.980970  0.845690  0.623730  1.0  -0.5793
  O  O53  1  0.175130  0.738920  0.645750  1.0  -0.6844
  O  O54  1  0.545160  0.798600  0.566980  1.0  -0.688
