# generated using pymatgen
data_ZnHC4O3
_symmetry_space_group_name_H-M   'P 1'
_cell_length_a   6.64670000
_cell_length_b   15.29200000
_cell_length_c   15.29200000
_cell_angle_alpha   62.06220000
_cell_angle_beta   81.66940000
_cell_angle_gamma   98.33060000
_symmetry_Int_Tables_number   1
_chemical_formula_structural   ZnHC4O3
_chemical_formula_sum   'Zn6 H6 C24 O18'
_cell_volume   1317.80663425
_cell_formula_units_Z   6
loop_
 _symmetry_equiv_pos_site_id
 _symmetry_equiv_pos_as_xyz
  1  'x, y, z'
loop_
 _atom_site_type_symbol
 _atom_site_label
 _atom_site_symmetry_multiplicity
 _atom_site_fract_x
 _atom_site_fract_y
 _atom_site_fract_z
 _atom_site_occupancy
 _atom_site_charge
  Zn  Zn1  1  0.615900  0.313740  0.425010  1.0  1.0022
  Zn  Zn2  1  0.040910  0.425010  0.261250  1.0  1.004
  Zn  Zn3  1  0.302160  0.261250  0.313740  1.0  1.0015
  Zn  Zn4  1  0.384100  0.686260  0.574990  1.0  1.002
  Zn  Zn5  1  0.959090  0.574990  0.738750  1.0  1.0027
  Zn  Zn6  1  0.697840  0.738750  0.686260  1.0  1.0031
  H  H7  1  0.282530  0.445680  0.574260  1.0  0.1298
  H  H8  1  0.856790  0.574260  0.980060  1.0  0.1298
  H  H9  1  0.836850  0.980060  0.445680  1.0  0.1297
  H  H10  1  0.717470  0.554320  0.425740  1.0  0.1298
  H  H11  1  0.143210  0.425740  0.019940  1.0  0.1301
  H  H12  1  0.163150  0.019940  0.554320  1.0  0.1287
  C  C13  1  0.236740  0.392970  0.434850  1.0  0.738
  C  C14  1  0.115950  0.445590  0.467340  1.0  -0.1028
  C  C15  1  0.941310  0.473040  0.427890  1.0  0.2357
  C  C16  1  0.167780  0.468360  0.544380  1.0  -0.0666
  C  C17  1  0.671590  0.434850  0.172180  1.0  0.7355
  C  C18  1  0.583290  0.467340  0.087070  1.0  -0.1025
  C  C19  1  0.369200  0.427890  0.099070  1.0  0.2327
  C  C20  1  0.712160  0.544380  0.987260  1.0  -0.0671
  C  C21  1  0.843770  0.172180  0.392970  1.0  0.7358
  C  C22  1  0.670360  0.087070  0.445590  1.0  -0.1032
  C  C23  1  0.468270  0.099070  0.473040  1.0  0.2324
  C  C24  1  0.699420  0.987260  0.468360  1.0  -0.0654
  C  C25  1  0.763260  0.607030  0.565150  1.0  0.7373
  C  C26  1  0.884050  0.554410  0.532660  1.0  -0.103
  C  C27  1  0.058690  0.526960  0.572110  1.0  0.2345
  C  C28  1  0.832220  0.531640  0.455620  1.0  -0.0669
  C  C29  1  0.328410  0.565150  0.827820  1.0  0.7356
  C  C30  1  0.416710  0.532660  0.912930  1.0  -0.1023
  C  C31  1  0.630800  0.572110  0.900930  1.0  0.2303
  C  C32  1  0.287840  0.455620  0.012740  1.0  -0.0655
  C  C33  1  0.156230  0.827820  0.607030  1.0  0.7355
  C  C34  1  0.329640  0.912930  0.554410  1.0  -0.1029
  C  C35  1  0.531730  0.900930  0.526960  1.0  0.2286
  C  C36  1  0.300580  0.012740  0.531640  1.0  -0.0669
  O  O37  1  0.378180  0.359350  0.479170  1.0  -0.6136
  O  O38  1  0.175410  0.360470  0.378380  1.0  -0.6433
  O  O39  1  0.870410  0.437680  0.366490  1.0  -0.6746
  O  O40  1  0.857350  0.479170  0.161480  1.0  -0.6161
  O  O41  1  0.553790  0.378380  0.261150  1.0  -0.6427
  O  O42  1  0.236900  0.366490  0.195830  1.0  -0.6759
  O  O43  1  0.018830  0.161480  0.359350  1.0  -0.6158
  O  O44  1  0.814940  0.261150  0.360470  1.0  -0.6429
  O  O45  1  0.432730  0.195830  0.437680  1.0  -0.6727
  O  O46  1  0.621820  0.640650  0.520830  1.0  -0.613
  O  O47  1  0.824590  0.639530  0.621620  1.0  -0.643
  O  O48  1  0.129590  0.562320  0.633510  1.0  -0.6738
  O  O49  1  0.142650  0.520830  0.838520  1.0  -0.6138
  O  O50  1  0.446210  0.621620  0.738850  1.0  -0.6428
  O  O51  1  0.763100  0.633510  0.804170  1.0  -0.6745
  O  O52  1  0.981170  0.838520  0.640650  1.0  -0.6141
  O  O53  1  0.185060  0.738850  0.639530  1.0  -0.6441
  O  O54  1  0.567270  0.804170  0.562320  1.0  -0.6736
