# generated using pymatgen
data_MnH11(C11O2)2
_symmetry_space_group_name_H-M   'P 1'
_cell_length_a   6.99700000
_cell_length_b   25.48310000
_cell_length_c   28.26420000
_cell_angle_alpha   90.00000000
_cell_angle_beta   92.71200000
_cell_angle_gamma   90.00000000
_symmetry_Int_Tables_number   1
_chemical_formula_structural   MnH11(C11O2)2
_chemical_formula_sum   'Mn8 H88 C176 O32'
_cell_volume   5034.01078793
_cell_formula_units_Z   8
loop_
 _symmetry_equiv_pos_site_id
 _symmetry_equiv_pos_as_xyz
  1  'x, y, z'
loop_
 _atom_site_type_symbol
 _atom_site_label
 _atom_site_symmetry_multiplicity
 _atom_site_fract_x
 _atom_site_fract_y
 _atom_site_fract_z
 _atom_site_occupancy
 _atom_site_charge
  Mn  Mn1  1  0.200600  0.930680  0.248340  1.0  1.0867
  Mn  Mn2  1  0.653690  0.533320  0.735330  1.0  1.1295
  Mn  Mn3  1  0.799400  0.430680  0.251660  1.0  1.0852
  Mn  Mn4  1  0.346310  0.033320  0.764670  1.0  1.1321
  Mn  Mn5  1  0.799400  0.069320  0.751660  1.0  1.0852
  Mn  Mn6  1  0.346310  0.466680  0.264670  1.0  1.1319
  Mn  Mn7  1  0.200600  0.569320  0.748340  1.0  1.0868
  Mn  Mn8  1  0.653690  0.966680  0.235330  1.0  1.1305
  H  H9  1  0.940200  0.729700  0.107600  1.0  0.1211
  H  H10  1  0.403600  0.739900  0.890500  1.0  0.1321
  H  H11  1  0.214000  0.668800  0.109600  1.0  0.1178
  H  H12  1  0.937400  0.825700  0.127500  1.0  0.1009
  H  H13  1  0.048200  0.952400  0.856300  1.0  0.1019
  H  H14  1  0.136500  0.804500  0.891100  1.0  0.1158
  H  H15  1  0.757500  0.847600  0.192500  1.0  0.127
  H  H16  1  0.656600  0.624300  0.001200  1.0  0.113
  H  H17  1  0.693500  0.848800  0.997900  1.0  0.1296
  H  H18  1  0.398900  0.647500  0.869300  1.0  0.1088
  H  H19  1  0.575000  0.622800  0.807300  1.0  0.1062
  H  H20  1  0.055400  0.648200  0.885100  1.0  0.0981
  H  H21  1  0.505600  0.908300  0.858200  1.0  0.1139
  H  H22  1  0.287400  0.818500  0.111900  1.0  0.0908
  H  H23  1  0.768400  0.634200  0.087300  1.0  0.1029
  H  H24  1  0.128200  0.889000  0.912100  1.0  0.1078
  H  H25  1  0.230700  0.581700  0.087900  1.0  0.1049
  H  H26  1  0.457100  0.797900  0.048700  1.0  0.1343
  H  H27  1  0.884800  0.673900  0.948200  1.0  0.1182
  H  H28  1  0.315300  0.521600  0.147700  1.0  0.1213
  H  H29  1  0.575500  0.848500  0.915000  1.0  0.1092
  H  H30  1  0.861100  0.573000  0.143700  1.0  0.119
  H  H31  1  0.059800  0.229700  0.392400  1.0  0.1213
  H  H32  1  0.596400  0.239900  0.609500  1.0  0.1325
  H  H33  1  0.786000  0.168800  0.390400  1.0  0.1192
  H  H34  1  0.062600  0.325700  0.372500  1.0  0.1009
  H  H35  1  0.951800  0.452400  0.643700  1.0  0.1013
  H  H36  1  0.863500  0.304500  0.608900  1.0  0.1167
  H  H37  1  0.242500  0.347600  0.307500  1.0  0.1264
  H  H38  1  0.343400  0.124300  0.498800  1.0  0.1133
  H  H39  1  0.306500  0.348800  0.502100  1.0  0.1292
  H  H40  1  0.601100  0.147500  0.630700  1.0  0.1085
  H  H41  1  0.425000  0.122800  0.692700  1.0  0.1061
  H  H42  1  0.944600  0.148200  0.614900  1.0  0.0983
  H  H43  1  0.494400  0.408300  0.641800  1.0  0.1128
  H  H44  1  0.712600  0.318500  0.388100  1.0  0.0916
  H  H45  1  0.231600  0.134200  0.412700  1.0  0.1031
  H  H46  1  0.871800  0.389000  0.587900  1.0  0.1105
  H  H47  1  0.769300  0.081700  0.412100  1.0  0.1049
  H  H48  1  0.542900  0.297900  0.451300  1.0  0.1339
  H  H49  1  0.115200  0.173900  0.551800  1.0  0.1186
  H  H50  1  0.684700  0.021600  0.352300  1.0  0.1214
  H  H51  1  0.424500  0.348500  0.585000  1.0  0.1094
  H  H52  1  0.138900  0.073000  0.356300  1.0  0.1197
  H  H53  1  0.059800  0.270300  0.892400  1.0  0.1213
  H  H54  1  0.596400  0.260100  0.109500  1.0  0.1327
  H  H55  1  0.786000  0.331200  0.890400  1.0  0.1194
  H  H56  1  0.062600  0.174300  0.872500  1.0  0.1006
  H  H57  1  0.951800  0.047600  0.143700  1.0  0.1011
  H  H58  1  0.863500  0.195500  0.108900  1.0  0.1172
  H  H59  1  0.242500  0.152400  0.807500  1.0  0.1266
  H  H60  1  0.343400  0.375700  0.998800  1.0  0.1135
  H  H61  1  0.306500  0.151200  0.002100  1.0  0.1292
  H  H62  1  0.601100  0.352500  0.130700  1.0  0.1085
  H  H63  1  0.425000  0.377200  0.192700  1.0  0.1065
  H  H64  1  0.944600  0.351800  0.114900  1.0  0.0983
  H  H65  1  0.494400  0.091700  0.141800  1.0  0.1131
  H  H66  1  0.712600  0.181500  0.888100  1.0  0.0913
  H  H67  1  0.231600  0.365800  0.912700  1.0  0.1032
  H  H68  1  0.871800  0.111000  0.087900  1.0  0.1105
  H  H69  1  0.769300  0.418300  0.912100  1.0  0.1045
  H  H70  1  0.542900  0.202100  0.951300  1.0  0.1339
  H  H71  1  0.115200  0.326100  0.051800  1.0  0.1182
  H  H72  1  0.684700  0.478400  0.852300  1.0  0.121
  H  H73  1  0.424500  0.151500  0.085000  1.0  0.1091
  H  H74  1  0.138900  0.427000  0.856300  1.0  0.1197
  H  H75  1  0.940200  0.770300  0.607600  1.0  0.121
  H  H76  1  0.403600  0.760100  0.390500  1.0  0.132
  H  H77  1  0.214000  0.831200  0.609600  1.0  0.1177
  H  H78  1  0.937400  0.674300  0.627500  1.0  0.1008
  H  H79  1  0.048200  0.547600  0.356300  1.0  0.1018
  H  H80  1  0.136500  0.695500  0.391100  1.0  0.1163
  H  H81  1  0.757500  0.652400  0.692500  1.0  0.127
  H  H82  1  0.656600  0.875700  0.501200  1.0  0.113
  H  H83  1  0.693500  0.651200  0.497900  1.0  0.1295
  H  H84  1  0.398900  0.852500  0.369300  1.0  0.109
  H  H85  1  0.575000  0.877200  0.307300  1.0  0.1059
  H  H86  1  0.055400  0.851800  0.385100  1.0  0.0979
  H  H87  1  0.505600  0.591700  0.358200  1.0  0.1137
  H  H88  1  0.287400  0.681500  0.611900  1.0  0.0908
  H  H89  1  0.768400  0.865800  0.587300  1.0  0.1035
  H  H90  1  0.128200  0.611000  0.412100  1.0  0.1079
  H  H91  1  0.230700  0.918300  0.587900  1.0  0.1049
  H  H92  1  0.457100  0.702100  0.548700  1.0  0.1347
  H  H93  1  0.884800  0.826100  0.448200  1.0  0.1181
  H  H94  1  0.315300  0.978400  0.647700  1.0  0.1212
  H  H95  1  0.575500  0.651500  0.415000  1.0  0.1089
  H  H96  1  0.861100  0.927000  0.643700  1.0  0.1189
  C  C97  1  0.990700  0.759300  0.041600  1.0  0.018
  C  C98  1  0.062600  0.786200  0.958700  1.0  0.0175
  C  C99  1  0.355400  0.712600  0.958200  1.0  -0.0067
  C  C100  1  0.284100  0.686800  0.042200  1.0  -0.0829
  C  C101  1  0.096300  0.753600  0.000500  1.0  -0.03
  C  C102  1  0.384200  0.868200  0.190800  1.0  0.6914
  C  C103  1  0.246000  0.717600  0.999000  1.0  -0.1288
  C  C104  1  0.713900  0.979600  0.816600  1.0  0.7257
  C  C105  1  0.508000  0.674900  0.961000  1.0  0.0113
  C  C106  1  0.948700  0.612100  0.801200  1.0  0.6778
  C  C107  1  0.831200  0.632800  0.839600  1.0  -0.0974
  C  C108  1  0.020000  0.727200  0.082300  1.0  -0.1212
  C  C109  1  0.327600  0.743700  0.916400  1.0  -0.1194
  C  C110  1  0.443000  0.650800  0.038200  1.0  -0.0624
  C  C111  1  0.182500  0.689400  0.083200  1.0  -0.1412
  C  C112  1  0.804500  0.824800  0.124300  1.0  -0.1262
  C  C113  1  0.861600  0.860900  0.920400  1.0  0.088
  C  C114  1  0.622000  0.663500  0.917500  1.0  0.0803
  C  C115  1  0.591300  0.542800  0.153600  1.0  -0.1095
  C  C116  1  0.910300  0.822200  0.961700  1.0  -0.0341
  C  C117  1  0.494700  0.613400  0.080800  1.0  0.0299
  C  C118  1  0.952900  0.931100  0.867700  1.0  -0.035
  C  C119  1  0.166300  0.783100  0.917100  1.0  -0.1316
  C  C120  1  0.772800  0.937300  0.851200  1.0  -0.1125
  C  C121  1  0.697400  0.839500  0.163400  1.0  -0.1149
  C  C122  1  0.718900  0.809200  0.081800  1.0  0.0555
  C  C123  1  0.551500  0.646700  0.000300  1.0  -0.0505
  C  C124  1  0.504200  0.841300  0.157000  1.0  -0.0492
  C  C125  1  0.653800  0.504800  0.190400  1.0  0.7031
  C  C126  1  0.797900  0.826200  0.999200  1.0  -0.1052
  C  C127  1  0.531700  0.647600  0.872800  1.0  -0.0963
  C  C128  1  0.636900  0.632900  0.835700  1.0  -0.0726
  C  C129  1  0.922400  0.648200  0.882300  1.0  -0.0052
  C  C130  1  0.631700  0.904700  0.869600  1.0  -0.0444
  C  C131  1  0.419900  0.821900  0.114300  1.0  -0.0726
  C  C132  1  0.838200  0.796700  0.039300  1.0  -0.073
  C  C133  1  0.678200  0.611200  0.098700  1.0  -0.1067
  C  C134  1  0.001000  0.893000  0.901700  1.0  -0.0734
  C  C135  1  0.356900  0.579900  0.099700  1.0  -0.0987
  C  C136  1  0.519200  0.808100  0.077000  1.0  -0.1849
  C  C137  1  0.820100  0.663500  0.920300  1.0  -0.1271
  C  C138  1  0.406500  0.544000  0.136000  1.0  -0.0256
  C  C139  1  0.673300  0.868600  0.903100  1.0  -0.1554
  C  C140  1  0.733200  0.575700  0.133400  1.0  -0.0603
  C  C141  1  0.009300  0.259300  0.458400  1.0  0.0176
  C  C142  1  0.937400  0.286200  0.541300  1.0  0.0174
  C  C143  1  0.644600  0.212600  0.541800  1.0  -0.0063
  C  C144  1  0.715900  0.186800  0.457800  1.0  -0.0826
  C  C145  1  0.903700  0.253600  0.499500  1.0  -0.0298
  C  C146  1  0.615800  0.368200  0.309200  1.0  0.6924
  C  C147  1  0.754000  0.217600  0.501000  1.0  -0.1294
  C  C148  1  0.286100  0.479600  0.683400  1.0  0.7258
  C  C149  1  0.492000  0.174900  0.539000  1.0  0.0114
  C  C150  1  0.051300  0.112100  0.698800  1.0  0.6784
  C  C151  1  0.168800  0.132800  0.660400  1.0  -0.0981
  C  C152  1  0.980000  0.227200  0.417700  1.0  -0.1215
  C  C153  1  0.672400  0.243700  0.583600  1.0  -0.1184
  C  C154  1  0.557000  0.150800  0.461800  1.0  -0.0623
  C  C155  1  0.817500  0.189400  0.416800  1.0  -0.1431
  C  C156  1  0.195500  0.324800  0.375700  1.0  -0.1269
  C  C157  1  0.138400  0.360900  0.579600  1.0  0.0883
  C  C158  1  0.378000  0.163500  0.582500  1.0  0.0803
  C  C159  1  0.408700  0.042800  0.346400  1.0  -0.1087
  C  C160  1  0.089700  0.322200  0.538300  1.0  -0.033
  C  C161  1  0.505300  0.113400  0.419200  1.0  0.0288
  C  C162  1  0.047100  0.431100  0.632300  1.0  -0.0348
  C  C163  1  0.833700  0.283100  0.582900  1.0  -0.1289
  C  C164  1  0.227200  0.437300  0.648800  1.0  -0.1138
  C  C165  1  0.302600  0.339500  0.336600  1.0  -0.1143
  C  C166  1  0.281100  0.309200  0.418200  1.0  0.0558
  C  C167  1  0.448500  0.146700  0.499700  1.0  -0.0516
  C  C168  1  0.495800  0.341300  0.343000  1.0  -0.0486
  C  C169  1  0.346200  0.004800  0.309600  1.0  0.7029
  C  C170  1  0.202100  0.326200  0.500800  1.0  -0.1042
  C  C171  1  0.468300  0.147600  0.627200  1.0  -0.098
  C  C172  1  0.363100  0.132900  0.664300  1.0  -0.0727
  C  C173  1  0.077600  0.148200  0.617700  1.0  -0.0073
  C  C174  1  0.368300  0.404700  0.630400  1.0  -0.044
  C  C175  1  0.580100  0.321900  0.385700  1.0  -0.0712
  C  C176  1  0.161800  0.296700  0.460700  1.0  -0.0732
  C  C177  1  0.321800  0.111200  0.401300  1.0  -0.1064
  C  C178  1  0.999000  0.393000  0.598300  1.0  -0.076
  C  C179  1  0.643100  0.079900  0.400300  1.0  -0.0993
  C  C180  1  0.480800  0.308100  0.423000  1.0  -0.185
  C  C181  1  0.179900  0.163500  0.579700  1.0  -0.1272
  C  C182  1  0.593500  0.044000  0.364000  1.0  -0.027
  C  C183  1  0.326700  0.368600  0.596900  1.0  -0.1554
  C  C184  1  0.266800  0.075700  0.366600  1.0  -0.06
  C  C185  1  0.009300  0.240700  0.958400  1.0  0.0175
  C  C186  1  0.937400  0.213800  0.041300  1.0  0.0175
  C  C187  1  0.644600  0.287400  0.041800  1.0  -0.0065
  C  C188  1  0.715900  0.313200  0.957800  1.0  -0.0827
  C  C189  1  0.903700  0.246400  0.999500  1.0  -0.0297
  C  C190  1  0.615800  0.131800  0.809200  1.0  0.6923
  C  C191  1  0.754000  0.282400  0.001000  1.0  -0.1293
  C  C192  1  0.286100  0.020400  0.183400  1.0  0.7257
  C  C193  1  0.492000  0.325100  0.039000  1.0  0.0111
  C  C194  1  0.051300  0.387900  0.198800  1.0  0.6788
  C  C195  1  0.168800  0.367200  0.160400  1.0  -0.0981
  C  C196  1  0.980000  0.272800  0.917700  1.0  -0.1215
  C  C197  1  0.672400  0.256300  0.083600  1.0  -0.1188
  C  C198  1  0.557000  0.349200  0.961800  1.0  -0.0616
  C  C199  1  0.817500  0.310600  0.916800  1.0  -0.1436
  C  C200  1  0.195500  0.175200  0.875700  1.0  -0.1265
  C  C201  1  0.138400  0.139100  0.079600  1.0  0.0884
  C  C202  1  0.378000  0.336500  0.082500  1.0  0.0806
  C  C203  1  0.408700  0.457200  0.846400  1.0  -0.1085
  C  C204  1  0.089700  0.177800  0.038300  1.0  -0.0338
  C  C205  1  0.505300  0.386600  0.919200  1.0  0.0288
  C  C206  1  0.047100  0.068900  0.132300  1.0  -0.0341
  C  C207  1  0.833700  0.216900  0.082900  1.0  -0.1283
  C  C208  1  0.227200  0.062700  0.148800  1.0  -0.1135
  C  C209  1  0.302600  0.160500  0.836600  1.0  -0.1139
  C  C210  1  0.281100  0.190800  0.918200  1.0  0.0554
  C  C211  1  0.448500  0.353300  0.999700  1.0  -0.0518
  C  C212  1  0.495800  0.158700  0.843000  1.0  -0.0486
  C  C213  1  0.346200  0.495200  0.809600  1.0  0.7024
  C  C214  1  0.202100  0.173800  0.000800  1.0  -0.1057
  C  C215  1  0.468300  0.352400  0.127200  1.0  -0.0971
  C  C216  1  0.363100  0.367100  0.164300  1.0  -0.0723
  C  C217  1  0.077600  0.351800  0.117700  1.0  -0.0079
  C  C218  1  0.368300  0.095300  0.130400  1.0  -0.0439
  C  C219  1  0.580100  0.178100  0.885700  1.0  -0.0722
  C  C220  1  0.161800  0.203300  0.960700  1.0  -0.0736
  C  C221  1  0.321800  0.388800  0.901300  1.0  -0.1067
  C  C222  1  0.999000  0.107000  0.098300  1.0  -0.0761
  C  C223  1  0.643100  0.420100  0.900300  1.0  -0.1007
  C  C224  1  0.480800  0.191900  0.923000  1.0  -0.1854
  C  C225  1  0.179900  0.336500  0.079700  1.0  -0.1269
  C  C226  1  0.593500  0.456000  0.864000  1.0  -0.0264
  C  C227  1  0.326700  0.131400  0.096900  1.0  -0.1555
  C  C228  1  0.266800  0.424300  0.866600  1.0  -0.0599
  C  C229  1  0.990700  0.740700  0.541600  1.0  0.0182
  C  C230  1  0.062600  0.713800  0.458700  1.0  0.0171
  C  C231  1  0.355400  0.787400  0.458200  1.0  -0.0068
  C  C232  1  0.284100  0.813200  0.542200  1.0  -0.0829
  C  C233  1  0.096300  0.746400  0.500500  1.0  -0.0299
  C  C234  1  0.384200  0.631800  0.690800  1.0  0.6912
  C  C235  1  0.246000  0.782400  0.499000  1.0  -0.1287
  C  C236  1  0.713900  0.520400  0.316600  1.0  0.7254
  C  C237  1  0.508000  0.825100  0.461000  1.0  0.0107
  C  C238  1  0.948700  0.887900  0.301200  1.0  0.678
  C  C239  1  0.831200  0.867200  0.339600  1.0  -0.0974
  C  C240  1  0.020000  0.772800  0.582300  1.0  -0.1211
  C  C241  1  0.327600  0.756300  0.416400  1.0  -0.1198
  C  C242  1  0.443000  0.849200  0.538200  1.0  -0.0614
  C  C243  1  0.182500  0.810600  0.583200  1.0  -0.1414
  C  C244  1  0.804500  0.675200  0.624300  1.0  -0.126
  C  C245  1  0.861600  0.639100  0.420400  1.0  0.0881
  C  C246  1  0.622000  0.836500  0.417500  1.0  0.0806
  C  C247  1  0.591300  0.957200  0.653600  1.0  -0.1094
  C  C248  1  0.910300  0.677800  0.461700  1.0  -0.0347
  C  C249  1  0.494700  0.886600  0.580800  1.0  0.0301
  C  C250  1  0.952900  0.568900  0.367700  1.0  -0.0355
  C  C251  1  0.166300  0.716900  0.417100  1.0  -0.131
  C  C252  1  0.772800  0.562700  0.351200  1.0  -0.1134
  C  C253  1  0.697400  0.660500  0.663400  1.0  -0.1148
  C  C254  1  0.718900  0.690800  0.581800  1.0  0.0548
  C  C255  1  0.551500  0.853300  0.500300  1.0  -0.0499
  C  C256  1  0.504200  0.658700  0.657000  1.0  -0.0492
  C  C257  1  0.653800  0.995200  0.690400  1.0  0.7025
  C  C258  1  0.797900  0.673800  0.499200  1.0  -0.1063
  C  C259  1  0.531700  0.852400  0.372800  1.0  -0.0961
  C  C260  1  0.636900  0.867100  0.335700  1.0  -0.0724
  C  C261  1  0.922400  0.851800  0.382300  1.0  -0.0056
  C  C262  1  0.631700  0.595300  0.369600  1.0  -0.0443
  C  C263  1  0.419900  0.678100  0.614300  1.0  -0.0731
  C  C264  1  0.838200  0.703300  0.539300  1.0  -0.0737
  C  C265  1  0.678200  0.888800  0.598700  1.0  -0.1076
  C  C266  1  0.001000  0.607000  0.401700  1.0  -0.0746
  C  C267  1  0.356900  0.920100  0.599700  1.0  -0.1005
  C  C268  1  0.519200  0.691900  0.577000  1.0  -0.1854
  C  C269  1  0.820100  0.836500  0.420300  1.0  -0.1269
  C  C270  1  0.406500  0.956000  0.636000  1.0  -0.0257
  C  C271  1  0.673300  0.631400  0.403100  1.0  -0.1558
  C  C272  1  0.733200  0.924300  0.633400  1.0  -0.0602
  O  O273  1  0.878100  0.584100  0.768250  1.0  -0.666
  O  O274  1  0.467700  0.898280  0.222330  1.0  -0.6652
  O  O275  1  0.539200  0.472570  0.206300  1.0  -0.66
  O  O276  1  0.124300  0.621500  0.804060  1.0  -0.567
  O  O277  1  0.208300  0.864400  0.188670  1.0  -0.5849
  O  O278  1  0.833300  0.014990  0.808370  1.0  -0.5863
  O  O279  1  0.542700  0.979500  0.801400  1.0  -0.649
  O  O280  1  0.828400  0.502600  0.203080  1.0  -0.5755
  O  O281  1  0.121900  0.084100  0.731750  1.0  -0.6667
  O  O282  1  0.532300  0.398280  0.277670  1.0  -0.6646
  O  O283  1  0.460800  0.972570  0.293700  1.0  -0.6607
  O  O284  1  0.875700  0.121500  0.695940  1.0  -0.5664
  O  O285  1  0.791700  0.364400  0.311330  1.0  -0.5846
  O  O286  1  0.166700  0.514990  0.691630  1.0  -0.5874
  O  O287  1  0.457300  0.479500  0.698600  1.0  -0.6472
  O  O288  1  0.171600  0.002600  0.296920  1.0  -0.5763
  O  O289  1  0.121900  0.415900  0.231750  1.0  -0.6671
  O  O290  1  0.532300  0.101720  0.777670  1.0  -0.6639
  O  O291  1  0.460800  0.527430  0.793700  1.0  -0.6603
  O  O292  1  0.875700  0.378500  0.195940  1.0  -0.5665
  O  O293  1  0.791700  0.135600  0.811330  1.0  -0.5848
  O  O294  1  0.166700  0.985010  0.191630  1.0  -0.5875
  O  O295  1  0.457300  0.020500  0.198600  1.0  -0.647
  O  O296  1  0.171600  0.497400  0.796920  1.0  -0.5753
  O  O297  1  0.878100  0.915900  0.268250  1.0  -0.6652
  O  O298  1  0.467700  0.601720  0.722330  1.0  -0.6649
  O  O299  1  0.539200  0.027430  0.706300  1.0  -0.6598
  O  O300  1  0.124300  0.878500  0.304060  1.0  -0.5669
  O  O301  1  0.208300  0.635600  0.688670  1.0  -0.5856
  O  O302  1  0.833300  0.485010  0.308370  1.0  -0.5863
  O  O303  1  0.542700  0.520500  0.301400  1.0  -0.6485
  O  O304  1  0.828400  0.997400  0.703080  1.0  -0.575
