# generated using pymatgen
data_Be2P3(HO3)4
_symmetry_space_group_name_H-M   'P 1'
_cell_length_a   9.35910000
_cell_length_b   9.31280000
_cell_length_c   15.16550000
_cell_angle_alpha   90.00000000
_cell_angle_beta   92.50500000
_cell_angle_gamma   90.00000000
_symmetry_Int_Tables_number   1
_chemical_formula_structural   Be2P3(HO3)4
_chemical_formula_sum   'Be8 P12 H16 O48'
_cell_volume   1320.55316954
_cell_formula_units_Z   4
loop_
 _symmetry_equiv_pos_site_id
 _symmetry_equiv_pos_as_xyz
  1  'x, y, z'
loop_
 _atom_site_type_symbol
 _atom_site_label
 _atom_site_symmetry_multiplicity
 _atom_site_fract_x
 _atom_site_fract_y
 _atom_site_fract_z
 _atom_site_occupancy
 _atom_site_charge
  Be  Be1  1  0.916400  0.905600  0.617000  1.0  1.1602
  Be  Be2  1  0.332800  0.997300  0.679400  1.0  1.1282
  Be  Be3  1  0.583600  0.405600  0.883000  1.0  1.1617
  Be  Be4  1  0.167200  0.497300  0.820600  1.0  1.1295
  Be  Be5  1  0.083600  0.094400  0.383000  1.0  1.1618
  Be  Be6  1  0.667200  0.002700  0.320600  1.0  1.1299
  Be  Be7  1  0.416400  0.594400  0.117000  1.0  1.1603
  Be  Be8  1  0.832800  0.502700  0.179400  1.0  1.1282
  P  P9  1  0.636970  0.025480  0.638340  1.0  1.7527
  P  P10  1  0.108890  0.139040  0.576060  1.0  1.6354
  P  P11  1  0.348470  0.239260  0.814250  1.0  1.6823
  P  P12  1  0.863030  0.525480  0.861660  1.0  1.7525
  P  P13  1  0.391110  0.639040  0.923940  1.0  1.6347
  P  P14  1  0.151530  0.739260  0.685750  1.0  1.6824
  P  P15  1  0.363030  0.974520  0.361660  1.0  1.7523
  P  P16  1  0.891110  0.860960  0.423940  1.0  1.6345
  P  P17  1  0.651530  0.760740  0.185750  1.0  1.6824
  P  P18  1  0.136970  0.474520  0.138340  1.0  1.7527
  P  P19  1  0.608890  0.360960  0.076060  1.0  1.635
  P  P20  1  0.848470  0.260740  0.314250  1.0  1.6825
  H  H21  1  0.672900  0.038900  0.510200  1.0  0.3915
  H  H22  1  0.598600  0.176400  0.726900  1.0  0.3512
  H  H23  1  0.160900  0.287600  0.667000  1.0  0.3589
  H  H24  1  0.386700  0.228000  0.945200  1.0  0.3883
  H  H25  1  0.827100  0.538900  0.989800  1.0  0.3925
  H  H26  1  0.901400  0.676400  0.773100  1.0  0.3514
  H  H27  1  0.339100  0.787600  0.833000  1.0  0.3582
  H  H28  1  0.113300  0.728000  0.554800  1.0  0.3893
  H  H29  1  0.327100  0.961100  0.489800  1.0  0.3921
  H  H30  1  0.401400  0.823600  0.273100  1.0  0.3518
  H  H31  1  0.839100  0.712400  0.333000  1.0  0.3586
  H  H32  1  0.613300  0.772000  0.054800  1.0  0.3907
  H  H33  1  0.172900  0.461100  0.010200  1.0  0.3915
  H  H34  1  0.098600  0.323600  0.226900  1.0  0.3518
  H  H35  1  0.660900  0.212400  0.167000  1.0  0.3593
  H  H36  1  0.886700  0.272000  0.445200  1.0  0.39
  O  O37  1  0.754200  0.916300  0.648810  1.0  -0.6998
  O  O38  1  0.637600  0.095100  0.544750  1.0  -0.729
  O  O39  1  0.669600  0.157100  0.699310  1.0  -0.7012
  O  O40  1  0.495000  0.961100  0.655360  1.0  -0.7293
  O  O41  1  0.251700  0.059200  0.588650  1.0  -0.777
  O  O42  1  0.075500  0.169800  0.478940  1.0  -0.7927
  O  O43  1  0.990000  0.061100  0.619640  1.0  -0.7551
  O  O44  1  0.124500  0.293400  0.616990  1.0  -0.7449
  O  O45  1  0.327500  0.107900  0.758950  1.0  -0.7728
  O  O46  1  0.238100  0.350000  0.785470  1.0  -0.6995
  O  O47  1  0.321000  0.197600  0.912810  1.0  -0.6934
  O  O48  1  0.501600  0.294500  0.811940  1.0  -0.7589
  O  O49  1  0.745800  0.416300  0.851190  1.0  -0.6992
  O  O50  1  0.862400  0.595100  0.955250  1.0  -0.728
  O  O51  1  0.830400  0.657100  0.800690  1.0  -0.7039
  O  O52  1  0.005000  0.461100  0.844640  1.0  -0.728
  O  O53  1  0.248300  0.559200  0.911350  1.0  -0.7765
  O  O54  1  0.424500  0.669800  0.021060  1.0  -0.7931
  O  O55  1  0.510000  0.561100  0.880360  1.0  -0.7558
  O  O56  1  0.375500  0.793400  0.883010  1.0  -0.7448
  O  O57  1  0.172500  0.607900  0.741050  1.0  -0.7731
  O  O58  1  0.261900  0.850000  0.714530  1.0  -0.7004
  O  O59  1  0.179000  0.697600  0.587190  1.0  -0.6902
  O  O60  1  0.998400  0.794500  0.688060  1.0  -0.7582
  O  O61  1  0.245800  0.083700  0.351190  1.0  -0.6993
  O  O62  1  0.362400  0.904900  0.455250  1.0  -0.7284
  O  O63  1  0.330400  0.842900  0.300690  1.0  -0.7038
  O  O64  1  0.505000  0.038900  0.344640  1.0  -0.7291
  O  O65  1  0.748300  0.940800  0.411350  1.0  -0.7764
  O  O66  1  0.924500  0.830200  0.521060  1.0  -0.7882
  O  O67  1  0.010000  0.938900  0.380360  1.0  -0.7543
  O  O68  1  0.875500  0.706600  0.383010  1.0  -0.7461
  O  O69  1  0.672500  0.892100  0.241050  1.0  -0.7738
  O  O70  1  0.761900  0.650000  0.214530  1.0  -0.7005
  O  O71  1  0.679000  0.802400  0.087190  1.0  -0.6903
  O  O72  1  0.498400  0.705500  0.188060  1.0  -0.758
  O  O73  1  0.254200  0.583700  0.148810  1.0  -0.7008
  O  O74  1  0.137600  0.404900  0.044750  1.0  -0.7288
  O  O75  1  0.169600  0.342900  0.199310  1.0  -0.7017
  O  O76  1  0.995000  0.538900  0.155360  1.0  -0.7304
  O  O77  1  0.751700  0.440800  0.088650  1.0  -0.7764
  O  O78  1  0.575500  0.330200  0.978940  1.0  -0.7884
  O  O79  1  0.490000  0.438900  0.119640  1.0  -0.7549
  O  O80  1  0.624500  0.206600  0.116990  1.0  -0.7465
  O  O81  1  0.827500  0.392100  0.258950  1.0  -0.7731
  O  O82  1  0.738100  0.150000  0.285470  1.0  -0.6997
  O  O83  1  0.821000  0.302400  0.412810  1.0  -0.6939
  O  O84  1  0.001600  0.205500  0.311940  1.0  -0.7588
