# generated using pymatgen
data_K2ZrH14C14(NO8)2
_symmetry_space_group_name_H-M   'P 1'
_cell_length_a   10.22500000
_cell_length_b   13.95400000
_cell_length_c   19.05300000
_cell_angle_alpha   90.00000000
_cell_angle_beta   90.00000000
_cell_angle_gamma   99.50900000
_symmetry_Int_Tables_number   1
_chemical_formula_structural   K2ZrH14C14(NO8)2
_chemical_formula_sum   'K8 Zr4 H56 C56 N8 O64'
_cell_volume   2681.12260576
_cell_formula_units_Z   4
loop_
 _symmetry_equiv_pos_site_id
 _symmetry_equiv_pos_as_xyz
  1  'x, y, z'
loop_
 _atom_site_type_symbol
 _atom_site_label
 _atom_site_symmetry_multiplicity
 _atom_site_fract_x
 _atom_site_fract_y
 _atom_site_fract_z
 _atom_site_occupancy
 _atom_site_charge
  K  K1  1  0.681350  0.588700  0.851460  1.0  0.945
  K  K2  1  0.668400  0.081410  0.352740  1.0  0.9447
  K  K3  1  0.821400  0.417870  0.548580  1.0  0.9379
  K  K4  1  0.173400  0.095190  0.550790  1.0  0.921
  K  K5  1  0.318650  0.411300  0.351460  1.0  0.9455
  K  K6  1  0.331600  0.918590  0.852740  1.0  0.9448
  K  K7  1  0.178600  0.582130  0.048580  1.0  0.9384
  K  K8  1  0.826600  0.904810  0.050790  1.0  0.9212
  Zr  Zr9  1  0.498560  0.256120  0.628670  1.0  1.8911
  Zr  Zr10  1  0.008850  0.755030  0.772980  1.0  1.885
  Zr  Zr11  1  0.501440  0.743880  0.128670  1.0  1.8926
  Zr  Zr12  1  0.991150  0.244970  0.272980  1.0  1.8848
  H  H13  1  0.675700  0.687200  0.609100  1.0  0.2725
  H  H14  1  0.385200  0.867000  0.625400  1.0  0.2863
  H  H15  1  0.748000  0.839800  0.571800  1.0  0.0655
  H  H16  1  0.731600  0.844300  0.657000  1.0  0.0735
  H  H17  1  0.573200  0.912300  0.552400  1.0  0.0845
  H  H18  1  0.592700  0.947400  0.634100  1.0  0.0759
  H  H19  1  0.481900  0.638800  0.678100  1.0  0.0791
  H  H20  1  0.605400  0.702600  0.720400  1.0  0.0756
  H  H21  1  0.369200  0.754900  0.710400  1.0  0.0747
  H  H22  1  0.505400  0.832000  0.723900  1.0  0.0833
  H  H23  1  0.494900  0.632500  0.548700  1.0  0.0779
  H  H24  1  0.569900  0.729300  0.508100  1.0  0.0818
  H  H25  1  0.377700  0.786800  0.523500  1.0  0.0673
  H  H26  1  0.327900  0.707700  0.585000  1.0  0.0767
  H  H27  1  0.861600  0.122000  0.773900  1.0  0.205
  H  H28  1  0.122100  0.387600  0.771800  1.0  0.2035
  H  H29  1  0.816800  0.225000  0.856700  1.0  0.0693
  H  H30  1  0.772500  0.264200  0.781000  1.0  0.0776
  H  H31  1  0.981200  0.351400  0.867400  1.0  0.0871
  H  H32  1  0.912900  0.401400  0.802500  1.0  0.0823
  H  H33  1  0.983200  0.159000  0.674100  1.0  0.0888
  H  H34  1  0.851900  0.211500  0.676100  1.0  0.0817
  H  H35  1  0.106200  0.305300  0.669200  1.0  0.0833
  H  H36  1  0.976000  0.357600  0.679700  1.0  0.0854
  H  H37  1  0.073600  0.108400  0.790800  1.0  0.0884
  H  H38  1  0.018100  0.153300  0.861900  1.0  0.0889
  H  H39  1  0.212600  0.246100  0.768100  1.0  0.0764
  H  H40  1  0.179900  0.280200  0.847300  1.0  0.077
  H  H41  1  0.324300  0.312800  0.109100  1.0  0.2718
  H  H42  1  0.614800  0.133000  0.125400  1.0  0.2872
  H  H43  1  0.252000  0.160200  0.071800  1.0  0.0625
  H  H44  1  0.268400  0.155700  0.157000  1.0  0.0744
  H  H45  1  0.426800  0.087700  0.052400  1.0  0.0836
  H  H46  1  0.407300  0.052600  0.134100  1.0  0.0752
  H  H47  1  0.518100  0.361200  0.178100  1.0  0.0809
  H  H48  1  0.394600  0.297400  0.220400  1.0  0.0748
  H  H49  1  0.630800  0.245100  0.210400  1.0  0.0759
  H  H50  1  0.494600  0.168000  0.223900  1.0  0.0843
  H  H51  1  0.505100  0.367500  0.048700  1.0  0.0781
  H  H52  1  0.430100  0.270700  0.008100  1.0  0.0818
  H  H53  1  0.622300  0.213200  0.023500  1.0  0.0686
  H  H54  1  0.672100  0.292300  0.085000  1.0  0.08
  H  H55  1  0.138400  0.878000  0.273900  1.0  0.2054
  H  H56  1  0.877900  0.612400  0.271800  1.0  0.2002
  H  H57  1  0.183200  0.775000  0.356700  1.0  0.0674
  H  H58  1  0.227500  0.735800  0.281000  1.0  0.0781
  H  H59  1  0.018800  0.648600  0.367400  1.0  0.0873
  H  H60  1  0.087100  0.598600  0.302500  1.0  0.0838
  H  H61  1  0.016800  0.841000  0.174100  1.0  0.0901
  H  H62  1  0.148100  0.788500  0.176100  1.0  0.0835
  H  H63  1  0.893800  0.694700  0.169200  1.0  0.0817
  H  H64  1  0.024000  0.642400  0.179700  1.0  0.0831
  H  H65  1  0.926400  0.891600  0.290800  1.0  0.0872
  H  H66  1  0.981900  0.846700  0.361900  1.0  0.088
  H  H67  1  0.787400  0.753900  0.268100  1.0  0.0765
  H  H68  1  0.820100  0.719800  0.347300  1.0  0.0776
  C  C69  1  0.669900  0.165800  0.522800  1.0  0.5517
  C  C70  1  0.528500  0.106600  0.515200  1.0  0.5998
  C  C71  1  0.494400  0.083600  0.727600  1.0  0.6241
  C  C72  1  0.347700  0.101500  0.725300  1.0  0.6222
  C  C73  1  0.510400  0.428600  0.729600  1.0  0.5756
  C  C74  1  0.657200  0.414600  0.720500  1.0  0.6388
  C  C75  1  0.319600  0.341300  0.524200  1.0  0.5769
  C  C76  1  0.457100  0.403800  0.515200  1.0  0.5744
  C  C77  1  0.184600  0.667800  0.875800  1.0  0.5779
  C  C78  1  0.043200  0.604400  0.884700  1.0  0.5743
  C  C79  1  0.001700  0.586900  0.666500  1.0  0.6033
  C  C80  1  0.869300  0.622100  0.659200  1.0  0.6383
  C  C81  1  0.155600  0.897300  0.666900  1.0  0.6009
  C  C82  1  0.019700  0.929900  0.671700  1.0  0.6201
  C  C83  1  0.828200  0.837400  0.875600  1.0  0.6011
  C  C84  1  0.966900  0.900300  0.887700  1.0  0.542
  C  C85  1  0.330100  0.834200  0.022800  1.0  0.5514
  C  C86  1  0.471500  0.893400  0.015200  1.0  0.6005
  C  C87  1  0.505600  0.916400  0.227600  1.0  0.6241
  C  C88  1  0.652300  0.898500  0.225300  1.0  0.6226
  C  C89  1  0.489600  0.571400  0.229600  1.0  0.5749
  C  C90  1  0.342800  0.585400  0.220500  1.0  0.6388
  C  C91  1  0.680400  0.658700  0.024200  1.0  0.5774
  C  C92  1  0.542900  0.596200  0.015200  1.0  0.5735
  C  C93  1  0.815400  0.332200  0.375800  1.0  0.5763
  C  C94  1  0.956800  0.395600  0.384700  1.0  0.5735
  C  C95  1  0.998300  0.413100  0.166500  1.0  0.6043
  C  C96  1  0.130700  0.377900  0.159200  1.0  0.6384
  C  C97  1  0.844400  0.102700  0.166900  1.0  0.6
  C  C98  1  0.980300  0.070100  0.171700  1.0  0.62
  C  C99  1  0.171800  0.162600  0.375600  1.0  0.6017
  C  C100  1  0.033100  0.099700  0.387700  1.0  0.5429
  C  C101  1  0.683600  0.828300  0.611700  1.0  -0.0454
  C  C102  1  0.575000  0.889700  0.602200  1.0  -0.0674
  C  C103  1  0.541800  0.703100  0.680600  1.0  -0.0464
  C  C104  1  0.458300  0.782200  0.690800  1.0  -0.044
  C  C105  1  0.525100  0.704200  0.552700  1.0  -0.0105
  C  C106  1  0.404400  0.755600  0.567300  1.0  -0.0039
  C  C107  1  0.849200  0.250300  0.809600  1.0  -0.0323
  C  C108  1  0.952200  0.343600  0.817300  1.0  -0.0517
  C  C109  1  0.938400  0.207300  0.699400  1.0  -0.0426
  C  C110  1  0.026300  0.307800  0.698900  1.0  -0.0717
  C  C111  1  0.037900  0.165000  0.810900  1.0  -0.0398
  C  C112  1  0.140500  0.258000  0.800800  1.0  -0.0185
  C  C113  1  0.316400  0.171700  0.111700  1.0  -0.047
  C  C114  1  0.425000  0.110300  0.102200  1.0  -0.0685
  C  C115  1  0.458200  0.296900  0.180600  1.0  -0.0452
  C  C116  1  0.541700  0.217800  0.190800  1.0  -0.0435
  C  C117  1  0.474900  0.295800  0.052700  1.0  -0.0079
  C  C118  1  0.595600  0.244400  0.067300  1.0  -0.0012
  C  C119  1  0.150800  0.749700  0.309600  1.0  -0.0337
  C  C120  1  0.047800  0.656400  0.317300  1.0  -0.0517
  C  C121  1  0.061600  0.792700  0.199400  1.0  -0.0423
  C  C122  1  0.973700  0.692200  0.198900  1.0  -0.0737
  C  C123  1  0.962100  0.835000  0.310900  1.0  -0.0413
  C  C124  1  0.859500  0.742000  0.300800  1.0  -0.0167
  N  N125  1  0.616400  0.724100  0.612100  1.0  0.0906
  N  N126  1  0.444300  0.830000  0.622100  1.0  0.1172
  N  N127  1  0.914600  0.176700  0.773300  1.0  0.1298
  N  N128  1  0.068900  0.333000  0.772300  1.0  0.1366
  N  N129  1  0.383600  0.275900  0.112100  1.0  0.0932
  N  N130  1  0.555700  0.170000  0.122100  1.0  0.1167
  N  N131  1  0.085400  0.823300  0.273300  1.0  0.1285
  N  N132  1  0.931100  0.667000  0.272300  1.0  0.1378
  O  O133  1  0.676800  0.231300  0.570800  1.0  -0.6713
  O  O134  1  0.444600  0.132200  0.557200  1.0  -0.626
  O  O135  1  0.760600  0.148400  0.486400  1.0  -0.5884
  O  O136  1  0.505900  0.040300  0.471200  1.0  -0.6514
  O  O137  1  0.575100  0.148400  0.695400  1.0  -0.5902
  O  O138  1  0.332300  0.170800  0.684000  1.0  -0.6462
  O  O139  1  0.520100  0.010700  0.756300  1.0  -0.658
  O  O140  1  0.262400  0.051600  0.760600  1.0  -0.562
  O  O141  1  0.428800  0.364100  0.697000  1.0  -0.6116
  O  O142  1  0.669400  0.342500  0.679900  1.0  -0.6543
  O  O143  1  0.485100  0.497100  0.763600  1.0  -0.5926
  O  O144  1  0.747200  0.468700  0.749200  1.0  -0.5588
  O  O145  1  0.314600  0.279800  0.574400  1.0  -0.6535
  O  O146  1  0.544800  0.380300  0.556100  1.0  -0.6582
  O  O147  1  0.227200  0.352900  0.486200  1.0  -0.5907
  O  O148  1  0.475600  0.468800  0.470700  1.0  -0.603
  O  O149  1  0.189900  0.730100  0.826100  1.0  -0.6468
  O  O150  1  0.957100  0.631800  0.844300  1.0  -0.6481
  O  O151  1  0.275000  0.654100  0.915300  1.0  -0.5754
  O  O152  1  0.026300  0.537700  0.926800  1.0  -0.6104
  O  O153  1  0.079400  0.636400  0.710800  1.0  -0.603
  O  O154  1  0.851100  0.687700  0.704400  1.0  -0.6046
  O  O155  1  0.028200  0.518700  0.630400  1.0  -0.6642
  O  O156  1  0.789800  0.591600  0.612200  1.0  -0.6174
  O  O157  1  0.171800  0.829300  0.710400  1.0  -0.615
  O  O158  1  0.942600  0.878700  0.715400  1.0  -0.6275
  O  O159  1  0.237600  0.933900  0.622900  1.0  -0.6113
  O  O160  1  0.990500  0.996600  0.637100  1.0  -0.6605
  O  O161  1  0.824800  0.776600  0.825500  1.0  -0.65
  O  O162  1  0.057300  0.873100  0.848700  1.0  -0.6647
  O  O163  1  0.735900  0.847500  0.915600  1.0  -0.6065
  O  O164  1  0.982000  0.967300  0.929200  1.0  -0.5978
  O  O165  1  0.323200  0.768700  0.070800  1.0  -0.6711
  O  O166  1  0.555400  0.867800  0.057200  1.0  -0.6248
  O  O167  1  0.239400  0.851600  0.986400  1.0  -0.5855
  O  O168  1  0.494100  0.959700  0.971200  1.0  -0.6531
  O  O169  1  0.424900  0.851600  0.195400  1.0  -0.5887
  O  O170  1  0.667700  0.829200  0.184000  1.0  -0.6462
  O  O171  1  0.479900  0.989300  0.256300  1.0  -0.6604
  O  O172  1  0.737600  0.948400  0.260600  1.0  -0.5628
  O  O173  1  0.571200  0.635900  0.197000  1.0  -0.6116
  O  O174  1  0.330600  0.657500  0.179900  1.0  -0.6541
  O  O175  1  0.514900  0.502900  0.263600  1.0  -0.5915
  O  O176  1  0.252800  0.531300  0.249200  1.0  -0.5576
  O  O177  1  0.685400  0.720200  0.074400  1.0  -0.6532
  O  O178  1  0.455200  0.619700  0.056100  1.0  -0.6588
  O  O179  1  0.772800  0.647100  0.986200  1.0  -0.5923
  O  O180  1  0.524400  0.531200  0.970700  1.0  -0.6048
  O  O181  1  0.810100  0.269900  0.326100  1.0  -0.648
  O  O182  1  0.042900  0.368200  0.344300  1.0  -0.6489
  O  O183  1  0.725000  0.345900  0.415300  1.0  -0.5753
  O  O184  1  0.973700  0.462300  0.426800  1.0  -0.6102
  O  O185  1  0.920600  0.363600  0.210800  1.0  -0.603
  O  O186  1  0.148900  0.312300  0.204400  1.0  -0.6042
  O  O187  1  0.971800  0.481300  0.130400  1.0  -0.6642
  O  O188  1  0.210200  0.408400  0.112200  1.0  -0.6166
  O  O189  1  0.828200  0.170700  0.210400  1.0  -0.6145
  O  O190  1  0.057400  0.121300  0.215400  1.0  -0.6277
  O  O191  1  0.762400  0.066100  0.122900  1.0  -0.6101
  O  O192  1  0.009500  0.003400  0.137100  1.0  -0.6592
  O  O193  1  0.175200  0.223400  0.325500  1.0  -0.6491
  O  O194  1  0.942700  0.126900  0.348700  1.0  -0.6648
  O  O195  1  0.264100  0.152500  0.415600  1.0  -0.6074
  O  O196  1  0.018000  0.032700  0.429200  1.0  -0.5962
