# generated using pymatgen
data_CuH11C11NO4
_symmetry_space_group_name_H-M   'P 1'
_cell_length_a   8.50900000
_cell_length_b   13.15300000
_cell_length_c   13.99450000
_cell_angle_alpha   118.03000000
_cell_angle_beta   90.64000000
_cell_angle_gamma   90.00000000
_symmetry_Int_Tables_number   1
_chemical_formula_structural   CuH11C11NO4
_chemical_formula_sum   'Cu4 H44 C44 N4 O16'
_cell_volume   1382.41964855
_cell_formula_units_Z   4
loop_
 _symmetry_equiv_pos_site_id
 _symmetry_equiv_pos_as_xyz
  1  'x, y, z'
loop_
 _atom_site_type_symbol
 _atom_site_label
 _atom_site_symmetry_multiplicity
 _atom_site_fract_x
 _atom_site_fract_y
 _atom_site_fract_z
 _atom_site_occupancy
 _atom_site_charge
  Cu  Cu1  1  0.553810  0.089620  0.588710  1.0  0.8405
  Cu  Cu2  1  0.946190  0.500910  0.411290  1.0  0.8385
  Cu  Cu3  1  0.446190  0.910380  0.411290  1.0  0.8376
  Cu  Cu4  1  0.053810  0.499090  0.588710  1.0  0.8402
  H  H5  1  0.651600  0.341400  0.662600  1.0  0.0879
  H  H6  1  0.806500  0.487900  0.790200  1.0  0.129
  H  H7  1  0.897000  0.285700  0.930600  1.0  0.1288
  H  H8  1  0.736300  0.145800  0.800600  1.0  0.0894
  H  H9  1  0.974800  0.567100  0.949200  1.0  0.1032
  H  H10  1  0.096100  0.071600  0.724400  1.0  0.1102
  H  H11  1  0.004800  0.082500  0.629000  1.0  0.1272
  H  H12  1  0.909400  0.920400  0.644600  1.0  0.0694
  H  H13  1  0.986700  0.878800  0.528400  1.0  0.0737
  H  H14  1  0.135100  0.868900  0.708200  1.0  0.1209
  H  H15  1  0.225500  0.839400  0.598800  1.0  0.1319
  H  H16  1  0.848400  0.678800  0.337400  1.0  0.0858
  H  H17  1  0.693500  0.697700  0.209800  1.0  0.1282
  H  H18  1  0.603000  0.355100  0.069400  1.0  0.1268
  H  H19  1  0.763700  0.345200  0.199400  1.0  0.0881
  H  H20  1  0.525200  0.617900  0.050800  1.0  0.1043
  H  H21  1  0.403900  0.347200  0.275600  1.0  0.1094
  H  H22  1  0.495200  0.453500  0.371000  1.0  0.1241
  H  H23  1  0.590600  0.275800  0.355400  1.0  0.0685
  H  H24  1  0.513300  0.350400  0.471600  1.0  0.0735
  H  H25  1  0.364900  0.160700  0.291800  1.0  0.1207
  H  H26  1  0.274500  0.240600  0.401200  1.0  0.1328
  H  H27  1  0.348400  0.658600  0.337400  1.0  0.0879
  H  H28  1  0.193500  0.512100  0.209800  1.0  0.1281
  H  H29  1  0.103000  0.714300  0.069400  1.0  0.1297
  H  H30  1  0.263700  0.854200  0.199400  1.0  0.0896
  H  H31  1  0.025200  0.432900  0.050800  1.0  0.1029
  H  H32  1  0.903900  0.928400  0.275600  1.0  0.1108
  H  H33  1  0.995200  0.917500  0.371000  1.0  0.1274
  H  H34  1  0.090600  0.079600  0.355400  1.0  0.0697
  H  H35  1  0.013300  0.121200  0.471600  1.0  0.0736
  H  H36  1  0.864900  0.131100  0.291800  1.0  0.1208
  H  H37  1  0.774500  0.160600  0.401200  1.0  0.1329
  H  H38  1  0.151600  0.321200  0.662600  1.0  0.0859
  H  H39  1  0.306500  0.302300  0.790200  1.0  0.1281
  H  H40  1  0.397000  0.644900  0.930600  1.0  0.1273
  H  H41  1  0.236300  0.654800  0.800600  1.0  0.0868
  H  H42  1  0.474800  0.382100  0.949200  1.0  0.1042
  H  H43  1  0.596100  0.652800  0.724400  1.0  0.1099
  H  H44  1  0.504800  0.546500  0.629000  1.0  0.1243
  H  H45  1  0.409400  0.724200  0.644600  1.0  0.0668
  H  H46  1  0.486700  0.649600  0.528400  1.0  0.0737
  H  H47  1  0.635100  0.839300  0.708200  1.0  0.1209
  H  H48  1  0.725500  0.759400  0.598800  1.0  0.1314
  C  C49  1  0.700800  0.330520  0.718420  1.0  0.1765
  C  C50  1  0.794200  0.418140  0.794080  1.0  -0.1958
  C  C51  1  0.868300  0.404860  0.876520  1.0  0.1205
  C  C52  1  0.846100  0.299790  0.877180  1.0  -0.2205
  C  C53  1  0.750500  0.216470  0.798740  1.0  0.1633
  C  C54  1  0.963700  0.499950  0.957700  1.0  -0.1093
  C  C55  1  0.235500  0.030550  0.591880  1.0  0.705
  C  C56  1  0.079600  0.034630  0.644920  1.0  -0.3427
  C  C57  1  0.009600  0.914130  0.606960  1.0  -0.0144
  C  C58  1  0.121700  0.836660  0.628840  1.0  -0.3462
  C  C59  1  0.071000  0.712160  0.582500  1.0  0.7105
  C  C60  1  0.799200  0.612100  0.281580  1.0  0.177
  C  C61  1  0.705800  0.624060  0.205920  1.0  -0.1983
  C  C62  1  0.631700  0.528340  0.123480  1.0  0.1205
  C  C63  1  0.653900  0.422610  0.122820  1.0  -0.2208
  C  C64  1  0.749500  0.417730  0.201260  1.0  0.1626
  C  C65  1  0.536300  0.542250  0.042300  1.0  -0.1095
  C  C66  1  0.264500  0.438670  0.408120  1.0  0.7042
  C  C67  1  0.420400  0.389710  0.355080  1.0  -0.342
  C  C68  1  0.490400  0.307170  0.393040  1.0  -0.0137
  C  C69  1  0.378300  0.207820  0.371160  1.0  -0.3452
  C  C70  1  0.429000  0.129660  0.417500  1.0  0.7107
  C  C71  1  0.299200  0.669480  0.281580  1.0  0.1767
  C  C72  1  0.205800  0.581860  0.205920  1.0  -0.1962
  C  C73  1  0.131700  0.595140  0.123480  1.0  0.1202
  C  C74  1  0.153900  0.700210  0.122820  1.0  -0.2201
  C  C75  1  0.249500  0.783530  0.201260  1.0  0.1631
  C  C76  1  0.036300  0.500050  0.042300  1.0  -0.1092
  C  C77  1  0.764500  0.969450  0.408120  1.0  0.7042
  C  C78  1  0.920400  0.965370  0.355080  1.0  -0.3418
  C  C79  1  0.990400  0.085870  0.393040  1.0  -0.0132
  C  C80  1  0.878300  0.163340  0.371160  1.0  -0.348
  C  C81  1  0.929000  0.287840  0.417500  1.0  0.7107
  C  C82  1  0.200800  0.387900  0.718420  1.0  0.1769
  C  C83  1  0.294200  0.375940  0.794080  1.0  -0.1967
  C  C84  1  0.368300  0.471660  0.876520  1.0  0.1204
  C  C85  1  0.346100  0.577390  0.877180  1.0  -0.2189
  C  C86  1  0.250500  0.582270  0.798740  1.0  0.1626
  C  C87  1  0.463700  0.457750  0.957700  1.0  -0.1086
  C  C88  1  0.735500  0.561330  0.591880  1.0  0.7046
  C  C89  1  0.579600  0.610290  0.644920  1.0  -0.3411
  C  C90  1  0.509600  0.692830  0.606960  1.0  -0.0147
  C  C91  1  0.621700  0.792180  0.628840  1.0  -0.3452
  C  C92  1  0.571000  0.870340  0.582500  1.0  0.7116
  N  N93  1  0.676400  0.230400  0.720340  1.0  -0.3399
  N  N94  1  0.823600  0.510060  0.279660  1.0  -0.3396
  N  N95  1  0.323600  0.769600  0.279660  1.0  -0.3398
  N  N96  1  0.176400  0.489940  0.720340  1.0  -0.3399
  O  O97  1  0.341180  0.101470  0.648340  1.0  -0.5779
  O  O98  1  0.250470  0.956120  0.495240  1.0  -0.5731
  O  O99  1  0.096300  0.663640  0.639760  1.0  -0.5844
  O  O100  1  0.011000  0.664330  0.489040  1.0  -0.5778
  O  O101  1  0.158820  0.453130  0.351660  1.0  -0.5792
  O  O102  1  0.249530  0.460880  0.504760  1.0  -0.5723
  O  O103  1  0.403700  0.023880  0.360240  1.0  -0.5846
  O  O104  1  0.489000  0.175290  0.510960  1.0  -0.5775
  O  O105  1  0.658820  0.898530  0.351660  1.0  -0.5781
  O  O106  1  0.749530  0.043880  0.504760  1.0  -0.5729
  O  O107  1  0.903700  0.336360  0.360240  1.0  -0.5859
  O  O108  1  0.989000  0.335670  0.510960  1.0  -0.5779
  O  O109  1  0.841180  0.546870  0.648340  1.0  -0.5786
  O  O110  1  0.750470  0.539120  0.495240  1.0  -0.5728
  O  O111  1  0.596300  0.976120  0.639760  1.0  -0.583
  O  O112  1  0.511000  0.824710  0.489040  1.0  -0.5779
