# generated using pymatgen
data_CoH9C9(NO2)2
_symmetry_space_group_name_H-M   'P 1'
_cell_length_a   6.91490000
_cell_length_b   22.11300000
_cell_length_c   7.72090000
_cell_angle_alpha   90.00000000
_cell_angle_beta   90.00000000
_cell_angle_gamma   90.00000000
_symmetry_Int_Tables_number   1
_chemical_formula_structural   CoH9C9(NO2)2
_chemical_formula_sum   'Co4 H36 C36 N8 O16'
_cell_volume   1180.59651643
_cell_formula_units_Z   4
loop_
 _symmetry_equiv_pos_site_id
 _symmetry_equiv_pos_as_xyz
  1  'x, y, z'
loop_
 _atom_site_type_symbol
 _atom_site_label
 _atom_site_symmetry_multiplicity
 _atom_site_fract_x
 _atom_site_fract_y
 _atom_site_fract_z
 _atom_site_occupancy
 _atom_site_charge
  Co  Co1  1  0.541700  0.287480  0.757750  1.0  0.9716
  Co  Co2  1  0.458300  0.712520  0.757750  1.0  0.9711
  Co  Co3  1  0.041700  0.212520  0.242250  1.0  0.9709
  Co  Co4  1  0.958300  0.787480  0.242250  1.0  0.9714
  H  H5  1  0.337100  0.196400  0.860800  1.0  0.3167
  H  H6  1  0.388500  0.184700  0.675400  1.0  0.3058
  H  H7  1  0.557400  0.125400  0.898100  1.0  0.0695
  H  H8  1  0.647900  0.112300  0.618600  1.0  0.1257
  H  H9  1  0.841200  0.123500  0.726400  1.0  0.1408
  H  H10  1  0.492000  0.424200  0.662300  1.0  0.0817
  H  H11  1  0.680600  0.511600  0.636900  1.0  0.1246
  H  H12  1  0.156800  0.416000  0.773400  1.0  0.1229
  H  H13  1  0.968200  0.328600  0.798800  1.0  0.0996
  H  H14  1  0.662900  0.803600  0.860800  1.0  0.3171
  H  H15  1  0.611500  0.815300  0.675400  1.0  0.3037
  H  H16  1  0.442600  0.874600  0.898100  1.0  0.0692
  H  H17  1  0.352100  0.887700  0.618600  1.0  0.1256
  H  H18  1  0.158800  0.876500  0.726400  1.0  0.1412
  H  H19  1  0.508000  0.575800  0.662300  1.0  0.0821
  H  H20  1  0.319400  0.488400  0.636900  1.0  0.1239
  H  H21  1  0.843200  0.584000  0.773400  1.0  0.1227
  H  H22  1  0.031800  0.671400  0.798800  1.0  0.0998
  H  H23  1  0.837100  0.303600  0.139200  1.0  0.3154
  H  H24  1  0.888500  0.315300  0.324600  1.0  0.3047
  H  H25  1  0.057400  0.374600  0.101900  1.0  0.0688
  H  H26  1  0.147900  0.387700  0.381400  1.0  0.1252
  H  H27  1  0.341200  0.376500  0.273600  1.0  0.1414
  H  H28  1  0.992000  0.075800  0.337700  1.0  0.0816
  H  H29  1  0.180600  0.988400  0.363100  1.0  0.1246
  H  H30  1  0.656800  0.084000  0.226600  1.0  0.1226
  H  H31  1  0.468200  0.171400  0.201200  1.0  0.0998
  H  H32  1  0.162900  0.696400  0.139200  1.0  0.3165
  H  H33  1  0.111500  0.684700  0.324600  1.0  0.3029
  H  H34  1  0.942600  0.625400  0.101900  1.0  0.0688
  H  H35  1  0.852100  0.612300  0.381400  1.0  0.1255
  H  H36  1  0.658800  0.623500  0.273600  1.0  0.1424
  H  H37  1  0.008000  0.924200  0.337700  1.0  0.0823
  H  H38  1  0.819400  0.011600  0.363100  1.0  0.1244
  H  H39  1  0.343200  0.916000  0.226600  1.0  0.1227
  H  H40  1  0.531800  0.828600  0.201200  1.0  0.0996
  C  C41  1  0.731300  0.198700  0.959200  1.0  0.6316
  C  C42  1  0.604200  0.162400  0.836400  1.0  0.0864
  C  C43  1  0.722200  0.143300  0.683000  1.0  -0.39
  C  C44  1  0.784000  0.194500  0.550400  1.0  0.7304
  C  C45  1  0.627000  0.422600  0.684900  1.0  0.146
  C  C46  1  0.739000  0.474500  0.669700  1.0  -0.1902
  C  C47  1  0.936500  0.472000  0.702700  1.0  0.0767
  C  C48  1  0.021900  0.417700  0.750800  1.0  -0.199
  C  C49  1  0.910000  0.365800  0.766000  1.0  0.1431
  C  C50  1  0.268700  0.801300  0.959200  1.0  0.6321
  C  C51  1  0.395800  0.837600  0.836400  1.0  0.0871
  C  C52  1  0.277800  0.856700  0.683000  1.0  -0.3897
  C  C53  1  0.216000  0.805500  0.550400  1.0  0.7314
  C  C54  1  0.373000  0.577400  0.684900  1.0  0.1463
  C  C55  1  0.261000  0.525500  0.669700  1.0  -0.1926
  C  C56  1  0.063500  0.528000  0.702700  1.0  0.0768
  C  C57  1  0.978100  0.582300  0.750800  1.0  -0.1964
  C  C58  1  0.090000  0.634200  0.766000  1.0  0.1447
  C  C59  1  0.231300  0.301300  0.040800  1.0  0.6314
  C  C60  1  0.104200  0.337600  0.163600  1.0  0.0867
  C  C61  1  0.222200  0.356700  0.317000  1.0  -0.3895
  C  C62  1  0.284000  0.305500  0.449600  1.0  0.7304
  C  C63  1  0.127000  0.077400  0.315100  1.0  0.1462
  C  C64  1  0.239000  0.025500  0.330300  1.0  -0.1902
  C  C65  1  0.436500  0.028000  0.297300  1.0  0.077
  C  C66  1  0.521900  0.082300  0.249200  1.0  -0.1982
  C  C67  1  0.410000  0.134200  0.234000  1.0  0.1446
  C  C68  1  0.768700  0.698700  0.040800  1.0  0.6318
  C  C69  1  0.895800  0.662400  0.163600  1.0  0.0868
  C  C70  1  0.777800  0.643300  0.317000  1.0  -0.3907
  C  C71  1  0.716000  0.694500  0.449600  1.0  0.7305
  C  C72  1  0.873000  0.922600  0.315100  1.0  0.1458
  C  C73  1  0.761000  0.974500  0.330300  1.0  -0.1924
  C  C74  1  0.563500  0.972000  0.297300  1.0  0.0767
  C  C75  1  0.478100  0.917700  0.249200  1.0  -0.1969
  C  C76  1  0.590000  0.865800  0.234000  1.0  0.1442
  N  N77  1  0.434700  0.198300  0.780100  1.0  -0.6823
  N  N78  1  0.712000  0.368200  0.733000  1.0  -0.3493
  N  N79  1  0.565300  0.801700  0.780100  1.0  -0.6856
  N  N80  1  0.288000  0.631800  0.733000  1.0  -0.3474
  N  N81  1  0.934700  0.301700  0.219900  1.0  -0.6826
  N  N82  1  0.212000  0.131800  0.267000  1.0  -0.3475
  N  N83  1  0.065300  0.698300  0.219900  1.0  -0.6832
  N  N84  1  0.788000  0.868200  0.267000  1.0  -0.3489
  O  O85  1  0.843700  0.170800  0.061500  1.0  -0.5979
  O  O86  1  0.704000  0.255100  0.963300  1.0  -0.5708
  O  O87  1  0.746400  0.247000  0.581400  1.0  -0.5904
  O  O88  1  0.885600  0.172900  0.433200  1.0  -0.6045
  O  O89  1  0.156300  0.829200  0.061500  1.0  -0.5975
  O  O90  1  0.296000  0.744900  0.963300  1.0  -0.5702
  O  O91  1  0.253600  0.753000  0.581400  1.0  -0.5898
  O  O92  1  0.114400  0.827100  0.433200  1.0  -0.604
  O  O93  1  0.343700  0.329200  0.938500  1.0  -0.5974
  O  O94  1  0.204000  0.244900  0.036700  1.0  -0.5699
  O  O95  1  0.246400  0.253000  0.418600  1.0  -0.5894
  O  O96  1  0.385600  0.327100  0.566800  1.0  -0.6045
  O  O97  1  0.656300  0.670800  0.938500  1.0  -0.5979
  O  O98  1  0.796000  0.755100  0.036700  1.0  -0.5697
  O  O99  1  0.753600  0.747000  0.418600  1.0  -0.5911
  O  O100  1  0.614400  0.672900  0.566800  1.0  -0.604
