# generated using pymatgen
data_DyZnH10C20N3O10
_symmetry_space_group_name_H-M   'P 1'
_cell_length_a   10.66000000
_cell_length_b   11.37700000
_cell_length_c   12.50900000
_cell_angle_alpha   86.24000000
_cell_angle_beta   81.85000000
_cell_angle_gamma   89.07000000
_symmetry_Int_Tables_number   1
_chemical_formula_structural   DyZnH10C20N3O10
_chemical_formula_sum   'Dy2 Zn2 H20 C40 N6 O20'
_cell_volume   1498.48530809
_cell_formula_units_Z   2
loop_
 _symmetry_equiv_pos_site_id
 _symmetry_equiv_pos_as_xyz
  1  'x, y, z'
loop_
 _atom_site_type_symbol
 _atom_site_label
 _atom_site_symmetry_multiplicity
 _atom_site_fract_x
 _atom_site_fract_y
 _atom_site_fract_z
 _atom_site_occupancy
 _atom_site_charge
  Dy  Dy1  1  0.573310  0.514080  0.238130  1.0  2.2339
  Dy  Dy2  1  0.426690  0.485920  0.761870  1.0  2.2349
  Zn  Zn3  1  0.368110  0.164100  0.200670  1.0  0.8908
  Zn  Zn4  1  0.631890  0.835900  0.799330  1.0  0.8915
  H  H5  1  0.275600  0.942400  0.582400  1.0  0.0963
  H  H6  1  0.317300  0.102100  0.677100  1.0  0.0958
  H  H7  1  0.237000  0.383400  0.103800  1.0  0.0777
  H  H8  1  0.294300  0.961200  0.395900  1.0  0.0805
  H  H9  1  0.094600  0.123900  0.303500  1.0  0.0741
  H  H10  1  0.896400  0.207700  0.315600  1.0  0.1114
  H  H11  1  0.042300  0.472500  0.111000  1.0  0.1048
  H  H12  1  0.673000  0.180600  0.179800  1.0  0.0823
  H  H13  1  0.812000  0.883300  0.051700  1.0  0.108
  H  H14  1  0.845600  0.069800  0.108500  1.0  0.102
  H  H15  1  0.724400  0.057600  0.417600  1.0  0.0963
  H  H16  1  0.682700  0.897900  0.322900  1.0  0.0958
  H  H17  1  0.763000  0.616600  0.896200  1.0  0.077
  H  H18  1  0.705700  0.038800  0.604100  1.0  0.0804
  H  H19  1  0.905400  0.876100  0.696500  1.0  0.0743
  H  H20  1  0.103600  0.792300  0.684400  1.0  0.1114
  H  H21  1  0.957700  0.527500  0.889000  1.0  0.1052
  H  H22  1  0.327000  0.819400  0.820200  1.0  0.0818
  H  H23  1  0.188000  0.116700  0.948300  1.0  0.1072
  H  H24  1  0.154400  0.930200  0.891500  1.0  0.102
  C  C25  1  0.396500  0.316900  0.610600  1.0  0.6903
  C  C26  1  0.620800  0.885500  0.089000  1.0  -0.1075
  C  C27  1  0.301100  0.013500  0.545500  1.0  -0.0978
  C  C28  1  0.327200  0.108400  0.601900  1.0  -0.0725
  C  C29  1  0.381800  0.217900  0.432300  1.0  0.088
  C  C30  1  0.368700  0.214500  0.545200  1.0  -0.0827
  C  C31  1  0.168000  0.347900  0.147100  1.0  0.1575
  C  C32  1  0.313400  0.025100  0.433300  1.0  0.1442
  C  C33  1  0.084100  0.195100  0.264800  1.0  0.1571
  C  C34  1  0.964300  0.244800  0.272200  1.0  -0.1249
  C  C35  1  0.051100  0.401700  0.151000  1.0  -0.1104
  C  C36  1  0.659800  0.106600  0.156100  1.0  0.1478
  C  C37  1  0.816700  0.407700  0.219800  1.0  0.6714
  C  C38  1  0.381400  0.920100  0.144400  1.0  0.6245
  C  C39  1  0.600000  0.762000  0.055300  1.0  0.7138
  C  C40  1  0.434200  0.324200  0.361900  1.0  0.6372
  C  C41  1  0.519800  0.957600  0.131500  1.0  0.0541
  C  C42  1  0.743600  0.928800  0.080200  1.0  -0.0541
  C  C43  1  0.946100  0.350500  0.214400  1.0  -0.0583
  C  C44  1  0.763900  0.040200  0.114000  1.0  -0.1025
  C  C45  1  0.603500  0.683100  0.389400  1.0  0.6887
  C  C46  1  0.379200  0.114500  0.911000  1.0  -0.1065
  C  C47  1  0.698900  0.986500  0.454500  1.0  -0.0984
  C  C48  1  0.672800  0.891600  0.398100  1.0  -0.0739
  C  C49  1  0.618200  0.782100  0.567700  1.0  0.0879
  C  C50  1  0.631300  0.785500  0.454800  1.0  -0.0829
  C  C51  1  0.832000  0.652100  0.852900  1.0  0.1572
  C  C52  1  0.686600  0.974900  0.566700  1.0  0.1444
  C  C53  1  0.915900  0.804900  0.735200  1.0  0.156
  C  C54  1  0.035700  0.755200  0.727800  1.0  -0.1258
  C  C55  1  0.948900  0.598300  0.849000  1.0  -0.1091
  C  C56  1  0.340200  0.893400  0.843900  1.0  0.1486
  C  C57  1  0.183300  0.592300  0.780200  1.0  0.6733
  C  C58  1  0.618600  0.079900  0.855600  1.0  0.6262
  C  C59  1  0.400000  0.238000  0.944700  1.0  0.7156
  C  C60  1  0.565800  0.675800  0.638100  1.0  0.637
  C  C61  1  0.480200  0.042400  0.868500  1.0  0.0535
  C  C62  1  0.256400  0.071200  0.919800  1.0  -0.0545
  C  C63  1  0.053900  0.649500  0.785600  1.0  -0.0588
  C  C64  1  0.236100  0.959800  0.886000  1.0  -0.1013
  N  N65  1  0.352200  0.126500  0.377000  1.0  -0.3396
  N  N66  1  0.186600  0.245000  0.204200  1.0  -0.3522
  N  N67  1  0.539900  0.066400  0.163600  1.0  -0.3323
  N  N68  1  0.647800  0.873500  0.623000  1.0  -0.3366
  N  N69  1  0.813400  0.755000  0.795800  1.0  -0.3508
  N  N70  1  0.460100  0.933600  0.836400  1.0  -0.3331
  O  O71  1  0.503000  0.322800  0.641700  1.0  -0.6279
  O  O72  1  0.307400  0.388600  0.639100  1.0  -0.6415
  O  O73  1  0.722700  0.358800  0.281200  1.0  -0.6272
  O  O74  1  0.607900  0.680100  0.126000  1.0  -0.7272
  O  O75  1  0.298800  0.998400  0.174800  1.0  -0.5901
  O  O76  1  0.582600  0.748500  0.958900  1.0  -0.6452
  O  O77  1  0.801900  0.502600  0.164100  1.0  -0.6285
  O  O78  1  0.447200  0.317900  0.259100  1.0  -0.644
  O  O79  1  0.468200  0.412800  0.404800  1.0  -0.6358
  O  O80  1  0.357700  0.817300  0.125100  1.0  -0.544
  O  O81  1  0.497000  0.677200  0.358300  1.0  -0.6272
  O  O82  1  0.692600  0.611400  0.360900  1.0  -0.6404
  O  O83  1  0.277300  0.641200  0.718800  1.0  -0.6281
  O  O84  1  0.392100  0.319900  0.874000  1.0  -0.7288
  O  O85  1  0.701200  0.001600  0.825200  1.0  -0.5869
  O  O86  1  0.417400  0.251500  0.041100  1.0  -0.645
  O  O87  1  0.198100  0.497400  0.835900  1.0  -0.6319
  O  O88  1  0.552800  0.682100  0.740900  1.0  -0.6426
  O  O89  1  0.531800  0.587200  0.595200  1.0  -0.6363
  O  O90  1  0.642300  0.182700  0.874900  1.0  -0.5453
