# generated using pymatgen
data_SmH2C6(NO3)2
_symmetry_space_group_name_H-M   'P 1'
_cell_length_a   8.33280000
_cell_length_b   17.50890000
_cell_length_c   7.93840000
_cell_angle_alpha   90.00000000
_cell_angle_beta   109.24700000
_cell_angle_gamma   90.00000000
_symmetry_Int_Tables_number   1
_chemical_formula_structural   SmH2C6(NO3)2
_chemical_formula_sum   'Sm4 H8 C24 N8 O24'
_cell_volume   1093.46197755
_cell_formula_units_Z   4
loop_
 _symmetry_equiv_pos_site_id
 _symmetry_equiv_pos_as_xyz
  1  'x, y, z'
loop_
 _atom_site_type_symbol
 _atom_site_label
 _atom_site_symmetry_multiplicity
 _atom_site_fract_x
 _atom_site_fract_y
 _atom_site_fract_z
 _atom_site_occupancy
 _atom_site_charge
  Sm  Sm1  1  0.280880  0.522180  0.256800  1.0  2.2729
  Sm  Sm2  1  0.719120  0.022180  0.243200  1.0  2.2682
  Sm  Sm3  1  0.719120  0.477820  0.743200  1.0  2.2682
  Sm  Sm4  1  0.280880  0.977820  0.756800  1.0  2.2727
  H  H5  1  0.909300  0.872600  0.127800  1.0  0.2682
  H  H6  1  0.624200  0.713100  0.830100  1.0  0.1132
  H  H7  1  0.090700  0.372600  0.372200  1.0  0.2684
  H  H8  1  0.375800  0.213100  0.669900  1.0  0.1138
  H  H9  1  0.090700  0.127400  0.872200  1.0  0.2695
  H  H10  1  0.375800  0.286900  0.169900  1.0  0.1139
  H  H11  1  0.909300  0.627400  0.627800  1.0  0.2683
  H  H12  1  0.624200  0.786900  0.330100  1.0  0.1136
  C  C13  1  0.938900  0.629700  0.017600  1.0  0.7247
  C  C14  1  0.872900  0.708500  0.009800  1.0  0.0085
  C  C15  1  0.715200  0.739000  0.909900  1.0  -0.1201
  C  C16  1  0.722700  0.814800  0.954100  1.0  0.0059
  C  C17  1  0.593700  0.876500  0.902200  1.0  0.7202
  C  C18  1  0.565200  0.474900  0.072000  1.0  0.5704
  C  C19  1  0.061100  0.129700  0.482400  1.0  0.7244
  C  C20  1  0.127100  0.208500  0.490200  1.0  0.0071
  C  C21  1  0.284800  0.239000  0.590100  1.0  -0.1195
  C  C22  1  0.277300  0.314800  0.545900  1.0  0.0052
  C  C23  1  0.406300  0.376500  0.597800  1.0  0.7196
  C  C24  1  0.434800  0.974900  0.428000  1.0  0.5695
  C  C25  1  0.061100  0.370300  0.982400  1.0  0.7247
  C  C26  1  0.127100  0.291500  0.990200  1.0  0.0075
  C  C27  1  0.284800  0.261000  0.090100  1.0  -0.1191
  C  C28  1  0.277300  0.185200  0.045900  1.0  0.0066
  C  C29  1  0.406300  0.123500  0.097800  1.0  0.7197
  C  C30  1  0.434800  0.525100  0.928000  1.0  0.5695
  C  C31  1  0.938900  0.870300  0.517600  1.0  0.7241
  C  C32  1  0.872900  0.791500  0.509800  1.0  0.0083
  C  C33  1  0.715200  0.761000  0.409900  1.0  -0.1198
  C  C34  1  0.722700  0.685200  0.454100  1.0  0.0054
  C  C35  1  0.593700  0.623500  0.402200  1.0  0.7206
  C  C36  1  0.565200  0.025100  0.572000  1.0  0.5707
  N  N37  1  0.968000  0.765100  0.110000  1.0  -0.2719
  N  N38  1  0.876300  0.829100  0.077900  1.0  -0.0925
  N  N39  1  0.032000  0.265100  0.390000  1.0  -0.2713
  N  N40  1  0.123700  0.329100  0.422100  1.0  -0.0934
  N  N41  1  0.032000  0.234900  0.890000  1.0  -0.2711
  N  N42  1  0.123700  0.170900  0.922100  1.0  -0.0917
  N  N43  1  0.968000  0.734900  0.610000  1.0  -0.2717
  N  N44  1  0.876300  0.670900  0.577900  1.0  -0.0904
  O  O45  1  0.085200  0.618600  0.124800  1.0  -0.7526
  O  O46  1  0.848200  0.581100  0.922900  1.0  -0.735
  O  O47  1  0.615000  0.935900  0.997800  1.0  -0.8449
  O  O48  1  0.469200  0.868200  0.763400  1.0  -0.6201
  O  O49  1  0.521300  0.458000  0.204600  1.0  -0.6408
  O  O50  1  0.700100  0.457100  0.047100  1.0  -0.6043
  O  O51  1  0.914800  0.118600  0.375200  1.0  -0.753
  O  O52  1  0.151800  0.081100  0.577100  1.0  -0.7353
  O  O53  1  0.385000  0.435900  0.502200  1.0  -0.8449
  O  O54  1  0.530800  0.368200  0.736600  1.0  -0.6206
  O  O55  1  0.478700  0.958000  0.295400  1.0  -0.6411
  O  O56  1  0.299900  0.957100  0.452900  1.0  -0.6042
  O  O57  1  0.914800  0.381400  0.875200  1.0  -0.7525
  O  O58  1  0.151800  0.418900  0.077100  1.0  -0.7344
  O  O59  1  0.385000  0.064100  0.002200  1.0  -0.844
  O  O60  1  0.530800  0.131800  0.236600  1.0  -0.6214
  O  O61  1  0.478700  0.542000  0.795400  1.0  -0.641
  O  O62  1  0.299900  0.542900  0.952900  1.0  -0.6051
  O  O63  1  0.085200  0.881400  0.624800  1.0  -0.7526
  O  O64  1  0.848200  0.918900  0.422900  1.0  -0.7331
  O  O65  1  0.615000  0.564100  0.497800  1.0  -0.8431
  O  O66  1  0.469200  0.631800  0.263400  1.0  -0.6204
  O  O67  1  0.521300  0.042000  0.704600  1.0  -0.6416
  O  O68  1  0.700100  0.042900  0.547100  1.0  -0.6048
