# generated using pymatgen
data_Cu2H8C11N4O7
_symmetry_space_group_name_H-M   'P 1'
_cell_length_a   7.85900000
_cell_length_b   13.25300000
_cell_length_c   17.45200000
_cell_angle_alpha   90.00000000
_cell_angle_beta   105.25800000
_cell_angle_gamma   90.00000000
_symmetry_Int_Tables_number   1
_chemical_formula_structural   Cu2H8C11N4O7
_chemical_formula_sum   'Cu8 H32 C44 N16 O28'
_cell_volume   1753.64524971
_cell_formula_units_Z   4
loop_
 _symmetry_equiv_pos_site_id
 _symmetry_equiv_pos_as_xyz
  1  'x, y, z'
loop_
 _atom_site_type_symbol
 _atom_site_label
 _atom_site_symmetry_multiplicity
 _atom_site_fract_x
 _atom_site_fract_y
 _atom_site_fract_z
 _atom_site_occupancy
 _atom_site_charge
  Cu  Cu1  1  0.727440  0.603580  0.553390  1.0  0.9467
  Cu  Cu2  1  0.951800  0.550500  0.421030  1.0  0.8506
  Cu  Cu3  1  0.272560  0.103580  0.946610  1.0  0.9492
  Cu  Cu4  1  0.048200  0.050500  0.078970  1.0  0.8514
  Cu  Cu5  1  0.272560  0.396420  0.446610  1.0  0.9477
  Cu  Cu6  1  0.048200  0.449500  0.578970  1.0  0.8518
  Cu  Cu7  1  0.727440  0.896420  0.053390  1.0  0.946
  Cu  Cu8  1  0.951800  0.949500  0.921030  1.0  0.8509
  H  H9  1  0.746200  0.449400  0.475700  1.0  0.3993
  H  H10  1  0.481200  0.445700  0.707000  1.0  0.1069
  H  H11  1  0.519500  0.941800  0.347000  1.0  0.359
  H  H12  1  0.641500  0.925800  0.295700  1.0  0.3484
  H  H13  1  0.379000  0.353700  0.797800  1.0  0.1136
  H  H14  1  0.914100  0.271600  0.750400  1.0  0.1246
  H  H15  1  0.852800  0.770200  0.325500  1.0  0.116
  H  H16  1  0.515800  0.802200  0.454900  1.0  0.1142
  H  H17  1  0.253800  0.949400  0.024300  1.0  0.3996
  H  H18  1  0.518800  0.945700  0.793000  1.0  0.106
  H  H19  1  0.480500  0.441800  0.153000  1.0  0.3576
  H  H20  1  0.358500  0.425800  0.204300  1.0  0.348
  H  H21  1  0.621000  0.853700  0.702200  1.0  0.1135
  H  H22  1  0.085900  0.771600  0.749600  1.0  0.1248
  H  H23  1  0.147200  0.270200  0.174500  1.0  0.1164
  H  H24  1  0.484200  0.302200  0.045100  1.0  0.1134
  H  H25  1  0.253800  0.550600  0.524300  1.0  0.3992
  H  H26  1  0.518800  0.554300  0.293000  1.0  0.1061
  H  H27  1  0.480500  0.058200  0.653000  1.0  0.3573
  H  H28  1  0.358500  0.074200  0.704300  1.0  0.3483
  H  H29  1  0.621000  0.646300  0.202200  1.0  0.1134
  H  H30  1  0.085900  0.728400  0.249600  1.0  0.1247
  H  H31  1  0.147200  0.229800  0.674500  1.0  0.1162
  H  H32  1  0.484200  0.197800  0.545100  1.0  0.1136
  H  H33  1  0.746200  0.050600  0.975700  1.0  0.3988
  H  H34  1  0.481200  0.054300  0.207000  1.0  0.1062
  H  H35  1  0.519500  0.558200  0.847000  1.0  0.3589
  H  H36  1  0.641500  0.574200  0.795700  1.0  0.3481
  H  H37  1  0.379000  0.146300  0.297800  1.0  0.1138
  H  H38  1  0.914100  0.228400  0.250400  1.0  0.1247
  H  H39  1  0.852800  0.729800  0.825500  1.0  0.1157
  H  H40  1  0.515800  0.697800  0.954900  1.0  0.1139
  C  C41  1  0.775300  0.426200  0.659700  1.0  0.6962
  C  C42  1  0.708400  0.367600  0.719200  1.0  -0.1485
  C  C43  1  0.547700  0.392400  0.734000  1.0  -0.0553
  C  C44  1  0.487300  0.337700  0.788800  1.0  -0.0315
  C  C45  1  0.587000  0.258200  0.831200  1.0  -0.1181
  C  C46  1  0.521400  0.202300  0.892400  1.0  0.7057
  C  C47  1  0.747500  0.234900  0.816500  1.0  -0.033
  C  C48  1  0.867500  0.151100  0.858900  1.0  0.6933
  C  C49  1  0.807200  0.288600  0.760400  1.0  -0.0766
  C  C50  1  0.787600  0.757800  0.361900  1.0  0.1479
  C  C51  1  0.602200  0.775700  0.433100  1.0  0.1144
  C  C52  1  0.224700  0.926200  0.840300  1.0  0.6955
  C  C53  1  0.291600  0.867600  0.780800  1.0  -0.1478
  C  C54  1  0.452300  0.892400  0.766000  1.0  -0.0561
  C  C55  1  0.512700  0.837700  0.711200  1.0  -0.033
  C  C56  1  0.413000  0.758200  0.668800  1.0  -0.118
  C  C57  1  0.478600  0.702300  0.607600  1.0  0.7052
  C  C58  1  0.252500  0.734900  0.683500  1.0  -0.0342
  C  C59  1  0.132500  0.651100  0.641100  1.0  0.6926
  C  C60  1  0.192800  0.788600  0.739600  1.0  -0.0776
  C  C61  1  0.212400  0.257800  0.138100  1.0  0.1492
  C  C62  1  0.397800  0.275700  0.066900  1.0  0.1147
  C  C63  1  0.224700  0.573800  0.340300  1.0  0.6956
  C  C64  1  0.291600  0.632400  0.280800  1.0  -0.1478
  C  C65  1  0.452300  0.607600  0.266000  1.0  -0.0563
  C  C66  1  0.512700  0.662300  0.211200  1.0  -0.0325
  C  C67  1  0.413000  0.741800  0.168800  1.0  -0.118
  C  C68  1  0.478600  0.797700  0.107600  1.0  0.7052
  C  C69  1  0.252500  0.765100  0.183500  1.0  -0.0338
  C  C70  1  0.132500  0.848900  0.141100  1.0  0.6933
  C  C71  1  0.192800  0.711400  0.239600  1.0  -0.0777
  C  C72  1  0.212400  0.242200  0.638100  1.0  0.1496
  C  C73  1  0.397800  0.224300  0.566900  1.0  0.1153
  C  C74  1  0.775300  0.073800  0.159700  1.0  0.6961
  C  C75  1  0.708400  0.132400  0.219200  1.0  -0.1482
  C  C76  1  0.547700  0.107600  0.234000  1.0  -0.055
  C  C77  1  0.487300  0.162300  0.288800  1.0  -0.031
  C  C78  1  0.587000  0.241800  0.331200  1.0  -0.1187
  C  C79  1  0.521400  0.297700  0.392400  1.0  0.7061
  C  C80  1  0.747500  0.265100  0.316500  1.0  -0.0325
  C  C81  1  0.867500  0.348900  0.358900  1.0  0.6937
  C  C82  1  0.807200  0.211400  0.260400  1.0  -0.0766
  C  C83  1  0.787600  0.742200  0.861900  1.0  0.1479
  C  C84  1  0.602200  0.724300  0.933100  1.0  0.1132
  N  N85  1  0.690900  0.692400  0.455500  1.0  -0.1911
  N  N86  1  0.808900  0.680400  0.409700  1.0  -0.2219
  N  N87  1  0.657600  0.816700  0.373200  1.0  0.1527
  N  N88  1  0.598000  0.906000  0.333600  1.0  -0.6413
  N  N89  1  0.309100  0.192400  0.044500  1.0  -0.1922
  N  N90  1  0.191100  0.180400  0.090300  1.0  -0.2219
  N  N91  1  0.342400  0.316700  0.126800  1.0  0.1521
  N  N92  1  0.402000  0.406000  0.166400  1.0  -0.6379
  N  N93  1  0.309100  0.307600  0.544500  1.0  -0.1906
  N  N94  1  0.191100  0.319600  0.590300  1.0  -0.2205
  N  N95  1  0.342400  0.183300  0.626800  1.0  0.1514
  N  N96  1  0.402000  0.094000  0.666400  1.0  -0.6342
  N  N97  1  0.690900  0.807600  0.955500  1.0  -0.1898
  N  N98  1  0.808900  0.819600  0.909700  1.0  -0.2205
  N  N99  1  0.657600  0.683300  0.873200  1.0  0.1516
  N  N100  1  0.598000  0.594000  0.833600  1.0  -0.639
  O  O101  1  0.830000  0.503500  0.497600  1.0  -0.8974
  O  O102  1  0.916100  0.393800  0.647700  1.0  -0.5832
  O  O103  1  0.690000  0.501300  0.628600  1.0  -0.5857
  O  O104  1  0.006100  0.177000  0.907100  1.0  -0.6141
  O  O105  1  0.821600  0.060700  0.839300  1.0  -0.5768
  O  O106  1  0.627100  0.160500  0.948800  1.0  -0.6223
  O  O107  1  0.355100  0.203900  0.883800  1.0  -0.5976
  O  O108  1  0.170000  0.003500  0.002400  1.0  -0.8964
  O  O109  1  0.083900  0.893800  0.852300  1.0  -0.5829
  O  O110  1  0.310000  0.001300  0.871400  1.0  -0.5865
  O  O111  1  0.993900  0.677000  0.592900  1.0  -0.6133
  O  O112  1  0.178400  0.560700  0.660700  1.0  -0.5773
  O  O113  1  0.372900  0.660500  0.551200  1.0  -0.6174
  O  O114  1  0.644900  0.703900  0.616200  1.0  -0.5966
  O  O115  1  0.170000  0.496500  0.502400  1.0  -0.8948
  O  O116  1  0.083900  0.606200  0.352300  1.0  -0.5829
  O  O117  1  0.310000  0.498700  0.371400  1.0  -0.5864
  O  O118  1  0.993900  0.823000  0.092900  1.0  -0.6141
  O  O119  1  0.178400  0.939300  0.160700  1.0  -0.5778
  O  O120  1  0.372900  0.839500  0.051200  1.0  -0.618
  O  O121  1  0.644900  0.796100  0.116200  1.0  -0.5966
  O  O122  1  0.830000  0.996500  0.997600  1.0  -0.8956
  O  O123  1  0.916100  0.106200  0.147700  1.0  -0.5833
  O  O124  1  0.690000  0.998700  0.128600  1.0  -0.5857
  O  O125  1  0.006100  0.323000  0.407100  1.0  -0.6149
  O  O126  1  0.821600  0.439300  0.339300  1.0  -0.5765
  O  O127  1  0.627100  0.339500  0.448800  1.0  -0.623
  O  O128  1  0.355100  0.296100  0.383800  1.0  -0.5977
