# generated using pymatgen
data_DyH2C6(NO3)2
_symmetry_space_group_name_H-M   'P 1'
_cell_length_a   8.29830000
_cell_length_b   17.36520000
_cell_length_c   7.83470000
_cell_angle_alpha   90.00000000
_cell_angle_beta   108.51000000
_cell_angle_gamma   90.00000000
_symmetry_Int_Tables_number   1
_chemical_formula_structural   DyH2C6(NO3)2
_chemical_formula_sum   'Dy4 H8 C24 N8 O24'
_cell_volume   1070.58833492
_cell_formula_units_Z   4
loop_
 _symmetry_equiv_pos_site_id
 _symmetry_equiv_pos_as_xyz
  1  'x, y, z'
loop_
 _atom_site_type_symbol
 _atom_site_label
 _atom_site_symmetry_multiplicity
 _atom_site_fract_x
 _atom_site_fract_y
 _atom_site_fract_z
 _atom_site_occupancy
 _atom_site_charge
  Dy  Dy1  1  0.222840  0.477590  0.248400  1.0  2.2292
  Dy  Dy2  1  0.777160  0.977590  0.251600  1.0  2.2312
  Dy  Dy3  1  0.777160  0.522410  0.751600  1.0  2.2312
  Dy  Dy4  1  0.222840  0.022410  0.748400  1.0  2.2287
  H  H5  1  0.426800  0.239700  0.320200  1.0  0.3097
  H  H6  1  0.873000  0.287700  0.664900  1.0  0.1036
  H  H7  1  0.573200  0.739700  0.179800  1.0  0.3081
  H  H8  1  0.127000  0.787700  0.835100  1.0  0.1032
  H  H9  1  0.573200  0.760300  0.679800  1.0  0.3083
  H  H10  1  0.127000  0.712300  0.335100  1.0  0.1031
  H  H11  1  0.426800  0.260300  0.820200  1.0  0.31
  H  H12  1  0.873000  0.212300  0.164900  1.0  0.1039
  C  C13  1  0.561600  0.371600  0.482200  1.0  0.7024
  C  C14  1  0.625600  0.291500  0.488200  1.0  0.057
  C  C15  1  0.781800  0.261300  0.586500  1.0  -0.0812
  C  C16  1  0.774300  0.183800  0.544300  1.0  -0.0098
  C  C17  1  0.899000  0.121200  0.590000  1.0  0.6738
  C  C18  1  0.938200  0.525900  0.428100  1.0  0.4997
  C  C19  1  0.438400  0.871600  0.017800  1.0  0.7031
  C  C20  1  0.374400  0.791500  0.011800  1.0  0.0565
  C  C21  1  0.218200  0.761300  0.913500  1.0  -0.0819
  C  C22  1  0.225700  0.683800  0.955700  1.0  -0.0098
  C  C23  1  0.101000  0.621200  0.910000  1.0  0.6752
  C  C24  1  0.061800  0.025900  0.071900  1.0  0.4991
  C  C25  1  0.438400  0.628400  0.517800  1.0  0.7027
  C  C26  1  0.374400  0.708500  0.511800  1.0  0.0563
  C  C27  1  0.218200  0.738700  0.413500  1.0  -0.0818
  C  C28  1  0.225700  0.816200  0.455700  1.0  -0.0095
  C  C29  1  0.101000  0.878800  0.410000  1.0  0.6749
  C  C30  1  0.061800  0.474100  0.571900  1.0  0.4988
  C  C31  1  0.561600  0.128400  0.982200  1.0  0.7019
  C  C32  1  0.625600  0.208500  0.988200  1.0  0.0567
  C  C33  1  0.781800  0.238700  0.086500  1.0  -0.0816
  C  C34  1  0.774300  0.316200  0.044300  1.0  -0.0098
  C  C35  1  0.899000  0.378800  0.090000  1.0  0.6736
  C  C36  1  0.938200  0.974100  0.928100  1.0  0.499
  N  N37  1  0.529400  0.234800  0.391000  1.0  -0.1275
  N  N38  1  0.618300  0.169800  0.421800  1.0  -0.2637
  N  N39  1  0.470600  0.734800  0.109000  1.0  -0.1269
  N  N40  1  0.381700  0.669800  0.078200  1.0  -0.2658
  N  N41  1  0.470600  0.765200  0.609000  1.0  -0.1277
  N  N42  1  0.381700  0.830200  0.578200  1.0  -0.2668
  N  N43  1  0.529400  0.265200  0.891000  1.0  -0.1285
  N  N44  1  0.618300  0.330200  0.921800  1.0  -0.2654
  O  O45  1  0.411500  0.382200  0.378000  1.0  -0.7711
  O  O46  1  0.654100  0.420900  0.572700  1.0  -0.7069
  O  O47  1  0.026500  0.127200  0.727500  1.0  -0.6097
  O  O48  1  0.872300  0.061700  0.491800  1.0  -0.7889
  O  O49  1  0.983100  0.541800  0.293700  1.0  -0.6067
  O  O50  1  0.803000  0.545800  0.453900  1.0  -0.6074
  O  O51  1  0.588500  0.882200  0.122000  1.0  -0.771
  O  O52  1  0.345900  0.920900  0.927300  1.0  -0.7069
  O  O53  1  0.973500  0.627200  0.772500  1.0  -0.6095
  O  O54  1  0.127700  0.561700  0.008200  1.0  -0.793
  O  O55  1  0.016900  0.041800  0.206300  1.0  -0.6067
  O  O56  1  0.197000  0.045800  0.046100  1.0  -0.6064
  O  O57  1  0.588500  0.617800  0.622000  1.0  -0.7709
  O  O58  1  0.345900  0.579100  0.427300  1.0  -0.7062
  O  O59  1  0.973500  0.872800  0.272500  1.0  -0.6099
  O  O60  1  0.127700  0.938300  0.508200  1.0  -0.7885
  O  O61  1  0.016900  0.458200  0.706300  1.0  -0.6063
  O  O62  1  0.197000  0.454200  0.546100  1.0  -0.6061
  O  O63  1  0.411500  0.117800  0.878000  1.0  -0.7719
  O  O64  1  0.654100  0.079100  0.072700  1.0  -0.7057
  O  O65  1  0.026500  0.372800  0.227500  1.0  -0.6098
  O  O66  1  0.872300  0.438300  0.991800  1.0  -0.7889
  O  O67  1  0.983100  0.958200  0.793700  1.0  -0.6072
  O  O68  1  0.803000  0.954200  0.953900  1.0  -0.6073
