# generated using pymatgen
data_CdH12C21(NO3)3
_symmetry_space_group_name_H-M   'P 1'
_cell_length_a   24.36100000
_cell_length_b   15.38800000
_cell_length_c   11.60900000
_cell_angle_alpha   90.00000000
_cell_angle_beta   118.46000000
_cell_angle_gamma   90.00000000
_symmetry_Int_Tables_number   1
_chemical_formula_structural   CdH12C21(NO3)3
_chemical_formula_sum   'Cd4 H48 C84 N12 O36'
_cell_volume   3825.91299919
_cell_formula_units_Z   4
loop_
 _symmetry_equiv_pos_site_id
 _symmetry_equiv_pos_as_xyz
  1  'x, y, z'
loop_
 _atom_site_type_symbol
 _atom_site_label
 _atom_site_symmetry_multiplicity
 _atom_site_fract_x
 _atom_site_fract_y
 _atom_site_fract_z
 _atom_site_occupancy
 _atom_site_charge
  Cd  Cd1  1  0.091990  0.000000  0.696550  1.0  0.903
  Cd  Cd2  1  0.591990  0.500000  0.696550  1.0  0.903
  Cd  Cd3  1  0.908010  0.000000  0.303450  1.0  0.9022
  Cd  Cd4  1  0.408010  0.500000  0.303450  1.0  0.9022
  H  H5  1  0.842100  0.308700  0.788600  1.0  0.1269
  H  H6  1  0.031600  0.162500  0.822600  1.0  0.4209
  H  H7  1  0.835900  0.165500  0.494300  1.0  0.1349
  H  H8  1  0.947200  0.288200  0.908900  1.0  0.1526
  H  H9  1  0.342100  0.808700  0.788600  1.0  0.1269
  H  H10  1  0.531600  0.662500  0.822600  1.0  0.4209
  H  H11  1  0.335900  0.665500  0.494300  1.0  0.1349
  H  H12  1  0.447200  0.788200  0.908900  1.0  0.1526
  H  H13  1  0.157900  0.308700  0.211400  1.0  0.1266
  H  H14  1  0.968400  0.162500  0.177400  1.0  0.4216
  H  H15  1  0.164100  0.165500  0.505700  1.0  0.1353
  H  H16  1  0.052800  0.288200  0.091100  1.0  0.1528
  H  H17  1  0.657900  0.808700  0.211400  1.0  0.1266
  H  H18  1  0.468400  0.662500  0.177400  1.0  0.4216
  H  H19  1  0.664100  0.665500  0.505700  1.0  0.1353
  H  H20  1  0.552800  0.788200  0.091100  1.0  0.1528
  H  H21  1  0.157900  0.691300  0.211400  1.0  0.1266
  H  H22  1  0.968400  0.837500  0.177400  1.0  0.4219
  H  H23  1  0.164100  0.834500  0.505700  1.0  0.1352
  H  H24  1  0.052800  0.711800  0.091100  1.0  0.1529
  H  H25  1  0.657900  0.191300  0.211400  1.0  0.1266
  H  H26  1  0.468400  0.337500  0.177400  1.0  0.4219
  H  H27  1  0.664100  0.334500  0.505700  1.0  0.1352
  H  H28  1  0.552800  0.211800  0.091100  1.0  0.1529
  H  H29  1  0.842100  0.691300  0.788600  1.0  0.1269
  H  H30  1  0.031600  0.837500  0.822600  1.0  0.4214
  H  H31  1  0.835900  0.834500  0.494300  1.0  0.1345
  H  H32  1  0.947200  0.711800  0.908900  1.0  0.1526
  H  H33  1  0.342100  0.191300  0.788600  1.0  0.1269
  H  H34  1  0.531600  0.337500  0.822600  1.0  0.4214
  H  H35  1  0.335900  0.334500  0.494300  1.0  0.1345
  H  H36  1  0.447200  0.211800  0.908900  1.0  0.1526
  H  H37  1  0.342200  0.000000  0.572600  1.0  0.1688
  H  H38  1  0.441400  0.000000  0.749100  1.0  0.1342
  H  H39  1  0.372700  0.000000  0.000400  1.0  0.1539
  H  H40  1  0.211900  0.000000  0.603000  1.0  0.4263
  H  H41  1  0.842200  0.500000  0.572600  1.0  0.1688
  H  H42  1  0.941400  0.500000  0.749100  1.0  0.1342
  H  H43  1  0.872700  0.500000  0.000400  1.0  0.1539
  H  H44  1  0.711900  0.500000  0.603000  1.0  0.4263
  H  H45  1  0.657800  0.000000  0.427400  1.0  0.1686
  H  H46  1  0.558600  0.000000  0.250900  1.0  0.1348
  H  H47  1  0.627300  0.000000  0.999600  1.0  0.1544
  H  H48  1  0.788100  0.000000  0.397000  1.0  0.426
  H  H49  1  0.157800  0.500000  0.427400  1.0  0.1686
  H  H50  1  0.058600  0.500000  0.250900  1.0  0.1348
  H  H51  1  0.127300  0.500000  0.999600  1.0  0.1544
  H  H52  1  0.288100  0.500000  0.397000  1.0  0.426
  C  C53  1  0.862600  0.275400  0.754000  1.0  -0.0687
  C  C54  1  0.954100  0.204200  0.776100  1.0  0.2142
  C  C55  1  0.827900  0.241400  0.626500  1.0  0.2038
  C  C56  1  0.920500  0.170900  0.650500  1.0  -0.2175
  C  C57  1  0.858200  0.188900  0.577900  1.0  0.014
  C  C58  1  0.951200  0.113900  0.592000  1.0  0.7522
  C  C59  1  0.924500  0.261600  0.827800  1.0  -0.1661
  C  C60  1  0.362600  0.775400  0.754000  1.0  -0.0687
  C  C61  1  0.454100  0.704200  0.776100  1.0  0.2142
  C  C62  1  0.327900  0.741400  0.626500  1.0  0.2038
  C  C63  1  0.420500  0.670900  0.650500  1.0  -0.2175
  C  C64  1  0.358200  0.688900  0.577900  1.0  0.014
  C  C65  1  0.451200  0.613900  0.592000  1.0  0.7522
  C  C66  1  0.424500  0.761600  0.827800  1.0  -0.1661
  C  C67  1  0.137400  0.275400  0.246000  1.0  -0.0704
  C  C68  1  0.045900  0.204200  0.223900  1.0  0.2153
  C  C69  1  0.172100  0.241400  0.373500  1.0  0.204
  C  C70  1  0.079500  0.170900  0.349500  1.0  -0.2153
  C  C71  1  0.141800  0.188900  0.422100  1.0  0.0147
  C  C72  1  0.048800  0.113900  0.408000  1.0  0.7536
  C  C73  1  0.075500  0.261600  0.172200  1.0  -0.1673
  C  C74  1  0.637400  0.775400  0.246000  1.0  -0.0704
  C  C75  1  0.545900  0.704200  0.223900  1.0  0.2153
  C  C76  1  0.672100  0.741400  0.373500  1.0  0.204
  C  C77  1  0.579500  0.670900  0.349500  1.0  -0.2153
  C  C78  1  0.641800  0.688900  0.422100  1.0  0.0147
  C  C79  1  0.548800  0.613900  0.408000  1.0  0.7536
  C  C80  1  0.575500  0.761600  0.172200  1.0  -0.1673
  C  C81  1  0.137400  0.724600  0.246000  1.0  -0.0706
  C  C82  1  0.045900  0.795800  0.223900  1.0  0.2156
  C  C83  1  0.172100  0.758600  0.373500  1.0  0.2043
  C  C84  1  0.079500  0.829100  0.349500  1.0  -0.2153
  C  C85  1  0.141800  0.811100  0.422100  1.0  0.0143
  C  C86  1  0.048800  0.886100  0.408000  1.0  0.7537
  C  C87  1  0.075500  0.738400  0.172200  1.0  -0.168
  C  C88  1  0.637400  0.224600  0.246000  1.0  -0.0706
  C  C89  1  0.545900  0.295800  0.223900  1.0  0.2156
  C  C90  1  0.672100  0.258600  0.373500  1.0  0.2043
  C  C91  1  0.579500  0.329100  0.349500  1.0  -0.2153
  C  C92  1  0.641800  0.311100  0.422100  1.0  0.0143
  C  C93  1  0.548800  0.386100  0.408000  1.0  0.7537
  C  C94  1  0.575500  0.238400  0.172200  1.0  -0.168
  C  C95  1  0.862600  0.724600  0.754000  1.0  -0.0697
  C  C96  1  0.954100  0.795800  0.776100  1.0  0.2145
  C  C97  1  0.827900  0.758600  0.626500  1.0  0.2043
  C  C98  1  0.920500  0.829100  0.650500  1.0  -0.2175
  C  C99  1  0.858200  0.811100  0.577900  1.0  0.0135
  C  C100  1  0.951200  0.886100  0.592000  1.0  0.7524
  C  C101  1  0.924500  0.738400  0.827800  1.0  -0.1672
  C  C102  1  0.362600  0.224600  0.754000  1.0  -0.0697
  C  C103  1  0.454100  0.295800  0.776100  1.0  0.2145
  C  C104  1  0.327900  0.258600  0.626500  1.0  0.2043
  C  C105  1  0.420500  0.329100  0.650500  1.0  -0.2175
  C  C106  1  0.358200  0.311100  0.577900  1.0  0.0135
  C  C107  1  0.451200  0.386100  0.592000  1.0  0.7524
  C  C108  1  0.424500  0.238400  0.827800  1.0  -0.1672
  C  C109  1  0.297000  0.000000  0.683700  1.0  0.3335
  C  C110  1  0.348100  0.000000  0.658000  1.0  -0.1596
  C  C111  1  0.416900  0.000000  0.892000  1.0  0.2406
  C  C112  1  0.407000  0.000000  0.763700  1.0  -0.0108
  C  C113  1  0.252000  0.000000  0.836900  1.0  0.6545
  C  C114  1  0.366500  0.000000  0.914900  1.0  -0.0522
  C  C115  1  0.305300  0.000000  0.809100  1.0  -0.143
  C  C116  1  0.797000  0.500000  0.683700  1.0  0.3335
  C  C117  1  0.848100  0.500000  0.658000  1.0  -0.1596
  C  C118  1  0.916900  0.500000  0.892000  1.0  0.2406
  C  C119  1  0.907000  0.500000  0.763700  1.0  -0.0108
  C  C120  1  0.752000  0.500000  0.836900  1.0  0.6545
  C  C121  1  0.866500  0.500000  0.914900  1.0  -0.0522
  C  C122  1  0.805300  0.500000  0.809100  1.0  -0.143
  C  C123  1  0.703000  0.000000  0.316300  1.0  0.3343
  C  C124  1  0.651900  0.000000  0.342000  1.0  -0.1585
  C  C125  1  0.583100  0.000000  0.108000  1.0  0.2403
  C  C126  1  0.593000  0.000000  0.236300  1.0  -0.0123
  C  C127  1  0.748000  0.000000  0.163100  1.0  0.6535
  C  C128  1  0.633500  0.000000  0.085100  1.0  -0.0466
  C  C129  1  0.694700  0.000000  0.190900  1.0  -0.1471
  C  C130  1  0.203000  0.500000  0.316300  1.0  0.3343
  C  C131  1  0.151900  0.500000  0.342000  1.0  -0.1585
  C  C132  1  0.083100  0.500000  0.108000  1.0  0.2403
  C  C133  1  0.093000  0.500000  0.236300  1.0  -0.0123
  C  C134  1  0.248000  0.500000  0.163100  1.0  0.6535
  C  C135  1  0.133500  0.500000  0.085100  1.0  -0.0466
  C  C136  1  0.194700  0.500000  0.190900  1.0  -0.1471
  N  N137  1  0.763500  0.261700  0.559100  1.0  -0.1769
  N  N138  1  0.263500  0.761700  0.559100  1.0  -0.1769
  N  N139  1  0.236500  0.261700  0.440900  1.0  -0.1761
  N  N140  1  0.736500  0.761700  0.440900  1.0  -0.1761
  N  N141  1  0.236500  0.738300  0.440900  1.0  -0.177
  N  N142  1  0.736500  0.238300  0.440900  1.0  -0.177
  N  N143  1  0.763500  0.738300  0.559100  1.0  -0.1776
  N  N144  1  0.263500  0.238300  0.559100  1.0  -0.1776
  N  N145  1  0.475600  0.000000  0.009900  1.0  -0.2477
  N  N146  1  0.975600  0.500000  0.009900  1.0  -0.2477
  N  N147  1  0.524400  0.000000  0.990100  1.0  -0.2469
  N  N148  1  0.024400  0.500000  0.990100  1.0  -0.2469
  O  O149  1  0.008400  0.092900  0.666500  1.0  -0.633
  O  O150  1  0.016900  0.194300  0.857500  1.0  -0.4733
  O  O151  1  0.919700  0.091200  0.477100  1.0  -0.7239
  O  O152  1  0.508400  0.592900  0.666500  1.0  -0.633
  O  O153  1  0.516900  0.694300  0.857500  1.0  -0.4733
  O  O154  1  0.419700  0.591200  0.477100  1.0  -0.7239
  O  O155  1  0.991600  0.092900  0.333500  1.0  -0.6316
  O  O156  1  0.983100  0.194300  0.142500  1.0  -0.4754
  O  O157  1  0.080300  0.091200  0.522900  1.0  -0.7234
  O  O158  1  0.491600  0.592900  0.333500  1.0  -0.6316
  O  O159  1  0.483100  0.694300  0.142500  1.0  -0.4754
  O  O160  1  0.580300  0.591200  0.522900  1.0  -0.7234
  O  O161  1  0.991600  0.907100  0.333500  1.0  -0.6313
  O  O162  1  0.983100  0.805700  0.142500  1.0  -0.4752
  O  O163  1  0.080300  0.908800  0.522900  1.0  -0.7229
  O  O164  1  0.491600  0.407100  0.333500  1.0  -0.6313
  O  O165  1  0.483100  0.305700  0.142500  1.0  -0.4752
  O  O166  1  0.580300  0.408800  0.522900  1.0  -0.7229
  O  O167  1  0.008400  0.907100  0.666500  1.0  -0.6328
  O  O168  1  0.016900  0.805700  0.857500  1.0  -0.4742
  O  O169  1  0.919700  0.908800  0.477100  1.0  -0.7243
  O  O170  1  0.508400  0.407100  0.666500  1.0  -0.6328
  O  O171  1  0.516900  0.305700  0.857500  1.0  -0.4742
  O  O172  1  0.419700  0.408800  0.477100  1.0  -0.7243
  O  O173  1  0.196100  0.000000  0.729100  1.0  -0.6233
  O  O174  1  0.260500  0.000000  0.947200  1.0  -0.4084
  O  O175  1  0.238000  0.000000  0.577400  1.0  -0.4927
  O  O176  1  0.696100  0.500000  0.729100  1.0  -0.6233
  O  O177  1  0.760500  0.500000  0.947200  1.0  -0.4084
  O  O178  1  0.738000  0.500000  0.577400  1.0  -0.4927
  O  O179  1  0.803900  0.000000  0.270900  1.0  -0.6215
  O  O180  1  0.739500  0.000000  0.052800  1.0  -0.4087
  O  O181  1  0.762000  0.000000  0.422600  1.0  -0.4951
  O  O182  1  0.303900  0.500000  0.270900  1.0  -0.6215
  O  O183  1  0.239500  0.500000  0.052800  1.0  -0.4087
  O  O184  1  0.262000  0.500000  0.422600  1.0  -0.4951
