# generated using pymatgen
data_GdZnH10C20N3O10
_symmetry_space_group_name_H-M   'P 1'
_cell_length_a   10.60200000
_cell_length_b   11.33000000
_cell_length_c   12.44600000
_cell_angle_alpha   86.27000000
_cell_angle_beta   82.02000000
_cell_angle_gamma   89.22000000
_symmetry_Int_Tables_number   1
_chemical_formula_structural   GdZnH10C20N3O10
_chemical_formula_sum   'Gd2 Zn2 H20 C40 N6 O20'
_cell_volume   1477.39269587
_cell_formula_units_Z   2
loop_
 _symmetry_equiv_pos_site_id
 _symmetry_equiv_pos_as_xyz
  1  'x, y, z'
loop_
 _atom_site_type_symbol
 _atom_site_label
 _atom_site_symmetry_multiplicity
 _atom_site_fract_x
 _atom_site_fract_y
 _atom_site_fract_z
 _atom_site_occupancy
 _atom_site_charge
  Gd  Gd1  1  0.427480  0.985980  0.261440  1.0  2.1532
  Gd  Gd2  1  0.572520  0.014020  0.738560  1.0  2.1543
  Zn  Zn3  1  0.631840  0.337700  0.298090  1.0  0.9101
  Zn  Zn4  1  0.368160  0.662300  0.701910  1.0  0.9099
  H  H5  1  0.326400  0.320000  0.319300  1.0  0.0792
  H  H6  1  0.187000  0.616500  0.447500  1.0  0.1088
  H  H7  1  0.154500  0.430900  0.390000  1.0  0.0996
  H  H8  1  0.103100  0.294300  0.182700  1.0  0.1159
  H  H9  1  0.957200  0.029900  0.389500  1.0  0.1059
  H  H10  1  0.761500  0.118200  0.393300  1.0  0.072
  H  H11  1  0.904600  0.377800  0.195900  1.0  0.0682
  H  H12  1  0.705200  0.540500  0.104500  1.0  0.0814
  H  H13  1  0.684400  0.397900  0.823100  1.0  0.0943
  H  H14  1  0.724700  0.559700  0.917400  1.0  0.1039
  H  H15  1  0.673600  0.680000  0.680700  1.0  0.0786
  H  H16  1  0.813000  0.383500  0.552500  1.0  0.1099
  H  H17  1  0.845500  0.569100  0.610000  1.0  0.0993
  H  H18  1  0.896900  0.705700  0.817300  1.0  0.1157
  H  H19  1  0.042800  0.970100  0.610500  1.0  0.1057
  H  H20  1  0.238500  0.881800  0.606700  1.0  0.0724
  H  H21  1  0.095400  0.622200  0.804100  1.0  0.068
  H  H22  1  0.294800  0.459500  0.895500  1.0  0.081
  H  H23  1  0.315600  0.602100  0.176900  1.0  0.0939
  H  H24  1  0.275300  0.440300  0.082600  1.0  0.1037
  C  C25  1  0.478900  0.542900  0.368200  1.0  0.0784
  C  C26  1  0.566300  0.177700  0.137000  1.0  0.629
  C  C27  1  0.399900  0.737000  0.446400  1.0  0.726
  C  C28  1  0.618600  0.580400  0.356100  1.0  0.6171
  C  C29  1  0.378900  0.614700  0.411400  1.0  -0.1116
  C  C30  1  0.618700  0.283800  0.067400  1.0  0.0991
  C  C31  1  0.182500  0.093400  0.279300  1.0  0.6725
  C  C32  1  0.340000  0.394400  0.342900  1.0  0.151
  C  C33  1  0.604600  0.184900  0.889500  1.0  0.689
  C  C34  1  0.256000  0.571100  0.419100  1.0  -0.0326
  C  C35  1  0.053300  0.150500  0.284200  1.0  -0.051
  C  C36  1  0.236500  0.460700  0.384900  1.0  -0.1292
  C  C37  1  0.632400  0.287500  0.954400  1.0  -0.075
  C  C38  1  0.035100  0.256800  0.226400  1.0  -0.1535
  C  C39  1  0.948600  0.100200  0.348200  1.0  -0.1393
  C  C40  1  0.831200  0.154300  0.350800  1.0  0.156
  C  C41  1  0.915100  0.306100  0.234500  1.0  0.1554
  C  C42  1  0.686400  0.476300  0.066700  1.0  0.1568
  C  C43  1  0.673700  0.392100  0.898700  1.0  -0.0425
  C  C44  1  0.699300  0.488200  0.954500  1.0  -0.119
  C  C45  1  0.521100  0.457100  0.631800  1.0  0.078
  C  C46  1  0.433700  0.822300  0.863000  1.0  0.63
  C  C47  1  0.600100  0.263000  0.553600  1.0  0.7232
  C  C48  1  0.381400  0.419600  0.643900  1.0  0.6148
  C  C49  1  0.621100  0.385300  0.588600  1.0  -0.1117
  C  C50  1  0.381300  0.716200  0.932600  1.0  0.0985
  C  C51  1  0.817500  0.906600  0.720700  1.0  0.6694
  C  C52  1  0.660000  0.605600  0.657100  1.0  0.1494
  C  C53  1  0.395400  0.815100  0.110500  1.0  0.6901
  C  C54  1  0.744000  0.428900  0.580900  1.0  -0.0305
  C  C55  1  0.946700  0.849500  0.715800  1.0  -0.0509
  C  C56  1  0.763500  0.539300  0.615100  1.0  -0.1286
  C  C57  1  0.367600  0.712500  0.045600  1.0  -0.0741
  C  C58  1  0.964900  0.743200  0.773600  1.0  -0.1528
  C  C59  1  0.051400  0.899800  0.651800  1.0  -0.1394
  C  C60  1  0.168800  0.845700  0.649200  1.0  0.1563
  C  C61  1  0.084900  0.693900  0.765500  1.0  0.1569
  C  C62  1  0.313600  0.523700  0.933300  1.0  0.1558
  C  C63  1  0.326300  0.607900  0.101300  1.0  -0.0404
  C  C64  1  0.300700  0.511800  0.045500  1.0  -0.119
  N  N65  1  0.459700  0.434600  0.335400  1.0  -0.3102
  N  N66  1  0.813000  0.257000  0.294500  1.0  -0.3456
  N  N67  1  0.647700  0.375400  0.122700  1.0  -0.3157
  N  N68  1  0.540300  0.565400  0.664600  1.0  -0.3112
  N  N69  1  0.187000  0.743000  0.705500  1.0  -0.3469
  N  N70  1  0.352300  0.624600  0.877300  1.0  -0.3195
  O  O71  1  0.534200  0.088800  0.093700  1.0  -0.6274
  O  O72  1  0.553000  0.183900  0.240000  1.0  -0.6602
  O  O73  1  0.197300  0.998800  0.335400  1.0  -0.6221
  O  O74  1  0.275900  0.142000  0.217500  1.0  -0.6317
  O  O75  1  0.417400  0.749100  0.542700  1.0  -0.6316
  O  O76  1  0.700500  0.502600  0.324900  1.0  -0.5891
  O  O77  1  0.694000  0.113400  0.861200  1.0  -0.661
  O  O78  1  0.392000  0.820200  0.376900  1.0  -0.7175
  O  O79  1  0.498000  0.178900  0.858400  1.0  -0.6199
  O  O80  1  0.641600  0.682500  0.376600  1.0  -0.5338
  O  O81  1  0.465800  0.911200  0.906300  1.0  -0.6274
  O  O82  1  0.447000  0.816100  0.760000  1.0  -0.6605
  O  O83  1  0.802700  0.001200  0.664600  1.0  -0.6216
  O  O84  1  0.724100  0.858000  0.782500  1.0  -0.6308
  O  O85  1  0.582600  0.250900  0.457300  1.0  -0.6318
  O  O86  1  0.299500  0.497400  0.675100  1.0  -0.5911
  O  O87  1  0.306000  0.886600  0.138800  1.0  -0.6609
  O  O88  1  0.608000  0.179800  0.623100  1.0  -0.717
  O  O89  1  0.502000  0.821100  0.141600  1.0  -0.621
  O  O90  1  0.358400  0.317500  0.623400  1.0  -0.5315
