# generated using pymatgen
data_LaZnH10C20N3O10
_symmetry_space_group_name_H-M   'P 1'
_cell_length_a   10.45800000
_cell_length_b   12.27400000
_cell_length_c   12.40100000
_cell_angle_alpha   86.14000000
_cell_angle_beta   79.87000000
_cell_angle_gamma   76.58000000
_symmetry_Int_Tables_number   1
_chemical_formula_structural   LaZnH10C20N3O10
_chemical_formula_sum   'La2 Zn2 H20 C40 N6 O20'
_cell_volume   1523.62575079
_cell_formula_units_Z   2
loop_
 _symmetry_equiv_pos_site_id
 _symmetry_equiv_pos_as_xyz
  1  'x, y, z'
loop_
 _atom_site_type_symbol
 _atom_site_label
 _atom_site_symmetry_multiplicity
 _atom_site_fract_x
 _atom_site_fract_y
 _atom_site_fract_z
 _atom_site_occupancy
 _atom_site_charge
  La  La1  1  0.957360  0.125310  0.829070  1.0  2.1766
  La  La2  1  0.042640  0.874690  0.170930  1.0  2.1754
  Zn  Zn3  1  0.186440  0.350290  0.190240  1.0  0.8608
  Zn  Zn4  1  0.813560  0.649710  0.809760  1.0  0.8606
  H  H5  1  0.326600  0.718900  0.977000  1.0  0.1161
  H  H6  1  0.236800  0.532300  0.340900  1.0  0.0807
  H  H7  1  0.322000  0.381700  0.896100  1.0  0.1026
  H  H8  1  0.112600  0.667600  0.785400  1.0  0.0824
  H  H9  1  0.546200  0.625300  0.943800  1.0  0.0757
  H  H10  1  0.314000  0.559200  0.818000  1.0  0.1062
  H  H11  1  0.156500  0.434100  0.652800  1.0  0.0941
  H  H12  1  0.227800  0.561500  0.523000  1.0  0.1236
  H  H13  1  0.408600  0.937000  0.735500  1.0  0.1155
  H  H14  1  0.626600  0.843500  0.713600  1.0  0.0767
  H  H15  1  0.673400  0.281100  0.023000  1.0  0.1166
  H  H16  1  0.763200  0.467700  0.659100  1.0  0.0812
  H  H17  1  0.678000  0.618300  0.103900  1.0  0.103
  H  H18  1  0.887400  0.332400  0.214600  1.0  0.083
  H  H19  1  0.453800  0.374700  0.056200  1.0  0.0754
  H  H20  1  0.686000  0.440800  0.182000  1.0  0.1063
  H  H21  1  0.843500  0.565900  0.347200  1.0  0.0956
  H  H22  1  0.772200  0.438500  0.477000  1.0  0.1235
  H  H23  1  0.591400  0.063000  0.264500  1.0  0.1152
  H  H24  1  0.373400  0.156500  0.286400  1.0  0.0768
  C  C25  1  0.011700  0.449900  0.872700  1.0  0.1307
  C  C26  1  0.127900  0.381900  0.900500  1.0  -0.0881
  C  C27  1  0.877400  0.417400  0.887600  1.0  0.6584
  C  C28  1  0.144000  0.267500  0.958500  1.0  0.7201
  C  C29  1  0.127000  0.321300  0.434000  1.0  0.0783
  C  C30  1  0.089900  0.225300  0.385100  1.0  0.6643
  C  C31  1  0.386200  0.745200  0.922500  1.0  -0.1455
  C  C32  1  0.207300  0.481400  0.392900  1.0  0.1664
  C  C33  1  0.343300  0.840000  0.860600  1.0  -0.0899
  C  C34  1  0.241900  0.424900  0.879500  1.0  -0.0466
  C  C35  1  0.117200  0.594800  0.813200  1.0  0.1387
  C  C36  1  0.117000  0.334400  0.545500  1.0  -0.0742
  C  C37  1  0.200900  0.905800  0.882000  1.0  0.7052
  C  C38  1  0.518600  0.690100  0.902700  1.0  0.1702
  C  C39  1  0.237300  0.531200  0.834100  1.0  -0.096
  C  C40  1  0.158400  0.424500  0.578700  1.0  -0.0315
  C  C41  1  0.202200  0.499600  0.501700  1.0  -0.1677
  C  C42  1  0.066400  0.256900  0.634100  1.0  0.7298
  C  C43  1  0.435000  0.874900  0.780300  1.0  -0.1397
  C  C44  1  0.565400  0.817600  0.766900  1.0  0.1467
  C  C45  1  0.988300  0.550100  0.127300  1.0  0.1313
  C  C46  1  0.872100  0.618100  0.099500  1.0  -0.0861
  C  C47  1  0.122600  0.582600  0.112400  1.0  0.6579
  C  C48  1  0.856000  0.732500  0.041500  1.0  0.7198
  C  C49  1  0.873000  0.678700  0.566000  1.0  0.0772
  C  C50  1  0.910100  0.774700  0.614900  1.0  0.6662
  C  C51  1  0.613800  0.254800  0.077500  1.0  -0.1464
  C  C52  1  0.792700  0.518600  0.607100  1.0  0.1651
  C  C53  1  0.656700  0.160000  0.139400  1.0  -0.0896
  C  C54  1  0.758100  0.575100  0.120500  1.0  -0.0496
  C  C55  1  0.882800  0.405200  0.186800  1.0  0.1407
  C  C56  1  0.883000  0.665600  0.454500  1.0  -0.0739
  C  C57  1  0.799100  0.094200  0.118000  1.0  0.7045
  C  C58  1  0.481400  0.309900  0.097300  1.0  0.1708
  C  C59  1  0.762700  0.468800  0.165900  1.0  -0.0964
  C  C60  1  0.841600  0.575500  0.421300  1.0  -0.0318
  C  C61  1  0.797800  0.500400  0.498300  1.0  -0.1689
  C  C62  1  0.933600  0.743100  0.365900  1.0  0.7286
  C  C63  1  0.565000  0.125100  0.219700  1.0  -0.1396
  C  C64  1  0.434600  0.182400  0.233100  1.0  0.1465
  N  N65  1  0.171800  0.394000  0.358700  1.0  -0.3088
  N  N66  1  0.609200  0.725700  0.826800  1.0  -0.3434
  N  N67  1  0.007100  0.554600  0.831700  1.0  -0.3298
  N  N68  1  0.828200  0.606000  0.641300  1.0  -0.3091
  N  N69  1  0.390800  0.274300  0.173200  1.0  -0.3421
  N  N70  1  0.992900  0.445400  0.168300  1.0  -0.328
  O  O71  1  0.134500  0.901200  0.975600  1.0  -0.8016
  O  O72  1  0.186400  0.260800  0.046800  1.0  -0.662
  O  O73  1  0.039800  0.157900  0.448000  1.0  -0.5094
  O  O74  1  0.946800  0.280800  0.676000  1.0  -0.6333
  O  O75  1  0.147700  0.175800  0.666900  1.0  -0.6459
  O  O76  1  0.778500  0.494700  0.872800  1.0  -0.5876
  O  O77  1  0.112200  0.220900  0.282400  1.0  -0.5878
  O  O78  1  0.126200  0.184800  0.914300  1.0  -0.7251
  O  O79  1  0.157900  0.964500  0.803200  1.0  -0.6813
  O  O80  1  0.872100  0.319100  0.912700  1.0  -0.6167
  O  O81  1  0.865500  0.098800  0.024400  1.0  -0.8019
  O  O82  1  0.813600  0.739200  0.953200  1.0  -0.6687
  O  O83  1  0.960200  0.842100  0.552000  1.0  -0.5136
  O  O84  1  0.053200  0.719200  0.324000  1.0  -0.6351
  O  O85  1  0.852300  0.824200  0.333100  1.0  -0.6454
  O  O86  1  0.221500  0.505300  0.127200  1.0  -0.5894
  O  O87  1  0.887800  0.779100  0.717600  1.0  -0.588
  O  O88  1  0.873800  0.815200  0.085700  1.0  -0.7291
  O  O89  1  0.842100  0.035500  0.196800  1.0  -0.6806
  O  O90  1  0.127900  0.680900  0.087300  1.0  -0.6156
