# generated using pymatgen
data_EuZnH10C20N3O10
_symmetry_space_group_name_H-M   'P 1'
_cell_length_a   10.59000000
_cell_length_b   11.33300000
_cell_length_c   12.46400000
_cell_angle_alpha   86.46000000
_cell_angle_beta   82.19000000
_cell_angle_gamma   89.17000000
_symmetry_Int_Tables_number   1
_chemical_formula_structural   EuZnH10C20N3O10
_chemical_formula_sum   'Eu2 Zn2 H20 C40 N6 O20'
_cell_volume   1479.15378548
_cell_formula_units_Z   2
loop_
 _symmetry_equiv_pos_site_id
 _symmetry_equiv_pos_as_xyz
  1  'x, y, z'
loop_
 _atom_site_type_symbol
 _atom_site_label
 _atom_site_symmetry_multiplicity
 _atom_site_fract_x
 _atom_site_fract_y
 _atom_site_fract_z
 _atom_site_occupancy
 _atom_site_charge
  Eu  Eu1  1  0.071510  0.514750  0.238960  1.0  2.1118
  Eu  Eu2  1  0.928490  0.485250  0.761040  1.0  2.1118
  Zn  Zn3  1  0.132150  0.837270  0.798910  1.0  0.9059
  Zn  Zn4  1  0.867850  0.162730  0.201090  1.0  0.9057
  H  H5  1  0.177500  0.902500  0.325400  1.0  0.0949
  H  H6  1  0.218700  0.062400  0.420000  1.0  0.1076
  H  H7  1  0.203000  0.041000  0.608300  1.0  0.0865
  H  H8  1  0.593600  0.122900  0.304700  1.0  0.0773
  H  H9  1  0.396800  0.208100  0.318000  1.0  0.1106
  H  H10  1  0.542000  0.470500  0.111200  1.0  0.1107
  H  H11  1  0.736800  0.381100  0.105700  1.0  0.0696
  H  H12  1  0.312700  0.883800  0.054200  1.0  0.1128
  H  H13  1  0.345200  0.069900  0.111100  1.0  0.1044
  H  H14  1  0.173200  0.179900  0.183100  1.0  0.0799
  H  H15  1  0.822500  0.097500  0.674600  1.0  0.0946
  H  H16  1  0.781300  0.937600  0.580000  1.0  0.1076
  H  H17  1  0.797000  0.959000  0.391700  1.0  0.0862
  H  H18  1  0.406400  0.877100  0.695300  1.0  0.077
  H  H19  1  0.603200  0.791900  0.682000  1.0  0.1104
  H  H20  1  0.458000  0.529500  0.888800  1.0  0.1106
  H  H21  1  0.263200  0.618900  0.894300  1.0  0.069
  H  H22  1  0.687300  0.116200  0.945800  1.0  0.1118
  H  H23  1  0.654800  0.930100  0.888900  1.0  0.1043
  H  H24  1  0.826800  0.820100  0.816900  1.0  0.0793
  C  C25  1  0.066900  0.678300  0.637300  1.0  0.6284
  C  C26  1  0.117000  0.784700  0.568900  1.0  0.1181
  C  C27  1  0.129600  0.789000  0.456200  1.0  -0.0654
  C  C28  1  0.168800  0.895900  0.400800  1.0  -0.0404
  C  C29  1  0.194500  0.990600  0.456500  1.0  -0.1162
  C  C30  1  0.183800  0.977400  0.569800  1.0  0.1645
  C  C31  1  0.583400  0.194400  0.266100  1.0  0.1563
  C  C32  1  0.464900  0.244700  0.274000  1.0  -0.1515
  C  C33  1  0.446500  0.349700  0.216500  1.0  -0.0786
  C  C34  1  0.550900  0.400100  0.152100  1.0  -0.139
  C  C35  1  0.667400  0.345600  0.148900  1.0  0.157
  C  C36  1  0.317500  0.407000  0.222400  1.0  0.6673
  C  C37  1  0.881200  0.921300  0.142100  1.0  0.6522
  C  C38  1  0.020500  0.958200  0.130600  1.0  0.0931
  C  C39  1  0.121000  0.886200  0.089100  1.0  -0.1242
  C  C40  1  0.099800  0.763700  0.054200  1.0  0.729
  C  C41  1  0.243600  0.929400  0.082100  1.0  -0.028
  C  C42  1  0.263100  0.040000  0.116200  1.0  -0.1191
  C  C43  1  0.159700  0.106100  0.158200  1.0  0.1462
  C  C44  1  0.102800  0.686900  0.390700  1.0  0.6881
  C  C45  1  0.933100  0.321700  0.362700  1.0  0.6284
  C  C46  1  0.883000  0.215300  0.431100  1.0  0.1182
  C  C47  1  0.870400  0.211000  0.543800  1.0  -0.0655
  C  C48  1  0.831200  0.104100  0.599200  1.0  -0.0383
  C  C49  1  0.805500  0.009400  0.543500  1.0  -0.1168
  C  C50  1  0.816200  0.022600  0.430200  1.0  0.1643
  C  C51  1  0.416600  0.805600  0.733900  1.0  0.1548
  C  C52  1  0.535100  0.755300  0.726000  1.0  -0.1519
  C  C53  1  0.553500  0.650300  0.783500  1.0  -0.0789
  C  C54  1  0.449100  0.599900  0.847900  1.0  -0.1382
  C  C55  1  0.332600  0.654400  0.851100  1.0  0.1572
  C  C56  1  0.682500  0.593000  0.777600  1.0  0.6693
  C  C57  1  0.118800  0.078700  0.857900  1.0  0.6548
  C  C58  1  0.979500  0.041800  0.869400  1.0  0.0941
  C  C59  1  0.879000  0.113800  0.910900  1.0  -0.1238
  C  C60  1  0.900200  0.236300  0.945800  1.0  0.7316
  C  C61  1  0.756400  0.070600  0.917900  1.0  -0.0286
  C  C62  1  0.736900  0.960000  0.883800  1.0  -0.1192
  C  C63  1  0.840300  0.893900  0.841800  1.0  0.1479
  C  C64  1  0.897200  0.313100  0.609300  1.0  0.6898
  N  N65  1  0.146900  0.875900  0.623800  1.0  -0.3074
  N  N66  1  0.686500  0.243500  0.205000  1.0  -0.355
  N  N67  1  0.039600  0.066000  0.164000  1.0  -0.3012
  N  N68  1  0.853100  0.124100  0.376200  1.0  -0.3102
  N  N69  1  0.313500  0.756500  0.795000  1.0  -0.3538
  N  N70  1  0.960400  0.934000  0.836000  1.0  -0.299
  O  O71  1  0.996000  0.679600  0.359000  1.0  -0.6065
  O  O72  1  0.034600  0.590000  0.593600  1.0  -0.6176
  O  O73  1  0.053800  0.683800  0.740000  1.0  -0.6716
  O  O74  1  0.224700  0.358800  0.283600  1.0  -0.6788
  O  O75  1  0.302800  0.501800  0.166700  1.0  -0.6584
  O  O76  1  0.798800  0.997600  0.173800  1.0  -0.5848
  O  O77  1  0.858000  0.818800  0.121200  1.0  -0.5377
  O  O78  1  0.106600  0.680600  0.123800  1.0  -0.7189
  O  O79  1  0.083900  0.751000  0.957600  1.0  -0.6341
  O  O80  1  0.192800  0.616800  0.361800  1.0  -0.6385
  O  O81  1  0.004000  0.320400  0.641000  1.0  -0.6088
  O  O82  1  0.965400  0.410000  0.406400  1.0  -0.6193
  O  O83  1  0.946200  0.316200  0.260000  1.0  -0.6731
  O  O84  1  0.775300  0.641200  0.716400  1.0  -0.6804
  O  O85  1  0.697200  0.498200  0.833300  1.0  -0.659
  O  O86  1  0.201200  0.002400  0.826200  1.0  -0.5817
  O  O87  1  0.142000  0.181200  0.878800  1.0  -0.5394
  O  O88  1  0.893400  0.319400  0.876200  1.0  -0.7196
  O  O89  1  0.916100  0.249000  0.042400  1.0  -0.634
  O  O90  1  0.807200  0.383200  0.638200  1.0  -0.6386
