# generated using pymatgen
data_Ag2H12C15N2O3
_symmetry_space_group_name_H-M   'P 1'
_cell_length_a   14.48020000
_cell_length_b   14.48020000
_cell_length_c   8.78840000
_cell_angle_alpha   90.00000000
_cell_angle_beta   90.00000000
_cell_angle_gamma   120.00000000
_symmetry_Int_Tables_number   1
_chemical_formula_structural   Ag2H12C15N2O3
_chemical_formula_sum   'Ag8 H48 C60 N8 O12'
_cell_volume   1595.84081316
_cell_formula_units_Z   4
loop_
 _symmetry_equiv_pos_site_id
 _symmetry_equiv_pos_as_xyz
  1  'x, y, z'
loop_
 _atom_site_type_symbol
 _atom_site_label
 _atom_site_symmetry_multiplicity
 _atom_site_fract_x
 _atom_site_fract_y
 _atom_site_fract_z
 _atom_site_occupancy
 _atom_site_charge
  Ag  Ag1  1  0.895940  0.599220  0.100930  1.0  0.1815
  Ag  Ag2  1  0.400780  0.296720  0.100930  1.0  0.1822
  Ag  Ag3  1  0.703280  0.104060  0.100930  1.0  0.1845
  Ag  Ag4  1  0.104060  0.400780  0.899070  1.0  0.1802
  Ag  Ag5  1  0.599220  0.703280  0.899070  1.0  0.178
  Ag  Ag6  1  0.296720  0.895940  0.899070  1.0  0.1879
  Ag  Ag7  1  0.666667  0.333333  0.681410  1.0  0.3983
  Ag  Ag8  1  0.333333  0.666667  0.318590  1.0  0.3947
  H  H9  1  0.955300  0.697600  0.624600  1.0  0.1223
  H  H10  1  0.002900  0.816900  0.433200  1.0  0.1238
  H  H11  1  0.076200  0.794600  0.207300  1.0  0.1275
  H  H12  1  0.097400  0.649000  0.176400  1.0  0.1125
  H  H13  1  0.506400  0.251600  0.397900  1.0  0.1035
  H  H14  1  0.553900  0.375600  0.398200  1.0  0.0888
  H  H15  1  0.652500  0.422400  0.027700  1.0  0.1038
  H  H16  1  0.643000  0.479300  0.174000  1.0  0.101
  H  H17  1  0.302400  0.257700  0.624600  1.0  0.122
  H  H18  1  0.183100  0.186000  0.433200  1.0  0.1246
  H  H19  1  0.205400  0.281600  0.207300  1.0  0.1282
  H  H20  1  0.351000  0.448400  0.176400  1.0  0.1123
  H  H21  1  0.748400  0.254800  0.397900  1.0  0.104
  H  H22  1  0.624400  0.178300  0.398200  1.0  0.0879
  H  H23  1  0.577600  0.230100  0.027700  1.0  0.104
  H  H24  1  0.520700  0.163700  0.174000  1.0  0.1016
  H  H25  1  0.742300  0.044700  0.624600  1.0  0.1215
  H  H26  1  0.814000  0.997100  0.433200  1.0  0.1243
  H  H27  1  0.718400  0.923800  0.207300  1.0  0.1278
  H  H28  1  0.551600  0.902600  0.176400  1.0  0.1126
  H  H29  1  0.745200  0.493600  0.397900  1.0  0.1012
  H  H30  1  0.821700  0.446100  0.398200  1.0  0.0881
  H  H31  1  0.769900  0.347500  0.027700  1.0  0.1048
  H  H32  1  0.836300  0.357000  0.174000  1.0  0.1034
  H  H33  1  0.044700  0.302400  0.375400  1.0  0.1223
  H  H34  1  0.997100  0.183100  0.566800  1.0  0.1233
  H  H35  1  0.923800  0.205400  0.792700  1.0  0.1268
  H  H36  1  0.902600  0.351000  0.823600  1.0  0.1121
  H  H37  1  0.493600  0.748400  0.602100  1.0  0.1023
  H  H38  1  0.446100  0.624400  0.601800  1.0  0.0889
  H  H39  1  0.347500  0.577600  0.972300  1.0  0.1019
  H  H40  1  0.357000  0.520700  0.826000  1.0  0.1017
  H  H41  1  0.697600  0.742300  0.375400  1.0  0.1216
  H  H42  1  0.816900  0.814000  0.566800  1.0  0.1236
  H  H43  1  0.794600  0.718400  0.792700  1.0  0.1278
  H  H44  1  0.649000  0.551600  0.823600  1.0  0.1121
  H  H45  1  0.251600  0.745200  0.602100  1.0  0.1027
  H  H46  1  0.375600  0.821700  0.601800  1.0  0.0881
  H  H47  1  0.422400  0.769900  0.972300  1.0  0.1022
  H  H48  1  0.479300  0.836300  0.826000  1.0  0.0996
  H  H49  1  0.257700  0.955300  0.375400  1.0  0.1224
  H  H50  1  0.186000  0.002900  0.566800  1.0  0.1242
  H  H51  1  0.281600  0.076200  0.792700  1.0  0.1282
  H  H52  1  0.448400  0.097400  0.823600  1.0  0.1118
  H  H53  1  0.254800  0.506400  0.602100  1.0  0.1029
  H  H54  1  0.178300  0.553900  0.601800  1.0  0.0877
  H  H55  1  0.230100  0.652500  0.972300  1.0  0.1032
  H  H56  1  0.163700  0.643000  0.826000  1.0  0.1012
  C  C57  1  0.911000  0.530600  0.783900  1.0  0.7033
  C  C58  1  0.956900  0.515200  0.636100  1.0  -0.0692
  C  C59  1  0.992300  0.593200  0.522000  1.0  0.0497
  C  C60  1  0.982500  0.686300  0.535200  1.0  -0.1168
  C  C61  1  0.011600  0.757900  0.421900  1.0  -0.1016
  C  C62  1  0.055700  0.744200  0.284600  1.0  -0.1643
  C  C63  1  0.067900  0.656900  0.266100  1.0  -0.1749
  C  C64  1  0.964100  0.422300  0.617000  1.0  -0.0103
  C  C65  1  0.564600  0.318700  0.360700  1.0  0.1131
  C  C66  1  0.652600  0.421300  0.138100  1.0  0.0992
  C  C67  1  0.469400  0.380400  0.783900  1.0  0.7052
  C  C68  1  0.484800  0.441700  0.636100  1.0  -0.0692
  C  C69  1  0.406800  0.399100  0.522000  1.0  0.0499
  C  C70  1  0.313700  0.296200  0.535200  1.0  -0.1184
  C  C71  1  0.242100  0.253700  0.421900  1.0  -0.1023
  C  C72  1  0.255800  0.311500  0.284600  1.0  -0.1673
  C  C73  1  0.343100  0.411000  0.266100  1.0  -0.1738
  C  C74  1  0.577700  0.541800  0.617000  1.0  -0.0098
  C  C75  1  0.681300  0.245900  0.360700  1.0  0.1103
  C  C76  1  0.578700  0.231300  0.138100  1.0  0.0997
  C  C77  1  0.619600  0.089000  0.783900  1.0  0.706
  C  C78  1  0.558300  0.043100  0.636100  1.0  -0.0681
  C  C79  1  0.600900  0.007700  0.522000  1.0  0.0501
  C  C80  1  0.703800  0.017500  0.535200  1.0  -0.115
  C  C81  1  0.746300  0.988400  0.421900  1.0  -0.1027
  C  C82  1  0.688500  0.944300  0.284600  1.0  -0.1706
  C  C83  1  0.589000  0.932100  0.266100  1.0  -0.1699
  C  C84  1  0.458200  0.035900  0.617000  1.0  -0.009
  C  C85  1  0.754100  0.435400  0.360700  1.0  0.1134
  C  C86  1  0.768700  0.347400  0.138100  1.0  0.0976
  C  C87  1  0.089000  0.469400  0.216100  1.0  0.7046
  C  C88  1  0.043100  0.484800  0.363900  1.0  -0.0674
  C  C89  1  0.007700  0.406800  0.478000  1.0  0.0499
  C  C90  1  0.017500  0.313700  0.464800  1.0  -0.1179
  C  C91  1  0.988400  0.242100  0.578100  1.0  -0.1015
  C  C92  1  0.944300  0.255800  0.715400  1.0  -0.1626
  C  C93  1  0.932100  0.343100  0.733900  1.0  -0.1719
  C  C94  1  0.035900  0.577700  0.383000  1.0  -0.0129
  C  C95  1  0.435400  0.681300  0.639300  1.0  0.1134
  C  C96  1  0.347400  0.578700  0.861900  1.0  0.0987
  C  C97  1  0.530600  0.619600  0.216100  1.0  0.7067
  C  C98  1  0.515200  0.558300  0.363900  1.0  -0.0687
  C  C99  1  0.593200  0.600900  0.478000  1.0  0.0497
  C  C100  1  0.686300  0.703800  0.464800  1.0  -0.1159
  C  C101  1  0.757900  0.746300  0.578100  1.0  -0.1017
  C  C102  1  0.744200  0.688500  0.715400  1.0  -0.166
  C  C103  1  0.656900  0.589000  0.733900  1.0  -0.1718
  C  C104  1  0.422300  0.458200  0.383000  1.0  -0.0114
  C  C105  1  0.318700  0.754100  0.639300  1.0  0.1124
  C  C106  1  0.421300  0.768700  0.861900  1.0  0.0993
  C  C107  1  0.380400  0.911000  0.216100  1.0  0.7072
  C  C108  1  0.441700  0.956900  0.363900  1.0  -0.0691
  C  C109  1  0.399100  0.992300  0.478000  1.0  0.049
  C  C110  1  0.296200  0.982500  0.464800  1.0  -0.1135
  C  C111  1  0.253700  0.011600  0.578100  1.0  -0.1044
  C  C112  1  0.311500  0.055700  0.715400  1.0  -0.1706
  C  C113  1  0.411000  0.067900  0.733900  1.0  -0.172
  C  C114  1  0.541800  0.964100  0.383000  1.0  -0.0116
  C  C115  1  0.245900  0.564600  0.639300  1.0  0.1139
  C  C116  1  0.231300  0.652600  0.861900  1.0  0.0974
  N  N117  1  0.562800  0.318600  0.192300  1.0  -0.2399
  N  N118  1  0.681400  0.244200  0.192300  1.0  -0.239
  N  N119  1  0.755800  0.437200  0.192300  1.0  -0.2411
  N  N120  1  0.437200  0.681400  0.807700  1.0  -0.2384
  N  N121  1  0.318600  0.755800  0.807700  1.0  -0.2393
  N  N122  1  0.244200  0.562800  0.807700  1.0  -0.2393
  N  N123  1  0.666667  0.333333  0.420600  1.0  -0.2505
  N  N124  1  0.333333  0.666667  0.579400  1.0  -0.2474
  O  O125  1  0.813300  0.474800  0.809000  1.0  -0.6263
  O  O126  1  0.976600  0.600800  0.873300  1.0  -0.5752
  O  O127  1  0.525200  0.338500  0.809000  1.0  -0.6308
  O  O128  1  0.399200  0.375800  0.873300  1.0  -0.5735
  O  O129  1  0.661500  0.186700  0.809000  1.0  -0.6297
  O  O130  1  0.624200  0.023400  0.873300  1.0  -0.5754
  O  O131  1  0.186700  0.525200  0.191000  1.0  -0.626
  O  O132  1  0.023400  0.399200  0.126700  1.0  -0.5743
  O  O133  1  0.474800  0.661500  0.191000  1.0  -0.6285
  O  O134  1  0.600800  0.624200  0.126700  1.0  -0.5733
  O  O135  1  0.338500  0.813300  0.191000  1.0  -0.63
  O  O136  1  0.375800  0.976600  0.126700  1.0  -0.5744
