# generated using pymatgen
data_CdC3N
_symmetry_space_group_name_H-M   'P 1'
_cell_length_a   15.27800000
_cell_length_b   7.66400000
_cell_length_c   15.55300000
_cell_angle_alpha   90.00000000
_cell_angle_beta   105.41000000
_cell_angle_gamma   90.00000000
_symmetry_Int_Tables_number   1
_chemical_formula_structural   CdC3N
_chemical_formula_sum   'Cd8 C24 N8'
_cell_volume   1755.63932773
_cell_formula_units_Z   8
loop_
 _symmetry_equiv_pos_site_id
 _symmetry_equiv_pos_as_xyz
  1  'x, y, z'
loop_
 _atom_site_type_symbol
 _atom_site_label
 _atom_site_symmetry_multiplicity
 _atom_site_fract_x
 _atom_site_fract_y
 _atom_site_fract_z
 _atom_site_occupancy
 _atom_site_charge
  Cd  Cd1  1  0.319420  0.565990  0.155340  1.0  0.8351
  Cd  Cd2  1  0.819420  0.065990  0.155340  1.0  0.8351
  Cd  Cd3  1  0.680580  0.565990  0.344660  1.0  0.8472
  Cd  Cd4  1  0.180580  0.065990  0.344660  1.0  0.8472
  Cd  Cd5  1  0.680580  0.434010  0.844660  1.0  0.8432
  Cd  Cd6  1  0.180580  0.934010  0.844660  1.0  0.8432
  Cd  Cd7  1  0.319420  0.434010  0.655340  1.0  0.8437
  Cd  Cd8  1  0.819420  0.934010  0.655340  1.0  0.8437
  C  C9  1  0.263800  0.704000  0.029100  1.0  -0.0791
  C  C10  1  0.463100  0.606300  0.227600  1.0  -0.1334
  C  C11  1  0.246600  0.392000  0.227700  1.0  -0.1256
  C  C12  1  0.207800  0.314800  0.265700  1.0  -0.1461
  C  C13  1  0.763800  0.204000  0.029100  1.0  -0.0791
  C  C14  1  0.963100  0.106300  0.227600  1.0  -0.1335
  C  C15  1  0.746600  0.892000  0.227700  1.0  -0.1256
  C  C16  1  0.707800  0.814800  0.265700  1.0  -0.1461
  C  C17  1  0.736200  0.704000  0.470900  1.0  -0.0792
  C  C18  1  0.536900  0.606300  0.272400  1.0  -0.1331
  C  C19  1  0.753400  0.392000  0.272300  1.0  -0.0846
  C  C20  1  0.236200  0.204000  0.470900  1.0  -0.0792
  C  C21  1  0.036900  0.106300  0.272400  1.0  -0.1332
  C  C22  1  0.253400  0.892000  0.272300  1.0  -0.0846
  C  C23  1  0.536900  0.393700  0.772400  1.0  -0.1331
  C  C24  1  0.753400  0.608000  0.772300  1.0  -0.1226
  C  C25  1  0.792200  0.685200  0.734300  1.0  -0.1446
  C  C26  1  0.036900  0.893700  0.772400  1.0  -0.1331
  C  C27  1  0.253400  0.108000  0.772300  1.0  -0.1226
  C  C28  1  0.292200  0.185200  0.734300  1.0  -0.1446
  C  C29  1  0.463100  0.393700  0.727600  1.0  -0.1326
  C  C30  1  0.246600  0.608000  0.727700  1.0  -0.0864
  C  C31  1  0.963100  0.893700  0.727600  1.0  -0.1326
  C  C32  1  0.746600  0.108000  0.727700  1.0  -0.0864
  N  N33  1  0.292200  0.814800  0.234300  1.0  -0.4913
  N  N34  1  0.236200  0.796000  0.970900  1.0  -0.495
  N  N35  1  0.792200  0.314800  0.234300  1.0  -0.4917
  N  N36  1  0.736200  0.296000  0.970900  1.0  -0.495
  N  N37  1  0.763800  0.796000  0.529100  1.0  -0.4948
  N  N38  1  0.263800  0.296000  0.529100  1.0  -0.4948
  N  N39  1  0.707800  0.185200  0.765700  1.0  -0.4876
  N  N40  1  0.207800  0.685200  0.765700  1.0  -0.4876
