# generated using pymatgen
data_ZnH10C16N3O4
_symmetry_space_group_name_H-M   'P 1'
_cell_length_a   7.92730000
_cell_length_b   10.55600000
_cell_length_c   13.15500000
_cell_angle_alpha   107.26000000
_cell_angle_beta   107.06000000
_cell_angle_gamma   90.65000000
_symmetry_Int_Tables_number   1
_chemical_formula_structural   ZnH10C16N3O4
_chemical_formula_sum   'Zn2 H20 C32 N6 O8'
_cell_volume   999.13582990
_cell_formula_units_Z   2
loop_
 _symmetry_equiv_pos_site_id
 _symmetry_equiv_pos_as_xyz
  1  'x, y, z'
loop_
 _atom_site_type_symbol
 _atom_site_label
 _atom_site_symmetry_multiplicity
 _atom_site_fract_x
 _atom_site_fract_y
 _atom_site_fract_z
 _atom_site_occupancy
 _atom_site_charge
  Zn  Zn1  1  0.273830  0.954630  0.701830  1.0  0.9375
  Zn  Zn2  1  0.614270  0.129230  0.822060  1.0  0.9196
  H  H3  1  0.550200  0.158600  0.140600  1.0  0.0822
  H  H4  1  0.566000  0.151800  0.322600  1.0  0.1159
  H  H5  1  0.238100  0.841500  0.176100  1.0  0.083
  H  H6  1  0.219600  0.849400  0.005800  1.0  0.0826
  H  H7  1  0.306700  0.932800  0.381900  1.0  0.1138
  H  H8  1  0.579700  0.140400  0.460900  1.0  0.1321
  H  H9  1  0.240300  0.452100  0.802800  1.0  0.1393
  H  H10  1  0.918100  0.285900  0.728800  1.0  0.1156
  H  H11  1  0.125200  0.627300  0.811500  1.0  0.1379
  H  H12  1  0.950600  0.807600  0.818300  1.0  0.0859
  H  H13  1  0.507000  0.575600  0.690200  1.0  0.1136
  H  H14  1  0.664900  0.396200  0.697200  1.0  0.0898
  H  H15  1  0.712800  0.395300  0.996300  1.0  0.1062
  H  H16  1  0.964300  0.530000  0.124700  1.0  0.1101
  H  H17  1  0.268400  0.246400  0.026200  1.0  0.0981
  H  H18  1  0.017000  0.111600  0.897900  1.0  0.1028
  H  H19  1  0.620600  0.821400  0.507300  1.0  0.0962
  H  H20  1  0.872300  0.944900  0.645100  1.0  0.101
  H  H21  1  0.178900  0.701400  0.499300  1.0  0.1037
  H  H22  1  0.927200  0.578000  0.361500  1.0  0.113
  C  C23  1  0.393000  0.017000  0.943600  1.0  0.6585
  C  C24  1  0.391000  0.006000  0.046800  1.0  0.0132
  C  C25  1  0.482000  0.088000  0.143300  1.0  -0.0991
  C  C26  1  0.492000  0.087000  0.260200  1.0  -0.176
  C  C27  1  0.392000  0.989000  0.274500  1.0  0.145
  C  C28  1  0.307000  0.913200  0.176200  1.0  -0.1245
  C  C29  1  0.296000  0.914900  0.066700  1.0  -0.0854
  C  C30  1  0.388000  0.991000  0.375000  1.0  -0.0417
  C  C31  1  0.502000  0.079000  0.467300  1.0  -0.2318
  C  C32  1  0.501000  0.076000  0.589500  1.0  0.6528
  C  C33  1  0.279000  0.249400  0.779500  1.0  0.6586
  C  C34  1  0.175000  0.369200  0.780000  1.0  -0.202
  C  C35  1  0.988000  0.366000  0.748900  1.0  -0.0898
  C  C36  1  0.909000  0.485000  0.748600  1.0  0.0668
  C  C37  1  0.002000  0.613200  0.787000  1.0  -0.1879
  C  C38  1  0.891000  0.722000  0.785000  1.0  -0.0341
  C  C39  1  0.715000  0.714100  0.741300  1.0  -0.1091
  C  C40  1  0.620000  0.832000  0.747200  1.0  0.6881
  C  C41  1  0.630300  0.588400  0.712700  1.0  -0.0828
  C  C42  1  0.728000  0.479200  0.717200  1.0  -0.1173
  C  C43  1  0.824200  0.365400  0.002300  1.0  0.1538
  C  C44  1  0.974800  0.446100  0.079200  1.0  -0.0866
  C  C45  1  0.141300  0.401500  0.088200  1.0  -0.0058
  C  C46  1  0.157100  0.276200  0.020200  1.0  -0.1166
  C  C47  1  0.006400  0.195500  0.943400  1.0  0.1734
  C  C48  1  0.304800  0.482700  0.171600  1.0  0.3048
  C  C49  1  0.611100  0.631600  0.330700  1.0  0.3343
  C  C50  1  0.749000  0.687400  0.420700  1.0  0.0183
  C  C51  1  0.732500  0.797400  0.505700  1.0  -0.125
  C  C52  1  0.883300  0.871300  0.588300  1.0  0.1604
  C  C53  1  0.067000  0.725500  0.500900  1.0  0.1544
  C  C54  1  0.916200  0.651500  0.418300  1.0  -0.1379
  N  N55  1  0.840000  0.240100  0.934400  1.0  -0.3202
  N  N56  1  0.467300  0.431200  0.181500  1.0  -0.1862
  N  N57  1  0.620500  0.505600  0.261100  1.0  -0.2149
  N  N58  1  0.448600  0.683100  0.320700  1.0  -0.1851
  N  N59  1  0.295400  0.608700  0.241100  1.0  -0.2168
  N  N60  1  0.050600  0.835400  0.585900  1.0  -0.3197
  O  O61  1  0.524000  0.081200  0.940100  1.0  -0.591
  O  O62  1  0.260000  0.950100  0.852600  1.0  -0.5847
  O  O63  1  0.619000  0.137600  0.667700  1.0  -0.5275
  O  O64  1  0.373000  0.994000  0.584100  1.0  -0.6201
  O  O65  1  0.442000  0.273400  0.818500  1.0  -0.5625
  O  O66  1  0.177200  0.135600  0.736000  1.0  -0.5838
  O  O67  1  0.701000  0.946100  0.793300  1.0  -0.5889
  O  O68  1  0.449800  0.817600  0.704700  1.0  -0.6075
