# generated using pymatgen
data_Fe2P3H3(CO8)2
_symmetry_space_group_name_H-M   'P 1'
_cell_length_a   10.82940000
_cell_length_b   12.74650000
_cell_length_c   12.39710000
_cell_angle_alpha   90.00000000
_cell_angle_beta   95.11500000
_cell_angle_gamma   90.00000000
_symmetry_Int_Tables_number   1
_chemical_formula_structural   Fe2P3H3(CO8)2
_chemical_formula_sum   'Fe8 P12 H12 C8 O64'
_cell_volume   1704.44319544
_cell_formula_units_Z   4
loop_
 _symmetry_equiv_pos_site_id
 _symmetry_equiv_pos_as_xyz
  1  'x, y, z'
loop_
 _atom_site_type_symbol
 _atom_site_label
 _atom_site_symmetry_multiplicity
 _atom_site_fract_x
 _atom_site_fract_y
 _atom_site_fract_z
 _atom_site_occupancy
 _atom_site_charge
  Fe  Fe1  1  0.029770  0.879000  0.659180  1.0  1.2339
  Fe  Fe2  1  0.509460  0.875120  0.852210  1.0  1.2271
  Fe  Fe3  1  0.470230  0.379000  0.840820  1.0  1.2325
  Fe  Fe4  1  0.990540  0.375120  0.647790  1.0  1.2304
  Fe  Fe5  1  0.970230  0.121000  0.340820  1.0  1.2331
  Fe  Fe6  1  0.490540  0.124880  0.147790  1.0  1.2301
  Fe  Fe7  1  0.529770  0.621000  0.159180  1.0  1.2339
  Fe  Fe8  1  0.009460  0.624880  0.352210  1.0  1.2277
  P  P9  1  0.565570  0.876580  0.118580  1.0  1.7127
  P  P10  1  0.429270  0.627370  0.892280  1.0  1.8121
  P  P11  1  0.748030  0.839850  0.696910  1.0  1.8324
  P  P12  1  0.934430  0.376580  0.381420  1.0  1.713
  P  P13  1  0.070730  0.127370  0.607720  1.0  1.8123
  P  P14  1  0.751970  0.339850  0.803090  1.0  1.8195
  P  P15  1  0.434430  0.123420  0.881420  1.0  1.713
  P  P16  1  0.570730  0.372630  0.107720  1.0  1.8124
  P  P17  1  0.251970  0.160150  0.303090  1.0  1.8186
  P  P18  1  0.065570  0.623420  0.618580  1.0  1.7127
  P  P19  1  0.929270  0.872630  0.392280  1.0  1.8121
  P  P20  1  0.248030  0.660150  0.196910  1.0  1.8315
  H  H21  1  0.699500  0.889200  0.241400  1.0  0.4043
  H  H22  1  0.252000  0.647900  0.833000  1.0  0.4625
  H  H23  1  0.817600  0.697400  0.661000  1.0  0.5013
  H  H24  1  0.800500  0.389200  0.258600  1.0  0.4054
  H  H25  1  0.248000  0.147900  0.667000  1.0  0.4602
  H  H26  1  0.682400  0.197400  0.839000  1.0  0.5001
  H  H27  1  0.300500  0.110800  0.758600  1.0  0.4059
  H  H28  1  0.748000  0.352100  0.167000  1.0  0.4603
  H  H29  1  0.182400  0.302600  0.339000  1.0  0.5005
  H  H30  1  0.199500  0.610800  0.741400  1.0  0.4049
  H  H31  1  0.752000  0.852100  0.333000  1.0  0.4623
  H  H32  1  0.317600  0.802600  0.161000  1.0  0.5017
  C  C33  1  0.294000  0.874000  0.701900  1.0  0.7147
  C  C34  1  0.244400  0.873400  0.813900  1.0  0.6837
  C  C35  1  0.206000  0.374000  0.798100  1.0  0.7114
  C  C36  1  0.255600  0.373400  0.686100  1.0  0.6853
  C  C37  1  0.706000  0.126000  0.298100  1.0  0.7114
  C  C38  1  0.755600  0.126600  0.186100  1.0  0.6849
  C  C39  1  0.794000  0.626000  0.201900  1.0  0.7148
  C  C40  1  0.744400  0.626600  0.313900  1.0  0.6832
  O  O41  1  0.480600  0.613600  0.008700  1.0  -0.8769
  O  O42  1  0.875800  0.888000  0.730500  1.0  -0.7075
  O  O43  1  0.451700  0.531600  0.823600  1.0  -0.7741
  O  O44  1  0.505900  0.777900  0.160700  1.0  -0.7369
  O  O45  1  0.213700  0.866300  0.622400  1.0  -0.5116
  O  O46  1  0.128400  0.868200  0.814300  1.0  -0.4934
  O  O47  1  0.663100  0.866000  0.782800  1.0  -0.8119
  O  O48  1  0.585300  0.869300  0.999800  1.0  -0.7597
  O  O49  1  0.482800  0.722300  0.840300  1.0  -0.7863
  O  O50  1  0.489500  0.970400  0.148500  1.0  -0.7626
  O  O51  1  0.322400  0.879700  0.894000  1.0  -0.5013
  O  O52  1  0.407500  0.882100  0.698400  1.0  -0.4926
  O  O53  1  0.702200  0.884900  0.175700  1.0  -0.5735
  O  O54  1  0.284200  0.640100  0.894900  1.0  -0.5594
  O  O55  1  0.766900  0.715100  0.702800  1.0  -0.6364
  O  O56  1  0.701900  0.871600  0.584400  1.0  -0.5919
  O  O57  1  0.019400  0.113600  0.491300  1.0  -0.8791
  O  O58  1  0.624200  0.388000  0.769500  1.0  -0.7089
  O  O59  1  0.048300  0.031600  0.676400  1.0  -0.7743
  O  O60  1  0.994100  0.277900  0.339300  1.0  -0.7357
  O  O61  1  0.286300  0.366300  0.877600  1.0  -0.5125
  O  O62  1  0.371600  0.368200  0.685700  1.0  -0.4943
  O  O63  1  0.836900  0.366000  0.717200  1.0  -0.8136
  O  O64  1  0.914700  0.369300  0.500200  1.0  -0.7578
  O  O65  1  0.017200  0.222300  0.659700  1.0  -0.7858
  O  O66  1  0.010500  0.470400  0.351500  1.0  -0.7615
  O  O67  1  0.177600  0.379700  0.606000  1.0  -0.5014
  O  O68  1  0.092500  0.382100  0.801600  1.0  -0.4871
  O  O69  1  0.797800  0.384900  0.324300  1.0  -0.5768
  O  O70  1  0.215800  0.140100  0.605100  1.0  -0.5618
  O  O71  1  0.733100  0.215100  0.797200  1.0  -0.6398
  O  O72  1  0.798100  0.371600  0.915600  1.0  -0.5948
  O  O73  1  0.519400  0.386400  0.991300  1.0  -0.8781
  O  O74  1  0.124200  0.112000  0.269500  1.0  -0.7082
  O  O75  1  0.548300  0.468400  0.176400  1.0  -0.7746
  O  O76  1  0.494100  0.222100  0.839300  1.0  -0.7354
  O  O77  1  0.786300  0.133700  0.377600  1.0  -0.5117
  O  O78  1  0.871600  0.131800  0.185700  1.0  -0.4935
  O  O79  1  0.336900  0.134000  0.217200  1.0  -0.8137
  O  O80  1  0.414700  0.130700  0.000200  1.0  -0.758
  O  O81  1  0.517200  0.277700  0.159700  1.0  -0.7854
  O  O82  1  0.510500  0.029600  0.851500  1.0  -0.7618
  O  O83  1  0.677600  0.120300  0.106000  1.0  -0.5017
  O  O84  1  0.592500  0.117900  0.301600  1.0  -0.487
  O  O85  1  0.297800  0.115100  0.824300  1.0  -0.577
  O  O86  1  0.715800  0.359900  0.105100  1.0  -0.5616
  O  O87  1  0.233100  0.284900  0.297200  1.0  -0.6403
  O  O88  1  0.298100  0.128400  0.415600  1.0  -0.588
  O  O89  1  0.980600  0.886400  0.508700  1.0  -0.8767
  O  O90  1  0.375800  0.612000  0.230500  1.0  -0.7074
  O  O91  1  0.951700  0.968400  0.323600  1.0  -0.7753
  O  O92  1  0.005900  0.722100  0.660700  1.0  -0.7364
  O  O93  1  0.713700  0.633700  0.122400  1.0  -0.5116
  O  O94  1  0.628400  0.631800  0.314300  1.0  -0.4892
  O  O95  1  0.163100  0.634000  0.282800  1.0  -0.8121
  O  O96  1  0.085300  0.630700  0.499800  1.0  -0.7595
  O  O97  1  0.982800  0.777700  0.340300  1.0  -0.7867
  O  O98  1  0.989500  0.529600  0.648500  1.0  -0.7624
  O  O99  1  0.822400  0.620300  0.394000  1.0  -0.5011
  O  O100  1  0.907500  0.617900  0.198400  1.0  -0.4928
  O  O101  1  0.202200  0.615100  0.675700  1.0  -0.5739
  O  O102  1  0.784200  0.859900  0.394900  1.0  -0.5586
  O  O103  1  0.266900  0.784900  0.202800  1.0  -0.6374
  O  O104  1  0.201900  0.628400  0.084400  1.0  -0.5916
