# generated using pymatgen
data_Zn7(PO4)6
_symmetry_space_group_name_H-M   'P 1'
_cell_length_a   16.10480000
_cell_length_b   8.25640000
_cell_length_c   22.99790000
_cell_angle_alpha   90.00000000
_cell_angle_beta   103.99500000
_cell_angle_gamma   90.00000000
_symmetry_Int_Tables_number   1
_chemical_formula_structural   Zn7(PO4)6
_chemical_formula_sum   'Zn28 P24 O96'
_cell_volume   2967.20675053
_cell_formula_units_Z   4
loop_
 _symmetry_equiv_pos_site_id
 _symmetry_equiv_pos_as_xyz
  1  'x, y, z'
loop_
 _atom_site_type_symbol
 _atom_site_label
 _atom_site_symmetry_multiplicity
 _atom_site_fract_x
 _atom_site_fract_y
 _atom_site_fract_z
 _atom_site_occupancy
 _atom_site_charge
  Zn  Zn1  1  0.301500  0.155200  0.426200  1.0  1.047
  Zn  Zn2  1  0.648900  0.349800  0.427300  1.0  1.1085
  Zn  Zn3  1  0.264000  0.382400  0.304500  1.0  1.1082
  Zn  Zn4  1  0.801500  0.655200  0.426200  1.0  1.047
  Zn  Zn5  1  0.148900  0.849800  0.427300  1.0  1.1085
  Zn  Zn6  1  0.764000  0.882400  0.304500  1.0  1.1082
  Zn  Zn7  1  0.698500  0.155200  0.073800  1.0  1.0479
  Zn  Zn8  1  0.351100  0.349800  0.072700  1.0  1.1087
  Zn  Zn9  1  0.736000  0.382400  0.195500  1.0  1.1081
  Zn  Zn10  1  0.198500  0.655200  0.073800  1.0  1.0479
  Zn  Zn11  1  0.851100  0.849800  0.072700  1.0  1.1087
  Zn  Zn12  1  0.236000  0.882400  0.195500  1.0  1.1081
  Zn  Zn13  1  0.698500  0.844800  0.573800  1.0  1.0476
  Zn  Zn14  1  0.351100  0.650200  0.572700  1.0  1.1092
  Zn  Zn15  1  0.736000  0.617600  0.695500  1.0  1.1088
  Zn  Zn16  1  0.198500  0.344800  0.573800  1.0  1.0476
  Zn  Zn17  1  0.851100  0.150200  0.572700  1.0  1.1092
  Zn  Zn18  1  0.236000  0.117600  0.695500  1.0  1.1088
  Zn  Zn19  1  0.301500  0.844800  0.926200  1.0  1.0466
  Zn  Zn20  1  0.648900  0.650200  0.927300  1.0  1.1088
  Zn  Zn21  1  0.264000  0.617600  0.804500  1.0  1.1087
  Zn  Zn22  1  0.801500  0.344800  0.926200  1.0  1.0466
  Zn  Zn23  1  0.148900  0.150200  0.927300  1.0  1.1088
  Zn  Zn24  1  0.764000  0.117600  0.804500  1.0  1.1087
  Zn  Zn25  1  0.500000  0.330000  0.250000  1.0  1.0305
  Zn  Zn26  1  0.000000  0.830000  0.250000  1.0  1.0305
  Zn  Zn27  1  0.500000  0.670000  0.750000  1.0  1.0306
  Zn  Zn28  1  0.000000  0.170000  0.750000  1.0  1.0306
  P  P29  1  0.680900  0.510700  0.310700  1.0  1.7725
  P  P30  1  0.232000  0.490400  0.455900  1.0  1.8252
  P  P31  1  0.448300  0.289100  0.367000  1.0  1.7448
  P  P32  1  0.180900  0.010700  0.310700  1.0  1.7725
  P  P33  1  0.732000  0.990400  0.455900  1.0  1.8252
  P  P34  1  0.948300  0.789100  0.367000  1.0  1.7448
  P  P35  1  0.319100  0.510700  0.189300  1.0  1.7729
  P  P36  1  0.768000  0.490400  0.044100  1.0  1.8282
  P  P37  1  0.551700  0.289100  0.133000  1.0  1.7449
  P  P38  1  0.819100  0.010700  0.189300  1.0  1.7729
  P  P39  1  0.268000  0.990400  0.044100  1.0  1.8282
  P  P40  1  0.051700  0.789100  0.133000  1.0  1.7449
  P  P41  1  0.319100  0.489300  0.689300  1.0  1.7728
  P  P42  1  0.768000  0.509600  0.544100  1.0  1.839
  P  P43  1  0.551700  0.710900  0.633000  1.0  1.7443
  P  P44  1  0.819100  0.989300  0.689300  1.0  1.7728
  P  P45  1  0.268000  0.009600  0.544100  1.0  1.839
  P  P46  1  0.051700  0.210900  0.633000  1.0  1.7443
  P  P47  1  0.680900  0.489300  0.810700  1.0  1.7725
  P  P48  1  0.232000  0.509600  0.955900  1.0  1.8252
  P  P49  1  0.448300  0.710900  0.867000  1.0  1.7434
  P  P50  1  0.180900  0.989300  0.810700  1.0  1.7725
  P  P51  1  0.732000  0.009600  0.955900  1.0  1.8252
  P  P52  1  0.948300  0.210900  0.867000  1.0  1.7434
  O  O53  1  0.243900  0.361200  0.410300  1.0  -0.8579
  O  O54  1  0.171100  0.423500  0.492500  1.0  -0.7267
  O  O55  1  0.409900  0.158500  0.401500  1.0  -0.693
  O  O56  1  0.713500  0.494300  0.381000  1.0  -0.8864
  O  O57  1  0.474800  0.203000  0.315100  1.0  -0.7147
  O  O58  1  0.585100  0.484000  0.294700  1.0  -0.7361
  O  O59  1  0.189200  0.634100  0.418000  1.0  -0.7901
  O  O60  1  0.525500  0.371500  0.409900  1.0  -0.7367
  O  O61  1  0.317900  0.536000  0.496800  1.0  -0.7299
  O  O62  1  0.381400  0.421200  0.343800  1.0  -0.7388
  O  O63  1  0.705600  0.677500  0.292800  1.0  -0.8
  O  O64  1  0.727400  0.379200  0.282800  1.0  -0.7162
  O  O65  1  0.743900  0.861200  0.410300  1.0  -0.8579
  O  O66  1  0.671100  0.923500  0.492500  1.0  -0.7267
  O  O67  1  0.909900  0.658500  0.401500  1.0  -0.693
  O  O68  1  0.213500  0.994300  0.381000  1.0  -0.8864
  O  O69  1  0.974800  0.703000  0.315100  1.0  -0.7147
  O  O70  1  0.085100  0.984000  0.294700  1.0  -0.7361
  O  O71  1  0.689200  0.134100  0.418000  1.0  -0.7901
  O  O72  1  0.025500  0.871500  0.409900  1.0  -0.7367
  O  O73  1  0.817900  0.036000  0.496800  1.0  -0.7299
  O  O74  1  0.881400  0.921200  0.343800  1.0  -0.7388
  O  O75  1  0.205600  0.177500  0.292800  1.0  -0.8
  O  O76  1  0.227400  0.879200  0.282800  1.0  -0.7163
  O  O77  1  0.756100  0.361200  0.089700  1.0  -0.8575
  O  O78  1  0.828900  0.423500  0.007500  1.0  -0.7278
  O  O79  1  0.590100  0.158500  0.098500  1.0  -0.693
  O  O80  1  0.286500  0.494300  0.119000  1.0  -0.8856
  O  O81  1  0.525200  0.203000  0.184900  1.0  -0.7157
  O  O82  1  0.414900  0.484000  0.205300  1.0  -0.7362
  O  O83  1  0.810800  0.634100  0.082000  1.0  -0.7886
  O  O84  1  0.474500  0.371500  0.090100  1.0  -0.7388
  O  O85  1  0.682100  0.536000  0.003200  1.0  -0.728
  O  O86  1  0.618600  0.421200  0.156200  1.0  -0.739
  O  O87  1  0.294400  0.677500  0.207200  1.0  -0.802
  O  O88  1  0.272600  0.379200  0.217200  1.0  -0.7163
  O  O89  1  0.256100  0.861200  0.089700  1.0  -0.8575
  O  O90  1  0.328900  0.923500  0.007500  1.0  -0.7278
  O  O91  1  0.090100  0.658500  0.098500  1.0  -0.693
  O  O92  1  0.786500  0.994300  0.119000  1.0  -0.8856
  O  O93  1  0.025200  0.703000  0.184900  1.0  -0.7157
  O  O94  1  0.914900  0.984000  0.205300  1.0  -0.7362
  O  O95  1  0.310800  0.134100  0.082000  1.0  -0.7886
  O  O96  1  0.974500  0.871500  0.090100  1.0  -0.7388
  O  O97  1  0.182100  0.036000  0.003200  1.0  -0.728
  O  O98  1  0.118600  0.921200  0.156200  1.0  -0.739
  O  O99  1  0.794400  0.177500  0.207200  1.0  -0.802
  O  O100  1  0.772600  0.879200  0.217200  1.0  -0.7166
  O  O101  1  0.756100  0.638800  0.589700  1.0  -0.8573
  O  O102  1  0.828900  0.576500  0.507500  1.0  -0.728
  O  O103  1  0.590100  0.841500  0.598500  1.0  -0.6945
  O  O104  1  0.286500  0.505700  0.619000  1.0  -0.8854
  O  O105  1  0.525200  0.797000  0.684900  1.0  -0.7155
  O  O106  1  0.414900  0.516000  0.705300  1.0  -0.7352
  O  O107  1  0.810800  0.365900  0.582000  1.0  -0.7897
  O  O108  1  0.474500  0.628500  0.590100  1.0  -0.7379
  O  O109  1  0.682100  0.464000  0.503200  1.0  -0.7283
  O  O110  1  0.618600  0.578800  0.656200  1.0  -0.7384
  O  O111  1  0.294400  0.322500  0.707200  1.0  -0.7996
  O  O112  1  0.272600  0.620800  0.717200  1.0  -0.7153
  O  O113  1  0.256100  0.138800  0.589700  1.0  -0.8573
  O  O114  1  0.328900  0.076500  0.507500  1.0  -0.728
  O  O115  1  0.090100  0.341500  0.598500  1.0  -0.6945
  O  O116  1  0.786500  0.005700  0.619000  1.0  -0.8854
  O  O117  1  0.025200  0.297000  0.684900  1.0  -0.7155
  O  O118  1  0.914900  0.016000  0.705300  1.0  -0.7352
  O  O119  1  0.310800  0.865900  0.582000  1.0  -0.7891
  O  O120  1  0.974500  0.128500  0.590100  1.0  -0.7379
  O  O121  1  0.182100  0.964000  0.503200  1.0  -0.7283
  O  O122  1  0.118600  0.078800  0.656200  1.0  -0.7384
  O  O123  1  0.794400  0.822500  0.707200  1.0  -0.7996
  O  O124  1  0.772600  0.120800  0.717200  1.0  -0.7159
  O  O125  1  0.243900  0.638800  0.910300  1.0  -0.8577
  O  O126  1  0.171100  0.576500  0.992500  1.0  -0.7269
  O  O127  1  0.409900  0.841500  0.901500  1.0  -0.6928
  O  O128  1  0.713500  0.505700  0.881000  1.0  -0.8864
  O  O129  1  0.474800  0.797000  0.815100  1.0  -0.7165
  O  O130  1  0.585100  0.516000  0.794700  1.0  -0.735
  O  O131  1  0.189200  0.365900  0.918000  1.0  -0.7906
  O  O132  1  0.525500  0.628500  0.909900  1.0  -0.7374
  O  O133  1  0.317900  0.464000  0.996800  1.0  -0.7298
  O  O134  1  0.381400  0.578800  0.843800  1.0  -0.738
  O  O135  1  0.705600  0.322500  0.792800  1.0  -0.7984
  O  O136  1  0.727400  0.620800  0.782800  1.0  -0.7157
  O  O137  1  0.743900  0.138800  0.910300  1.0  -0.8577
  O  O138  1  0.671100  0.076500  0.992500  1.0  -0.7269
  O  O139  1  0.909900  0.341500  0.901500  1.0  -0.6928
  O  O140  1  0.213500  0.005700  0.881000  1.0  -0.8864
  O  O141  1  0.974800  0.297000  0.815100  1.0  -0.7165
  O  O142  1  0.085100  0.016000  0.794700  1.0  -0.735
  O  O143  1  0.689200  0.865900  0.918000  1.0  -0.7899
  O  O144  1  0.025500  0.128500  0.909900  1.0  -0.7374
  O  O145  1  0.817900  0.964000  0.996800  1.0  -0.7298
  O  O146  1  0.881400  0.078800  0.843800  1.0  -0.738
  O  O147  1  0.205600  0.822500  0.792800  1.0  -0.7984
  O  O148  1  0.227400  0.120800  0.782800  1.0  -0.715
