# generated using pymatgen
data_Mg3H2C10(NO2)4
_symmetry_space_group_name_H-M   'P 1'
_cell_length_a   10.45030000
_cell_length_b   11.43800000
_cell_length_c   16.64570000
_cell_angle_alpha   90.00000000
_cell_angle_beta   90.00000000
_cell_angle_gamma   108.22500000
_symmetry_Int_Tables_number   1
_chemical_formula_structural   Mg3H2C10(NO2)4
_chemical_formula_sum   'Mg12 H8 C40 N16 O32'
_cell_volume   1889.85895430
_cell_formula_units_Z   4
loop_
 _symmetry_equiv_pos_site_id
 _symmetry_equiv_pos_as_xyz
  1  'x, y, z'
loop_
 _atom_site_type_symbol
 _atom_site_label
 _atom_site_symmetry_multiplicity
 _atom_site_fract_x
 _atom_site_fract_y
 _atom_site_fract_z
 _atom_site_occupancy
 _atom_site_charge
  Mg  Mg1  1  0.349220  0.966980  0.540010  1.0  1.6303
  Mg  Mg2  1  0.794120  0.046260  0.762710  1.0  1.4073
  Mg  Mg3  1  0.313410  0.105640  0.919950  1.0  1.6212
  Mg  Mg4  1  0.150780  0.533020  0.040010  1.0  1.6307
  Mg  Mg5  1  0.705880  0.453740  0.262710  1.0  1.408
  Mg  Mg6  1  0.186590  0.394360  0.419950  1.0  1.6223
  Mg  Mg7  1  0.650780  0.033020  0.459990  1.0  1.6302
  Mg  Mg8  1  0.205880  0.953740  0.237290  1.0  1.4079
  Mg  Mg9  1  0.686590  0.894360  0.080050  1.0  1.6227
  Mg  Mg10  1  0.849220  0.466980  0.959990  1.0  1.6303
  Mg  Mg11  1  0.294120  0.546260  0.737290  1.0  1.4074
  Mg  Mg12  1  0.813410  0.605640  0.580050  1.0  1.6235
  H  H13  1  0.178000  0.997500  0.723200  1.0  0.0586
  H  H14  1  0.476000  0.831500  0.824700  1.0  0.0581
  H  H15  1  0.322000  0.502500  0.223200  1.0  0.0585
  H  H16  1  0.024000  0.668500  0.324700  1.0  0.0555
  H  H17  1  0.822000  0.002500  0.276800  1.0  0.0565
  H  H18  1  0.524000  0.168500  0.175300  1.0  0.0543
  H  H19  1  0.678000  0.497500  0.776800  1.0  0.0563
  H  H20  1  0.976000  0.331500  0.675300  1.0  0.0566
  C  C21  1  0.272200  0.018900  0.728210  1.0  0.4603
  C  C22  1  0.479810  0.054980  0.696820  1.0  0.025
  C  C23  1  0.470910  0.080300  0.778010  1.0  0.0441
  C  C24  1  0.592360  0.066020  0.640270  1.0  0.754
  C  C25  1  0.569020  0.120600  0.844280  1.0  0.704
  C  C26  1  0.523810  0.803850  0.784520  1.0  0.3136
  C  C27  1  0.565270  0.693530  0.689760  1.0  -0.0413
  C  C28  1  0.678380  0.795050  0.702360  1.0  -0.0262
  C  C29  1  0.811010  0.844160  0.662550  1.0  0.7066
  C  C30  1  0.527290  0.586800  0.634340  1.0  0.7418
  C  C31  1  0.227800  0.481100  0.228210  1.0  0.4608
  C  C32  1  0.020190  0.445020  0.196820  1.0  0.0243
  C  C33  1  0.029090  0.419700  0.278010  1.0  0.0453
  C  C34  1  0.907640  0.433980  0.140270  1.0  0.7552
  C  C35  1  0.930980  0.379400  0.344280  1.0  0.7029
  C  C36  1  0.976190  0.696150  0.284520  1.0  0.3147
  C  C37  1  0.934730  0.806470  0.189760  1.0  -0.0404
  C  C38  1  0.821620  0.704950  0.202360  1.0  -0.0267
  C  C39  1  0.688990  0.655840  0.162550  1.0  0.7064
  C  C40  1  0.972710  0.913200  0.134340  1.0  0.7402
  C  C41  1  0.727800  0.981100  0.271790  1.0  0.4615
  C  C42  1  0.520190  0.945020  0.303180  1.0  0.0251
  C  C43  1  0.529090  0.919700  0.221990  1.0  0.0446
  C  C44  1  0.407640  0.933980  0.359730  1.0  0.7539
  C  C45  1  0.430980  0.879400  0.155720  1.0  0.7037
  C  C46  1  0.476190  0.196150  0.215480  1.0  0.3148
  C  C47  1  0.434730  0.306470  0.310240  1.0  -0.0399
  C  C48  1  0.321620  0.204950  0.297640  1.0  -0.0264
  C  C49  1  0.188990  0.155840  0.337450  1.0  0.7062
  C  C50  1  0.472710  0.413200  0.365660  1.0  0.7408
  C  C51  1  0.772200  0.518900  0.771790  1.0  0.4617
  C  C52  1  0.979810  0.554980  0.803180  1.0  0.0249
  C  C53  1  0.970910  0.580300  0.721990  1.0  0.0436
  C  C54  1  0.092360  0.566020  0.859730  1.0  0.7544
  C  C55  1  0.069020  0.620600  0.655720  1.0  0.7024
  C  C56  1  0.023810  0.303850  0.715480  1.0  0.3147
  C  C57  1  0.065270  0.193530  0.810240  1.0  -0.0402
  C  C58  1  0.178380  0.295050  0.797640  1.0  -0.026
  C  C59  1  0.311010  0.344160  0.837450  1.0  0.7072
  C  C60  1  0.027290  0.086800  0.865660  1.0  0.7405
  N  N61  1  0.351600  0.015340  0.665850  1.0  -0.7506
  N  N62  1  0.337860  0.057870  0.796980  1.0  -0.624
  N  N63  1  0.649840  0.865070  0.762860  1.0  -0.5768
  N  N64  1  0.468060  0.700590  0.743070  1.0  -0.5361
  N  N65  1  0.148400  0.484660  0.165850  1.0  -0.7394
  N  N66  1  0.162140  0.442130  0.296980  1.0  -0.6268
  N  N67  1  0.850160  0.634930  0.262860  1.0  -0.578
  N  N68  1  0.031940  0.799410  0.243070  1.0  -0.5373
  N  N69  1  0.648400  0.984660  0.334150  1.0  -0.7598
  N  N70  1  0.662140  0.942130  0.203020  1.0  -0.6317
  N  N71  1  0.350160  0.134930  0.237140  1.0  -0.5771
  N  N72  1  0.531940  0.299410  0.256930  1.0  -0.5376
  N  N73  1  0.851600  0.515340  0.834150  1.0  -0.7664
  N  N74  1  0.837860  0.557870  0.703020  1.0  -0.6292
  N  N75  1  0.149840  0.365070  0.737140  1.0  -0.5758
  N  N76  1  0.968060  0.200590  0.756930  1.0  -0.5371
  O  O77  1  0.555950  0.044010  0.566880  1.0  -0.9663
  O  O78  1  0.711460  0.094400  0.661970  1.0  -0.6308
  O  O79  1  0.523430  0.144430  0.910980  1.0  -0.7638
  O  O80  1  0.690730  0.129490  0.834800  1.0  -0.6718
  O  O81  1  0.887540  0.944950  0.689730  1.0  -0.6629
  O  O82  1  0.840570  0.789210  0.603150  1.0  -0.806
  O  O83  1  0.405480  0.519610  0.637780  1.0  -0.6711
  O  O84  1  0.611030  0.563760  0.588030  1.0  -0.7742
  O  O85  1  0.944050  0.455990  0.066880  1.0  -0.9663
  O  O86  1  0.788540  0.405600  0.161970  1.0  -0.63
  O  O87  1  0.976570  0.355570  0.410980  1.0  -0.7639
  O  O88  1  0.809270  0.370510  0.334800  1.0  -0.672
  O  O89  1  0.612460  0.555050  0.189730  1.0  -0.664
  O  O90  1  0.659430  0.710790  0.103150  1.0  -0.8017
  O  O91  1  0.094520  0.980390  0.137780  1.0  -0.6763
  O  O92  1  0.888970  0.936240  0.088030  1.0  -0.7856
  O  O93  1  0.444050  0.955990  0.433120  1.0  -0.9626
  O  O94  1  0.288540  0.905600  0.338030  1.0  -0.6297
  O  O95  1  0.476570  0.855570  0.089020  1.0  -0.7671
  O  O96  1  0.309270  0.870510  0.165200  1.0  -0.6724
  O  O97  1  0.112460  0.055050  0.310270  1.0  -0.6656
  O  O98  1  0.159430  0.210790  0.396850  1.0  -0.8071
  O  O99  1  0.594520  0.480390  0.362220  1.0  -0.6734
  O  O100  1  0.388970  0.436240  0.411970  1.0  -0.7976
  O  O101  1  0.055950  0.544010  0.933120  1.0  -0.9623
  O  O102  1  0.211460  0.594400  0.838030  1.0  -0.6303
  O  O103  1  0.023430  0.644430  0.589020  1.0  -0.7674
  O  O104  1  0.190730  0.629490  0.665200  1.0  -0.672
  O  O105  1  0.387540  0.444950  0.810270  1.0  -0.6647
  O  O106  1  0.340570  0.289210  0.896850  1.0  -0.8079
  O  O107  1  0.905480  0.019610  0.862220  1.0  -0.6675
  O  O108  1  0.111030  0.063760  0.911970  1.0  -0.7907
