# generated using pymatgen
data_Zn4P3O13
_symmetry_space_group_name_H-M   'P 1'
_cell_length_a   7.65690000
_cell_length_b   15.24100000
_cell_length_c   7.65890000
_cell_angle_alpha   90.00000000
_cell_angle_beta   92.74000000
_cell_angle_gamma   90.00000000
_symmetry_Int_Tables_number   1
_chemical_formula_structural   Zn4P3O13
_chemical_formula_sum   'Zn8 P6 O26'
_cell_volume   892.76271451
_cell_formula_units_Z   2
loop_
 _symmetry_equiv_pos_site_id
 _symmetry_equiv_pos_as_xyz
  1  'x, y, z'
loop_
 _atom_site_type_symbol
 _atom_site_label
 _atom_site_symmetry_multiplicity
 _atom_site_fract_x
 _atom_site_fract_y
 _atom_site_fract_z
 _atom_site_occupancy
 _atom_site_charge
  Zn  Zn1  1  0.193400  0.300000  0.906600  1.0  1.1338
  Zn  Zn2  1  0.918500  0.295400  0.210000  1.0  1.1604
  Zn  Zn3  1  0.193200  0.456000  0.192000  1.0  1.145
  Zn  Zn4  1  0.879300  0.435700  0.903100  1.0  1.0743
  Zn  Zn5  1  0.806600  0.800000  0.093400  1.0  1.1344
  Zn  Zn6  1  0.081500  0.795400  0.790000  1.0  1.1586
  Zn  Zn7  1  0.806800  0.956000  0.808000  1.0  1.1444
  Zn  Zn8  1  0.120700  0.935700  0.096900  1.0  1.0751
  P  P9  1  0.077600  0.382600  0.556600  1.0  1.6646
  P  P10  1  0.998400  0.125600  0.988400  1.0  1.7501
  P  P11  1  0.544800  0.362000  0.082800  1.0  1.648
  P  P12  1  0.922400  0.882600  0.443400  1.0  1.6648
  P  P13  1  0.001600  0.625600  0.011600  1.0  1.7498
  P  P14  1  0.455200  0.862000  0.917200  1.0  1.6481
  O  O15  1  0.048000  0.371500  0.055000  1.0  -1.1509
  O  O16  1  0.422000  0.285000  0.033000  1.0  -0.7088
  O  O17  1  0.231000  0.357200  0.686000  1.0  -0.695
  O  O18  1  0.072000  0.189600  0.859000  1.0  -0.7131
  O  O19  1  0.023000  0.301600  0.447000  1.0  -0.709
  O  O20  1  0.674000  0.328900  0.232000  1.0  -0.7095
  O  O21  1  0.931000  0.173000  0.148000  1.0  -0.7006
  O  O22  1  0.133000  0.456700  0.435000  1.0  -0.6922
  O  O23  1  0.845000  0.075100  0.894000  1.0  -0.7244
  O  O24  1  0.441000  0.441100  0.156000  1.0  -0.684
  O  O25  1  0.643000  0.389200  0.923000  1.0  -0.7211
  O  O26  1  0.920000  0.415600  0.654000  1.0  -0.6796
  O  O27  1  0.143000  0.060300  0.047000  1.0  -0.6896
  O  O28  1  0.952000  0.871500  0.945000  1.0  -1.151
  O  O29  1  0.578000  0.785000  0.967000  1.0  -0.709
  O  O30  1  0.769000  0.857200  0.314000  1.0  -0.693
  O  O31  1  0.928000  0.689600  0.141000  1.0  -0.7129
  O  O32  1  0.977000  0.801600  0.553000  1.0  -0.7095
  O  O33  1  0.326000  0.828900  0.768000  1.0  -0.7086
  O  O34  1  0.069000  0.673000  0.852000  1.0  -0.6989
  O  O35  1  0.867000  0.956700  0.565000  1.0  -0.6928
  O  O36  1  0.155000  0.575100  0.106000  1.0  -0.7253
  O  O37  1  0.559000  0.941100  0.844000  1.0  -0.6837
  O  O38  1  0.357000  0.889200  0.077000  1.0  -0.7203
  O  O39  1  0.080000  0.915600  0.346000  1.0  -0.6797
  O  O40  1  0.857000  0.560300  0.953000  1.0  -0.6889
