# generated using pymatgen
data_CuH12C11NO4
_symmetry_space_group_name_H-M   'P 1'
_cell_length_a   9.10750000
_cell_length_b   12.50600000
_cell_length_c   12.50600000
_cell_angle_alpha   113.53200000
_cell_angle_beta   101.39700000
_cell_angle_gamma   78.60310000
_symmetry_Int_Tables_number   1
_chemical_formula_structural   CuH12C11NO4
_chemical_formula_sum   'Cu4 H48 C44 N4 O16'
_cell_volume   1268.98795860
_cell_formula_units_Z   4
loop_
 _symmetry_equiv_pos_site_id
 _symmetry_equiv_pos_as_xyz
  1  'x, y, z'
loop_
 _atom_site_type_symbol
 _atom_site_label
 _atom_site_symmetry_multiplicity
 _atom_site_fract_x
 _atom_site_fract_y
 _atom_site_fract_z
 _atom_site_occupancy
 _atom_site_charge
  Cu  Cu1  1  0.683990  0.773710  0.173710  1.0  0.8092
  Cu  Cu2  1  0.829270  0.760340  0.371280  1.0  0.8003
  Cu  Cu3  1  0.316010  0.173710  0.773710  1.0  0.8089
  Cu  Cu4  1  0.170730  0.371280  0.760340  1.0  0.8003
  H  H5  1  0.440800  0.940100  0.085100  1.0  0.0797
  H  H6  1  0.264900  0.942800  0.928400  1.0  0.1217
  H  H7  1  0.399500  0.601700  0.765500  1.0  0.1159
  H  H8  1  0.580400  0.610000  0.924400  1.0  0.0822
  H  H9  1  0.944400  0.933000  0.614800  1.0  0.0778
  H  H10  1  0.122600  0.944600  0.775800  1.0  0.1212
  H  H11  1  0.234800  0.593000  0.628600  1.0  0.141
  H  H12  1  0.053200  0.593100  0.470700  1.0  0.0891
  H  H13  1  0.481200  0.537900  0.328500  1.0  0.0909
  H  H14  1  0.300800  0.602000  0.141400  1.0  0.0937
  H  H15  1  0.269100  0.501200  0.179000  1.0  0.0784
  H  H16  1  0.509400  0.393700  0.124500  1.0  0.1128
  H  H17  1  0.531200  0.492200  0.079800  1.0  0.125
  H  H18  1  0.374700  0.722200  0.457800  1.0  0.103
  H  H19  1  0.270500  0.746500  0.348700  1.0  0.1057
  H  H20  1  0.244200  0.642400  0.383600  1.0  0.1007
  H  H21  1  0.166900  0.858700  0.202500  1.0  0.0996
  H  H22  1  0.239100  0.034200  0.353000  1.0  0.0813
  H  H23  1  0.204100  0.945000  0.404400  1.0  0.0752
  H  H24  1  0.961500  0.059700  0.441100  1.0  0.1285
  H  H25  1  0.006100  0.151600  0.397400  1.0  0.1177
  H  H26  1  0.125000  0.028500  0.160300  1.0  0.1072
  H  H27  1  0.005700  0.940000  0.081000  1.0  0.1081
  H  H28  1  0.956100  0.054100  0.191100  1.0  0.1023
  H  H29  1  0.559200  0.085100  0.940100  1.0  0.0798
  H  H30  1  0.735100  0.928400  0.942800  1.0  0.1205
  H  H31  1  0.600500  0.765500  0.601700  1.0  0.1155
  H  H32  1  0.419600  0.924400  0.610000  1.0  0.0821
  H  H33  1  0.055600  0.614800  0.933000  1.0  0.0794
  H  H34  1  0.877400  0.775800  0.944600  1.0  0.1213
  H  H35  1  0.765200  0.628600  0.593000  1.0  0.1404
  H  H36  1  0.946800  0.470700  0.593100  1.0  0.0882
  H  H37  1  0.518800  0.328500  0.537900  1.0  0.0898
  H  H38  1  0.699200  0.141400  0.602000  1.0  0.093
  H  H39  1  0.730900  0.179000  0.501200  1.0  0.0775
  H  H40  1  0.490600  0.124500  0.393700  1.0  0.1108
  H  H41  1  0.468800  0.079800  0.492200  1.0  0.1249
  H  H42  1  0.625300  0.457800  0.722200  1.0  0.1047
  H  H43  1  0.729500  0.348700  0.746500  1.0  0.1078
  H  H44  1  0.755800  0.383600  0.642400  1.0  0.1003
  H  H45  1  0.833100  0.202500  0.858700  1.0  0.0999
  H  H46  1  0.760900  0.353000  0.034200  1.0  0.0846
  H  H47  1  0.795900  0.404400  0.945000  1.0  0.0755
  H  H48  1  0.038500  0.441100  0.059700  1.0  0.1284
  H  H49  1  0.993900  0.397400  0.151600  1.0  0.115
  H  H50  1  0.875000  0.160300  0.028500  1.0  0.105
  H  H51  1  0.994300  0.081000  0.940000  1.0  0.1085
  H  H52  1  0.043900  0.191100  0.054100  1.0  0.1014
  C  C53  1  0.434600  0.869300  0.017700  1.0  0.1704
  C  C54  1  0.327600  0.871400  0.925000  1.0  -0.2047
  C  C55  1  0.310700  0.772500  0.828500  1.0  0.0882
  C  C56  1  0.406900  0.674200  0.830600  1.0  -0.1845
  C  C57  1  0.514200  0.679500  0.926300  1.0  0.1654
  C  C58  1  0.003400  0.862300  0.617900  1.0  0.1778
  C  C59  1  0.109400  0.870100  0.715100  1.0  -0.1983
  C  C60  1  0.196500  0.769400  0.723800  1.0  0.086
  C  C61  1  0.175200  0.664500  0.628900  1.0  -0.2028
  C  C62  1  0.066400  0.665400  0.534800  1.0  0.1553
  C  C63  1  0.554400  0.669100  0.297100  1.0  0.6541
  C  C64  1  0.432100  0.600200  0.296800  1.0  -0.0946
  C  C65  1  0.349600  0.540900  0.173500  1.0  -0.0777
  C  C66  1  0.455100  0.451400  0.089600  1.0  -0.3273
  C  C67  1  0.373200  0.387000  0.971200  1.0  0.7236
  C  C68  1  0.320300  0.685500  0.379100  1.0  -0.3175
  C  C69  1  0.959200  0.864100  0.245300  1.0  0.6461
  C  C70  1  0.086300  0.923200  0.238800  1.0  -0.0714
  C  C71  1  0.157400  0.997700  0.361700  1.0  -0.0966
  C  C72  1  0.047200  0.095090  0.436710  1.0  -0.341
  C  C73  1  0.119100  0.161900  0.561500  1.0  0.698
  C  C74  1  0.039200  0.992460  0.161140  1.0  -0.3285
  C  C75  1  0.565400  0.017700  0.869300  1.0  0.1716
  C  C76  1  0.672400  0.925000  0.871400  1.0  -0.2048
  C  C77  1  0.689300  0.828500  0.772500  1.0  0.0884
  C  C78  1  0.593100  0.830600  0.674200  1.0  -0.1847
  C  C79  1  0.485800  0.926300  0.679500  1.0  0.1659
  C  C80  1  0.996600  0.617900  0.862300  1.0  0.1773
  C  C81  1  0.890600  0.715100  0.870100  1.0  -0.1995
  C  C82  1  0.803500  0.723800  0.769400  1.0  0.0859
  C  C83  1  0.824800  0.628900  0.664500  1.0  -0.2033
  C  C84  1  0.933600  0.534800  0.665400  1.0  0.157
  C  C85  1  0.445600  0.297100  0.669100  1.0  0.6556
  C  C86  1  0.567900  0.296800  0.600200  1.0  -0.0953
  C  C87  1  0.650400  0.173500  0.540900  1.0  -0.0784
  C  C88  1  0.544900  0.089600  0.451400  1.0  -0.3285
  C  C89  1  0.626800  0.971200  0.387000  1.0  0.7223
  C  C90  1  0.679700  0.379100  0.685500  1.0  -0.3173
  C  C91  1  0.040800  0.245300  0.864100  1.0  0.6487
  C  C92  1  0.913700  0.238800  0.923200  1.0  -0.0725
  C  C93  1  0.842600  0.361700  0.997700  1.0  -0.0945
  C  C94  1  0.952800  0.436710  0.095090  1.0  -0.3428
  C  C95  1  0.880900  0.561500  0.161900  1.0  0.6971
  C  C96  1  0.960800  0.161140  0.992460  1.0  -0.3297
  N  N97  1  0.529700  0.776400  0.020200  1.0  -0.3151
  N  N98  1  0.978400  0.763300  0.529100  1.0  -0.3175
  N  N99  1  0.470300  0.020200  0.776400  1.0  -0.3153
  N  N100  1  0.021600  0.529100  0.763300  1.0  -0.3144
  O  O101  1  0.534100  0.711010  0.218990  1.0  -0.5629
  O  O102  1  0.668200  0.676540  0.375260  1.0  -0.5648
  O  O103  1  0.393800  0.274540  0.934060  1.0  -0.5907
  O  O104  1  0.291300  0.444060  0.913740  1.0  -0.5673
  O  O105  1  0.856400  0.837760  0.158240  1.0  -0.5615
  O  O106  1  0.968200  0.840830  0.335370  1.0  -0.5669
  O  O107  1  0.215000  0.102690  0.610910  1.0  -0.5676
  O  O108  1  0.076000  0.269610  0.605590  1.0  -0.5712
  O  O109  1  0.465900  0.218990  0.711010  1.0  -0.5635
  O  O110  1  0.331800  0.375260  0.676540  1.0  -0.5644
  O  O111  1  0.606200  0.934060  0.274540  1.0  -0.5921
  O  O112  1  0.708700  0.913740  0.444060  1.0  -0.5685
  O  O113  1  0.143600  0.158240  0.837760  1.0  -0.5602
  O  O114  1  0.031800  0.335370  0.840830  1.0  -0.5678
  O  O115  1  0.785000  0.610910  0.102690  1.0  -0.5676
  O  O116  1  0.924000  0.605590  0.269610  1.0  -0.5714
