# generated using pymatgen
data_CdH2C2O3
_symmetry_space_group_name_H-M   'P 1'
_cell_length_a   8.40850000
_cell_length_b   9.80700000
_cell_length_c   21.01900000
_cell_angle_alpha   90.00000000
_cell_angle_beta   90.00000000
_cell_angle_gamma   90.00000000
_symmetry_Int_Tables_number   1
_chemical_formula_structural   CdH2C2O3
_chemical_formula_sum   'Cd8 H16 C16 O24'
_cell_volume   1733.27213053
_cell_formula_units_Z   8
loop_
 _symmetry_equiv_pos_site_id
 _symmetry_equiv_pos_as_xyz
  1  'x, y, z'
loop_
 _atom_site_type_symbol
 _atom_site_label
 _atom_site_symmetry_multiplicity
 _atom_site_fract_x
 _atom_site_fract_y
 _atom_site_fract_z
 _atom_site_occupancy
 _atom_site_charge
  Cd  Cd1  1  0.004360  0.392500  0.716940  1.0  0.4675
  Cd  Cd2  1  0.193930  0.837490  0.522630  1.0  0.5124
  Cd  Cd3  1  0.495640  0.607500  0.216940  1.0  0.4669
  Cd  Cd4  1  0.306070  0.162510  0.022630  1.0  0.5115
  Cd  Cd5  1  0.995640  0.892500  0.783060  1.0  0.4685
  Cd  Cd6  1  0.806070  0.337490  0.977370  1.0  0.5111
  Cd  Cd7  1  0.504360  0.107500  0.283060  1.0  0.4693
  Cd  Cd8  1  0.693930  0.662510  0.477370  1.0  0.5118
  H  H9  1  0.815000  0.818000  0.686500  1.0  0.3917
  H  H10  1  0.066000  0.094000  0.579000  1.0  0.3886
  H  H11  1  0.717000  0.996500  0.653700  1.0  0.1006
  H  H12  1  0.835600  0.084900  0.562300  1.0  0.1068
  H  H13  1  0.685000  0.182000  0.186500  1.0  0.3887
  H  H14  1  0.434000  0.906000  0.079000  1.0  0.3936
  H  H15  1  0.783000  0.003500  0.153700  1.0  0.0999
  H  H16  1  0.664400  0.915100  0.062300  1.0  0.1059
  H  H17  1  0.185000  0.318000  0.813500  1.0  0.3896
  H  H18  1  0.934000  0.594000  0.921000  1.0  0.3895
  H  H19  1  0.283000  0.496500  0.846300  1.0  0.1005
  H  H20  1  0.164400  0.584900  0.937700  1.0  0.107
  H  H21  1  0.315000  0.682000  0.313500  1.0  0.3916
  H  H22  1  0.566000  0.406000  0.421000  1.0  0.3915
  H  H23  1  0.217000  0.503500  0.346300  1.0  0.1003
  H  H24  1  0.335600  0.415100  0.437700  1.0  0.1062
  C  C25  1  0.901100  0.117000  0.687080  1.0  0.6117
  C  C26  1  0.833400  0.993700  0.651180  1.0  0.0556
  C  C27  1  0.883100  0.003000  0.581130  1.0  0.0588
  C  C28  1  0.825700  0.879100  0.544940  1.0  0.5893
  C  C29  1  0.598900  0.883000  0.187080  1.0  0.6113
  C  C30  1  0.666667  0.006300  0.151180  1.0  0.0555
  C  C31  1  0.616900  0.997000  0.081130  1.0  0.0594
  C  C32  1  0.674300  0.120900  0.044940  1.0  0.5885
  C  C33  1  0.098900  0.617000  0.812920  1.0  0.6115
  C  C34  1  0.166600  0.493700  0.848820  1.0  0.0557
  C  C35  1  0.116900  0.503000  0.918870  1.0  0.0596
  C  C36  1  0.174300  0.379100  0.955060  1.0  0.5888
  C  C37  1  0.401100  0.383000  0.312920  1.0  0.6095
  C  C38  1  0.333400  0.506300  0.348820  1.0  0.0559
  C  C39  1  0.383100  0.497000  0.418870  1.0  0.0585
  C  C40  1  0.325700  0.620900  0.455060  1.0  0.5872
  O  O41  1  0.954000  0.103700  0.742250  1.0  -0.5564
  O  O42  1  0.898300  0.227500  0.657610  1.0  -0.5782
  O  O43  1  0.887200  0.869710  0.678040  1.0  -0.5035
  O  O44  1  0.051000  0.012200  0.576270  1.0  -0.5472
  O  O45  1  0.921300  0.801600  0.517080  1.0  -0.5148
  O  O46  1  0.678400  0.857200  0.543510  1.0  -0.5816
  O  O47  1  0.546000  0.896300  0.242250  1.0  -0.5575
  O  O48  1  0.601700  0.772500  0.157610  1.0  -0.5789
  O  O49  1  0.612800  0.130290  0.178040  1.0  -0.5067
  O  O50  1  0.449000  0.987800  0.076270  1.0  -0.5466
  O  O51  1  0.578700  0.198400  0.017080  1.0  -0.5158
  O  O52  1  0.821600  0.142800  0.043510  1.0  -0.5822
  O  O53  1  0.046000  0.603700  0.757750  1.0  -0.5558
  O  O54  1  0.101700  0.727500  0.842390  1.0  -0.578
  O  O55  1  0.112800  0.369710  0.821960  1.0  -0.5025
  O  O56  1  0.949000  0.512200  0.923730  1.0  -0.547
  O  O57  1  0.078700  0.301600  0.982920  1.0  -0.5135
  O  O58  1  0.321600  0.357200  0.956490  1.0  -0.5834
  O  O59  1  0.454000  0.396300  0.257750  1.0  -0.556
  O  O60  1  0.398300  0.272500  0.342390  1.0  -0.5793
  O  O61  1  0.387200  0.630290  0.321960  1.0  -0.5035
  O  O62  1  0.551000  0.487800  0.423730  1.0  -0.5454
  O  O63  1  0.421300  0.698400  0.482920  1.0  -0.5125
  O  O64  1  0.178400  0.642800  0.456490  1.0  -0.5818
