# generated using pymatgen
data_Mn2Cu3H10C18S3N3O7
_symmetry_space_group_name_H-M   'P 1'
_cell_length_a   12.34840000
_cell_length_b   12.46600000
_cell_length_c   14.09800000
_cell_angle_alpha   97.14800000
_cell_angle_beta   108.38400000
_cell_angle_gamma   119.31500000
_symmetry_Int_Tables_number   1
_chemical_formula_structural   Mn2Cu3H10C18S3N3O7
_chemical_formula_sum   'Mn4 Cu6 H20 C36 S6 N6 O14'
_cell_volume   1690.65352506
_cell_formula_units_Z   2
loop_
 _symmetry_equiv_pos_site_id
 _symmetry_equiv_pos_as_xyz
  1  'x, y, z'
loop_
 _atom_site_type_symbol
 _atom_site_label
 _atom_site_symmetry_multiplicity
 _atom_site_fract_x
 _atom_site_fract_y
 _atom_site_fract_z
 _atom_site_occupancy
 _atom_site_charge
  Mn  Mn1  1  0.110580  0.011120  0.106980  1.0  1.1258
  Mn  Mn2  1  0.253580  0.318320  0.059710  1.0  0.9663
  Mn  Mn3  1  0.889420  0.988880  0.893020  1.0  1.128
  Mn  Mn4  1  0.746420  0.681680  0.940290  1.0  0.9663
  Cu  Cu5  1  0.093160  0.427910  0.585100  1.0  0.2369
  Cu  Cu6  1  0.839130  0.314780  0.411090  1.0  0.2619
  Cu  Cu7  1  0.101480  0.506960  0.408350  1.0  0.2367
  Cu  Cu8  1  0.906840  0.572090  0.414900  1.0  0.238
  Cu  Cu9  1  0.160870  0.685220  0.588910  1.0  0.2638
  Cu  Cu10  1  0.898520  0.493040  0.591650  1.0  0.2364
  H  H11  1  0.102700  0.001900  0.392000  1.0  0.0899
  H  H12  1  0.204000  0.094600  0.576700  1.0  0.1077
  H  H13  1  0.196900  0.265100  0.649900  1.0  0.0699
  H  H14  1  0.615500  0.035400  0.339400  1.0  0.0704
  H  H15  1  0.516300  0.871100  0.405100  1.0  0.1146
  H  H16  1  0.604700  0.916600  0.587800  1.0  0.0919
  H  H17  1  0.676300  0.707200  0.580800  1.0  0.086
  H  H18  1  0.542700  0.621400  0.397600  1.0  0.1158
  H  H19  1  0.312600  0.542200  0.333600  1.0  0.061
  H  H20  1  0.133000  0.098000  0.956000  1.0  0.4289
  H  H21  1  0.897300  0.998100  0.608000  1.0  0.0902
  H  H22  1  0.796000  0.905400  0.423300  1.0  0.1075
  H  H23  1  0.803100  0.734900  0.350100  1.0  0.0708
  H  H24  1  0.384500  0.964600  0.660600  1.0  0.0708
  H  H25  1  0.483700  0.128900  0.594900  1.0  0.1137
  H  H26  1  0.395300  0.083400  0.412200  1.0  0.0913
  H  H27  1  0.323700  0.292800  0.419200  1.0  0.0854
  H  H28  1  0.457300  0.378600  0.602400  1.0  0.1156
  H  H29  1  0.687400  0.457800  0.666400  1.0  0.0612
  H  H30  1  0.867000  0.902000  0.044000  1.0  0.43
  C  C31  1  0.038700  0.224400  0.410200  1.0  0.1429
  C  C32  1  0.040600  0.121500  0.360900  1.0  -0.0824
  C  C33  1  0.101700  0.071400  0.423200  1.0  -0.0511
  C  C34  1  0.161600  0.126200  0.533200  1.0  -0.1449
  C  C35  1  0.156700  0.228400  0.576400  1.0  0.1314
  C  C36  1  0.986500  0.072800  0.242200  1.0  0.6984
  C  C37  1  0.650100  0.053600  0.412500  1.0  0.1293
  C  C38  1  0.590400  0.954500  0.451000  1.0  -0.1591
  C  C39  1  0.643000  0.982000  0.559800  1.0  -0.0352
  C  C40  1  0.752400  0.106500  0.626600  1.0  -0.0675
  C  C41  1  0.807700  0.203100  0.581500  1.0  0.1018
  C  C42  1  0.813800  0.136700  0.745300  1.0  0.6747
  C  C43  1  0.382000  0.624500  0.576500  1.0  0.204
  C  C44  1  0.522800  0.675800  0.620700  1.0  -0.0688
  C  C45  1  0.582800  0.674200  0.553100  1.0  -0.0516
  C  C46  1  0.503700  0.623400  0.444000  1.0  -0.19
  C  C47  1  0.366100  0.576000  0.406600  1.0  0.1254
  C  C48  1  0.610600  0.733400  0.739700  1.0  0.7066
  C  C49  1  0.961300  0.775600  0.589800  1.0  0.1426
  C  C50  1  0.959400  0.878500  0.639100  1.0  -0.0822
  C  C51  1  0.898300  0.928600  0.576800  1.0  -0.0509
  C  C52  1  0.838400  0.873800  0.466800  1.0  -0.1475
  C  C53  1  0.843300  0.771600  0.423600  1.0  0.1333
  C  C54  1  0.013500  0.927200  0.757800  1.0  0.6967
  C  C55  1  0.349900  0.946400  0.587500  1.0  0.1255
  C  C56  1  0.409600  0.045500  0.549000  1.0  -0.1559
  C  C57  1  0.357000  0.018000  0.440200  1.0  -0.0359
  C  C58  1  0.247600  0.893500  0.373400  1.0  -0.0702
  C  C59  1  0.192300  0.796900  0.418500  1.0  0.1028
  C  C60  1  0.186200  0.863300  0.254700  1.0  0.676
  C  C61  1  0.618000  0.375500  0.423500  1.0  0.2036
  C  C62  1  0.477200  0.324200  0.379300  1.0  -0.0692
  C  C63  1  0.417200  0.325800  0.446900  1.0  -0.0506
  C  C64  1  0.496300  0.376600  0.556000  1.0  -0.1895
  C  C65  1  0.633900  0.424000  0.593400  1.0  0.1222
  C  C66  1  0.389400  0.266600  0.260300  1.0  0.7039
  S  S67  1  0.960850  0.289920  0.332290  1.0  -0.2208
  S  S68  1  0.949510  0.363720  0.663470  1.0  -0.2186
  S  S69  1  0.299380  0.621580  0.659590  1.0  -0.2122
  S  S70  1  0.039150  0.710080  0.667710  1.0  -0.2211
  S  S71  1  0.050490  0.636280  0.336530  1.0  -0.2168
  S  S72  1  0.700620  0.378420  0.340410  1.0  -0.2114
  N  N73  1  0.096700  0.276900  0.516900  1.0  -0.3173
  N  N74  1  0.756200  0.175200  0.476100  1.0  -0.3141
  N  N75  1  0.304800  0.576000  0.470700  1.0  -0.3346
  N  N76  1  0.903300  0.723100  0.483100  1.0  -0.3162
  N  N77  1  0.243800  0.824800  0.523900  1.0  -0.3134
  N  N78  1  0.695200  0.424000  0.529300  1.0  -0.3338
  O  O79  1  0.075800  0.126900  0.206930  1.0  -0.6131
  O  O80  1  0.862500  0.984200  0.186590  1.0  -0.5014
  O  O81  1  0.897000  0.104100  0.781200  1.0  -0.6589
  O  O82  1  0.780100  0.189500  0.799900  1.0  -0.5298
  O  O83  1  0.619800  0.656200  0.784200  1.0  -0.6415
  O  O84  1  0.668300  0.853500  0.783340  1.0  -0.6453
  O  O85  1  0.113100  0.112600  0.994590  1.0  -0.9238
  O  O86  1  0.924200  0.873100  0.793070  1.0  -0.6117
  O  O87  1  0.137500  0.015800  0.813410  1.0  -0.5022
  O  O88  1  0.103000  0.895900  0.218800  1.0  -0.6586
  O  O89  1  0.219900  0.810500  0.200100  1.0  -0.5277
  O  O90  1  0.380200  0.343800  0.215800  1.0  -0.6369
  O  O91  1  0.331700  0.146500  0.216660  1.0  -0.6437
  O  O92  1  0.886900  0.887400  0.005410  1.0  -0.9264
