# generated using pymatgen
data_KCu2H27C38N6O5
_symmetry_space_group_name_H-M   'P 1'
_cell_length_a   8.49100000
_cell_length_b   19.91500000
_cell_length_c   22.07700000
_cell_angle_alpha   90.00000000
_cell_angle_beta   90.00000000
_cell_angle_gamma   90.00000000
_symmetry_Int_Tables_number   1
_chemical_formula_structural   KCu2H27C38N6O5
_chemical_formula_sum   'K4 Cu8 H108 C152 N24 O20'
_cell_volume   3733.18239641
_cell_formula_units_Z   4
loop_
 _symmetry_equiv_pos_site_id
 _symmetry_equiv_pos_as_xyz
  1  'x, y, z'
loop_
 _atom_site_type_symbol
 _atom_site_label
 _atom_site_symmetry_multiplicity
 _atom_site_fract_x
 _atom_site_fract_y
 _atom_site_fract_z
 _atom_site_occupancy
 _atom_site_charge
  K  K1  1  0.148300  0.006100  0.651200  1.0  0.9507
  K  K2  1  0.351700  0.993900  0.151200  1.0  0.9521
  K  K3  1  0.851700  0.506100  0.848800  1.0  0.9522
  K  K4  1  0.648300  0.493900  0.348800  1.0  0.9506
  Cu  Cu5  1  0.001600  0.072600  0.406720  1.0  0.8426
  Cu  Cu6  1  0.694800  0.169000  0.364000  1.0  0.7992
  Cu  Cu7  1  0.498400  0.927400  0.906720  1.0  0.8397
  Cu  Cu8  1  0.805200  0.831000  0.864000  1.0  0.7987
  Cu  Cu9  1  0.998400  0.572600  0.093280  1.0  0.839
  Cu  Cu10  1  0.305200  0.669000  0.136000  1.0  0.7985
  Cu  Cu11  1  0.501600  0.427400  0.593280  1.0  0.8436
  Cu  Cu12  1  0.194800  0.331000  0.636000  1.0  0.7999
  H  H13  1  0.844790  0.162380  0.460650  1.0  0.2907
  H  H14  1  0.831960  0.948590  0.550580  1.0  0.1111
  H  H15  1  0.647870  0.972640  0.629700  1.0  0.0944
  H  H16  1  0.647280  0.082520  0.669640  1.0  0.0896
  H  H17  1  0.771260  0.170400  0.619870  1.0  0.1029
  H  H18  1  0.946290  0.146760  0.540560  1.0  0.1239
  H  H19  1  0.332710  0.880460  0.463870  1.0  0.119
  H  H20  1  0.408400  0.856310  0.364150  1.0  0.0966
  H  H21  1  0.321980  0.924690  0.280090  1.0  0.0955
  H  H22  1  0.915560  0.094370  0.208490  1.0  0.0797
  H  H23  1  0.837080  0.181280  0.148340  1.0  0.1022
  H  H24  1  0.866510  0.292270  0.188480  1.0  0.0981
  H  H25  1  0.962920  0.309990  0.285880  1.0  0.1055
  H  H26  1  0.057680  0.217490  0.343650  1.0  0.0855
  H  H27  1  0.355550  0.147180  0.185350  1.0  0.1041
  H  H28  1  0.311970  0.261920  0.173620  1.0  0.1074
  H  H29  1  0.432340  0.340400  0.239740  1.0  0.0955
  H  H30  1  0.777230  0.985390  0.257150  1.0  0.096
  H  H31  1  0.871160  0.882690  0.290850  1.0  0.1028
  H  H32  1  0.846010  0.849830  0.394150  1.0  0.1127
  H  H33  1  0.715510  0.912380  0.461700  1.0  0.1068
  H  H34  1  0.647670  0.025300  0.433620  1.0  0.0965
  H  H35  1  0.653310  0.236200  0.496160  1.0  0.1047
  H  H36  1  0.761840  0.288920  0.585370  1.0  0.101
  H  H37  1  0.916370  0.382880  0.575250  1.0  0.1
  H  H38  1  0.987260  0.421110  0.483640  1.0  0.0788
  H  H39  1  0.891910  0.371110  0.392100  1.0  0.0976
  H  H40  1  0.655210  0.837620  0.960650  1.0  0.2911
  H  H41  1  0.668040  0.051410  0.050580  1.0  0.1093
  H  H42  1  0.852130  0.027360  0.129700  1.0  0.0923
  H  H43  1  0.852720  0.917480  0.169640  1.0  0.0895
  H  H44  1  0.728740  0.829600  0.119870  1.0  0.1027
  H  H45  1  0.553710  0.853240  0.040560  1.0  0.1247
  H  H46  1  0.167290  0.119540  0.963870  1.0  0.1201
  H  H47  1  0.091600  0.143690  0.864150  1.0  0.0963
  H  H48  1  0.178020  0.075310  0.780090  1.0  0.0955
  H  H49  1  0.584440  0.905630  0.708490  1.0  0.0798
  H  H50  1  0.662920  0.818720  0.648340  1.0  0.1022
  H  H51  1  0.633490  0.707730  0.688480  1.0  0.098
  H  H52  1  0.537080  0.690010  0.785880  1.0  0.1056
  H  H53  1  0.442320  0.782510  0.843650  1.0  0.0856
  H  H54  1  0.144450  0.852820  0.685350  1.0  0.1041
  H  H55  1  0.188030  0.738080  0.673620  1.0  0.1077
  H  H56  1  0.067660  0.659600  0.739740  1.0  0.0957
  H  H57  1  0.722770  0.014610  0.757150  1.0  0.0962
  H  H58  1  0.628840  0.117310  0.790850  1.0  0.1032
  H  H59  1  0.653990  0.150170  0.894150  1.0  0.113
  H  H60  1  0.784490  0.087620  0.961700  1.0  0.1084
  H  H61  1  0.852330  0.974700  0.933620  1.0  0.0972
  H  H62  1  0.846690  0.763800  0.996160  1.0  0.1041
  H  H63  1  0.738160  0.711080  0.085370  1.0  0.1008
  H  H64  1  0.583630  0.617120  0.075250  1.0  0.1
  H  H65  1  0.512740  0.578890  0.983640  1.0  0.0784
  H  H66  1  0.608090  0.628890  0.892100  1.0  0.0975
  H  H67  1  0.155210  0.662380  0.039350  1.0  0.2907
  H  H68  1  0.168040  0.448590  0.949420  1.0  0.1117
  H  H69  1  0.352130  0.472640  0.870300  1.0  0.0951
  H  H70  1  0.352720  0.582520  0.830360  1.0  0.0884
  H  H71  1  0.228740  0.670400  0.880130  1.0  0.1029
  H  H72  1  0.053710  0.646760  0.959440  1.0  0.1247
  H  H73  1  0.667290  0.380460  0.036130  1.0  0.1187
  H  H74  1  0.591600  0.356310  0.135850  1.0  0.098
  H  H75  1  0.678020  0.424690  0.219910  1.0  0.094
  H  H76  1  0.084440  0.594370  0.291510  1.0  0.0807
  H  H77  1  0.162920  0.681280  0.351660  1.0  0.1005
  H  H78  1  0.133490  0.792270  0.311520  1.0  0.0981
  H  H79  1  0.037080  0.809990  0.214120  1.0  0.1055
  H  H80  1  0.942320  0.717490  0.156350  1.0  0.085
  H  H81  1  0.644450  0.647180  0.314650  1.0  0.1046
  H  H82  1  0.688030  0.761920  0.326380  1.0  0.1082
  H  H83  1  0.567660  0.840400  0.260260  1.0  0.096
  H  H84  1  0.222770  0.485390  0.242850  1.0  0.0956
  H  H85  1  0.128840  0.382690  0.209150  1.0  0.103
  H  H86  1  0.153990  0.349830  0.105850  1.0  0.113
  H  H87  1  0.284490  0.412380  0.038300  1.0  0.1061
  H  H88  1  0.352330  0.525300  0.066380  1.0  0.0966
  H  H89  1  0.346690  0.736200  0.003840  1.0  0.1044
  H  H90  1  0.238160  0.788920  0.914630  1.0  0.101
  H  H91  1  0.083630  0.882880  0.924750  1.0  0.0991
  H  H92  1  0.012740  0.921110  0.016360  1.0  0.0791
  H  H93  1  0.108090  0.871110  0.107900  1.0  0.0991
  H  H94  1  0.344790  0.337620  0.539350  1.0  0.2912
  H  H95  1  0.331960  0.551410  0.449420  1.0  0.1088
  H  H96  1  0.147870  0.527360  0.370300  1.0  0.0925
  H  H97  1  0.147280  0.417480  0.330360  1.0  0.0887
  H  H98  1  0.271260  0.329600  0.380130  1.0  0.1019
  H  H99  1  0.446290  0.353240  0.459440  1.0  0.1251
  H  H100  1  0.832710  0.619540  0.536130  1.0  0.1195
  H  H101  1  0.908400  0.643690  0.635850  1.0  0.0975
  H  H102  1  0.821980  0.575310  0.719910  1.0  0.0946
  H  H103  1  0.415560  0.405630  0.791510  1.0  0.0807
  H  H104  1  0.337080  0.318720  0.851660  1.0  0.1001
  H  H105  1  0.366510  0.207730  0.811520  1.0  0.099
  H  H106  1  0.462920  0.190010  0.714120  1.0  0.1058
  H  H107  1  0.557680  0.282510  0.656350  1.0  0.085
  H  H108  1  0.855550  0.352820  0.814650  1.0  0.105
  H  H109  1  0.811970  0.238080  0.826380  1.0  0.1072
  H  H110  1  0.932340  0.159600  0.760260  1.0  0.0958
  H  H111  1  0.277230  0.514610  0.742850  1.0  0.0954
  H  H112  1  0.371160  0.617310  0.709150  1.0  0.1031
  H  H113  1  0.346010  0.650170  0.605850  1.0  0.1131
  H  H114  1  0.215510  0.587620  0.538300  1.0  0.1076
  H  H115  1  0.147670  0.474700  0.566380  1.0  0.097
  H  H116  1  0.153310  0.263800  0.503840  1.0  0.1043
  H  H117  1  0.261840  0.211080  0.414630  1.0  0.1013
  H  H118  1  0.416370  0.117120  0.424750  1.0  0.0987
  H  H119  1  0.487260  0.078890  0.516360  1.0  0.0782
  H  H120  1  0.391910  0.128890  0.607900  1.0  0.0992
  C  C121  1  0.905000  0.045500  0.539600  1.0  0.1886
  C  C122  1  0.821000  0.997000  0.566600  1.0  -0.1928
  C  C123  1  0.715000  0.009000  0.613000  1.0  -0.1034
  C  C124  1  0.707000  0.074000  0.634000  1.0  -0.1171
  C  C125  1  0.787000  0.124000  0.607800  1.0  -0.1069
  C  C126  1  0.886000  0.110400  0.560300  1.0  -0.156
  C  C127  1  0.111000  0.980000  0.494400  1.0  0.609
  C  C128  1  0.188000  0.961700  0.438400  1.0  0.1225
  C  C129  1  0.290000  0.908000  0.429000  1.0  -0.1456
  C  C130  1  0.341000  0.897000  0.370000  1.0  -0.1086
  C  C131  1  0.294000  0.936000  0.322000  1.0  -0.1225
  C  C132  1  0.194000  0.989000  0.334700  1.0  0.0967
  C  C133  1  0.125000  0.041000  0.290300  1.0  0.5617
  C  C134  1  0.998000  0.144500  0.281700  1.0  0.2476
  C  C135  1  0.927000  0.138000  0.227500  1.0  -0.1271
  C  C136  1  0.881000  0.189000  0.192000  1.0  -0.1654
  C  C137  1  0.899000  0.255000  0.214000  1.0  -0.1459
  C  C138  1  0.962000  0.265000  0.270000  1.0  -0.0758
  C  C139  1  0.009000  0.209000  0.303400  1.0  -0.1627
  C  C140  1  0.689000  0.015400  0.342400  1.0  0.2593
  C  C141  1  0.765000  0.974000  0.301500  1.0  -0.1702
  C  C142  1  0.820000  0.913000  0.319000  1.0  -0.1049
  C  C143  1  0.803000  0.892000  0.379000  1.0  -0.1064
  C  C144  1  0.733000  0.932000  0.419000  1.0  -0.1053
  C  C145  1  0.682000  0.994100  0.401000  1.0  -0.0928
  C  C146  1  0.559000  0.084700  0.274600  1.0  0.5485
  C  C147  1  0.507000  0.157800  0.260800  1.0  0.1463
  C  C148  1  0.408000  0.179000  0.215300  1.0  -0.1223
  C  C149  1  0.381000  0.248000  0.208000  1.0  -0.1362
  C  C150  1  0.452000  0.291000  0.247500  1.0  -0.1368
  C  C151  1  0.547000  0.267000  0.292900  1.0  0.0794
  C  C152  1  0.637000  0.303900  0.340000  1.0  0.5803
  C  C153  1  0.757000  0.298200  0.436800  1.0  0.2738
  C  C154  1  0.724000  0.274900  0.492200  1.0  -0.1658
  C  C155  1  0.785000  0.305000  0.544500  1.0  -0.1014
  C  C156  1  0.879000  0.360000  0.539100  1.0  -0.1237
  C  C157  1  0.917000  0.381000  0.484000  1.0  -0.1168
  C  C158  1  0.861000  0.353000  0.432500  1.0  -0.1456
  C  C159  1  0.595000  0.954500  0.039600  1.0  0.1884
  C  C160  1  0.679000  0.003000  0.066600  1.0  -0.1934
  C  C161  1  0.785000  0.991000  0.113000  1.0  -0.1033
  C  C162  1  0.793000  0.926000  0.134000  1.0  -0.1157
  C  C163  1  0.713000  0.876000  0.107800  1.0  -0.1074
  C  C164  1  0.614000  0.889600  0.060300  1.0  -0.1584
  C  C165  1  0.389000  0.020000  0.994400  1.0  0.608
  C  C166  1  0.312000  0.038300  0.938400  1.0  0.1242
  C  C167  1  0.210000  0.092000  0.929000  1.0  -0.1466
  C  C168  1  0.159000  0.103000  0.870000  1.0  -0.111
  C  C169  1  0.206000  0.064000  0.822000  1.0  -0.1261
  C  C170  1  0.306000  0.011000  0.834700  1.0  0.0966
  C  C171  1  0.375000  0.959000  0.790300  1.0  0.5614
  C  C172  1  0.502000  0.855500  0.781700  1.0  0.2482
  C  C173  1  0.573000  0.862000  0.727500  1.0  -0.1265
  C  C174  1  0.619000  0.811000  0.692000  1.0  -0.165
  C  C175  1  0.601000  0.745000  0.714000  1.0  -0.1458
  C  C176  1  0.538000  0.735000  0.770000  1.0  -0.0771
  C  C177  1  0.491000  0.791000  0.803400  1.0  -0.1636
  C  C178  1  0.811000  0.984600  0.842400  1.0  0.2595
  C  C179  1  0.735000  0.026000  0.801500  1.0  -0.1707
  C  C180  1  0.680000  0.087000  0.819000  1.0  -0.1056
  C  C181  1  0.697000  0.108000  0.879000  1.0  -0.1046
  C  C182  1  0.767000  0.068000  0.919000  1.0  -0.103
  C  C183  1  0.818000  0.005900  0.901000  1.0  -0.094
  C  C184  1  0.941000  0.915300  0.774600  1.0  0.5488
  C  C185  1  0.993000  0.842200  0.760800  1.0  0.1468
  C  C186  1  0.092000  0.821000  0.715300  1.0  -0.1223
  C  C187  1  0.119000  0.752000  0.708000  1.0  -0.1379
  C  C188  1  0.048000  0.709000  0.747500  1.0  -0.1356
  C  C189  1  0.953000  0.733000  0.792900  1.0  0.0787
  C  C190  1  0.863000  0.696100  0.840000  1.0  0.5803
  C  C191  1  0.743000  0.701800  0.936800  1.0  0.2744
  C  C192  1  0.776000  0.725100  0.992200  1.0  -0.1642
  C  C193  1  0.715000  0.695000  0.044500  1.0  -0.1019
  C  C194  1  0.621000  0.640000  0.039100  1.0  -0.1232
  C  C195  1  0.583000  0.619000  0.984000  1.0  -0.117
  C  C196  1  0.639000  0.647000  0.932500  1.0  -0.1469
  C  C197  1  0.095000  0.545500  0.960400  1.0  0.1874
  C  C198  1  0.179000  0.497000  0.933400  1.0  -0.1936
  C  C199  1  0.285000  0.509000  0.887000  1.0  -0.104
  C  C200  1  0.293000  0.574000  0.866000  1.0  -0.1154
  C  C201  1  0.213000  0.624000  0.892200  1.0  -0.1067
  C  C202  1  0.114000  0.610400  0.939700  1.0  -0.1568
  C  C203  1  0.889000  0.480000  0.005600  1.0  0.6078
  C  C204  1  0.812000  0.461700  0.061600  1.0  0.1223
  C  C205  1  0.710000  0.408000  0.071000  1.0  -0.1456
  C  C206  1  0.659000  0.397000  0.130000  1.0  -0.1092
  C  C207  1  0.706000  0.436000  0.178000  1.0  -0.125
  C  C208  1  0.806000  0.489000  0.165300  1.0  0.097
  C  C209  1  0.875000  0.541000  0.209700  1.0  0.5619
  C  C210  1  0.002000  0.644500  0.218300  1.0  0.2502
  C  C211  1  0.073000  0.638000  0.272500  1.0  -0.1274
  C  C212  1  0.119000  0.689000  0.308000  1.0  -0.1631
  C  C213  1  0.101000  0.755000  0.286000  1.0  -0.1456
  C  C214  1  0.038000  0.765000  0.230000  1.0  -0.0747
  C  C215  1  0.991000  0.709000  0.196600  1.0  -0.1622
  C  C216  1  0.311000  0.515400  0.157600  1.0  0.2597
  C  C217  1  0.235000  0.474000  0.198500  1.0  -0.1702
  C  C218  1  0.180000  0.413000  0.181000  1.0  -0.1044
  C  C219  1  0.197000  0.392000  0.121000  1.0  -0.1057
  C  C220  1  0.267000  0.432000  0.081000  1.0  -0.1045
  C  C221  1  0.318000  0.494100  0.099000  1.0  -0.0921
  C  C222  1  0.441000  0.584700  0.225400  1.0  0.5483
  C  C223  1  0.493000  0.657800  0.239200  1.0  0.1468
  C  C224  1  0.592000  0.679000  0.284700  1.0  -0.1199
  C  C225  1  0.619000  0.748000  0.292000  1.0  -0.1367
  C  C226  1  0.548000  0.791000  0.252500  1.0  -0.136
  C  C227  1  0.453000  0.767000  0.207100  1.0  0.0786
  C  C228  1  0.363000  0.803900  0.160000  1.0  0.5809
  C  C229  1  0.243000  0.798200  0.063200  1.0  0.2732
  C  C230  1  0.276000  0.774900  0.007800  1.0  -0.166
  C  C231  1  0.215000  0.805000  0.955500  1.0  -0.1029
  C  C232  1  0.121000  0.860000  0.960900  1.0  -0.1223
  C  C233  1  0.083000  0.881000  0.016000  1.0  -0.1178
  C  C234  1  0.139000  0.853000  0.067500  1.0  -0.1486
  C  C235  1  0.405000  0.454500  0.460400  1.0  0.1884
  C  C236  1  0.321000  0.503000  0.433400  1.0  -0.1939
  C  C237  1  0.215000  0.491000  0.387000  1.0  -0.1029
  C  C238  1  0.207000  0.426000  0.366000  1.0  -0.1164
  C  C239  1  0.287000  0.376000  0.392200  1.0  -0.1067
  C  C240  1  0.386000  0.389600  0.439700  1.0  -0.1581
  C  C241  1  0.611000  0.520000  0.505600  1.0  0.6082
  C  C242  1  0.688000  0.538300  0.561600  1.0  0.1238
  C  C243  1  0.790000  0.592000  0.571000  1.0  -0.1434
  C  C244  1  0.841000  0.603000  0.630000  1.0  -0.1096
  C  C245  1  0.794000  0.564000  0.678000  1.0  -0.122
  C  C246  1  0.694000  0.511000  0.665300  1.0  0.097
  C  C247  1  0.625000  0.459000  0.709700  1.0  0.5616
  C  C248  1  0.498000  0.355500  0.718300  1.0  0.2512
  C  C249  1  0.427000  0.362000  0.772500  1.0  -0.1266
  C  C250  1  0.381000  0.311000  0.808000  1.0  -0.1643
  C  C251  1  0.399000  0.245000  0.786000  1.0  -0.1472
  C  C252  1  0.462000  0.235000  0.730000  1.0  -0.0768
  C  C253  1  0.509000  0.291000  0.696600  1.0  -0.1615
  C  C254  1  0.189000  0.484600  0.657600  1.0  0.259
  C  C255  1  0.265000  0.526000  0.698500  1.0  -0.1707
  C  C256  1  0.320000  0.587000  0.681000  1.0  -0.1056
  C  C257  1  0.303000  0.608000  0.621000  1.0  -0.1041
  C  C258  1  0.233000  0.568000  0.581000  1.0  -0.1033
  C  C259  1  0.182000  0.505900  0.599000  1.0  -0.0925
  C  C260  1  0.059000  0.415300  0.725400  1.0  0.5485
  C  C261  1  0.007000  0.342200  0.739200  1.0  0.1465
  C  C262  1  0.908000  0.321000  0.784700  1.0  -0.1218
  C  C263  1  0.881000  0.252000  0.792000  1.0  -0.1369
  C  C264  1  0.952000  0.209000  0.752500  1.0  -0.1347
  C  C265  1  0.047000  0.233000  0.707100  1.0  0.0791
  C  C266  1  0.137000  0.196100  0.660000  1.0  0.5801
  C  C267  1  0.257000  0.201800  0.563200  1.0  0.2739
  C  C268  1  0.224000  0.225100  0.507800  1.0  -0.1643
  C  C269  1  0.285000  0.195000  0.455500  1.0  -0.1037
  C  C270  1  0.379000  0.140000  0.460900  1.0  -0.1229
  C  C271  1  0.417000  0.119000  0.516000  1.0  -0.1167
  C  C272  1  0.361000  0.147000  0.567500  1.0  -0.1465
  N  N273  1  0.007000  0.030700  0.489000  1.0  -0.4258
  N  N274  1  0.145000  0.999700  0.390600  1.0  -0.3351
  N  N275  1  0.054000  0.091400  0.318600  1.0  -0.5216
  N  N276  1  0.637000  0.079000  0.326400  1.0  -0.4691
  N  N277  1  0.568000  0.199500  0.298800  1.0  -0.2943
  N  N278  1  0.689000  0.267900  0.385200  1.0  -0.4756
  N  N279  1  0.493000  0.969300  0.989000  1.0  -0.4251
  N  N280  1  0.355000  0.000300  0.890600  1.0  -0.3358
  N  N281  1  0.446000  0.908600  0.818600  1.0  -0.5215
  N  N282  1  0.863000  0.921000  0.826400  1.0  -0.4696
  N  N283  1  0.932000  0.800500  0.798800  1.0  -0.2931
  N  N284  1  0.811000  0.732100  0.885200  1.0  -0.4744
  N  N285  1  0.993000  0.530700  0.011000  1.0  -0.4259
  N  N286  1  0.855000  0.499700  0.109400  1.0  -0.335
  N  N287  1  0.946000  0.591400  0.181400  1.0  -0.5229
  N  N288  1  0.363000  0.579000  0.173600  1.0  -0.4684
  N  N289  1  0.432000  0.699500  0.201200  1.0  -0.2928
  N  N290  1  0.311000  0.767900  0.114800  1.0  -0.4748
  N  N291  1  0.507000  0.469300  0.511000  1.0  -0.4266
  N  N292  1  0.645000  0.500300  0.609400  1.0  -0.3355
  N  N293  1  0.554000  0.408600  0.681400  1.0  -0.5233
  N  N294  1  0.137000  0.421000  0.673600  1.0  -0.469
  N  N295  1  0.068000  0.300500  0.701200  1.0  -0.2935
  N  N296  1  0.189000  0.232100  0.614800  1.0  -0.4744
  O  O297  1  0.846000  0.140400  0.420200  1.0  -0.8016
  O  O298  1  0.143000  0.947800  0.542200  1.0  -0.6905
  O  O299  1  0.151000  0.030900  0.236400  1.0  -0.5733
  O  O300  1  0.523000  0.041000  0.236800  1.0  -0.5961
  O  O301  1  0.646000  0.366900  0.334100  1.0  -0.6633
  O  O302  1  0.654000  0.859600  0.920200  1.0  -0.8021
  O  O303  1  0.357000  0.052200  0.042200  1.0  -0.6886
  O  O304  1  0.349000  0.969100  0.736400  1.0  -0.5734
  O  O305  1  0.977000  0.959000  0.736800  1.0  -0.5959
  O  O306  1  0.854000  0.633100  0.834100  1.0  -0.665
  O  O307  1  0.154000  0.640400  0.079800  1.0  -0.8018
  O  O308  1  0.857000  0.447800  0.957800  1.0  -0.69
  O  O309  1  0.849000  0.530900  0.263600  1.0  -0.5753
  O  O310  1  0.477000  0.541000  0.263200  1.0  -0.5978
  O  O311  1  0.354000  0.866900  0.165900  1.0  -0.6636
  O  O312  1  0.346000  0.359600  0.579800  1.0  -0.8018
  O  O313  1  0.643000  0.552200  0.457800  1.0  -0.6886
  O  O314  1  0.651000  0.469100  0.763600  1.0  -0.574
  O  O315  1  0.023000  0.459000  0.763200  1.0  -0.5975
  O  O316  1  0.146000  0.133100  0.665900  1.0  -0.6644
