# generated using pymatgen
data_NaCu2H27C38N6O5
_symmetry_space_group_name_H-M   'P 1'
_cell_length_a   8.97500000
_cell_length_b   19.24300000
_cell_length_c   21.13000000
_cell_angle_alpha   90.00000000
_cell_angle_beta   90.00000000
_cell_angle_gamma   90.00000000
_symmetry_Int_Tables_number   1
_chemical_formula_structural   NaCu2H27C38N6O5
_chemical_formula_sum   'Na4 Cu8 H108 C152 N24 O20'
_cell_volume   3649.27619525
_cell_formula_units_Z   4
loop_
 _symmetry_equiv_pos_site_id
 _symmetry_equiv_pos_as_xyz
  1  'x, y, z'
loop_
 _atom_site_type_symbol
 _atom_site_label
 _atom_site_symmetry_multiplicity
 _atom_site_fract_x
 _atom_site_fract_y
 _atom_site_fract_z
 _atom_site_occupancy
 _atom_site_charge
  Na  Na1  1  0.136000  0.004900  0.664600  1.0  0.9355
  Na  Na2  1  0.364000  0.995100  0.164600  1.0  0.9356
  Na  Na3  1  0.864000  0.504900  0.835400  1.0  0.9357
  Na  Na4  1  0.636000  0.495100  0.335400  1.0  0.9357
  Cu  Cu5  1  0.008400  0.079900  0.410190  1.0  0.8203
  Cu  Cu6  1  0.703700  0.174600  0.362500  1.0  0.8125
  Cu  Cu7  1  0.491600  0.920100  0.910190  1.0  0.8205
  Cu  Cu8  1  0.796300  0.825400  0.862500  1.0  0.8125
  Cu  Cu9  1  0.991600  0.579900  0.089810  1.0  0.8209
  Cu  Cu10  1  0.296300  0.674600  0.137500  1.0  0.8124
  Cu  Cu11  1  0.508400  0.420100  0.589810  1.0  0.8202
  Cu  Cu12  1  0.203700  0.325400  0.637500  1.0  0.8125
  H  H13  1  0.847960  0.169230  0.460590  1.0  0.3638
  H  H14  1  0.850970  0.953440  0.562450  1.0  0.1245
  H  H15  1  0.648090  0.978970  0.634420  1.0  0.1004
  H  H16  1  0.627290  0.093390  0.671770  1.0  0.1019
  H  H17  1  0.748200  0.184490  0.626030  1.0  0.0912
  H  H18  1  0.934730  0.164180  0.551680  1.0  0.1154
  H  H19  1  0.340510  0.892880  0.480830  1.0  0.13
  H  H20  1  0.443710  0.874000  0.380100  1.0  0.1008
  H  H21  1  0.345750  0.930580  0.290920  1.0  0.1086
  H  H22  1  0.965030  0.091910  0.197820  1.0  0.1062
  H  H23  1  0.839000  0.179210  0.139860  1.0  0.0994
  H  H24  1  0.842000  0.292710  0.180220  1.0  0.1
  H  H25  1  0.940140  0.316260  0.280010  1.0  0.1062
  H  H26  1  0.034990  0.227320  0.341090  1.0  0.112
  H  H27  1  0.379400  0.147070  0.178360  1.0  0.1164
  H  H28  1  0.311330  0.267110  0.175010  1.0  0.0988
  H  H29  1  0.442690  0.349300  0.242110  1.0  0.1195
  H  H30  1  0.781230  0.987730  0.250690  1.0  0.1115
  H  H31  1  0.889150  0.879590  0.285970  1.0  0.0773
  H  H32  1  0.884640  0.845740  0.391960  1.0  0.1049
  H  H33  1  0.762430  0.918010  0.465550  1.0  0.1033
  H  H34  1  0.659660  0.026080  0.432310  1.0  0.1065
  H  H35  1  0.661270  0.243630  0.502840  1.0  0.1102
  H  H36  1  0.762440  0.298670  0.594290  1.0  0.0914
  H  H37  1  0.939790  0.382960  0.586880  1.0  0.0963
  H  H38  1  0.003860  0.423370  0.484790  1.0  0.0807
  H  H39  1  0.898010  0.377240  0.390990  1.0  0.1119
  H  H40  1  0.652040  0.830770  0.960590  1.0  0.3646
  H  H41  1  0.649030  0.046560  0.062450  1.0  0.1244
  H  H42  1  0.851910  0.021030  0.134420  1.0  0.1012
  H  H43  1  0.872710  0.906610  0.171770  1.0  0.1015
  H  H44  1  0.751800  0.815510  0.126030  1.0  0.0915
  H  H45  1  0.565270  0.835820  0.051680  1.0  0.1158
  H  H46  1  0.159490  0.107120  0.980830  1.0  0.1306
  H  H47  1  0.056290  0.126000  0.880100  1.0  0.0994
  H  H48  1  0.154250  0.069420  0.790920  1.0  0.1093
  H  H49  1  0.534970  0.908090  0.697820  1.0  0.1061
  H  H50  1  0.661000  0.820790  0.639860  1.0  0.098
  H  H51  1  0.658000  0.707290  0.680220  1.0  0.1005
  H  H52  1  0.559860  0.683740  0.780010  1.0  0.1063
  H  H53  1  0.465010  0.772680  0.841090  1.0  0.1122
  H  H54  1  0.120600  0.852930  0.678360  1.0  0.1162
  H  H55  1  0.188670  0.732890  0.675010  1.0  0.0991
  H  H56  1  0.057310  0.650700  0.742110  1.0  0.12
  H  H57  1  0.718770  0.012270  0.750690  1.0  0.1115
  H  H58  1  0.610850  0.120410  0.785970  1.0  0.0786
  H  H59  1  0.615360  0.154260  0.891960  1.0  0.1044
  H  H60  1  0.737570  0.081990  0.965550  1.0  0.104
  H  H61  1  0.840340  0.973920  0.932310  1.0  0.1068
  H  H62  1  0.838730  0.756370  0.002840  1.0  0.1095
  H  H63  1  0.737560  0.701330  0.094290  1.0  0.0913
  H  H64  1  0.560210  0.617040  0.086880  1.0  0.0963
  H  H65  1  0.496140  0.576630  0.984790  1.0  0.0809
  H  H66  1  0.601990  0.622760  0.890990  1.0  0.1117
  H  H67  1  0.152040  0.669230  0.039410  1.0  0.3642
  H  H68  1  0.149030  0.453440  0.937550  1.0  0.1244
  H  H69  1  0.351910  0.478970  0.865580  1.0  0.101
  H  H70  1  0.372710  0.593390  0.828230  1.0  0.1009
  H  H71  1  0.251800  0.684490  0.873970  1.0  0.0911
  H  H72  1  0.065270  0.664180  0.948320  1.0  0.1158
  H  H73  1  0.659490  0.392880  0.019170  1.0  0.1303
  H  H74  1  0.556290  0.374000  0.119900  1.0  0.0995
  H  H75  1  0.654250  0.430580  0.209080  1.0  0.1087
  H  H76  1  0.034970  0.591910  0.302180  1.0  0.1074
  H  H77  1  0.161000  0.679210  0.360140  1.0  0.0993
  H  H78  1  0.158000  0.792710  0.319780  1.0  0.0996
  H  H79  1  0.059860  0.816260  0.219990  1.0  0.1067
  H  H80  1  0.965010  0.727320  0.158910  1.0  0.1127
  H  H81  1  0.620600  0.647070  0.321640  1.0  0.1156
  H  H82  1  0.688670  0.767110  0.324990  1.0  0.0999
  H  H83  1  0.557310  0.849300  0.257890  1.0  0.1197
  H  H84  1  0.218770  0.487730  0.249310  1.0  0.1119
  H  H85  1  0.110850  0.379590  0.214030  1.0  0.0781
  H  H86  1  0.115360  0.345740  0.108040  1.0  0.1042
  H  H87  1  0.237570  0.418010  0.034450  1.0  0.1025
  H  H88  1  0.340340  0.526080  0.067690  1.0  0.1065
  H  H89  1  0.338730  0.743630  0.997160  1.0  0.1113
  H  H90  1  0.237560  0.798670  0.905710  1.0  0.0908
  H  H91  1  0.060210  0.882960  0.913120  1.0  0.0958
  H  H92  1  0.996140  0.923370  0.015210  1.0  0.081
  H  H93  1  0.101990  0.877240  0.109010  1.0  0.1118
  H  H94  1  0.347960  0.330770  0.539410  1.0  0.3646
  H  H95  1  0.350970  0.546560  0.437550  1.0  0.1245
  H  H96  1  0.148090  0.521030  0.365580  1.0  0.1011
  H  H97  1  0.127290  0.406610  0.328230  1.0  0.101
  H  H98  1  0.248200  0.315510  0.373970  1.0  0.091
  H  H99  1  0.434730  0.335820  0.448320  1.0  0.1161
  H  H100  1  0.840510  0.607120  0.519170  1.0  0.1306
  H  H101  1  0.943710  0.626000  0.619900  1.0  0.1019
  H  H102  1  0.845750  0.569420  0.709080  1.0  0.1085
  H  H103  1  0.465030  0.408090  0.802180  1.0  0.107
  H  H104  1  0.339000  0.320790  0.860140  1.0  0.098
  H  H105  1  0.342000  0.207290  0.819780  1.0  0.1003
  H  H106  1  0.440140  0.183740  0.719990  1.0  0.1069
  H  H107  1  0.534990  0.272680  0.658910  1.0  0.1127
  H  H108  1  0.879400  0.352930  0.821640  1.0  0.1152
  H  H109  1  0.811330  0.232890  0.824990  1.0  0.0992
  H  H110  1  0.942690  0.150700  0.757890  1.0  0.1201
  H  H111  1  0.281230  0.512270  0.749310  1.0  0.112
  H  H112  1  0.389150  0.620410  0.714030  1.0  0.0782
  H  H113  1  0.384640  0.654260  0.608040  1.0  0.104
  H  H114  1  0.262430  0.581990  0.534450  1.0  0.1038
  H  H115  1  0.159660  0.473920  0.567690  1.0  0.1066
  H  H116  1  0.161270  0.256370  0.497160  1.0  0.1108
  H  H117  1  0.262440  0.201330  0.405710  1.0  0.0909
  H  H118  1  0.439790  0.117040  0.413120  1.0  0.0956
  H  H119  1  0.503860  0.076630  0.515210  1.0  0.0808
  H  H120  1  0.398010  0.122760  0.609010  1.0  0.1119
  C  C121  1  0.907000  0.055000  0.547300  1.0  0.2586
  C  C122  1  0.826000  0.000000  0.575000  1.0  -0.2007
  C  C123  1  0.719000  0.015000  0.619000  1.0  -0.0525
  C  C124  1  0.693000  0.084000  0.637000  1.0  -0.1101
  C  C125  1  0.774000  0.135000  0.612000  1.0  -0.0406
  C  C126  1  0.878000  0.123000  0.568500  1.0  -0.1864
  C  C127  1  0.121000  0.993900  0.509500  1.0  0.5472
  C  C128  1  0.199000  0.974600  0.451300  1.0  0.1287
  C  C129  1  0.308000  0.921000  0.444900  1.0  -0.1368
  C  C130  1  0.366000  0.912000  0.386000  1.0  -0.0144
  C  C131  1  0.315000  0.945000  0.334200  1.0  -0.1085
  C  C132  1  0.208000  0.996400  0.341500  1.0  0.1209
  C  C133  1  0.147000  0.045500  0.292900  1.0  0.5512
  C  C134  1  0.003000  0.147500  0.276400  1.0  0.2706
  C  C135  1  0.944000  0.136000  0.218000  1.0  -0.1791
  C  C136  1  0.884000  0.188000  0.183000  1.0  -0.0723
  C  C137  1  0.882000  0.255000  0.206000  1.0  -0.1207
  C  C138  1  0.940000  0.268000  0.265000  1.0  -0.0591
  C  C139  1  0.997000  0.215700  0.299800  1.0  -0.2249
  C  C140  1  0.707000  0.015100  0.340100  1.0  0.2898
  C  C141  1  0.781000  0.973200  0.297700  1.0  -0.1828
  C  C142  1  0.841000  0.912000  0.317000  1.0  -0.0603
  C  C143  1  0.835000  0.889900  0.380000  1.0  -0.1404
  C  C144  1  0.767000  0.932000  0.421600  1.0  -0.0381
  C  C145  1  0.708000  0.994000  0.402000  1.0  -0.2312
  C  C146  1  0.570000  0.085000  0.270200  1.0  0.5616
  C  C147  1  0.511000  0.159800  0.257100  1.0  0.13
  C  C148  1  0.418000  0.181000  0.212000  1.0  -0.132
  C  C149  1  0.387000  0.250000  0.206000  1.0  -0.0207
  C  C150  1  0.456000  0.299500  0.247000  1.0  -0.149
  C  C151  1  0.551000  0.274400  0.289700  1.0  0.1421
  C  C152  1  0.632000  0.315400  0.340200  1.0  0.5485
  C  C153  1  0.759000  0.307300  0.439400  1.0  0.2835
  C  C154  1  0.726000  0.282700  0.497400  1.0  -0.2073
  C  C155  1  0.789000  0.313000  0.551800  1.0  -0.0678
  C  C156  1  0.893000  0.365000  0.548000  1.0  -0.1345
  C  C157  1  0.928000  0.388000  0.487000  1.0  -0.0467
  C  C158  1  0.866000  0.361000  0.433000  1.0  -0.1769
  C  C159  1  0.593000  0.945000  0.047300  1.0  0.2587
  C  C160  1  0.674000  0.000000  0.075000  1.0  -0.2027
  C  C161  1  0.781000  0.985000  0.119000  1.0  -0.0511
  C  C162  1  0.807000  0.916000  0.137000  1.0  -0.1101
  C  C163  1  0.726000  0.865000  0.112000  1.0  -0.0419
  C  C164  1  0.622000  0.877000  0.068500  1.0  -0.1887
  C  C165  1  0.379000  0.006100  0.009500  1.0  0.5464
  C  C166  1  0.301000  0.025400  0.951300  1.0  0.1282
  C  C167  1  0.192000  0.079000  0.944900  1.0  -0.1364
  C  C168  1  0.134000  0.088000  0.886000  1.0  -0.0136
  C  C169  1  0.185000  0.055000  0.834200  1.0  -0.1108
  C  C170  1  0.292000  0.003600  0.841500  1.0  0.1205
  C  C171  1  0.353000  0.954500  0.792900  1.0  0.551
  C  C172  1  0.497000  0.852500  0.776400  1.0  0.2731
  C  C173  1  0.556000  0.864000  0.718000  1.0  -0.179
  C  C174  1  0.616000  0.812000  0.683000  1.0  -0.0725
  C  C175  1  0.618000  0.745000  0.706000  1.0  -0.1212
  C  C176  1  0.560000  0.732000  0.765000  1.0  -0.062
  C  C177  1  0.503000  0.784300  0.799800  1.0  -0.2252
  C  C178  1  0.793000  0.984900  0.840100  1.0  0.2875
  C  C179  1  0.719000  0.026800  0.797700  1.0  -0.1829
  C  C180  1  0.659000  0.088000  0.817000  1.0  -0.0578
  C  C181  1  0.665000  0.110100  0.880000  1.0  -0.1411
  C  C182  1  0.733000  0.068000  0.921600  1.0  -0.0373
  C  C183  1  0.792000  0.006000  0.902000  1.0  -0.2275
  C  C184  1  0.930000  0.915000  0.770200  1.0  0.5624
  C  C185  1  0.989000  0.840200  0.757100  1.0  0.1301
  C  C186  1  0.082000  0.819000  0.712000  1.0  -0.1317
  C  C187  1  0.113000  0.750000  0.706000  1.0  -0.0214
  C  C188  1  0.044000  0.700500  0.747000  1.0  -0.1492
  C  C189  1  0.949000  0.725600  0.789700  1.0  0.1414
  C  C190  1  0.868000  0.684600  0.840200  1.0  0.549
  C  C191  1  0.741000  0.692700  0.939400  1.0  0.284
  C  C192  1  0.774000  0.717300  0.997400  1.0  -0.2038
  C  C193  1  0.711000  0.687000  0.051800  1.0  -0.0669
  C  C194  1  0.607000  0.635000  0.048000  1.0  -0.1336
  C  C195  1  0.572000  0.612000  0.987000  1.0  -0.0484
  C  C196  1  0.634000  0.639000  0.933000  1.0  -0.1777
  C  C197  1  0.093000  0.555000  0.952700  1.0  0.2582
  C  C198  1  0.174000  0.500000  0.925000  1.0  -0.2028
  C  C199  1  0.281000  0.515000  0.881000  1.0  -0.0515
  C  C200  1  0.307000  0.584000  0.863000  1.0  -0.1105
  C  C201  1  0.226000  0.635000  0.888000  1.0  -0.0409
  C  C202  1  0.122000  0.623000  0.931500  1.0  -0.1881
  C  C203  1  0.879000  0.493900  0.990500  1.0  0.546
  C  C204  1  0.801000  0.474600  0.048700  1.0  0.1272
  C  C205  1  0.692000  0.421000  0.055100  1.0  -0.1364
  C  C206  1  0.634000  0.412000  0.114000  1.0  -0.0147
  C  C207  1  0.685000  0.445000  0.165800  1.0  -0.1105
  C  C208  1  0.792000  0.496400  0.158500  1.0  0.1213
  C  C209  1  0.853000  0.545500  0.207100  1.0  0.5514
  C  C210  1  0.997000  0.647500  0.223600  1.0  0.2785
  C  C211  1  0.056000  0.636000  0.282000  1.0  -0.1774
  C  C212  1  0.116000  0.688000  0.317000  1.0  -0.0716
  C  C213  1  0.118000  0.755000  0.294000  1.0  -0.1206
  C  C214  1  0.060000  0.768000  0.235000  1.0  -0.06
  C  C215  1  0.003000  0.715700  0.200200  1.0  -0.2256
  C  C216  1  0.293000  0.515100  0.159900  1.0  0.2884
  C  C217  1  0.219000  0.473200  0.202300  1.0  -0.1831
  C  C218  1  0.159000  0.412000  0.183000  1.0  -0.0581
  C  C219  1  0.165000  0.389900  0.120000  1.0  -0.1412
  C  C220  1  0.233000  0.432000  0.078400  1.0  -0.0397
  C  C221  1  0.292000  0.494000  0.098000  1.0  -0.2277
  C  C222  1  0.430000  0.585000  0.229800  1.0  0.5631
  C  C223  1  0.489000  0.659800  0.242900  1.0  0.1303
  C  C224  1  0.582000  0.681000  0.288000  1.0  -0.1287
  C  C225  1  0.613000  0.750000  0.294000  1.0  -0.0175
  C  C226  1  0.544000  0.799500  0.253000  1.0  -0.1485
  C  C227  1  0.449000  0.774400  0.210300  1.0  0.1425
  C  C228  1  0.368000  0.815400  0.159800  1.0  0.5487
  C  C229  1  0.241000  0.807300  0.060600  1.0  0.282
  C  C230  1  0.274000  0.782700  0.002600  1.0  -0.205
  C  C231  1  0.211000  0.813000  0.948200  1.0  -0.0677
  C  C232  1  0.107000  0.865000  0.952000  1.0  -0.1351
  C  C233  1  0.072000  0.888000  0.013000  1.0  -0.0461
  C  C234  1  0.134000  0.861000  0.067000  1.0  -0.1785
  C  C235  1  0.407000  0.445000  0.452700  1.0  0.2554
  C  C236  1  0.326000  0.500000  0.425000  1.0  -0.2017
  C  C237  1  0.219000  0.485000  0.381000  1.0  -0.0516
  C  C238  1  0.193000  0.416000  0.363000  1.0  -0.1104
  C  C239  1  0.274000  0.365000  0.388000  1.0  -0.0404
  C  C240  1  0.378000  0.377000  0.431500  1.0  -0.1867
  C  C241  1  0.621000  0.506100  0.490500  1.0  0.5476
  C  C242  1  0.699000  0.525400  0.548700  1.0  0.1272
  C  C243  1  0.808000  0.579000  0.555100  1.0  -0.1367
  C  C244  1  0.866000  0.588000  0.614000  1.0  -0.0148
  C  C245  1  0.815000  0.555000  0.665800  1.0  -0.1087
  C  C246  1  0.708000  0.503600  0.658500  1.0  0.1213
  C  C247  1  0.647000  0.454500  0.707100  1.0  0.5517
  C  C248  1  0.503000  0.352500  0.723600  1.0  0.2775
  C  C249  1  0.444000  0.364000  0.782000  1.0  -0.1774
  C  C250  1  0.384000  0.312000  0.817000  1.0  -0.0729
  C  C251  1  0.382000  0.245000  0.794000  1.0  -0.1215
  C  C252  1  0.440000  0.232000  0.735000  1.0  -0.0629
  C  C253  1  0.497000  0.284300  0.700200  1.0  -0.2241
  C  C254  1  0.207000  0.484900  0.659900  1.0  0.2886
  C  C255  1  0.281000  0.526800  0.702300  1.0  -0.1833
  C  C256  1  0.341000  0.588000  0.683000  1.0  -0.0606
  C  C257  1  0.335000  0.610100  0.620000  1.0  -0.1384
  C  C258  1  0.267000  0.568000  0.578400  1.0  -0.0383
  C  C259  1  0.208000  0.506000  0.598000  1.0  -0.2297
  C  C260  1  0.070000  0.415000  0.729800  1.0  0.5625
  C  C261  1  0.011000  0.340200  0.742900  1.0  0.1304
  C  C262  1  0.918000  0.319000  0.788000  1.0  -0.1318
  C  C263  1  0.887000  0.250000  0.794000  1.0  -0.0207
  C  C264  1  0.956000  0.200500  0.753000  1.0  -0.1487
  C  C265  1  0.051000  0.225600  0.710300  1.0  0.1424
  C  C266  1  0.132000  0.184600  0.659800  1.0  0.5488
  C  C267  1  0.259000  0.192700  0.560600  1.0  0.2834
  C  C268  1  0.226000  0.217300  0.502600  1.0  -0.2065
  C  C269  1  0.289000  0.187000  0.448200  1.0  -0.0683
  C  C270  1  0.393000  0.135000  0.452000  1.0  -0.1343
  C  C271  1  0.428000  0.112000  0.513000  1.0  -0.0492
  C  C272  1  0.366000  0.139000  0.567000  1.0  -0.1769
  N  N273  1  0.018000  0.042000  0.499300  1.0  -0.5717
  N  N274  1  0.153000  0.008200  0.399400  1.0  -0.3166
  N  N275  1  0.062000  0.095900  0.318200  1.0  -0.5616
  N  N276  1  0.646000  0.081700  0.322600  1.0  -0.5892
  N  N277  1  0.575000  0.207100  0.295800  1.0  -0.3153
  N  N278  1  0.685000  0.275200  0.385900  1.0  -0.599
  N  N279  1  0.482000  0.958000  0.999300  1.0  -0.5736
  N  N280  1  0.347000  0.991800  0.899400  1.0  -0.3182
  N  N281  1  0.438000  0.904100  0.818200  1.0  -0.563
  N  N282  1  0.854000  0.918300  0.822600  1.0  -0.5869
  N  N283  1  0.925000  0.792900  0.795800  1.0  -0.315
  N  N284  1  0.815000  0.724800  0.885900  1.0  -0.5981
  N  N285  1  0.982000  0.542000  0.000700  1.0  -0.5698
  N  N286  1  0.847000  0.508200  0.100600  1.0  -0.3178
  N  N287  1  0.938000  0.595900  0.181800  1.0  -0.5725
  N  N288  1  0.354000  0.581700  0.177400  1.0  -0.5869
  N  N289  1  0.425000  0.707100  0.204200  1.0  -0.315
  N  N290  1  0.315000  0.775200  0.114100  1.0  -0.599
  N  N291  1  0.518000  0.458000  0.500700  1.0  -0.5719
  N  N292  1  0.653000  0.491800  0.600600  1.0  -0.3167
  N  N293  1  0.562000  0.404100  0.681800  1.0  -0.5706
  N  N294  1  0.146000  0.418300  0.677400  1.0  -0.5887
  N  N295  1  0.075000  0.292900  0.704200  1.0  -0.3146
  N  N296  1  0.185000  0.224800  0.614100  1.0  -0.5979
  O  O297  1  0.852000  0.145600  0.419300  1.0  -0.842
  O  O298  1  0.157000  0.964900  0.560700  1.0  -0.6589
  O  O299  1  0.178000  0.037000  0.236200  1.0  -0.6285
  O  O300  1  0.532000  0.039700  0.233200  1.0  -0.6454
  O  O301  1  0.643000  0.379600  0.332200  1.0  -0.6682
  O  O302  1  0.648000  0.854400  0.919300  1.0  -0.8419
  O  O303  1  0.343000  0.035100  0.060700  1.0  -0.6597
  O  O304  1  0.322000  0.963000  0.736200  1.0  -0.6281
  O  O305  1  0.968000  0.960300  0.733200  1.0  -0.6457
  O  O306  1  0.857000  0.620400  0.832200  1.0  -0.6692
  O  O307  1  0.148000  0.645600  0.080700  1.0  -0.8408
  O  O308  1  0.843000  0.464900  0.939300  1.0  -0.6603
  O  O309  1  0.822000  0.537000  0.263800  1.0  -0.6311
  O  O310  1  0.468000  0.539700  0.266800  1.0  -0.6444
  O  O311  1  0.357000  0.879600  0.167800  1.0  -0.6683
  O  O312  1  0.352000  0.354400  0.580700  1.0  -0.8408
  O  O313  1  0.657000  0.535100  0.439300  1.0  -0.6596
  O  O314  1  0.678000  0.463000  0.763800  1.0  -0.6304
  O  O315  1  0.032000  0.460300  0.766800  1.0  -0.645
  O  O316  1  0.143000  0.120400  0.667800  1.0  -0.6684
