# generated using pymatgen
data_ErH9(C3O2)3
_symmetry_space_group_name_H-M   'P 1'
_cell_length_a   9.08350000
_cell_length_b   9.08350000
_cell_length_c   15.91930000
_cell_angle_alpha   88.41730000
_cell_angle_beta   88.41730000
_cell_angle_gamma   84.77170000
_symmetry_Int_Tables_number   1
_chemical_formula_structural   ErH9(C3O2)3
_chemical_formula_sum   'Er4 H36 C36 O24'
_cell_volume   1307.12136825
_cell_formula_units_Z   4
loop_
 _symmetry_equiv_pos_site_id
 _symmetry_equiv_pos_as_xyz
  1  'x, y, z'
loop_
 _atom_site_type_symbol
 _atom_site_label
 _atom_site_symmetry_multiplicity
 _atom_site_fract_x
 _atom_site_fract_y
 _atom_site_fract_z
 _atom_site_occupancy
 _atom_site_charge
  Er  Er1  1  0.477570  0.277850  0.010990  1.0  1.5246
  Er  Er2  1  0.722150  0.522430  0.489010  1.0  1.5261
  Er  Er3  1  0.522430  0.722150  0.989010  1.0  1.5247
  Er  Er4  1  0.277850  0.477570  0.510990  1.0  1.5254
  H  H5  1  0.744500  0.065300  0.778200  1.0  0.1006
  H  H6  1  0.555000  0.849800  0.732700  1.0  0.0961
  H  H7  1  0.715800  0.811000  0.765500  1.0  0.0993
  H  H8  1  0.814800  0.935800  0.646800  1.0  0.102
  H  H9  1  0.518700  0.981700  0.589300  1.0  0.0967
  H  H10  1  0.657500  0.029300  0.538000  1.0  0.0966
  H  H11  1  0.698300  0.205300  0.638400  1.0  0.1016
  H  H12  1  0.444900  0.121500  0.730500  1.0  0.1016
  H  H13  1  0.544100  0.244100  0.757200  1.0  0.1025
  H  H14  1  0.934700  0.255500  0.721800  1.0  0.1004
  H  H15  1  0.150200  0.445000  0.767300  1.0  0.0965
  H  H16  1  0.189000  0.284200  0.734500  1.0  0.099
  H  H17  1  0.064200  0.185200  0.853200  1.0  0.1003
  H  H18  1  0.018300  0.481300  0.910700  1.0  0.0969
  H  H19  1  0.970700  0.342500  0.962000  1.0  0.0937
  H  H20  1  0.794700  0.301700  0.861600  1.0  0.1022
  H  H21  1  0.878500  0.555100  0.769500  1.0  0.0985
  H  H22  1  0.755900  0.455900  0.742800  1.0  0.1009
  H  H23  1  0.255500  0.934700  0.221800  1.0  0.1004
  H  H24  1  0.445000  0.150200  0.267300  1.0  0.0971
  H  H25  1  0.284200  0.189000  0.234500  1.0  0.0995
  H  H26  1  0.185200  0.064200  0.353200  1.0  0.1023
  H  H27  1  0.481300  0.018300  0.410700  1.0  0.099
  H  H28  1  0.342500  0.970700  0.462000  1.0  0.0959
  H  H29  1  0.301700  0.794700  0.361600  1.0  0.1012
  H  H30  1  0.555100  0.878500  0.269500  1.0  0.1051
  H  H31  1  0.455900  0.755900  0.242800  1.0  0.1039
  H  H32  1  0.065300  0.744500  0.278200  1.0  0.0962
  H  H33  1  0.849800  0.555000  0.232700  1.0  0.0965
  H  H34  1  0.811000  0.715800  0.265500  1.0  0.0991
  H  H35  1  0.935800  0.814800  0.146800  1.0  0.1019
  H  H36  1  0.981700  0.518700  0.089300  1.0  0.0968
  H  H37  1  0.029300  0.657500  0.038000  1.0  0.095
  H  H38  1  0.205300  0.698300  0.138400  1.0  0.1009
  H  H39  1  0.121500  0.444900  0.230500  1.0  0.0992
  H  H40  1  0.244100  0.544100  0.257200  1.0  0.099
  C  C41  1  0.644600  0.032800  0.778400  1.0  -0.1689
  C  C42  1  0.653000  0.884000  0.734300  1.0  -0.1119
  C  C43  1  0.716000  0.901200  0.644200  1.0  -0.149
  C  C44  1  0.615700  0.016700  0.594200  1.0  -0.117
  C  C45  1  0.601000  0.166600  0.638500  1.0  -0.159
  C  C46  1  0.545300  0.149900  0.729800  1.0  -0.1136
  C  C47  1  0.588400  0.025600  0.868800  1.0  0.7618
  C  C48  1  0.727100  0.759100  0.596800  1.0  0.6564
  C  C49  1  0.495800  0.274400  0.590400  1.0  0.7069
  C  C50  1  0.967200  0.355400  0.721600  1.0  -0.1691
  C  C51  1  0.116000  0.347000  0.765700  1.0  -0.1089
  C  C52  1  0.098800  0.284000  0.855800  1.0  -0.1471
  C  C53  1  0.983300  0.384300  0.905800  1.0  -0.1187
  C  C54  1  0.833400  0.399000  0.861500  1.0  -0.1633
  C  C55  1  0.850100  0.454700  0.770200  1.0  -0.1118
  C  C56  1  0.974400  0.411600  0.631200  1.0  0.7613
  C  C57  1  0.240900  0.272900  0.903200  1.0  0.6514
  C  C58  1  0.725600  0.504200  0.909600  1.0  0.7085
  C  C59  1  0.355400  0.967200  0.221600  1.0  -0.1687
  C  C60  1  0.347000  0.116000  0.265700  1.0  -0.1124
  C  C61  1  0.284000  0.098800  0.355800  1.0  -0.1508
  C  C62  1  0.384300  0.983300  0.405800  1.0  -0.1186
  C  C63  1  0.399000  0.833400  0.361500  1.0  -0.1591
  C  C64  1  0.454700  0.850100  0.270200  1.0  -0.113
  C  C65  1  0.411600  0.974400  0.131200  1.0  0.7597
  C  C66  1  0.272900  0.240900  0.403200  1.0  0.6502
  C  C67  1  0.504200  0.725600  0.409600  1.0  0.7057
  C  C68  1  0.032800  0.644600  0.278400  1.0  -0.1694
  C  C69  1  0.884000  0.653000  0.234300  1.0  -0.1101
  C  C70  1  0.901200  0.716000  0.144200  1.0  -0.1464
  C  C71  1  0.016700  0.615700  0.094200  1.0  -0.1168
  C  C72  1  0.166600  0.601000  0.138500  1.0  -0.1624
  C  C73  1  0.149900  0.545300  0.229800  1.0  -0.114
  C  C74  1  0.025600  0.588400  0.368800  1.0  0.762
  C  C75  1  0.759100  0.727100  0.096800  1.0  0.6523
  C  C76  1  0.274400  0.495800  0.090400  1.0  0.7068
  O  O77  1  0.592600  0.140800  0.910200  1.0  -0.6363
  O  O78  1  0.539900  0.909500  0.897600  1.0  -0.6591
  O  O79  1  0.838600  0.726000  0.549200  1.0  -0.5255
  O  O80  1  0.623000  0.676600  0.600600  1.0  -0.5919
  O  O81  1  0.542400  0.382600  0.549500  1.0  -0.7003
  O  O82  1  0.360800  0.256400  0.590300  1.0  -0.6006
  O  O83  1  0.859200  0.407400  0.589800  1.0  -0.6383
  O  O84  1  0.090500  0.460100  0.602400  1.0  -0.6595
  O  O85  1  0.274000  0.161400  0.950800  1.0  -0.5262
  O  O86  1  0.323400  0.377000  0.899400  1.0  -0.5899
  O  O87  1  0.617400  0.457600  0.950500  1.0  -0.7019
  O  O88  1  0.743600  0.639200  0.909700  1.0  -0.6029
  O  O89  1  0.407400  0.859200  0.089800  1.0  -0.6377
  O  O90  1  0.460100  0.090500  0.102400  1.0  -0.6597
  O  O91  1  0.161400  0.274000  0.450800  1.0  -0.5271
  O  O92  1  0.377000  0.323400  0.399400  1.0  -0.5919
  O  O93  1  0.457600  0.617400  0.450500  1.0  -0.7113
  O  O94  1  0.639200  0.743600  0.409700  1.0  -0.6015
  O  O95  1  0.140800  0.592600  0.410200  1.0  -0.6379
  O  O96  1  0.909500  0.539900  0.397600  1.0  -0.6593
  O  O97  1  0.726000  0.838600  0.049200  1.0  -0.5287
  O  O98  1  0.676600  0.623000  0.100600  1.0  -0.59
  O  O99  1  0.382600  0.542400  0.049500  1.0  -0.6988
  O  O100  1  0.256400  0.360800  0.090300  1.0  -0.6019
