# generated using pymatgen
data_ErH3(C3O2)3
_symmetry_space_group_name_H-M   'P 1'
_cell_length_a   9.07570000
_cell_length_b   9.07570000
_cell_length_c   15.92200000
_cell_angle_alpha   88.45860000
_cell_angle_beta   88.45860000
_cell_angle_gamma   84.89010000
_symmetry_Int_Tables_number   1
_chemical_formula_structural   ErH3(C3O2)3
_chemical_formula_sum   'Er4 H12 C36 O24'
_cell_volume   1305.38821778
_cell_formula_units_Z   4
loop_
 _symmetry_equiv_pos_site_id
 _symmetry_equiv_pos_as_xyz
  1  'x, y, z'
loop_
 _atom_site_type_symbol
 _atom_site_label
 _atom_site_symmetry_multiplicity
 _atom_site_fract_x
 _atom_site_fract_y
 _atom_site_fract_z
 _atom_site_occupancy
 _atom_site_charge
  Er  Er1  1  0.222020  0.022400  0.489210  1.0  1.549
  Er  Er2  1  0.977600  0.777980  0.010790  1.0  1.5488
  Er  Er3  1  0.777980  0.977600  0.510790  1.0  1.5495
  Er  Er4  1  0.022400  0.222020  0.989210  1.0  1.5493
  H  H5  1  0.289270  0.054300  0.736790  1.0  0.1445
  H  H6  1  0.496390  0.940860  0.968550  1.0  0.1385
  H  H7  1  0.718520  0.881700  0.728560  1.0  0.1419
  H  H8  1  0.945700  0.710730  0.763210  1.0  0.1432
  H  H9  1  0.059140  0.503610  0.531450  1.0  0.1382
  H  H10  1  0.118300  0.281480  0.771440  1.0  0.1421
  H  H11  1  0.710730  0.945700  0.263210  1.0  0.1445
  H  H12  1  0.503610  0.059140  0.031450  1.0  0.138
  H  H13  1  0.281480  0.118300  0.271440  1.0  0.1422
  H  H14  1  0.054300  0.289270  0.236790  1.0  0.144
  H  H15  1  0.940860  0.496390  0.468550  1.0  0.1369
  H  H16  1  0.881700  0.718520  0.228560  1.0  0.141
  C  C17  1  0.472500  0.909900  0.629600  1.0  0.7552
  C  C18  1  0.227500  0.003900  0.908600  1.0  0.6609
  C  C19  1  0.742600  0.774200  0.902400  1.0  0.6039
  C  C20  1  0.467000  0.854600  0.721500  1.0  -0.1679
  C  C21  1  0.350100  0.954900  0.770000  1.0  0.0688
  C  C22  1  0.333600  0.901000  0.861100  1.0  -0.118
  C  C23  1  0.484400  0.883800  0.906500  1.0  0.0485
  C  C24  1  0.598400  0.785600  0.855600  1.0  -0.1088
  C  C25  1  0.616800  0.846000  0.764500  1.0  0.0734
  C  C26  1  0.090100  0.527500  0.870400  1.0  0.7523
  C  C27  1  0.996100  0.772500  0.591400  1.0  0.6609
  C  C28  1  0.225800  0.257400  0.597600  1.0  0.6075
  C  C29  1  0.145400  0.533000  0.778500  1.0  -0.1701
  C  C30  1  0.045100  0.649900  0.730000  1.0  0.0676
  C  C31  1  0.099000  0.666400  0.638900  1.0  -0.1202
  C  C32  1  0.116200  0.515600  0.593500  1.0  0.0456
  C  C33  1  0.214400  0.401600  0.644400  1.0  -0.1091
  C  C34  1  0.154000  0.383200  0.735500  1.0  0.0741
  C  C35  1  0.527500  0.090100  0.370400  1.0  0.756
  C  C36  1  0.772500  0.996100  0.091400  1.0  0.6604
  C  C37  1  0.257400  0.225800  0.097600  1.0  0.6024
  C  C38  1  0.533000  0.145400  0.278500  1.0  -0.1681
  C  C39  1  0.649900  0.045100  0.230000  1.0  0.0686
  C  C40  1  0.666400  0.099000  0.138900  1.0  -0.1175
  C  C41  1  0.515600  0.116200  0.093500  1.0  0.0478
  C  C42  1  0.401600  0.214400  0.144400  1.0  -0.1086
  C  C43  1  0.383200  0.154000  0.235500  1.0  0.0723
  C  C44  1  0.909900  0.472500  0.129600  1.0  0.7497
  C  C45  1  0.003900  0.227500  0.408600  1.0  0.6608
  C  C46  1  0.774200  0.742600  0.402400  1.0  0.6067
  C  C47  1  0.854600  0.467000  0.221500  1.0  -0.1688
  C  C48  1  0.954900  0.350100  0.270000  1.0  0.0702
  C  C49  1  0.901000  0.333600  0.361100  1.0  -0.122
  C  C50  1  0.883800  0.484400  0.406500  1.0  0.0476
  C  C51  1  0.785600  0.598400  0.355600  1.0  -0.1101
  C  C52  1  0.846000  0.616800  0.264500  1.0  0.073
  O  O53  1  0.360700  0.905700  0.587900  1.0  -0.6524
  O  O54  1  0.589700  0.958900  0.600300  1.0  -0.6703
  O  O55  1  0.243200  0.141000  0.911700  1.0  -0.5966
  O  O56  1  0.115700  0.956100  0.950000  1.0  -0.7251
  O  O57  1  0.824500  0.876300  0.899200  1.0  -0.5702
  O  O58  1  0.775500  0.662700  0.951200  1.0  -0.5682
  O  O59  1  0.094300  0.639300  0.912100  1.0  -0.6543
  O  O60  1  0.041100  0.410300  0.899700  1.0  -0.6704
  O  O61  1  0.859000  0.756800  0.588300  1.0  -0.5974
  O  O62  1  0.043900  0.884300  0.550000  1.0  -0.7243
  O  O63  1  0.123700  0.175500  0.600800  1.0  -0.571
  O  O64  1  0.337300  0.224500  0.548800  1.0  -0.5678
  O  O65  1  0.639300  0.094300  0.412100  1.0  -0.6534
  O  O66  1  0.410300  0.041100  0.399700  1.0  -0.6702
  O  O67  1  0.756800  0.859000  0.088300  1.0  -0.5974
  O  O68  1  0.884300  0.043900  0.050000  1.0  -0.7234
  O  O69  1  0.175500  0.123700  0.100800  1.0  -0.568
  O  O70  1  0.224500  0.337300  0.048800  1.0  -0.5669
  O  O71  1  0.905700  0.360700  0.087900  1.0  -0.6539
  O  O72  1  0.958900  0.589700  0.100300  1.0  -0.6709
  O  O73  1  0.141000  0.243200  0.411700  1.0  -0.5979
  O  O74  1  0.956100  0.115700  0.450000  1.0  -0.7258
  O  O75  1  0.876300  0.824500  0.399200  1.0  -0.5713
  O  O76  1  0.662700  0.775500  0.451200  1.0  -0.5692
