# generated using pymatgen
data_AlH7C12O5
_symmetry_space_group_name_H-M   'P 1'
_cell_length_a   21.10120000
_cell_length_b   21.10120000
_cell_length_c   6.60950000
_cell_angle_alpha   90.00000000
_cell_angle_beta   90.00000000
_cell_angle_gamma   90.00000000
_symmetry_Int_Tables_number   1
_chemical_formula_structural   AlH7C12O5
_chemical_formula_sum   'Al8 H56 C96 O40'
_cell_volume   2942.95020960
_cell_formula_units_Z   8
loop_
 _symmetry_equiv_pos_site_id
 _symmetry_equiv_pos_as_xyz
  1  'x, y, z'
loop_
 _atom_site_type_symbol
 _atom_site_label
 _atom_site_symmetry_multiplicity
 _atom_site_fract_x
 _atom_site_fract_y
 _atom_site_fract_z
 _atom_site_occupancy
 _atom_site_charge
  Al  Al1  1  0.250000  0.750000  0.000000  1.0  1.6282
  Al  Al2  1  0.750000  0.250000  0.000000  1.0  1.6282
  Al  Al3  1  0.750000  0.750000  0.000000  1.0  1.6282
  Al  Al4  1  0.250000  0.250000  0.000000  1.0  1.6282
  Al  Al5  1  0.250000  0.750000  0.500000  1.0  1.5149
  Al  Al6  1  0.750000  0.250000  0.500000  1.0  1.5149
  Al  Al7  1  0.750000  0.750000  0.500000  1.0  1.5149
  Al  Al8  1  0.250000  0.250000  0.500000  1.0  1.5149
  H  H9  1  0.060000  0.210000  0.530000  1.0  0.1043
  H  H10  1  0.120000  0.322000  0.939000  1.0  0.1149
  H  H11  1  0.060000  0.370000  0.650000  1.0  0.126
  H  H12  1  0.940000  0.790000  0.530000  1.0  0.1044
  H  H13  1  0.880000  0.678000  0.939000  1.0  0.114
  H  H14  1  0.940000  0.630000  0.650000  1.0  0.1256
  H  H15  1  0.290000  0.560000  0.530000  1.0  0.1028
  H  H16  1  0.178000  0.620000  0.939000  1.0  0.1137
  H  H17  1  0.130000  0.560000  0.650000  1.0  0.1262
  H  H18  1  0.710000  0.440000  0.530000  1.0  0.1029
  H  H19  1  0.822000  0.380000  0.939000  1.0  0.1143
  H  H20  1  0.870000  0.440000  0.650000  1.0  0.1261
  H  H21  1  0.440000  0.710000  0.470000  1.0  0.1039
  H  H22  1  0.380000  0.822000  0.061000  1.0  0.1141
  H  H23  1  0.440000  0.870000  0.350000  1.0  0.1273
  H  H24  1  0.560000  0.290000  0.470000  1.0  0.1038
  H  H25  1  0.620000  0.178000  0.061000  1.0  0.115
  H  H26  1  0.560000  0.130000  0.350000  1.0  0.1274
  H  H27  1  0.210000  0.060000  0.470000  1.0  0.1029
  H  H28  1  0.322000  0.120000  0.061000  1.0  0.1138
  H  H29  1  0.370000  0.060000  0.350000  1.0  0.1278
  H  H30  1  0.790000  0.940000  0.470000  1.0  0.1025
  H  H31  1  0.678000  0.880000  0.061000  1.0  0.1143
  H  H32  1  0.630000  0.940000  0.350000  1.0  0.1275
  H  H33  1  0.440000  0.290000  0.470000  1.0  0.1046
  H  H34  1  0.380000  0.178000  0.061000  1.0  0.1141
  H  H35  1  0.440000  0.130000  0.350000  1.0  0.1273
  H  H36  1  0.560000  0.710000  0.470000  1.0  0.1037
  H  H37  1  0.620000  0.822000  0.061000  1.0  0.1151
  H  H38  1  0.560000  0.870000  0.350000  1.0  0.1274
  H  H39  1  0.210000  0.940000  0.470000  1.0  0.1025
  H  H40  1  0.322000  0.880000  0.061000  1.0  0.1144
  H  H41  1  0.370000  0.940000  0.350000  1.0  0.1271
  H  H42  1  0.790000  0.060000  0.470000  1.0  0.1027
  H  H43  1  0.678000  0.120000  0.061000  1.0  0.1139
  H  H44  1  0.630000  0.060000  0.350000  1.0  0.1279
  H  H45  1  0.060000  0.790000  0.530000  1.0  0.1037
  H  H46  1  0.120000  0.678000  0.939000  1.0  0.1148
  H  H47  1  0.060000  0.630000  0.650000  1.0  0.1259
  H  H48  1  0.940000  0.210000  0.530000  1.0  0.1046
  H  H49  1  0.880000  0.322000  0.939000  1.0  0.114
  H  H50  1  0.940000  0.370000  0.650000  1.0  0.1256
  H  H51  1  0.290000  0.440000  0.530000  1.0  0.1022
  H  H52  1  0.178000  0.380000  0.939000  1.0  0.1142
  H  H53  1  0.130000  0.440000  0.650000  1.0  0.126
  H  H54  1  0.710000  0.560000  0.530000  1.0  0.1035
  H  H55  1  0.822000  0.620000  0.939000  1.0  0.1137
  H  H56  1  0.870000  0.560000  0.650000  1.0  0.1263
  H  H57  1  0.304700  0.195300  0.285000  1.0  0.3721
  H  H58  1  0.695300  0.804700  0.285000  1.0  0.3729
  H  H59  1  0.304700  0.804700  0.285000  1.0  0.3718
  H  H60  1  0.695300  0.195300  0.285000  1.0  0.3732
  H  H61  1  0.195300  0.695300  0.715000  1.0  0.3737
  H  H62  1  0.804700  0.304700  0.715000  1.0  0.372
  H  H63  1  0.195300  0.304700  0.715000  1.0  0.3731
  H  H64  1  0.804700  0.695300  0.715000  1.0  0.3727
  C  C65  1  0.139000  0.253000  0.270000  1.0  0.701
  C  C66  1  0.068000  0.257000  0.260000  1.0  -0.1399
  C  C67  1  0.034000  0.289000  0.097000  1.0  0.0485
  C  C68  1  0.034000  0.230000  0.410000  1.0  -0.0772
  C  C69  1  0.068000  0.322000  0.939000  1.0  -0.1336
  C  C70  1  0.034000  0.350000  0.772000  1.0  -0.0905
  C  C71  1  0.861000  0.747000  0.270000  1.0  0.7006
  C  C72  1  0.932000  0.743000  0.260000  1.0  -0.1396
  C  C73  1  0.966000  0.711000  0.097000  1.0  0.0481
  C  C74  1  0.966000  0.770000  0.410000  1.0  -0.0769
  C  C75  1  0.932000  0.678000  0.939000  1.0  -0.1351
  C  C76  1  0.966000  0.650000  0.772000  1.0  -0.0916
  C  C77  1  0.247000  0.639000  0.270000  1.0  0.7027
  C  C78  1  0.243000  0.568000  0.260000  1.0  -0.1381
  C  C79  1  0.211000  0.534000  0.097000  1.0  0.0485
  C  C80  1  0.270000  0.534000  0.410000  1.0  -0.0748
  C  C81  1  0.178000  0.568000  0.939000  1.0  -0.1343
  C  C82  1  0.150000  0.534000  0.772000  1.0  -0.0908
  C  C83  1  0.753000  0.361000  0.270000  1.0  0.7028
  C  C84  1  0.757000  0.432000  0.260000  1.0  -0.1388
  C  C85  1  0.789000  0.466000  0.097000  1.0  0.0487
  C  C86  1  0.730000  0.466000  0.410000  1.0  -0.0776
  C  C87  1  0.822000  0.432000  0.939000  1.0  -0.1347
  C  C88  1  0.850000  0.466000  0.772000  1.0  -0.0899
  C  C89  1  0.361000  0.753000  0.730000  1.0  0.7018
  C  C90  1  0.432000  0.757000  0.740000  1.0  -0.14
  C  C91  1  0.466000  0.789000  0.903000  1.0  0.0479
  C  C92  1  0.466000  0.730000  0.590000  1.0  -0.077
  C  C93  1  0.432000  0.822000  0.061000  1.0  -0.1348
  C  C94  1  0.466000  0.850000  0.228000  1.0  -0.0921
  C  C95  1  0.639000  0.247000  0.730000  1.0  0.7013
  C  C96  1  0.568000  0.243000  0.740000  1.0  -0.1391
  C  C97  1  0.534000  0.211000  0.903000  1.0  0.0482
  C  C98  1  0.534000  0.270000  0.590000  1.0  -0.078
  C  C99  1  0.568000  0.178000  0.061000  1.0  -0.1338
  C  C100  1  0.534000  0.150000  0.228000  1.0  -0.0909
  C  C101  1  0.253000  0.139000  0.730000  1.0  0.7034
  C  C102  1  0.257000  0.068000  0.740000  1.0  -0.1378
  C  C103  1  0.289000  0.034000  0.903000  1.0  0.0484
  C  C104  1  0.230000  0.034000  0.590000  1.0  -0.0782
  C  C105  1  0.322000  0.068000  0.061000  1.0  -0.1347
  C  C106  1  0.350000  0.034000  0.228000  1.0  -0.0901
  C  C107  1  0.747000  0.861000  0.730000  1.0  0.7034
  C  C108  1  0.743000  0.932000  0.740000  1.0  -0.1385
  C  C109  1  0.711000  0.966000  0.903000  1.0  0.048
  C  C110  1  0.770000  0.966000  0.590000  1.0  -0.0775
  C  C111  1  0.678000  0.932000  0.061000  1.0  -0.1344
  C  C112  1  0.650000  0.966000  0.228000  1.0  -0.0914
  C  C113  1  0.361000  0.247000  0.730000  1.0  0.7008
  C  C114  1  0.432000  0.243000  0.740000  1.0  -0.1391
  C  C115  1  0.466000  0.211000  0.903000  1.0  0.0481
  C  C116  1  0.466000  0.270000  0.590000  1.0  -0.0773
  C  C117  1  0.432000  0.178000  0.061000  1.0  -0.1371
  C  C118  1  0.466000  0.150000  0.228000  1.0  -0.0919
  C  C119  1  0.639000  0.753000  0.730000  1.0  0.7014
  C  C120  1  0.568000  0.757000  0.740000  1.0  -0.1399
  C  C121  1  0.534000  0.789000  0.903000  1.0  0.0485
  C  C122  1  0.534000  0.730000  0.590000  1.0  -0.0779
  C  C123  1  0.568000  0.822000  0.061000  1.0  -0.1365
  C  C124  1  0.534000  0.850000  0.228000  1.0  -0.0913
  C  C125  1  0.253000  0.861000  0.730000  1.0  0.7032
  C  C126  1  0.257000  0.932000  0.740000  1.0  -0.1379
  C  C127  1  0.289000  0.966000  0.903000  1.0  0.0486
  C  C128  1  0.230000  0.966000  0.590000  1.0  -0.0784
  C  C129  1  0.322000  0.932000  0.061000  1.0  -0.136
  C  C130  1  0.350000  0.966000  0.228000  1.0  -0.0903
  C  C131  1  0.747000  0.139000  0.730000  1.0  0.703
  C  C132  1  0.743000  0.068000  0.740000  1.0  -0.1381
  C  C133  1  0.711000  0.034000  0.903000  1.0  0.0485
  C  C134  1  0.770000  0.034000  0.590000  1.0  -0.0763
  C  C135  1  0.678000  0.068000  0.061000  1.0  -0.1344
  C  C136  1  0.650000  0.034000  0.228000  1.0  -0.091
  C  C137  1  0.139000  0.747000  0.270000  1.0  0.701
  C  C138  1  0.068000  0.743000  0.260000  1.0  -0.1395
  C  C139  1  0.034000  0.711000  0.097000  1.0  0.0486
  C  C140  1  0.034000  0.770000  0.410000  1.0  -0.0779
  C  C141  1  0.068000  0.678000  0.939000  1.0  -0.1381
  C  C142  1  0.034000  0.650000  0.772000  1.0  -0.0907
  C  C143  1  0.861000  0.253000  0.270000  1.0  0.7015
  C  C144  1  0.932000  0.257000  0.260000  1.0  -0.1401
  C  C145  1  0.966000  0.289000  0.097000  1.0  0.0485
  C  C146  1  0.966000  0.230000  0.410000  1.0  -0.0762
  C  C147  1  0.932000  0.322000  0.939000  1.0  -0.1372
  C  C148  1  0.966000  0.350000  0.772000  1.0  -0.0913
  C  C149  1  0.247000  0.361000  0.270000  1.0  0.7031
  C  C150  1  0.243000  0.432000  0.260000  1.0  -0.1387
  C  C151  1  0.211000  0.466000  0.097000  1.0  0.0485
  C  C152  1  0.270000  0.466000  0.410000  1.0  -0.076
  C  C153  1  0.178000  0.432000  0.939000  1.0  -0.1356
  C  C154  1  0.150000  0.466000  0.772000  1.0  -0.0912
  C  C155  1  0.753000  0.639000  0.270000  1.0  0.703
  C  C156  1  0.757000  0.568000  0.260000  1.0  -0.1387
  C  C157  1  0.789000  0.534000  0.097000  1.0  0.0489
  C  C158  1  0.730000  0.534000  0.410000  1.0  -0.0777
  C  C159  1  0.822000  0.568000  0.939000  1.0  -0.1361
  C  C160  1  0.850000  0.534000  0.772000  1.0  -0.0898
  O  O161  1  0.171000  0.248000  0.117000  1.0  -0.6446
  O  O162  1  0.165000  0.251000  0.447000  1.0  -0.6229
  O  O163  1  0.829000  0.752000  0.117000  1.0  -0.6433
  O  O164  1  0.835000  0.749000  0.447000  1.0  -0.6239
  O  O165  1  0.252000  0.671000  0.117000  1.0  -0.6385
  O  O166  1  0.249000  0.665000  0.447000  1.0  -0.6242
  O  O167  1  0.748000  0.329000  0.117000  1.0  -0.6378
  O  O168  1  0.751000  0.335000  0.447000  1.0  -0.6242
  O  O169  1  0.329000  0.748000  0.883000  1.0  -0.6428
  O  O170  1  0.335000  0.751000  0.553000  1.0  -0.6232
  O  O171  1  0.671000  0.252000  0.883000  1.0  -0.6443
  O  O172  1  0.665000  0.249000  0.553000  1.0  -0.6236
  O  O173  1  0.248000  0.171000  0.883000  1.0  -0.639
  O  O174  1  0.251000  0.165000  0.553000  1.0  -0.6245
  O  O175  1  0.752000  0.829000  0.883000  1.0  -0.6368
  O  O176  1  0.749000  0.835000  0.553000  1.0  -0.6245
  O  O177  1  0.329000  0.252000  0.883000  1.0  -0.6431
  O  O178  1  0.335000  0.249000  0.553000  1.0  -0.624
  O  O179  1  0.671000  0.748000  0.883000  1.0  -0.6435
  O  O180  1  0.665000  0.751000  0.553000  1.0  -0.6235
  O  O181  1  0.248000  0.829000  0.883000  1.0  -0.6373
  O  O182  1  0.251000  0.835000  0.553000  1.0  -0.6247
  O  O183  1  0.752000  0.171000  0.883000  1.0  -0.6381
  O  O184  1  0.749000  0.165000  0.553000  1.0  -0.6244
  O  O185  1  0.171000  0.752000  0.117000  1.0  -0.6448
  O  O186  1  0.165000  0.749000  0.447000  1.0  -0.6238
  O  O187  1  0.829000  0.248000  0.117000  1.0  -0.6437
  O  O188  1  0.835000  0.251000  0.447000  1.0  -0.624
  O  O189  1  0.252000  0.329000  0.117000  1.0  -0.6369
  O  O190  1  0.249000  0.335000  0.447000  1.0  -0.6256
  O  O191  1  0.748000  0.671000  0.117000  1.0  -0.6397
  O  O192  1  0.751000  0.665000  0.447000  1.0  -0.6245
  O  O193  1  0.281000  0.219000  0.285000  1.0  -0.7192
  O  O194  1  0.719000  0.781000  0.285000  1.0  -0.7193
  O  O195  1  0.281000  0.781000  0.285000  1.0  -0.7202
  O  O196  1  0.719000  0.219000  0.285000  1.0  -0.7185
  O  O197  1  0.219000  0.719000  0.715000  1.0  -0.7186
  O  O198  1  0.781000  0.281000  0.715000  1.0  -0.7199
  O  O199  1  0.219000  0.281000  0.715000  1.0  -0.719
  O  O200  1  0.781000  0.719000  0.715000  1.0  -0.7191
