# generated using pymatgen
data_EuH7(C5O2)3
_symmetry_space_group_name_H-M   'P 1'
_cell_length_a   24.57110000
_cell_length_b   13.29630000
_cell_length_c   14.73130000
_cell_angle_alpha   90.00000000
_cell_angle_beta   96.73500000
_cell_angle_gamma   90.00000000
_symmetry_Int_Tables_number   1
_chemical_formula_structural   EuH7(C5O2)3
_chemical_formula_sum   'Eu8 H56 C120 O48'
_cell_volume   4779.57310023
_cell_formula_units_Z   8
loop_
 _symmetry_equiv_pos_site_id
 _symmetry_equiv_pos_as_xyz
  1  'x, y, z'
loop_
 _atom_site_type_symbol
 _atom_site_label
 _atom_site_symmetry_multiplicity
 _atom_site_fract_x
 _atom_site_fract_y
 _atom_site_fract_z
 _atom_site_occupancy
 _atom_site_charge
  Eu  Eu1  1  0.328770  0.792500  0.030200  1.0  2.1258
  Eu  Eu2  1  0.828770  0.292500  0.030200  1.0  2.1258
  Eu  Eu3  1  0.671230  0.792500  0.469800  1.0  2.1302
  Eu  Eu4  1  0.171230  0.292500  0.469800  1.0  2.1302
  Eu  Eu5  1  0.671230  0.207500  0.969800  1.0  2.116
  Eu  Eu6  1  0.171230  0.707500  0.969800  1.0  2.116
  Eu  Eu7  1  0.328770  0.207500  0.530200  1.0  2.1271
  Eu  Eu8  1  0.828770  0.707500  0.530200  1.0  2.1271
  H  H9  1  0.228400  0.538400  0.713300  1.0  0.1104
  H  H10  1  0.354500  0.487800  0.570400  1.0  0.0993
  H  H11  1  0.367500  0.692200  0.772300  1.0  0.0935
  H  H12  1  0.450700  0.495700  0.602300  1.0  0.0975
  H  H13  1  0.532600  0.547000  0.558400  1.0  0.102
  H  H14  1  0.498000  0.829700  0.619400  1.0  0.0975
  H  H15  1  0.417900  0.778400  0.669100  1.0  0.1123
  H  H16  1  0.728400  0.038400  0.713300  1.0  0.1104
  H  H17  1  0.854500  0.987800  0.570400  1.0  0.0993
  H  H18  1  0.867500  0.192200  0.772300  1.0  0.0935
  H  H19  1  0.950700  0.995700  0.602300  1.0  0.0975
  H  H20  1  0.032600  0.047000  0.558400  1.0  0.102
  H  H21  1  0.998000  0.329700  0.619400  1.0  0.0975
  H  H22  1  0.917900  0.278400  0.669100  1.0  0.1123
  H  H23  1  0.771600  0.538400  0.786700  1.0  0.1099
  H  H24  1  0.645500  0.487800  0.929600  1.0  0.0995
  H  H25  1  0.632500  0.692200  0.727700  1.0  0.0944
  H  H26  1  0.549300  0.495700  0.897700  1.0  0.0981
  H  H27  1  0.467400  0.547000  0.941600  1.0  0.102
  H  H28  1  0.502000  0.829700  0.880600  1.0  0.0979
  H  H29  1  0.582100  0.778400  0.830900  1.0  0.1125
  H  H30  1  0.271600  0.038400  0.786700  1.0  0.1099
  H  H31  1  0.145500  0.987800  0.929600  1.0  0.0995
  H  H32  1  0.132500  0.192200  0.727700  1.0  0.0944
  H  H33  1  0.049300  0.995700  0.897700  1.0  0.0981
  H  H34  1  0.967400  0.047000  0.941600  1.0  0.102
  H  H35  1  0.002000  0.329700  0.880600  1.0  0.0979
  H  H36  1  0.082100  0.278400  0.830900  1.0  0.1125
  H  H37  1  0.771600  0.461600  0.286700  1.0  0.1099
  H  H38  1  0.645500  0.512200  0.429600  1.0  0.0991
  H  H39  1  0.632500  0.307800  0.227700  1.0  0.094
  H  H40  1  0.549300  0.504300  0.397700  1.0  0.0983
  H  H41  1  0.467400  0.453000  0.441600  1.0  0.1023
  H  H42  1  0.502000  0.170300  0.380600  1.0  0.0967
  H  H43  1  0.582100  0.221600  0.330900  1.0  0.112
  H  H44  1  0.271600  0.961600  0.286700  1.0  0.1099
  H  H45  1  0.145500  0.012200  0.429600  1.0  0.0991
  H  H46  1  0.132500  0.807800  0.227700  1.0  0.094
  H  H47  1  0.049300  0.004300  0.397700  1.0  0.0983
  H  H48  1  0.967400  0.953000  0.441600  1.0  0.1023
  H  H49  1  0.002000  0.670300  0.380600  1.0  0.0967
  H  H50  1  0.082100  0.721600  0.330900  1.0  0.112
  H  H51  1  0.228400  0.461600  0.213300  1.0  0.1105
  H  H52  1  0.354500  0.512200  0.070400  1.0  0.0993
  H  H53  1  0.367500  0.307800  0.272300  1.0  0.0939
  H  H54  1  0.450700  0.504300  0.102300  1.0  0.0975
  H  H55  1  0.532600  0.453000  0.058400  1.0  0.1019
  H  H56  1  0.498000  0.170300  0.119400  1.0  0.0969
  H  H57  1  0.417900  0.221600  0.169100  1.0  0.1115
  H  H58  1  0.728400  0.961600  0.213300  1.0  0.1105
  H  H59  1  0.854500  0.012200  0.070400  1.0  0.0993
  H  H60  1  0.867500  0.807800  0.272300  1.0  0.0939
  H  H61  1  0.950700  0.004300  0.102300  1.0  0.0975
  H  H62  1  0.032600  0.953000  0.058400  1.0  0.1019
  H  H63  1  0.998000  0.670300  0.119400  1.0  0.0969
  H  H64  1  0.917900  0.721600  0.169100  1.0  0.1115
  C  C65  1  0.273100  0.672400  0.836500  1.0  0.7754
  C  C66  1  0.295100  0.621400  0.756200  1.0  -0.1632
  C  C67  1  0.264200  0.551900  0.702400  1.0  -0.0013
  C  C68  1  0.286200  0.502400  0.632700  1.0  -0.127
  C  C69  1  0.252000  0.426400  0.576800  1.0  0.7396
  C  C70  1  0.339200  0.524000  0.615100  1.0  -0.0567
  C  C71  1  0.370000  0.599100  0.663400  1.0  0.0574
  C  C72  1  0.347000  0.644900  0.736400  1.0  -0.0638
  C  C73  1  0.424000  0.631100  0.638700  1.0  0.0757
  C  C74  1  0.459900  0.563500  0.605900  1.0  -0.1449
  C  C75  1  0.508900  0.594400  0.578400  1.0  -0.1032
  C  C76  1  0.523200  0.695700  0.580000  1.0  -0.1419
  C  C77  1  0.573700  0.728100  0.539000  1.0  0.6969
  C  C78  1  0.488500  0.762000  0.615300  1.0  -0.0473
  C  C79  1  0.440200  0.731400  0.644700  1.0  -0.132
  C  C80  1  0.773100  0.172400  0.836500  1.0  0.7754
  C  C81  1  0.795100  0.121400  0.756200  1.0  -0.1632
  C  C82  1  0.764200  0.051900  0.702400  1.0  -0.0013
  C  C83  1  0.786200  0.002400  0.632700  1.0  -0.127
  C  C84  1  0.752000  0.926400  0.576800  1.0  0.7396
  C  C85  1  0.839200  0.024000  0.615100  1.0  -0.0567
  C  C86  1  0.870000  0.099100  0.663400  1.0  0.0574
  C  C87  1  0.847000  0.144900  0.736400  1.0  -0.0638
  C  C88  1  0.924000  0.131100  0.638700  1.0  0.0757
  C  C89  1  0.959900  0.063500  0.605900  1.0  -0.1449
  C  C90  1  0.008900  0.094400  0.578400  1.0  -0.1032
  C  C91  1  0.023200  0.195700  0.580000  1.0  -0.1419
  C  C92  1  0.073700  0.228100  0.539000  1.0  0.6969
  C  C93  1  0.988500  0.262000  0.615300  1.0  -0.0473
  C  C94  1  0.940200  0.231400  0.644700  1.0  -0.132
  C  C95  1  0.726900  0.672400  0.663500  1.0  0.7753
  C  C96  1  0.704900  0.621400  0.743800  1.0  -0.1622
  C  C97  1  0.735800  0.551900  0.797600  1.0  0.0006
  C  C98  1  0.713800  0.502400  0.867300  1.0  -0.1282
  C  C99  1  0.748000  0.426400  0.923200  1.0  0.74
  C  C100  1  0.660800  0.524000  0.884900  1.0  -0.0583
  C  C101  1  0.630000  0.599100  0.836600  1.0  0.0566
  C  C102  1  0.653000  0.644900  0.763600  1.0  -0.0636
  C  C103  1  0.576000  0.631100  0.861300  1.0  0.076
  C  C104  1  0.540100  0.563500  0.894100  1.0  -0.144
  C  C105  1  0.491100  0.594400  0.921600  1.0  -0.1003
  C  C106  1  0.476800  0.695700  0.920000  1.0  -0.1415
  C  C107  1  0.426300  0.728100  0.961000  1.0  0.6962
  C  C108  1  0.511500  0.762000  0.884700  1.0  -0.0491
  C  C109  1  0.559800  0.731400  0.855300  1.0  -0.1334
  C  C110  1  0.226900  0.172400  0.663500  1.0  0.7753
  C  C111  1  0.204900  0.121400  0.743800  1.0  -0.1622
  C  C112  1  0.235800  0.051900  0.797600  1.0  0.0006
  C  C113  1  0.213800  0.002400  0.867300  1.0  -0.1282
  C  C114  1  0.248000  0.926400  0.923200  1.0  0.74
  C  C115  1  0.160800  0.024000  0.884900  1.0  -0.0583
  C  C116  1  0.130000  0.099100  0.836600  1.0  0.0566
  C  C117  1  0.153000  0.144900  0.763600  1.0  -0.0636
  C  C118  1  0.076000  0.131100  0.861300  1.0  0.076
  C  C119  1  0.040100  0.063500  0.894100  1.0  -0.144
  C  C120  1  0.991100  0.094400  0.921600  1.0  -0.1003
  C  C121  1  0.976800  0.195700  0.920000  1.0  -0.1415
  C  C122  1  0.926300  0.228100  0.961000  1.0  0.6962
  C  C123  1  0.011500  0.262000  0.884700  1.0  -0.0491
  C  C124  1  0.059800  0.231400  0.855300  1.0  -0.1334
  C  C125  1  0.726900  0.327600  0.163500  1.0  0.775
  C  C126  1  0.704900  0.378600  0.243800  1.0  -0.1623
  C  C127  1  0.735800  0.448100  0.297600  1.0  0.0003
  C  C128  1  0.713800  0.497600  0.367300  1.0  -0.1284
  C  C129  1  0.748000  0.573600  0.423200  1.0  0.7403
  C  C130  1  0.660800  0.476000  0.384900  1.0  -0.0578
  C  C131  1  0.630000  0.400900  0.336600  1.0  0.0566
  C  C132  1  0.653000  0.355100  0.263600  1.0  -0.0625
  C  C133  1  0.576000  0.368900  0.361300  1.0  0.0764
  C  C134  1  0.540100  0.436500  0.394100  1.0  -0.144
  C  C135  1  0.491100  0.405600  0.421600  1.0  -0.1008
  C  C136  1  0.476800  0.304300  0.420000  1.0  -0.1433
  C  C137  1  0.426300  0.271900  0.461000  1.0  0.6948
  C  C138  1  0.511500  0.238000  0.384700  1.0  -0.0495
  C  C139  1  0.559800  0.268600  0.355300  1.0  -0.1338
  C  C140  1  0.226900  0.827600  0.163500  1.0  0.775
  C  C141  1  0.204900  0.878600  0.243800  1.0  -0.1623
  C  C142  1  0.235800  0.948100  0.297600  1.0  0.0003
  C  C143  1  0.213800  0.997600  0.367300  1.0  -0.1284
  C  C144  1  0.248000  0.073600  0.423200  1.0  0.7403
  C  C145  1  0.160800  0.976000  0.384900  1.0  -0.0578
  C  C146  1  0.130000  0.900900  0.336600  1.0  0.0566
  C  C147  1  0.153000  0.855100  0.263600  1.0  -0.0625
  C  C148  1  0.076000  0.868900  0.361300  1.0  0.0764
  C  C149  1  0.040100  0.936500  0.394100  1.0  -0.144
  C  C150  1  0.991100  0.905600  0.421600  1.0  -0.1008
  C  C151  1  0.976800  0.804300  0.420000  1.0  -0.1433
  C  C152  1  0.926300  0.771900  0.461000  1.0  0.6948
  C  C153  1  0.011500  0.738000  0.384700  1.0  -0.0495
  C  C154  1  0.059800  0.768600  0.355300  1.0  -0.1338
  C  C155  1  0.273100  0.327600  0.336500  1.0  0.7754
  C  C156  1  0.295100  0.378600  0.256200  1.0  -0.1635
  C  C157  1  0.264200  0.448100  0.202400  1.0  -0.0017
  C  C158  1  0.286200  0.497600  0.132700  1.0  -0.1265
  C  C159  1  0.252000  0.573600  0.076800  1.0  0.7404
  C  C160  1  0.339200  0.476000  0.115100  1.0  -0.0566
  C  C161  1  0.370000  0.400900  0.163400  1.0  0.0573
  C  C162  1  0.347000  0.355100  0.236400  1.0  -0.0627
  C  C163  1  0.424000  0.368900  0.138700  1.0  0.0761
  C  C164  1  0.459900  0.436500  0.105900  1.0  -0.145
  C  C165  1  0.508900  0.405600  0.078400  1.0  -0.1039
  C  C166  1  0.523200  0.304300  0.080000  1.0  -0.1428
  C  C167  1  0.573700  0.271900  0.039000  1.0  0.6951
  C  C168  1  0.488500  0.238000  0.115300  1.0  -0.0482
  C  C169  1  0.440200  0.268600  0.144700  1.0  -0.1334
  C  C170  1  0.773100  0.827600  0.336500  1.0  0.7754
  C  C171  1  0.795100  0.878600  0.256200  1.0  -0.1635
  C  C172  1  0.764200  0.948100  0.202400  1.0  -0.0017
  C  C173  1  0.786200  0.997600  0.132700  1.0  -0.1265
  C  C174  1  0.752000  0.073600  0.076800  1.0  0.7404
  C  C175  1  0.839200  0.976000  0.115100  1.0  -0.0566
  C  C176  1  0.870000  0.900900  0.163400  1.0  0.0573
  C  C177  1  0.847000  0.855100  0.236400  1.0  -0.0627
  C  C178  1  0.924000  0.868900  0.138700  1.0  0.0761
  C  C179  1  0.959900  0.936500  0.105900  1.0  -0.145
  C  C180  1  0.008900  0.905600  0.078400  1.0  -0.1039
  C  C181  1  0.023200  0.804300  0.080000  1.0  -0.1428
  C  C182  1  0.073700  0.771900  0.039000  1.0  0.6951
  C  C183  1  0.988500  0.738000  0.115300  1.0  -0.0482
  C  C184  1  0.940200  0.768600  0.144700  1.0  -0.1334
  O  O185  1  0.304500  0.734300  0.879400  1.0  -0.6961
  O  O186  1  0.225690  0.649300  0.853900  1.0  -0.7262
  O  O187  1  0.201600  0.439600  0.562400  1.0  -0.6297
  O  O188  1  0.274900  0.353000  0.542400  1.0  -0.8495
  O  O189  1  0.600600  0.666000  0.500700  1.0  -0.6117
  O  O190  1  0.586900  0.819700  0.543800  1.0  -0.6891
  O  O191  1  0.804500  0.234300  0.879400  1.0  -0.6961
  O  O192  1  0.725690  0.149300  0.853900  1.0  -0.7262
  O  O193  1  0.701600  0.939600  0.562400  1.0  -0.6297
  O  O194  1  0.774900  0.853000  0.542400  1.0  -0.8495
  O  O195  1  0.100600  0.166000  0.500700  1.0  -0.6117
  O  O196  1  0.086900  0.319700  0.543800  1.0  -0.689
  O  O197  1  0.695500  0.734300  0.620600  1.0  -0.696
  O  O198  1  0.774310  0.649300  0.646100  1.0  -0.7256
  O  O199  1  0.798400  0.439600  0.937600  1.0  -0.6276
  O  O200  1  0.725100  0.353000  0.957600  1.0  -0.849
  O  O201  1  0.399400  0.666000  0.999300  1.0  -0.6102
  O  O202  1  0.413100  0.819700  0.956200  1.0  -0.6889
  O  O203  1  0.195500  0.234300  0.620600  1.0  -0.696
  O  O204  1  0.274310  0.149300  0.646100  1.0  -0.7256
  O  O205  1  0.298400  0.939600  0.937600  1.0  -0.6277
  O  O206  1  0.225100  0.853000  0.957600  1.0  -0.849
  O  O207  1  0.899400  0.166000  0.999300  1.0  -0.6102
  O  O208  1  0.913100  0.319700  0.956200  1.0  -0.689
  O  O209  1  0.695500  0.265700  0.120600  1.0  -0.697
  O  O210  1  0.774310  0.350700  0.146100  1.0  -0.7259
  O  O211  1  0.798400  0.560400  0.437600  1.0  -0.6272
  O  O212  1  0.725100  0.647000  0.457600  1.0  -0.8493
  O  O213  1  0.399400  0.334000  0.499300  1.0  -0.6101
  O  O214  1  0.413100  0.180300  0.456200  1.0  -0.6896
  O  O215  1  0.195500  0.765700  0.120600  1.0  -0.697
  O  O216  1  0.274310  0.850700  0.146100  1.0  -0.7259
  O  O217  1  0.298400  0.060400  0.437600  1.0  -0.6273
  O  O218  1  0.225100  0.147000  0.457600  1.0  -0.8493
  O  O219  1  0.899400  0.834000  0.499300  1.0  -0.6101
  O  O220  1  0.913100  0.680300  0.456200  1.0  -0.6898
  O  O221  1  0.304500  0.265700  0.379400  1.0  -0.6967
  O  O222  1  0.225690  0.350700  0.353900  1.0  -0.7273
  O  O223  1  0.201600  0.560400  0.062400  1.0  -0.627
  O  O224  1  0.274900  0.647000  0.042400  1.0  -0.8498
  O  O225  1  0.600600  0.334000  0.000700  1.0  -0.6121
  O  O226  1  0.586900  0.180300  0.043800  1.0  -0.6869
  O  O227  1  0.804500  0.765700  0.379400  1.0  -0.6967
  O  O228  1  0.725690  0.850700  0.353900  1.0  -0.7273
  O  O229  1  0.701600  0.060400  0.062400  1.0  -0.627
  O  O230  1  0.774900  0.147000  0.042400  1.0  -0.8498
  O  O231  1  0.100600  0.834000  0.000700  1.0  -0.6121
  O  O232  1  0.086900  0.680300  0.043800  1.0  -0.687
