# generated using pymatgen
data_PrH7(C5O2)3
_symmetry_space_group_name_H-M   'P 1'
_cell_length_a   24.71680000
_cell_length_b   13.01210000
_cell_length_c   14.97780000
_cell_angle_alpha   90.00000000
_cell_angle_beta   96.68200000
_cell_angle_gamma   90.00000000
_symmetry_Int_Tables_number   1
_chemical_formula_structural   PrH7(C5O2)3
_chemical_formula_sum   'Pr8 H56 C120 O48'
_cell_volume   4784.40070245
_cell_formula_units_Z   8
loop_
 _symmetry_equiv_pos_site_id
 _symmetry_equiv_pos_as_xyz
  1  'x, y, z'
loop_
 _atom_site_type_symbol
 _atom_site_label
 _atom_site_symmetry_multiplicity
 _atom_site_fract_x
 _atom_site_fract_y
 _atom_site_fract_z
 _atom_site_occupancy
 _atom_site_charge
  Pr  Pr1  1  0.328810  0.795440  0.032670  1.0  2.1568
  Pr  Pr2  1  0.828810  0.295440  0.032670  1.0  2.1568
  Pr  Pr3  1  0.671190  0.795440  0.467330  1.0  2.1578
  Pr  Pr4  1  0.171190  0.295440  0.467330  1.0  2.1578
  Pr  Pr5  1  0.671190  0.204560  0.967330  1.0  2.1576
  Pr  Pr6  1  0.171190  0.704560  0.967330  1.0  2.1576
  Pr  Pr7  1  0.328810  0.204560  0.532670  1.0  2.1562
  Pr  Pr8  1  0.828810  0.704560  0.532670  1.0  2.1562
  H  H9  1  0.229500  0.545100  0.711400  1.0  0.1048
  H  H10  1  0.354400  0.493400  0.568900  1.0  0.1059
  H  H11  1  0.369100  0.696900  0.771900  1.0  0.095
  H  H12  1  0.450400  0.495100  0.604200  1.0  0.1
  H  H13  1  0.531200  0.548000  0.556700  1.0  0.0949
  H  H14  1  0.499000  0.836700  0.620000  1.0  0.1034
  H  H15  1  0.418400  0.784600  0.669100  1.0  0.1116
  H  H16  1  0.729500  0.045100  0.711400  1.0  0.1048
  H  H17  1  0.854400  0.993400  0.568900  1.0  0.1059
  H  H18  1  0.869100  0.196900  0.771900  1.0  0.095
  H  H19  1  0.950400  0.995100  0.604200  1.0  0.1
  H  H20  1  0.031200  0.048000  0.556700  1.0  0.0949
  H  H21  1  0.999000  0.336700  0.620000  1.0  0.1034
  H  H22  1  0.918400  0.284600  0.669100  1.0  0.1116
  H  H23  1  0.770500  0.545100  0.788600  1.0  0.1046
  H  H24  1  0.645600  0.493400  0.931100  1.0  0.1062
  H  H25  1  0.630900  0.696900  0.728100  1.0  0.0959
  H  H26  1  0.549600  0.495100  0.895800  1.0  0.1011
  H  H27  1  0.468800  0.548000  0.943300  1.0  0.0948
  H  H28  1  0.501000  0.836700  0.880000  1.0  0.1039
  H  H29  1  0.581600  0.784600  0.830900  1.0  0.1117
  H  H30  1  0.270500  0.045100  0.788600  1.0  0.1046
  H  H31  1  0.145600  0.993400  0.931100  1.0  0.1062
  H  H32  1  0.130900  0.196900  0.728100  1.0  0.0959
  H  H33  1  0.049600  0.995100  0.895800  1.0  0.1011
  H  H34  1  0.968800  0.048000  0.943300  1.0  0.0948
  H  H35  1  0.001000  0.336700  0.880000  1.0  0.1039
  H  H36  1  0.081600  0.284600  0.830900  1.0  0.1117
  H  H37  1  0.770500  0.454900  0.288600  1.0  0.1048
  H  H38  1  0.645600  0.506600  0.431100  1.0  0.1057
  H  H39  1  0.630900  0.303100  0.228100  1.0  0.0959
  H  H40  1  0.549600  0.504900  0.395800  1.0  0.1013
  H  H41  1  0.468800  0.452000  0.443300  1.0  0.0947
  H  H42  1  0.501000  0.163300  0.380000  1.0  0.1032
  H  H43  1  0.581600  0.215400  0.330900  1.0  0.1118
  H  H44  1  0.270500  0.954900  0.288600  1.0  0.1048
  H  H45  1  0.145600  0.006600  0.431100  1.0  0.1057
  H  H46  1  0.130900  0.803100  0.228100  1.0  0.0959
  H  H47  1  0.049600  0.004900  0.395800  1.0  0.1013
  H  H48  1  0.968800  0.952000  0.443300  1.0  0.0947
  H  H49  1  0.001000  0.663300  0.380000  1.0  0.1032
  H  H50  1  0.081600  0.715400  0.330900  1.0  0.1118
  H  H51  1  0.229500  0.454900  0.211400  1.0  0.1049
  H  H52  1  0.354400  0.506600  0.068900  1.0  0.1053
  H  H53  1  0.369100  0.303100  0.271900  1.0  0.0957
  H  H54  1  0.450400  0.504900  0.104200  1.0  0.1002
  H  H55  1  0.531200  0.452000  0.056700  1.0  0.0947
  H  H56  1  0.499000  0.163300  0.120000  1.0  0.1032
  H  H57  1  0.418400  0.215400  0.169100  1.0  0.111
  H  H58  1  0.729500  0.954900  0.211400  1.0  0.1049
  H  H59  1  0.854400  0.006600  0.068900  1.0  0.1053
  H  H60  1  0.869100  0.803100  0.271900  1.0  0.0957
  H  H61  1  0.950400  0.004900  0.104200  1.0  0.1002
  H  H62  1  0.031200  0.952000  0.056700  1.0  0.0947
  H  H63  1  0.999000  0.663300  0.120000  1.0  0.1032
  H  H64  1  0.918400  0.715400  0.169100  1.0  0.111
  C  C65  1  0.274770  0.676200  0.834700  1.0  0.785
  C  C66  1  0.296520  0.625800  0.755000  1.0  -0.1588
  C  C67  1  0.265240  0.557700  0.701000  1.0  -0.001
  C  C68  1  0.286440  0.507800  0.631500  1.0  -0.1282
  C  C69  1  0.251790  0.433800  0.574300  1.0  0.7287
  C  C70  1  0.339630  0.528700  0.614300  1.0  -0.0572
  C  C71  1  0.370550  0.601700  0.664400  1.0  0.0162
  C  C72  1  0.348440  0.649200  0.736400  1.0  -0.0676
  C  C73  1  0.424810  0.634100  0.640200  1.0  0.0412
  C  C74  1  0.459600  0.564400  0.607000  1.0  -0.1357
  C  C75  1  0.508100  0.596200  0.578000  1.0  -0.0557
  C  C76  1  0.522400  0.698500  0.580300  1.0  -0.1582
  C  C77  1  0.572240  0.732900  0.539400  1.0  0.6966
  C  C78  1  0.489000  0.767800  0.615800  1.0  -0.0474
  C  C79  1  0.440600  0.736500  0.645500  1.0  -0.1279
  C  C80  1  0.774770  0.176200  0.834700  1.0  0.785
  C  C81  1  0.796520  0.125800  0.755000  1.0  -0.1588
  C  C82  1  0.765240  0.057700  0.701000  1.0  -0.001
  C  C83  1  0.786440  0.007800  0.631500  1.0  -0.1282
  C  C84  1  0.751790  0.933800  0.574300  1.0  0.7287
  C  C85  1  0.839630  0.028700  0.614300  1.0  -0.0572
  C  C86  1  0.870550  0.101700  0.664400  1.0  0.0162
  C  C87  1  0.848440  0.149200  0.736400  1.0  -0.0676
  C  C88  1  0.924810  0.134100  0.640200  1.0  0.0412
  C  C89  1  0.959600  0.064400  0.607000  1.0  -0.1357
  C  C90  1  0.008100  0.096200  0.578000  1.0  -0.0557
  C  C91  1  0.022400  0.198500  0.580300  1.0  -0.1582
  C  C92  1  0.072240  0.232900  0.539400  1.0  0.6966
  C  C93  1  0.989000  0.267800  0.615800  1.0  -0.0474
  C  C94  1  0.940600  0.236500  0.645500  1.0  -0.1279
  C  C95  1  0.725230  0.676200  0.665300  1.0  0.8089
  C  C96  1  0.703480  0.625800  0.745000  1.0  -0.1602
  C  C97  1  0.734760  0.557700  0.799000  1.0  0.0011
  C  C98  1  0.713560  0.507800  0.868500  1.0  -0.129
  C  C99  1  0.748210  0.433800  0.925700  1.0  0.729
  C  C100  1  0.660370  0.528700  0.885700  1.0  -0.0586
  C  C101  1  0.629450  0.601700  0.835600  1.0  0.0165
  C  C102  1  0.651560  0.649200  0.763600  1.0  -0.0675
  C  C103  1  0.575190  0.634100  0.859800  1.0  0.0412
  C  C104  1  0.540400  0.564400  0.893000  1.0  -0.1353
  C  C105  1  0.491900  0.596200  0.922000  1.0  -0.0541
  C  C106  1  0.477600  0.698500  0.919700  1.0  -0.1596
  C  C107  1  0.427760  0.732900  0.960600  1.0  0.6982
  C  C108  1  0.511000  0.767800  0.884200  1.0  -0.0488
  C  C109  1  0.559400  0.736500  0.854500  1.0  -0.1272
  C  C110  1  0.225230  0.176200  0.665300  1.0  0.8089
  C  C111  1  0.203480  0.125800  0.745000  1.0  -0.1602
  C  C112  1  0.234760  0.057700  0.799000  1.0  0.0011
  C  C113  1  0.213560  0.007800  0.868500  1.0  -0.129
  C  C114  1  0.248210  0.933800  0.925700  1.0  0.729
  C  C115  1  0.160370  0.028700  0.885700  1.0  -0.0586
  C  C116  1  0.129450  0.101700  0.835600  1.0  0.0165
  C  C117  1  0.151560  0.149200  0.763600  1.0  -0.0675
  C  C118  1  0.075190  0.134100  0.859800  1.0  0.0412
  C  C119  1  0.040400  0.064400  0.893000  1.0  -0.1353
  C  C120  1  0.991900  0.096200  0.922000  1.0  -0.0541
  C  C121  1  0.977600  0.198500  0.919700  1.0  -0.1596
  C  C122  1  0.927760  0.232900  0.960600  1.0  0.6982
  C  C123  1  0.011000  0.267800  0.884200  1.0  -0.0488
  C  C124  1  0.059400  0.236500  0.854500  1.0  -0.1272
  C  C125  1  0.725230  0.323800  0.165300  1.0  0.7958
  C  C126  1  0.703480  0.374200  0.245000  1.0  -0.1598
  C  C127  1  0.734760  0.442300  0.299000  1.0  0.0009
  C  C128  1  0.713560  0.492200  0.368500  1.0  -0.129
  C  C129  1  0.748210  0.566200  0.425700  1.0  0.7289
  C  C130  1  0.660370  0.471300  0.385700  1.0  -0.0577
  C  C131  1  0.629450  0.398300  0.335600  1.0  0.0165
  C  C132  1  0.651560  0.350800  0.263600  1.0  -0.067
  C  C133  1  0.575190  0.365900  0.359800  1.0  0.0413
  C  C134  1  0.540400  0.435600  0.393000  1.0  -0.1362
  C  C135  1  0.491900  0.403800  0.422000  1.0  -0.054
  C  C136  1  0.477600  0.301500  0.419700  1.0  -0.1604
  C  C137  1  0.427760  0.267100  0.460600  1.0  0.6946
  C  C138  1  0.511000  0.232200  0.384200  1.0  -0.0501
  C  C139  1  0.559400  0.263500  0.354500  1.0  -0.1272
  C  C140  1  0.225230  0.823800  0.165300  1.0  0.7958
  C  C141  1  0.203480  0.874200  0.245000  1.0  -0.1598
  C  C142  1  0.234760  0.942300  0.299000  1.0  0.0009
  C  C143  1  0.213560  0.992200  0.368500  1.0  -0.129
  C  C144  1  0.248210  0.066200  0.425700  1.0  0.7289
  C  C145  1  0.160370  0.971300  0.385700  1.0  -0.0577
  C  C146  1  0.129450  0.898300  0.335600  1.0  0.0165
  C  C147  1  0.151560  0.850800  0.263600  1.0  -0.067
  C  C148  1  0.075190  0.865900  0.359800  1.0  0.0413
  C  C149  1  0.040400  0.935600  0.393000  1.0  -0.1362
  C  C150  1  0.991900  0.903800  0.422000  1.0  -0.054
  C  C151  1  0.977600  0.801500  0.419700  1.0  -0.1604
  C  C152  1  0.927760  0.767100  0.460600  1.0  0.6946
  C  C153  1  0.011000  0.732200  0.384200  1.0  -0.0501
  C  C154  1  0.059400  0.763500  0.354500  1.0  -0.1272
  C  C155  1  0.274770  0.323800  0.334700  1.0  0.7847
  C  C156  1  0.296520  0.374200  0.255000  1.0  -0.1588
  C  C157  1  0.265240  0.442300  0.201000  1.0  -0.0015
  C  C158  1  0.286440  0.492200  0.131500  1.0  -0.1278
  C  C159  1  0.251790  0.566200  0.074300  1.0  0.7286
  C  C160  1  0.339630  0.471300  0.114300  1.0  -0.0566
  C  C161  1  0.370550  0.398300  0.164400  1.0  0.0161
  C  C162  1  0.348440  0.350800  0.236400  1.0  -0.067
  C  C163  1  0.424810  0.365900  0.140200  1.0  0.0413
  C  C164  1  0.459600  0.435600  0.107000  1.0  -0.1367
  C  C165  1  0.508100  0.403800  0.078000  1.0  -0.0558
  C  C166  1  0.522400  0.301500  0.080300  1.0  -0.1588
  C  C167  1  0.572240  0.267100  0.039400  1.0  0.6942
  C  C168  1  0.489000  0.232200  0.115800  1.0  -0.0493
  C  C169  1  0.440600  0.263500  0.145500  1.0  -0.1273
  C  C170  1  0.774770  0.823800  0.334700  1.0  0.7847
  C  C171  1  0.796520  0.874200  0.255000  1.0  -0.1588
  C  C172  1  0.765240  0.942300  0.201000  1.0  -0.0015
  C  C173  1  0.786440  0.992200  0.131500  1.0  -0.1278
  C  C174  1  0.751790  0.066200  0.074300  1.0  0.7286
  C  C175  1  0.839630  0.971300  0.114300  1.0  -0.0566
  C  C176  1  0.870550  0.898300  0.164400  1.0  0.0161
  C  C177  1  0.848440  0.850800  0.236400  1.0  -0.067
  C  C178  1  0.924810  0.865900  0.140200  1.0  0.0413
  C  C179  1  0.959600  0.935600  0.107000  1.0  -0.1367
  C  C180  1  0.008100  0.903800  0.078000  1.0  -0.0558
  C  C181  1  0.022400  0.801500  0.080300  1.0  -0.1588
  C  C182  1  0.072240  0.767100  0.039400  1.0  0.6942
  C  C183  1  0.989000  0.732200  0.115800  1.0  -0.0493
  C  C184  1  0.940600  0.763500  0.145500  1.0  -0.1273
  O  O185  1  0.305310  0.738400  0.878400  1.0  -0.695
  O  O186  1  0.227210  0.653100  0.849600  1.0  -0.7187
  O  O187  1  0.201460  0.449100  0.561100  1.0  -0.6168
  O  O188  1  0.273730  0.358200  0.538200  1.0  -0.834
  O  O189  1  0.599040  0.667100  0.501800  1.0  -0.649
  O  O190  1  0.585320  0.826500  0.541300  1.0  -0.705
  O  O191  1  0.805310  0.238400  0.878400  1.0  -0.695
  O  O192  1  0.727210  0.153100  0.849600  1.0  -0.7187
  O  O193  1  0.701460  0.949100  0.561100  1.0  -0.6168
  O  O194  1  0.773730  0.858200  0.538200  1.0  -0.834
  O  O195  1  0.099040  0.167100  0.501800  1.0  -0.649
  O  O196  1  0.085320  0.326500  0.541300  1.0  -0.7049
  O  O197  1  0.694690  0.738400  0.621600  1.0  -0.6943
  O  O198  1  0.772790  0.653100  0.650400  1.0  -0.7144
  O  O199  1  0.798540  0.449100  0.938900  1.0  -0.6125
  O  O200  1  0.726270  0.358200  0.961800  1.0  -0.834
  O  O201  1  0.400960  0.667100  0.998200  1.0  -0.6471
  O  O202  1  0.414680  0.826500  0.958700  1.0  -0.7033
  O  O203  1  0.194690  0.238400  0.621600  1.0  -0.6943
  O  O204  1  0.272790  0.153100  0.650400  1.0  -0.7144
  O  O205  1  0.298540  0.949100  0.938900  1.0  -0.6125
  O  O206  1  0.226270  0.858200  0.961800  1.0  -0.834
  O  O207  1  0.900960  0.167100  0.998200  1.0  -0.6471
  O  O208  1  0.914680  0.326500  0.958700  1.0  -0.7033
  O  O209  1  0.694690  0.261600  0.121600  1.0  -0.6948
  O  O210  1  0.772790  0.346900  0.150400  1.0  -0.7143
  O  O211  1  0.798540  0.550900  0.438900  1.0  -0.6127
  O  O212  1  0.726270  0.641800  0.461800  1.0  -0.8335
  O  O213  1  0.400960  0.332900  0.498200  1.0  -0.6476
  O  O214  1  0.414680  0.173500  0.458700  1.0  -0.7034
  O  O215  1  0.194690  0.761600  0.121600  1.0  -0.6948
  O  O216  1  0.272790  0.846900  0.150400  1.0  -0.7143
  O  O217  1  0.298540  0.050900  0.438900  1.0  -0.6127
  O  O218  1  0.226270  0.141800  0.461800  1.0  -0.8335
  O  O219  1  0.900960  0.832900  0.498200  1.0  -0.6476
  O  O220  1  0.914680  0.673500  0.458700  1.0  -0.7034
  O  O221  1  0.305310  0.261600  0.378400  1.0  -0.6951
  O  O222  1  0.227210  0.346900  0.349600  1.0  -0.7154
  O  O223  1  0.201460  0.550900  0.061100  1.0  -0.6147
  O  O224  1  0.273730  0.641800  0.038200  1.0  -0.8337
  O  O225  1  0.599040  0.332900  0.001800  1.0  -0.6493
  O  O226  1  0.585320  0.173500  0.041300  1.0  -0.703
  O  O227  1  0.805310  0.761600  0.378400  1.0  -0.6951
  O  O228  1  0.727210  0.846900  0.349600  1.0  -0.7154
  O  O229  1  0.701460  0.050900  0.061100  1.0  -0.6147
  O  O230  1  0.773730  0.141800  0.038200  1.0  -0.8337
  O  O231  1  0.099040  0.832900  0.001800  1.0  -0.6493
  O  O232  1  0.085320  0.673500  0.041300  1.0  -0.7026
