# generated using pymatgen
data_SmH7(C5O2)3
_symmetry_space_group_name_H-M   'P 1'
_cell_length_a   24.81120000
_cell_length_b   13.74610000
_cell_length_c   13.66270000
_cell_angle_alpha   90.00000000
_cell_angle_beta   99.15300000
_cell_angle_gamma   90.00000000
_symmetry_Int_Tables_number   1
_chemical_formula_structural   SmH7(C5O2)3
_chemical_formula_sum   'Sm8 H56 C120 O48'
_cell_volume   4600.43033669
_cell_formula_units_Z   8
loop_
 _symmetry_equiv_pos_site_id
 _symmetry_equiv_pos_as_xyz
  1  'x, y, z'
loop_
 _atom_site_type_symbol
 _atom_site_label
 _atom_site_symmetry_multiplicity
 _atom_site_fract_x
 _atom_site_fract_y
 _atom_site_fract_z
 _atom_site_occupancy
 _atom_site_charge
  Sm  Sm1  1  0.170230  0.215480  0.461040  1.0  2.2566
  Sm  Sm2  1  0.670230  0.715480  0.461040  1.0  2.2566
  Sm  Sm3  1  0.829770  0.215480  0.038960  1.0  2.256
  Sm  Sm4  1  0.329770  0.715480  0.038960  1.0  2.2564
  Sm  Sm5  1  0.829770  0.784520  0.538960  1.0  2.2549
  Sm  Sm6  1  0.329770  0.284520  0.538960  1.0  2.2549
  Sm  Sm7  1  0.170230  0.784520  0.961040  1.0  2.2451
  Sm  Sm8  1  0.670230  0.284520  0.961040  1.0  2.2451
  H  H9  1  0.993200  0.177600  0.588600  1.0  0.1081
  H  H10  1  0.910700  0.227200  0.629800  1.0  0.1139
  H  H11  1  0.956400  0.506000  0.615700  1.0  0.1088
  H  H12  1  0.039000  0.453900  0.577400  1.0  0.0875
  H  H13  1  0.866800  0.298200  0.755000  1.0  0.0968
  H  H14  1  0.725400  0.442100  0.686400  1.0  0.111
  H  H15  1  0.854600  0.515300  0.557800  1.0  0.0965
  H  H16  1  0.493200  0.677600  0.588600  1.0  0.1081
  H  H17  1  0.410700  0.727200  0.629800  1.0  0.1139
  H  H18  1  0.456400  0.006000  0.615700  1.0  0.1088
  H  H19  1  0.539000  0.953900  0.577400  1.0  0.0875
  H  H20  1  0.366800  0.798200  0.755000  1.0  0.0968
  H  H21  1  0.225400  0.942100  0.686400  1.0  0.111
  H  H22  1  0.354600  0.015300  0.557800  1.0  0.0965
  H  H23  1  0.006800  0.177600  0.911400  1.0  0.1083
  H  H24  1  0.089300  0.227200  0.870200  1.0  0.1152
  H  H25  1  0.043600  0.506000  0.884300  1.0  0.1089
  H  H26  1  0.961000  0.453900  0.922600  1.0  0.0877
  H  H27  1  0.133200  0.298200  0.745000  1.0  0.0971
  H  H28  1  0.274600  0.442100  0.813600  1.0  0.1128
  H  H29  1  0.145400  0.515300  0.942200  1.0  0.0952
  H  H30  1  0.506800  0.677600  0.911400  1.0  0.1083
  H  H31  1  0.589300  0.727200  0.870200  1.0  0.1152
  H  H32  1  0.543600  0.006000  0.884300  1.0  0.1089
  H  H33  1  0.461000  0.953900  0.922600  1.0  0.0877
  H  H34  1  0.633200  0.798200  0.745000  1.0  0.0971
  H  H35  1  0.774600  0.942100  0.813600  1.0  0.1128
  H  H36  1  0.645400  0.015300  0.942200  1.0  0.0952
  H  H37  1  0.006800  0.822400  0.411400  1.0  0.1082
  H  H38  1  0.089300  0.772800  0.370200  1.0  0.1149
  H  H39  1  0.043600  0.494000  0.384300  1.0  0.1085
  H  H40  1  0.961000  0.546100  0.422600  1.0  0.0872
  H  H41  1  0.133200  0.701800  0.245000  1.0  0.0972
  H  H42  1  0.274600  0.557900  0.313600  1.0  0.1131
  H  H43  1  0.145400  0.484700  0.442200  1.0  0.0956
  H  H44  1  0.506800  0.322400  0.411400  1.0  0.1082
  H  H45  1  0.589300  0.272800  0.370200  1.0  0.1149
  H  H46  1  0.543600  0.994000  0.384300  1.0  0.1085
  H  H47  1  0.461000  0.046100  0.422600  1.0  0.0872
  H  H48  1  0.633200  0.201800  0.245000  1.0  0.0972
  H  H49  1  0.774600  0.057900  0.313600  1.0  0.1131
  H  H50  1  0.645400  0.984700  0.442200  1.0  0.0956
  H  H51  1  0.993200  0.822400  0.088600  1.0  0.1086
  H  H52  1  0.910700  0.772800  0.129800  1.0  0.1144
  H  H53  1  0.956400  0.494000  0.115700  1.0  0.1088
  H  H54  1  0.039000  0.546100  0.077400  1.0  0.0877
  H  H55  1  0.866800  0.701800  0.255000  1.0  0.0968
  H  H56  1  0.725400  0.557900  0.186400  1.0  0.1113
  H  H57  1  0.854600  0.484700  0.057800  1.0  0.0964
  H  H58  1  0.493200  0.322400  0.088600  1.0  0.1086
  H  H59  1  0.410700  0.272800  0.129800  1.0  0.1144
  H  H60  1  0.456400  0.994000  0.115700  1.0  0.1088
  H  H61  1  0.539000  0.046100  0.077400  1.0  0.0877
  H  H62  1  0.366800  0.201800  0.255000  1.0  0.0968
  H  H63  1  0.225400  0.057900  0.186400  1.0  0.1113
  H  H64  1  0.354600  0.984700  0.057800  1.0  0.0964
  C  C65  1  0.075300  0.280480  0.537480  1.0  0.6952
  C  C66  1  0.024020  0.311820  0.574740  1.0  -0.1555
  C  C67  1  0.985780  0.243600  0.593200  1.0  -0.0752
  C  C68  1  0.936290  0.273700  0.618500  1.0  -0.1313
  C  C69  1  0.924100  0.372060  0.627470  1.0  0.0683
  C  C70  1  0.963220  0.439800  0.610700  1.0  -0.149
  C  C71  1  0.012690  0.408000  0.586200  1.0  -0.0489
  C  C72  1  0.869360  0.399930  0.650190  1.0  0.0274
  C  C73  1  0.846190  0.346570  0.719140  1.0  -0.0842
  C  C74  1  0.793350  0.363010  0.736300  1.0  -0.1595
  C  C75  1  0.761880  0.433460  0.679970  1.0  0.0139
  C  C76  1  0.785620  0.491030  0.613710  1.0  -0.108
  C  C77  1  0.838860  0.475290  0.600360  1.0  -0.06
  C  C78  1  0.771290  0.307120  0.816850  1.0  0.7342
  C  C79  1  0.750780  0.569700  0.558730  1.0  0.7421
  C  C80  1  0.575300  0.780480  0.537480  1.0  0.6952
  C  C81  1  0.524020  0.811820  0.574740  1.0  -0.1555
  C  C82  1  0.485780  0.743600  0.593200  1.0  -0.0752
  C  C83  1  0.436290  0.773700  0.618500  1.0  -0.1313
  C  C84  1  0.424100  0.872060  0.627470  1.0  0.0683
  C  C85  1  0.463220  0.939800  0.610700  1.0  -0.149
  C  C86  1  0.512690  0.908000  0.586200  1.0  -0.0489
  C  C87  1  0.369360  0.899930  0.650190  1.0  0.0274
  C  C88  1  0.346190  0.846570  0.719140  1.0  -0.0842
  C  C89  1  0.293350  0.863010  0.736300  1.0  -0.1595
  C  C90  1  0.261880  0.933460  0.679970  1.0  0.0139
  C  C91  1  0.285620  0.991030  0.613710  1.0  -0.108
  C  C92  1  0.338860  0.975290  0.600360  1.0  -0.06
  C  C93  1  0.271290  0.807120  0.816850  1.0  0.7342
  C  C94  1  0.250780  0.069700  0.558730  1.0  0.7421
  C  C95  1  0.924700  0.280480  0.962520  1.0  0.6956
  C  C96  1  0.975980  0.311820  0.925260  1.0  -0.1559
  C  C97  1  0.014220  0.243600  0.906800  1.0  -0.0742
  C  C98  1  0.063710  0.273700  0.881500  1.0  -0.1311
  C  C99  1  0.075900  0.372060  0.872530  1.0  0.0691
  C  C100  1  0.036780  0.439800  0.889300  1.0  -0.1494
  C  C101  1  0.987310  0.408000  0.913800  1.0  -0.0491
  C  C102  1  0.130640  0.399930  0.849810  1.0  0.0265
  C  C103  1  0.153810  0.346570  0.780860  1.0  -0.0845
  C  C104  1  0.206650  0.363010  0.763700  1.0  -0.1595
  C  C105  1  0.238120  0.433460  0.820030  1.0  0.0166
  C  C106  1  0.214380  0.491030  0.886290  1.0  -0.1094
  C  C107  1  0.161140  0.475290  0.899640  1.0  -0.0626
  C  C108  1  0.228710  0.307120  0.683150  1.0  0.7329
  C  C109  1  0.249220  0.569700  0.941270  1.0  0.7432
  C  C110  1  0.424700  0.780480  0.962520  1.0  0.6956
  C  C111  1  0.475980  0.811820  0.925260  1.0  -0.1559
  C  C112  1  0.514220  0.743600  0.906800  1.0  -0.0742
  C  C113  1  0.563710  0.773700  0.881500  1.0  -0.1311
  C  C114  1  0.575900  0.872060  0.872530  1.0  0.0691
  C  C115  1  0.536780  0.939800  0.889300  1.0  -0.1494
  C  C116  1  0.487310  0.908000  0.913800  1.0  -0.0491
  C  C117  1  0.630640  0.899930  0.849810  1.0  0.0265
  C  C118  1  0.653810  0.846570  0.780860  1.0  -0.0845
  C  C119  1  0.706650  0.863010  0.763700  1.0  -0.1595
  C  C120  1  0.738120  0.933460  0.820030  1.0  0.0166
  C  C121  1  0.714380  0.991030  0.886290  1.0  -0.1094
  C  C122  1  0.661140  0.975290  0.899640  1.0  -0.0626
  C  C123  1  0.728710  0.807120  0.683150  1.0  0.7329
  C  C124  1  0.749220  0.069700  0.941270  1.0  0.7432
  C  C125  1  0.924700  0.719520  0.462520  1.0  0.6956
  C  C126  1  0.975980  0.688180  0.425260  1.0  -0.1557
  C  C127  1  0.014220  0.756400  0.406800  1.0  -0.073
  C  C128  1  0.063710  0.726300  0.381500  1.0  -0.1316
  C  C129  1  0.075900  0.627940  0.372530  1.0  0.0688
  C  C130  1  0.036780  0.560200  0.389300  1.0  -0.1486
  C  C131  1  0.987310  0.592000  0.413800  1.0  -0.0483
  C  C132  1  0.130640  0.600070  0.349810  1.0  0.0265
  C  C133  1  0.153810  0.653430  0.280860  1.0  -0.0846
  C  C134  1  0.206650  0.636990  0.263700  1.0  -0.1593
  C  C135  1  0.238120  0.566540  0.320030  1.0  0.0167
  C  C136  1  0.214380  0.508970  0.386290  1.0  -0.1087
  C  C137  1  0.161140  0.524710  0.399640  1.0  -0.0628
  C  C138  1  0.228710  0.692880  0.183150  1.0  0.7326
  C  C139  1  0.249220  0.430300  0.441270  1.0  0.744
  C  C140  1  0.424700  0.219520  0.462520  1.0  0.6956
  C  C141  1  0.475980  0.188180  0.425260  1.0  -0.1557
  C  C142  1  0.514220  0.256400  0.406800  1.0  -0.073
  C  C143  1  0.563710  0.226300  0.381500  1.0  -0.1316
  C  C144  1  0.575900  0.127940  0.372530  1.0  0.0688
  C  C145  1  0.536780  0.060200  0.389300  1.0  -0.1486
  C  C146  1  0.487310  0.092000  0.413800  1.0  -0.0483
  C  C147  1  0.630640  0.100070  0.349810  1.0  0.0265
  C  C148  1  0.653810  0.153430  0.280860  1.0  -0.0846
  C  C149  1  0.706650  0.136990  0.263700  1.0  -0.1593
  C  C150  1  0.738120  0.066540  0.320030  1.0  0.0167
  C  C151  1  0.714380  0.008970  0.386290  1.0  -0.1087
  C  C152  1  0.661140  0.024710  0.399640  1.0  -0.0628
  C  C153  1  0.728710  0.192880  0.183150  1.0  0.7326
  C  C154  1  0.749220  0.930300  0.441270  1.0  0.744
  C  C155  1  0.075300  0.719520  0.037480  1.0  0.6965
  C  C156  1  0.024020  0.688180  0.074740  1.0  -0.155
  C  C157  1  0.985780  0.756400  0.093200  1.0  -0.0733
  C  C158  1  0.936290  0.726300  0.118500  1.0  -0.1316
  C  C159  1  0.924100  0.627940  0.127470  1.0  0.0677
  C  C160  1  0.963220  0.560200  0.110700  1.0  -0.1482
  C  C161  1  0.012690  0.592000  0.086200  1.0  -0.0483
  C  C162  1  0.869360  0.600070  0.150190  1.0  0.0271
  C  C163  1  0.846190  0.653430  0.219140  1.0  -0.084
  C  C164  1  0.793350  0.636990  0.236300  1.0  -0.1589
  C  C165  1  0.761880  0.566540  0.179970  1.0  0.0142
  C  C166  1  0.785620  0.508970  0.113710  1.0  -0.1079
  C  C167  1  0.838860  0.524710  0.100360  1.0  -0.06
  C  C168  1  0.771290  0.692880  0.316850  1.0  0.734
  C  C169  1  0.750780  0.430300  0.058730  1.0  0.7425
  C  C170  1  0.575300  0.219520  0.037480  1.0  0.6965
  C  C171  1  0.524020  0.188180  0.074740  1.0  -0.155
  C  C172  1  0.485780  0.256400  0.093200  1.0  -0.0733
  C  C173  1  0.436290  0.226300  0.118500  1.0  -0.1316
  C  C174  1  0.424100  0.127940  0.127470  1.0  0.0677
  C  C175  1  0.463220  0.060200  0.110700  1.0  -0.1482
  C  C176  1  0.512690  0.092000  0.086200  1.0  -0.0483
  C  C177  1  0.369360  0.100070  0.150190  1.0  0.0271
  C  C178  1  0.346190  0.153430  0.219140  1.0  -0.084
  C  C179  1  0.293350  0.136990  0.236300  1.0  -0.1589
  C  C180  1  0.261880  0.066540  0.179970  1.0  0.0142
  C  C181  1  0.285620  0.008970  0.113710  1.0  -0.1079
  C  C182  1  0.338860  0.024710  0.100360  1.0  -0.06
  C  C183  1  0.271290  0.192880  0.316850  1.0  0.734
  C  C184  1  0.250780  0.930300  0.058730  1.0  0.7425
  O  O185  1  0.106960  0.343080  0.513990  1.0  -0.6248
  O  O186  1  0.084390  0.189950  0.528220  1.0  -0.7183
  O  O187  1  0.772730  0.644620  0.530410  1.0  -0.8254
  O  O188  1  0.699630  0.558920  0.543450  1.0  -0.6897
  O  O189  1  0.723060  0.327430  0.830110  1.0  -0.744
  O  O190  1  0.801910  0.246710  0.864040  1.0  -0.6874
  O  O191  1  0.606960  0.843080  0.513990  1.0  -0.6248
  O  O192  1  0.584390  0.689950  0.528220  1.0  -0.7183
  O  O193  1  0.272730  0.144620  0.530410  1.0  -0.8254
  O  O194  1  0.199630  0.058920  0.543450  1.0  -0.6897
  O  O195  1  0.223060  0.827430  0.830110  1.0  -0.744
  O  O196  1  0.301910  0.746710  0.864040  1.0  -0.6874
  O  O197  1  0.893040  0.343080  0.986010  1.0  -0.625
  O  O198  1  0.915610  0.189950  0.971780  1.0  -0.7197
  O  O199  1  0.227270  0.644620  0.969590  1.0  -0.8247
  O  O200  1  0.300370  0.558920  0.956550  1.0  -0.6914
  O  O201  1  0.276940  0.327430  0.669890  1.0  -0.7401
  O  O202  1  0.198090  0.246710  0.635960  1.0  -0.6873
  O  O203  1  0.393040  0.843080  0.986010  1.0  -0.625
  O  O204  1  0.415610  0.689950  0.971780  1.0  -0.7197
  O  O205  1  0.727270  0.144620  0.969590  1.0  -0.8247
  O  O206  1  0.800370  0.058920  0.956550  1.0  -0.6914
  O  O207  1  0.776940  0.827430  0.669890  1.0  -0.7401
  O  O208  1  0.698090  0.746710  0.635960  1.0  -0.6873
  O  O209  1  0.893040  0.656920  0.486010  1.0  -0.6245
  O  O210  1  0.915610  0.810050  0.471780  1.0  -0.7191
  O  O211  1  0.227270  0.355380  0.469590  1.0  -0.8239
  O  O212  1  0.300370  0.441080  0.456550  1.0  -0.6914
  O  O213  1  0.276940  0.672570  0.169890  1.0  -0.74
  O  O214  1  0.198090  0.753290  0.135960  1.0  -0.6861
  O  O215  1  0.393040  0.156920  0.486010  1.0  -0.6245
  O  O216  1  0.415610  0.310050  0.471780  1.0  -0.7191
  O  O217  1  0.727270  0.855380  0.469590  1.0  -0.8239
  O  O218  1  0.800370  0.941080  0.456550  1.0  -0.6914
  O  O219  1  0.776940  0.172570  0.169890  1.0  -0.74
  O  O220  1  0.698090  0.253290  0.135960  1.0  -0.6861
  O  O221  1  0.106960  0.656920  0.013990  1.0  -0.6241
  O  O222  1  0.084390  0.810050  0.028220  1.0  -0.7213
  O  O223  1  0.772730  0.355380  0.030410  1.0  -0.8247
  O  O224  1  0.699630  0.441080  0.043450  1.0  -0.6908
  O  O225  1  0.723060  0.672570  0.330110  1.0  -0.7432
  O  O226  1  0.801910  0.753290  0.364040  1.0  -0.6866
  O  O227  1  0.606960  0.156920  0.013990  1.0  -0.6241
  O  O228  1  0.584390  0.310050  0.028220  1.0  -0.7213
  O  O229  1  0.272730  0.855380  0.030410  1.0  -0.8247
  O  O230  1  0.199630  0.941080  0.043450  1.0  -0.6908
  O  O231  1  0.223060  0.172570  0.330110  1.0  -0.7432
  O  O232  1  0.301910  0.253290  0.364040  1.0  -0.6866
