# generated using pymatgen
data_CeH7(C5O2)3
_symmetry_space_group_name_H-M   'P 1'
_cell_length_a   24.84430000
_cell_length_b   12.88360000
_cell_length_c   15.05380000
_cell_angle_alpha   90.00000000
_cell_angle_beta   96.70900000
_cell_angle_gamma   90.00000000
_symmetry_Int_Tables_number   1
_chemical_formula_structural   CeH7(C5O2)3
_chemical_formula_sum   'Ce8 H56 C120 O48'
_cell_volume   4785.48541270
_cell_formula_units_Z   8
loop_
 _symmetry_equiv_pos_site_id
 _symmetry_equiv_pos_as_xyz
  1  'x, y, z'
loop_
 _atom_site_type_symbol
 _atom_site_label
 _atom_site_symmetry_multiplicity
 _atom_site_fract_x
 _atom_site_fract_y
 _atom_site_fract_z
 _atom_site_occupancy
 _atom_site_charge
  Ce  Ce1  1  0.328810  0.796960  0.033830  1.0  2.198
  Ce  Ce2  1  0.828810  0.296960  0.033830  1.0  2.198
  Ce  Ce3  1  0.671190  0.796960  0.466170  1.0  2.1997
  Ce  Ce4  1  0.171190  0.296960  0.466170  1.0  2.1997
  Ce  Ce5  1  0.671190  0.203040  0.966170  1.0  2.1982
  Ce  Ce6  1  0.171190  0.703040  0.966170  1.0  2.1982
  Ce  Ce7  1  0.328810  0.203040  0.533830  1.0  2.1971
  Ce  Ce8  1  0.828810  0.703040  0.533830  1.0  2.1971
  H  H9  1  0.230200  0.548000  0.710300  1.0  0.1073
  H  H10  1  0.354400  0.495300  0.568800  1.0  0.1025
  H  H11  1  0.370500  0.697600  0.772500  1.0  0.0934
  H  H12  1  0.450500  0.495300  0.604400  1.0  0.0973
  H  H13  1  0.530800  0.548500  0.556300  1.0  0.0927
  H  H14  1  0.499900  0.839100  0.620800  1.0  0.0955
  H  H15  1  0.419800  0.787600  0.670800  1.0  0.1065
  H  H16  1  0.730200  0.048000  0.710300  1.0  0.1073
  H  H17  1  0.854400  0.995300  0.568800  1.0  0.1025
  H  H18  1  0.870500  0.197600  0.772500  1.0  0.0934
  H  H19  1  0.950500  0.995300  0.604400  1.0  0.0973
  H  H20  1  0.030800  0.048500  0.556300  1.0  0.0927
  H  H21  1  0.999900  0.339100  0.620800  1.0  0.0955
  H  H22  1  0.919800  0.287600  0.670800  1.0  0.1065
  H  H23  1  0.769800  0.548000  0.789700  1.0  0.1074
  H  H24  1  0.645600  0.495300  0.931200  1.0  0.1029
  H  H25  1  0.629500  0.697600  0.727500  1.0  0.0945
  H  H26  1  0.549500  0.495300  0.895600  1.0  0.0979
  H  H27  1  0.469200  0.548500  0.943700  1.0  0.0926
  H  H28  1  0.500100  0.839100  0.879200  1.0  0.0953
  H  H29  1  0.580200  0.787600  0.829200  1.0  0.1072
  H  H30  1  0.269800  0.048000  0.789700  1.0  0.1074
  H  H31  1  0.145600  0.995300  0.931200  1.0  0.1029
  H  H32  1  0.129500  0.197600  0.727500  1.0  0.0945
  H  H33  1  0.049500  0.995300  0.895600  1.0  0.0979
  H  H34  1  0.969200  0.048500  0.943700  1.0  0.0926
  H  H35  1  0.000100  0.339100  0.879200  1.0  0.0953
  H  H36  1  0.080200  0.287600  0.829200  1.0  0.1072
  H  H37  1  0.769800  0.452000  0.289700  1.0  0.1073
  H  H38  1  0.645600  0.504700  0.431200  1.0  0.1024
  H  H39  1  0.629500  0.302400  0.227500  1.0  0.0942
  H  H40  1  0.549500  0.504700  0.395600  1.0  0.0984
  H  H41  1  0.469200  0.451500  0.443700  1.0  0.0925
  H  H42  1  0.500100  0.160900  0.379200  1.0  0.0948
  H  H43  1  0.580200  0.212400  0.329200  1.0  0.1069
  H  H44  1  0.269800  0.952000  0.289700  1.0  0.1073
  H  H45  1  0.145600  0.004700  0.431200  1.0  0.1024
  H  H46  1  0.129500  0.802400  0.227500  1.0  0.0942
  H  H47  1  0.049500  0.004700  0.395600  1.0  0.0984
  H  H48  1  0.969200  0.951500  0.443700  1.0  0.0925
  H  H49  1  0.000100  0.660900  0.379200  1.0  0.0948
  H  H50  1  0.080200  0.712400  0.329200  1.0  0.1069
  H  H51  1  0.230200  0.452000  0.210300  1.0  0.107
  H  H52  1  0.354400  0.504700  0.068800  1.0  0.102
  H  H53  1  0.370500  0.302400  0.272500  1.0  0.094
  H  H54  1  0.450500  0.504700  0.104400  1.0  0.0976
  H  H55  1  0.530800  0.451500  0.056300  1.0  0.0925
  H  H56  1  0.499900  0.160900  0.120800  1.0  0.0951
  H  H57  1  0.419800  0.212400  0.170800  1.0  0.1058
  H  H58  1  0.730200  0.952000  0.210300  1.0  0.107
  H  H59  1  0.854400  0.004700  0.068800  1.0  0.102
  H  H60  1  0.870500  0.802400  0.272500  1.0  0.094
  H  H61  1  0.950500  0.004700  0.104400  1.0  0.0976
  H  H62  1  0.030800  0.951500  0.056300  1.0  0.0925
  H  H63  1  0.999900  0.660900  0.120800  1.0  0.0951
  H  H64  1  0.919800  0.712400  0.170800  1.0  0.1058
  C  C65  1  0.275500  0.678500  0.834100  1.0  0.7903
  C  C66  1  0.297160  0.627800  0.754900  1.0  -0.1539
  C  C67  1  0.265970  0.560100  0.700400  1.0  0.0011
  C  C68  1  0.287000  0.509700  0.631100  1.0  -0.1372
  C  C69  1  0.252160  0.436100  0.573000  1.0  0.7403
  C  C70  1  0.339890  0.530600  0.614400  1.0  -0.065
  C  C71  1  0.371350  0.603600  0.664900  1.0  0.0162
  C  C72  1  0.349650  0.650500  0.736500  1.0  -0.0696
  C  C73  1  0.425320  0.636000  0.640700  1.0  0.046
  C  C74  1  0.459780  0.565300  0.607200  1.0  -0.1401
  C  C75  1  0.507950  0.597200  0.577800  1.0  -0.0624
  C  C76  1  0.522200  0.700700  0.580000  1.0  -0.1697
  C  C77  1  0.571760  0.734600  0.538300  1.0  0.6895
  C  C78  1  0.489700  0.769700  0.616200  1.0  -0.0354
  C  C79  1  0.441500  0.738800  0.646400  1.0  -0.1528
  C  C80  1  0.775500  0.178500  0.834100  1.0  0.7903
  C  C81  1  0.797160  0.127800  0.754900  1.0  -0.1539
  C  C82  1  0.765970  0.060100  0.700400  1.0  0.0011
  C  C83  1  0.787000  0.009700  0.631100  1.0  -0.1372
  C  C84  1  0.752160  0.936100  0.573000  1.0  0.7403
  C  C85  1  0.839890  0.030600  0.614400  1.0  -0.065
  C  C86  1  0.871350  0.103600  0.664900  1.0  0.0162
  C  C87  1  0.849650  0.150500  0.736500  1.0  -0.0696
  C  C88  1  0.925320  0.136000  0.640700  1.0  0.046
  C  C89  1  0.959780  0.065300  0.607200  1.0  -0.1401
  C  C90  1  0.007950  0.097200  0.577800  1.0  -0.0624
  C  C91  1  0.022200  0.200700  0.580000  1.0  -0.1697
  C  C92  1  0.071760  0.234600  0.538300  1.0  0.6895
  C  C93  1  0.989700  0.269700  0.616200  1.0  -0.0354
  C  C94  1  0.941500  0.238800  0.646400  1.0  -0.1528
  C  C95  1  0.724500  0.678500  0.665900  1.0  0.7883
  C  C96  1  0.702840  0.627800  0.745100  1.0  -0.1537
  C  C97  1  0.734030  0.560100  0.799600  1.0  0.0032
  C  C98  1  0.713000  0.509700  0.868900  1.0  -0.1378
  C  C99  1  0.747840  0.436100  0.927000  1.0  0.7403
  C  C100  1  0.660110  0.530600  0.885600  1.0  -0.0671
  C  C101  1  0.628650  0.603600  0.835100  1.0  0.0166
  C  C102  1  0.650350  0.650500  0.763500  1.0  -0.071
  C  C103  1  0.574680  0.636000  0.859300  1.0  0.0462
  C  C104  1  0.540220  0.565300  0.892800  1.0  -0.1396
  C  C105  1  0.492050  0.597200  0.922200  1.0  -0.0613
  C  C106  1  0.477800  0.700700  0.920000  1.0  -0.1704
  C  C107  1  0.428240  0.734600  0.961700  1.0  0.6877
  C  C108  1  0.510300  0.769700  0.883800  1.0  -0.037
  C  C109  1  0.558500  0.738800  0.853600  1.0  -0.1507
  C  C110  1  0.224500  0.178500  0.665900  1.0  0.7883
  C  C111  1  0.202840  0.127800  0.745100  1.0  -0.1537
  C  C112  1  0.234030  0.060100  0.799600  1.0  0.0032
  C  C113  1  0.213000  0.009700  0.868900  1.0  -0.1378
  C  C114  1  0.247840  0.936100  0.927000  1.0  0.7403
  C  C115  1  0.160110  0.030600  0.885600  1.0  -0.0671
  C  C116  1  0.128650  0.103600  0.835100  1.0  0.0166
  C  C117  1  0.150350  0.150500  0.763500  1.0  -0.071
  C  C118  1  0.074680  0.136000  0.859300  1.0  0.0462
  C  C119  1  0.040220  0.065300  0.892800  1.0  -0.1396
  C  C120  1  0.992050  0.097200  0.922200  1.0  -0.0613
  C  C121  1  0.977800  0.200700  0.920000  1.0  -0.1704
  C  C122  1  0.928240  0.234600  0.961700  1.0  0.6877
  C  C123  1  0.010300  0.269700  0.883800  1.0  -0.037
  C  C124  1  0.058500  0.238800  0.853600  1.0  -0.1507
  C  C125  1  0.724500  0.321500  0.165900  1.0  0.7881
  C  C126  1  0.702840  0.372200  0.245100  1.0  -0.1537
  C  C127  1  0.734030  0.439900  0.299600  1.0  0.0032
  C  C128  1  0.713000  0.490300  0.368900  1.0  -0.1379
  C  C129  1  0.747840  0.563900  0.427000  1.0  0.7402
  C  C130  1  0.660110  0.469400  0.385600  1.0  -0.0665
  C  C131  1  0.628650  0.396400  0.335100  1.0  0.0166
  C  C132  1  0.650350  0.349500  0.263500  1.0  -0.0703
  C  C133  1  0.574680  0.364000  0.359300  1.0  0.0462
  C  C134  1  0.540220  0.434700  0.392800  1.0  -0.1409
  C  C135  1  0.492050  0.402800  0.422200  1.0  -0.061
  C  C136  1  0.477800  0.299300  0.420000  1.0  -0.1712
  C  C137  1  0.428240  0.265400  0.461700  1.0  0.6862
  C  C138  1  0.510300  0.230300  0.383800  1.0  -0.0385
  C  C139  1  0.558500  0.261200  0.353600  1.0  -0.1491
  C  C140  1  0.224500  0.821500  0.165900  1.0  0.7881
  C  C141  1  0.202840  0.872200  0.245100  1.0  -0.1537
  C  C142  1  0.234030  0.939900  0.299600  1.0  0.0032
  C  C143  1  0.213000  0.990300  0.368900  1.0  -0.1379
  C  C144  1  0.247840  0.063900  0.427000  1.0  0.7402
  C  C145  1  0.160110  0.969400  0.385600  1.0  -0.0665
  C  C146  1  0.128650  0.896400  0.335100  1.0  0.0166
  C  C147  1  0.150350  0.849500  0.263500  1.0  -0.0703
  C  C148  1  0.074680  0.864000  0.359300  1.0  0.0462
  C  C149  1  0.040220  0.934700  0.392800  1.0  -0.1409
  C  C150  1  0.992050  0.902800  0.422200  1.0  -0.061
  C  C151  1  0.977800  0.799300  0.420000  1.0  -0.1712
  C  C152  1  0.928240  0.765400  0.461700  1.0  0.6862
  C  C153  1  0.010300  0.730300  0.383800  1.0  -0.0385
  C  C154  1  0.058500  0.761200  0.353600  1.0  -0.1491
  C  C155  1  0.275500  0.321500  0.334100  1.0  0.79
  C  C156  1  0.297160  0.372200  0.254900  1.0  -0.1538
  C  C157  1  0.265970  0.439900  0.200400  1.0  0.0011
  C  C158  1  0.287000  0.490300  0.131100  1.0  -0.1368
  C  C159  1  0.252160  0.563900  0.073000  1.0  0.7398
  C  C160  1  0.339890  0.469400  0.114400  1.0  -0.0644
  C  C161  1  0.371350  0.396400  0.164900  1.0  0.0162
  C  C162  1  0.349650  0.349500  0.236500  1.0  -0.0687
  C  C163  1  0.425320  0.364000  0.140700  1.0  0.0462
  C  C164  1  0.459780  0.434700  0.107200  1.0  -0.1414
  C  C165  1  0.507950  0.402800  0.077800  1.0  -0.0623
  C  C166  1  0.522200  0.299300  0.080000  1.0  -0.1704
  C  C167  1  0.571760  0.265400  0.038300  1.0  0.6871
  C  C168  1  0.489700  0.230300  0.116200  1.0  -0.0371
  C  C169  1  0.441500  0.261200  0.146400  1.0  -0.1506
  C  C170  1  0.775500  0.821500  0.334100  1.0  0.79
  C  C171  1  0.797160  0.872200  0.254900  1.0  -0.1538
  C  C172  1  0.765970  0.939900  0.200400  1.0  0.0011
  C  C173  1  0.787000  0.990300  0.131100  1.0  -0.1368
  C  C174  1  0.752160  0.063900  0.073000  1.0  0.7398
  C  C175  1  0.839890  0.969400  0.114400  1.0  -0.0644
  C  C176  1  0.871350  0.896400  0.164900  1.0  0.0162
  C  C177  1  0.849650  0.849500  0.236500  1.0  -0.0687
  C  C178  1  0.925320  0.864000  0.140700  1.0  0.0462
  C  C179  1  0.959780  0.934700  0.107200  1.0  -0.1414
  C  C180  1  0.007950  0.902800  0.077800  1.0  -0.0623
  C  C181  1  0.022200  0.799300  0.080000  1.0  -0.1704
  C  C182  1  0.071760  0.765400  0.038300  1.0  0.6871
  C  C183  1  0.989700  0.730300  0.116200  1.0  -0.0371
  C  C184  1  0.941500  0.761200  0.146400  1.0  -0.1506
  O  O185  1  0.306290  0.741100  0.878500  1.0  -0.7105
  O  O186  1  0.228170  0.655700  0.848400  1.0  -0.713
  O  O187  1  0.202030  0.452700  0.560600  1.0  -0.6263
  O  O188  1  0.273450  0.360600  0.536700  1.0  -0.8057
  O  O189  1  0.598500  0.667900  0.501600  1.0  -0.6305
  O  O190  1  0.584810  0.829300  0.540300  1.0  -0.7062
  O  O191  1  0.806290  0.241100  0.878500  1.0  -0.7105
  O  O192  1  0.728170  0.155700  0.848400  1.0  -0.713
  O  O193  1  0.702030  0.952700  0.560600  1.0  -0.6262
  O  O194  1  0.773450  0.860600  0.536700  1.0  -0.8057
  O  O195  1  0.098500  0.167900  0.501600  1.0  -0.6305
  O  O196  1  0.084810  0.329300  0.540300  1.0  -0.7068
  O  O197  1  0.693710  0.741100  0.621500  1.0  -0.7096
  O  O198  1  0.771830  0.655700  0.651600  1.0  -0.7128
  O  O199  1  0.797970  0.452700  0.939400  1.0  -0.6247
  O  O200  1  0.726550  0.360600  0.963300  1.0  -0.8054
  O  O201  1  0.401500  0.667900  0.998400  1.0  -0.6283
  O  O202  1  0.415190  0.829300  0.959700  1.0  -0.7058
  O  O203  1  0.193710  0.241100  0.621500  1.0  -0.7096
  O  O204  1  0.271830  0.155700  0.651600  1.0  -0.7128
  O  O205  1  0.297970  0.952700  0.939400  1.0  -0.6247
  O  O206  1  0.226550  0.860600  0.963300  1.0  -0.8054
  O  O207  1  0.901500  0.167900  0.998400  1.0  -0.6283
  O  O208  1  0.915190  0.329300  0.959700  1.0  -0.7058
  O  O209  1  0.693710  0.258900  0.121500  1.0  -0.7099
  O  O210  1  0.771830  0.344300  0.151600  1.0  -0.7124
  O  O211  1  0.797970  0.547300  0.439400  1.0  -0.6251
  O  O212  1  0.726550  0.639400  0.463300  1.0  -0.8059
  O  O213  1  0.401500  0.332100  0.498400  1.0  -0.6284
  O  O214  1  0.415190  0.170700  0.459700  1.0  -0.7042
  O  O215  1  0.193710  0.758900  0.121500  1.0  -0.7099
  O  O216  1  0.271830  0.844300  0.151600  1.0  -0.7124
  O  O217  1  0.297970  0.047300  0.439400  1.0  -0.6252
  O  O218  1  0.226550  0.139400  0.463300  1.0  -0.8059
  O  O219  1  0.901500  0.832100  0.498400  1.0  -0.6284
  O  O220  1  0.915190  0.670700  0.459700  1.0  -0.705
  O  O221  1  0.306290  0.258900  0.378500  1.0  -0.7103
  O  O222  1  0.228170  0.344300  0.348400  1.0  -0.7131
  O  O223  1  0.202030  0.547300  0.060600  1.0  -0.6251
  O  O224  1  0.273450  0.639400  0.036700  1.0  -0.806
  O  O225  1  0.598500  0.332100  0.001600  1.0  -0.6304
  O  O226  1  0.584810  0.170700  0.040300  1.0  -0.7034
  O  O227  1  0.806290  0.758900  0.378500  1.0  -0.7103
  O  O228  1  0.728170  0.844300  0.348400  1.0  -0.7131
  O  O229  1  0.702030  0.047300  0.060600  1.0  -0.6251
  O  O230  1  0.773450  0.139400  0.036700  1.0  -0.806
  O  O231  1  0.098500  0.832100  0.001600  1.0  -0.6304
  O  O232  1  0.084810  0.670700  0.040300  1.0  -0.7034
