# generated using pymatgen
data_Ag2H15(C7N2)3
_symmetry_space_group_name_H-M   'P 1'
_cell_length_a   17.37140000
_cell_length_b   19.31010000
_cell_length_c   18.19030000
_cell_angle_alpha   99.34600000
_cell_angle_beta   90.00000000
_cell_angle_gamma   90.00000000
_symmetry_Int_Tables_number   1
_chemical_formula_structural   Ag2H15(C7N2)3
_chemical_formula_sum   'Ag16 H120 C168 N48'
_cell_volume   6020.81974114
_cell_formula_units_Z   8
loop_
 _symmetry_equiv_pos_site_id
 _symmetry_equiv_pos_as_xyz
  1  'x, y, z'
loop_
 _atom_site_type_symbol
 _atom_site_label
 _atom_site_symmetry_multiplicity
 _atom_site_fract_x
 _atom_site_fract_y
 _atom_site_fract_z
 _atom_site_occupancy
 _atom_site_charge
  Ag  Ag1  1  0.864480  0.742710  0.744700  1.0  0.2176
  Ag  Ag2  1  0.978940  0.610620  0.659120  1.0  0.2222
  Ag  Ag3  1  0.928200  0.238640  0.240210  1.0  0.1903
  Ag  Ag4  1  0.052950  0.106740  0.156440  1.0  0.2476
  Ag  Ag5  1  0.364480  0.257290  0.755300  1.0  0.2176
  Ag  Ag6  1  0.478940  0.389380  0.840880  1.0  0.2224
  Ag  Ag7  1  0.428200  0.761360  0.259790  1.0  0.19
  Ag  Ag8  1  0.552950  0.893260  0.343560  1.0  0.2472
  Ag  Ag9  1  0.135520  0.257290  0.255300  1.0  0.2173
  Ag  Ag10  1  0.021060  0.389380  0.340880  1.0  0.2219
  Ag  Ag11  1  0.071800  0.761360  0.759790  1.0  0.1906
  Ag  Ag12  1  0.947050  0.893260  0.843560  1.0  0.2473
  Ag  Ag13  1  0.635520  0.742710  0.244700  1.0  0.2174
  Ag  Ag14  1  0.521060  0.610620  0.159120  1.0  0.2217
  Ag  Ag15  1  0.571800  0.238640  0.740210  1.0  0.1909
  Ag  Ag16  1  0.447050  0.106740  0.656440  1.0  0.248
  H  H17  1  0.814200  0.682400  0.887200  1.0  0.0697
  H  H18  1  0.835000  0.589500  0.951100  1.0  0.1235
  H  H19  1  0.980700  0.515900  0.788500  1.0  0.0945
  H  H20  1  0.092000  0.166700  0.010900  1.0  0.0878
  H  H21  1  0.059700  0.256000  0.944700  1.0  0.1183
  H  H22  1  0.920600  0.331200  0.111600  1.0  0.0707
  H  H23  1  0.034900  0.463700  0.870600  1.0  0.0988
  H  H24  1  0.064100  0.367300  0.927300  1.0  0.0966
  H  H25  1  0.858800  0.385600  0.028900  1.0  0.1008
  H  H26  1  0.829800  0.478100  0.971900  1.0  0.0925
  H  H27  1  0.042300  0.337000  0.491600  1.0  0.0745
  H  H28  1  0.022400  0.243900  0.553400  1.0  0.1199
  H  H29  1  0.919500  0.145900  0.368800  1.0  0.0794
  H  H30  1  0.817600  0.796000  0.597800  1.0  0.077
  H  H31  1  0.836200  0.889400  0.532700  1.0  0.1204
  H  H32  1  0.949400  0.984000  0.712300  1.0  0.0793
  H  H33  1  0.039500  0.133700  0.575500  1.0  0.1001
  H  H34  1  0.013700  0.037300  0.632900  1.0  0.109
  H  H35  1  0.822300  0.995900  0.506000  1.0  0.1107
  H  H36  1  0.852100  0.091600  0.446500  1.0  0.0956
  H  H37  1  0.954300  0.456500  0.680700  1.0  0.0872
  H  H38  1  0.873800  0.366900  0.644700  1.0  0.0965
  H  H39  1  0.845300  0.427500  0.450600  1.0  0.0958
  H  H40  1  0.664400  0.007300  0.300300  1.0  0.0863
  H  H41  1  0.718100  0.109900  0.339600  1.0  0.1066
  H  H42  1  0.629600  0.112300  0.542400  1.0  0.0947
  H  H43  1  0.813300  0.319100  0.408600  1.0  0.0986
  H  H44  1  0.747500  0.215700  0.368400  1.0  0.1036
  H  H45  1  0.707700  0.196400  0.580500  1.0  0.0925
  H  H46  1  0.776700  0.296500  0.621400  1.0  0.1153
  H  H47  1  0.314200  0.317600  0.612800  1.0  0.0697
  H  H48  1  0.335000  0.410500  0.548900  1.0  0.123
  H  H49  1  0.480700  0.484100  0.711500  1.0  0.0947
  H  H50  1  0.592000  0.833300  0.489100  1.0  0.0879
  H  H51  1  0.559700  0.744000  0.555300  1.0  0.1186
  H  H52  1  0.420600  0.668800  0.388400  1.0  0.0706
  H  H53  1  0.534900  0.536300  0.629400  1.0  0.0981
  H  H54  1  0.564100  0.632700  0.572700  1.0  0.0956
  H  H55  1  0.358800  0.614400  0.471100  1.0  0.1003
  H  H56  1  0.329800  0.521900  0.528100  1.0  0.0925
  H  H57  1  0.542300  0.663000  0.008400  1.0  0.0746
  H  H58  1  0.522400  0.756100  0.946600  1.0  0.1197
  H  H59  1  0.419500  0.854100  0.131200  1.0  0.0795
  H  H60  1  0.317600  0.204000  0.902200  1.0  0.0778
  H  H61  1  0.336200  0.110600  0.967300  1.0  0.1206
  H  H62  1  0.449400  0.016000  0.787700  1.0  0.0803
  H  H63  1  0.539500  0.866300  0.924500  1.0  0.1005
  H  H64  1  0.513700  0.962700  0.867100  1.0  0.1092
  H  H65  1  0.322300  0.004100  0.994000  1.0  0.1111
  H  H66  1  0.352100  0.908400  0.053500  1.0  0.0958
  H  H67  1  0.454300  0.543500  0.819300  1.0  0.0866
  H  H68  1  0.373800  0.633100  0.855300  1.0  0.0957
  H  H69  1  0.345300  0.572500  0.049400  1.0  0.0948
  H  H70  1  0.164400  0.992700  0.199700  1.0  0.0865
  H  H71  1  0.218100  0.890100  0.160400  1.0  0.1075
  H  H72  1  0.129600  0.887700  0.957600  1.0  0.0948
  H  H73  1  0.313300  0.680900  0.091400  1.0  0.0985
  H  H74  1  0.247500  0.784300  0.131600  1.0  0.1043
  H  H75  1  0.207700  0.803600  0.919500  1.0  0.0928
  H  H76  1  0.276700  0.703500  0.878600  1.0  0.1156
  H  H77  1  0.185800  0.317600  0.112800  1.0  0.0698
  H  H78  1  0.165000  0.410500  0.048900  1.0  0.1228
  H  H79  1  0.019300  0.484100  0.211500  1.0  0.0949
  H  H80  1  0.908000  0.833300  0.989100  1.0  0.0881
  H  H81  1  0.940300  0.744000  0.055300  1.0  0.119
  H  H82  1  0.079400  0.668800  0.888400  1.0  0.0706
  H  H83  1  0.965100  0.536300  0.129400  1.0  0.0986
  H  H84  1  0.935900  0.632700  0.072700  1.0  0.0959
  H  H85  1  0.141200  0.614400  0.971100  1.0  0.1008
  H  H86  1  0.170200  0.521900  0.028100  1.0  0.0929
  H  H87  1  0.957700  0.663000  0.508400  1.0  0.0736
  H  H88  1  0.977600  0.756100  0.446600  1.0  0.1192
  H  H89  1  0.080500  0.854100  0.631200  1.0  0.0792
  H  H90  1  0.182400  0.204000  0.402200  1.0  0.0774
  H  H91  1  0.163800  0.110600  0.467300  1.0  0.1201
  H  H92  1  0.050600  0.016000  0.287700  1.0  0.08
  H  H93  1  0.960500  0.866300  0.424500  1.0  0.1006
  H  H94  1  0.986300  0.962700  0.367100  1.0  0.1091
  H  H95  1  0.177700  0.004100  0.494000  1.0  0.1112
  H  H96  1  0.147900  0.908400  0.553500  1.0  0.0957
  H  H97  1  0.045700  0.543500  0.319300  1.0  0.0864
  H  H98  1  0.126200  0.633100  0.355300  1.0  0.0957
  H  H99  1  0.154700  0.572500  0.549400  1.0  0.0948
  H  H100  1  0.335600  0.992700  0.699700  1.0  0.0857
  H  H101  1  0.281900  0.890100  0.660400  1.0  0.1072
  H  H102  1  0.370400  0.887700  0.457600  1.0  0.0948
  H  H103  1  0.186700  0.680900  0.591400  1.0  0.0984
  H  H104  1  0.252500  0.784300  0.631600  1.0  0.104
  H  H105  1  0.292300  0.803600  0.419500  1.0  0.0925
  H  H106  1  0.223300  0.703500  0.378600  1.0  0.1158
  H  H107  1  0.685800  0.682400  0.387200  1.0  0.0698
  H  H108  1  0.665000  0.589500  0.451100  1.0  0.1227
  H  H109  1  0.519300  0.515900  0.288500  1.0  0.0939
  H  H110  1  0.408000  0.166700  0.510900  1.0  0.0867
  H  H111  1  0.440300  0.256000  0.444700  1.0  0.1182
  H  H112  1  0.579400  0.331200  0.611600  1.0  0.0704
  H  H113  1  0.465100  0.463700  0.370600  1.0  0.0984
  H  H114  1  0.435900  0.367300  0.427300  1.0  0.0958
  H  H115  1  0.641200  0.385600  0.528900  1.0  0.1011
  H  H116  1  0.670200  0.478100  0.471900  1.0  0.0929
  H  H117  1  0.457700  0.337000  0.991600  1.0  0.0747
  H  H118  1  0.477600  0.243900  0.053400  1.0  0.1205
  H  H119  1  0.580500  0.145900  0.868800  1.0  0.0795
  H  H120  1  0.682400  0.796000  0.097800  1.0  0.0773
  H  H121  1  0.663800  0.889400  0.032700  1.0  0.12
  H  H122  1  0.550600  0.984000  0.212300  1.0  0.08
  H  H123  1  0.460500  0.133700  0.075500  1.0  0.1002
  H  H124  1  0.486300  0.037300  0.132900  1.0  0.1095
  H  H125  1  0.677700  0.995900  0.006000  1.0  0.1107
  H  H126  1  0.647900  0.091600  0.946500  1.0  0.0959
  H  H127  1  0.545700  0.456500  0.180700  1.0  0.0873
  H  H128  1  0.626200  0.366900  0.144700  1.0  0.0965
  H  H129  1  0.654700  0.427500  0.950600  1.0  0.0957
  H  H130  1  0.835600  0.007300  0.800300  1.0  0.0857
  H  H131  1  0.781900  0.109900  0.839600  1.0  0.1069
  H  H132  1  0.870400  0.112300  0.042400  1.0  0.0945
  H  H133  1  0.686700  0.319100  0.908600  1.0  0.0986
  H  H134  1  0.752500  0.215700  0.868400  1.0  0.1033
  H  H135  1  0.792300  0.196400  0.080500  1.0  0.0923
  H  H136  1  0.723300  0.296500  0.121400  1.0  0.1154
  C  C137  1  0.849500  0.647500  0.867100  1.0  0.1037
  C  C138  1  0.860800  0.591400  0.906100  1.0  -0.222
  C  C139  1  0.910100  0.540000  0.876600  1.0  0.0246
  C  C140  1  0.945300  0.549800  0.810500  1.0  0.0796
  C  C141  1  0.055400  0.200500  0.030700  1.0  0.0962
  C  C142  1  0.036900  0.254500  0.991300  1.0  -0.1965
  C  C143  1  0.985500  0.305200  0.020600  1.0  0.004
  C  C144  1  0.955100  0.296800  0.088800  1.0  0.0911
  C  C145  1  0.927700  0.479700  0.912300  1.0  0.0025
  C  C146  1  0.998300  0.447100  0.901700  1.0  -0.1382
  C  C147  1  0.016200  0.389700  0.936400  1.0  -0.1451
  C  C148  1  0.965300  0.365800  0.983300  1.0  0.0151
  C  C149  1  0.894600  0.400700  0.996100  1.0  -0.1284
  C  C150  1  0.877500  0.455400  0.961900  1.0  -0.1186
  C  C151  1  0.017900  0.296600  0.466300  1.0  0.1147
  C  C152  1  0.004800  0.241900  0.504200  1.0  -0.2172
  C  C153  1  0.965400  0.184100  0.469000  1.0  0.0273
  C  C154  1  0.944700  0.185300  0.395300  1.0  0.0947
  C  C155  1  0.846400  0.834900  0.620400  1.0  0.1
  C  C156  1  0.856500  0.891200  0.580900  1.0  -0.2121
  C  C157  1  0.896000  0.947800  0.614100  1.0  0.0195
  C  C158  1  0.922800  0.945000  0.686700  1.0  0.0964
  C  C159  1  0.948600  0.122600  0.507000  1.0  0.009
  C  C160  1  0.995700  0.106100  0.561600  1.0  -0.1237
  C  C161  1  0.979800  0.049300  0.596800  1.0  -0.1192
  C  C162  1  0.912600  0.009500  0.578200  1.0  -0.0064
  C  C163  1  0.865600  0.024000  0.520700  1.0  -0.1446
  C  C164  1  0.883600  0.081100  0.485200  1.0  -0.1252
  C  C165  1  0.925700  0.454300  0.636500  1.0  0.0634
  C  C166  1  0.881200  0.399400  0.612100  1.0  -0.1451
  C  C167  1  0.844600  0.385300  0.543400  1.0  0.0045
  C  C168  1  0.862100  0.434000  0.500300  1.0  0.1082
  C  C169  1  0.654900  0.030400  0.349000  1.0  0.0664
  C  C170  1  0.687600  0.089600  0.373100  1.0  -0.1397
  C  C171  1  0.680300  0.125900  0.446700  1.0  0.0138
  C  C172  1  0.635100  0.092700  0.491900  1.0  0.1115
  C  C173  1  0.801200  0.319400  0.518500  1.0  0.0083
  C  C174  1  0.792200  0.294000  0.444000  1.0  -0.1217
  C  C175  1  0.752600  0.232200  0.419800  1.0  -0.1361
  C  C176  1  0.720200  0.194200  0.471200  1.0  0.0097
  C  C177  1  0.729800  0.220700  0.545000  1.0  -0.1028
  C  C178  1  0.770100  0.281100  0.570000  1.0  -0.1556
  C  C179  1  0.349500  0.352500  0.632900  1.0  0.1038
  C  C180  1  0.360800  0.408600  0.593900  1.0  -0.2226
  C  C181  1  0.410100  0.460000  0.623400  1.0  0.0264
  C  C182  1  0.445300  0.450200  0.689500  1.0  0.0797
  C  C183  1  0.555400  0.799500  0.469300  1.0  0.0975
  C  C184  1  0.536900  0.745500  0.508700  1.0  -0.198
  C  C185  1  0.485500  0.694800  0.479400  1.0  0.0056
  C  C186  1  0.455100  0.703200  0.411200  1.0  0.0906
  C  C187  1  0.427700  0.520300  0.587700  1.0  0.0035
  C  C188  1  0.498300  0.552900  0.598300  1.0  -0.1387
  C  C189  1  0.516200  0.610300  0.563600  1.0  -0.1439
  C  C190  1  0.465300  0.634200  0.516700  1.0  0.016
  C  C191  1  0.394600  0.599300  0.503900  1.0  -0.129
  C  C192  1  0.377500  0.544600  0.538100  1.0  -0.1181
  C  C193  1  0.517900  0.703400  0.033700  1.0  0.1138
  C  C194  1  0.504800  0.758100  0.995800  1.0  -0.2178
  C  C195  1  0.465400  0.815900  0.031000  1.0  0.0275
  C  C196  1  0.444700  0.814700  0.104700  1.0  0.0954
  C  C197  1  0.346400  0.165100  0.879600  1.0  0.1002
  C  C198  1  0.356500  0.108800  0.919100  1.0  -0.2118
  C  C199  1  0.396000  0.052200  0.885900  1.0  0.018
  C  C200  1  0.422800  0.055000  0.813300  1.0  0.0968
  C  C201  1  0.448600  0.877400  0.993000  1.0  0.0072
  C  C202  1  0.495700  0.893900  0.938400  1.0  -0.1242
  C  C203  1  0.479800  0.950700  0.903200  1.0  -0.117
  C  C204  1  0.412600  0.990500  0.921800  1.0  -0.0062
  C  C205  1  0.365600  0.976000  0.979300  1.0  -0.1446
  C  C206  1  0.383600  0.918900  0.014800  1.0  -0.1245
  C  C207  1  0.425700  0.545700  0.863500  1.0  0.0631
  C  C208  1  0.381200  0.600600  0.887900  1.0  -0.1465
  C  C209  1  0.344600  0.614700  0.956600  1.0  0.0031
  C  C210  1  0.362100  0.566000  0.999700  1.0  0.1101
  C  C211  1  0.154900  0.969600  0.151000  1.0  0.066
  C  C212  1  0.187600  0.910400  0.126900  1.0  -0.1385
  C  C213  1  0.180300  0.874100  0.053300  1.0  0.0138
  C  C214  1  0.135100  0.907300  0.008100  1.0  0.1131
  C  C215  1  0.301200  0.680600  0.981500  1.0  0.0086
  C  C216  1  0.292200  0.706000  0.056000  1.0  -0.1221
  C  C217  1  0.252600  0.767800  0.080200  1.0  -0.1393
  C  C218  1  0.220200  0.805800  0.028800  1.0  0.0099
  C  C219  1  0.229800  0.779300  0.955000  1.0  -0.1023
  C  C220  1  0.270100  0.718900  0.930000  1.0  -0.154
  C  C221  1  0.150500  0.352500  0.132900  1.0  0.0972
  C  C222  1  0.139200  0.408600  0.093900  1.0  -0.2218
  C  C223  1  0.089900  0.460000  0.123400  1.0  0.0266
  C  C224  1  0.054700  0.450200  0.189500  1.0  0.079
  C  C225  1  0.944600  0.799500  0.969300  1.0  0.0981
  C  C226  1  0.963100  0.745500  0.008700  1.0  -0.1989
  C  C227  1  0.014500  0.694800  0.979400  1.0  0.0045
  C  C228  1  0.044900  0.703200  0.911200  1.0  0.09
  C  C229  1  0.072300  0.520300  0.087700  1.0  0.0032
  C  C230  1  0.001700  0.552900  0.098300  1.0  -0.1382
  C  C231  1  0.983800  0.610300  0.063600  1.0  -0.1456
  C  C232  1  0.034700  0.634200  0.016700  1.0  0.0156
  C  C233  1  0.105400  0.599300  0.003900  1.0  -0.1293
  C  C234  1  0.122500  0.544600  0.038100  1.0  -0.1189
  C  C235  1  0.982100  0.703400  0.533700  1.0  0.1149
  C  C236  1  0.995200  0.758100  0.495800  1.0  -0.2177
  C  C237  1  0.034600  0.815900  0.531000  1.0  0.0266
  C  C238  1  0.055300  0.814700  0.604700  1.0  0.0964
  C  C239  1  0.153600  0.165100  0.379600  1.0  0.0977
  C  C240  1  0.143500  0.108800  0.419100  1.0  -0.212
  C  C241  1  0.104000  0.052200  0.385900  1.0  0.0154
  C  C242  1  0.077200  0.055000  0.313300  1.0  0.0979
  C  C243  1  0.051400  0.877400  0.493000  1.0  0.0071
  C  C244  1  0.004300  0.893900  0.438400  1.0  -0.1227
  C  C245  1  0.020200  0.950700  0.403200  1.0  -0.117
  C  C246  1  0.087400  0.990500  0.421800  1.0  -0.0061
  C  C247  1  0.134400  0.976000  0.479300  1.0  -0.1446
  C  C248  1  0.116400  0.918900  0.514800  1.0  -0.1254
  C  C249  1  0.074300  0.545700  0.363500  1.0  0.0636
  C  C250  1  0.118800  0.600600  0.387900  1.0  -0.1464
  C  C251  1  0.155400  0.614700  0.456600  1.0  0.0042
  C  C252  1  0.137900  0.566000  0.499700  1.0  0.1111
  C  C253  1  0.345100  0.969600  0.651000  1.0  0.0641
  C  C254  1  0.312400  0.910400  0.626900  1.0  -0.1398
  C  C255  1  0.319700  0.874100  0.553300  1.0  0.0136
  C  C256  1  0.364900  0.907300  0.508100  1.0  0.1129
  C  C257  1  0.198800  0.680600  0.481500  1.0  0.0089
  C  C258  1  0.207800  0.706000  0.556000  1.0  -0.1224
  C  C259  1  0.247400  0.767800  0.580200  1.0  -0.1391
  C  C260  1  0.279800  0.805800  0.528800  1.0  0.0106
  C  C261  1  0.270200  0.779300  0.455000  1.0  -0.1031
  C  C262  1  0.229900  0.718900  0.430000  1.0  -0.1535
  C  C263  1  0.650500  0.647500  0.367100  1.0  0.0966
  C  C264  1  0.639200  0.591400  0.406100  1.0  -0.2206
  C  C265  1  0.589900  0.540000  0.376600  1.0  0.0255
  C  C266  1  0.554700  0.549800  0.310500  1.0  0.0794
  C  C267  1  0.444600  0.200500  0.530700  1.0  0.0966
  C  C268  1  0.463100  0.254500  0.491300  1.0  -0.1956
  C  C269  1  0.514500  0.305200  0.520600  1.0  0.0039
  C  C270  1  0.544900  0.296800  0.588800  1.0  0.0913
  C  C271  1  0.572300  0.479700  0.412300  1.0  0.0033
  C  C272  1  0.501700  0.447100  0.401700  1.0  -0.1362
  C  C273  1  0.483800  0.389700  0.436400  1.0  -0.1438
  C  C274  1  0.534700  0.365800  0.483300  1.0  0.0149
  C  C275  1  0.605400  0.400700  0.496100  1.0  -0.1289
  C  C276  1  0.622500  0.455400  0.461900  1.0  -0.1186
  C  C277  1  0.482100  0.296600  0.966300  1.0  0.1144
  C  C278  1  0.495200  0.241900  0.004200  1.0  -0.2179
  C  C279  1  0.534600  0.184100  0.969000  1.0  0.0263
  C  C280  1  0.555300  0.185300  0.895300  1.0  0.0948
  C  C281  1  0.653600  0.834900  0.120400  1.0  0.0981
  C  C282  1  0.643500  0.891200  0.080900  1.0  -0.212
  C  C283  1  0.604000  0.947800  0.114100  1.0  0.0165
  C  C284  1  0.577200  0.945000  0.186700  1.0  0.0975
  C  C285  1  0.551400  0.122600  0.007000  1.0  0.0084
  C  C286  1  0.504300  0.106100  0.061600  1.0  -0.1245
  C  C287  1  0.520200  0.049300  0.096800  1.0  -0.1208
  C  C288  1  0.587400  0.009500  0.078200  1.0  -0.0074
  C  C289  1  0.634400  0.024000  0.020700  1.0  -0.1459
  C  C290  1  0.616400  0.081100  0.985200  1.0  -0.1255
  C  C291  1  0.574300  0.454300  0.136500  1.0  0.0634
  C  C292  1  0.618800  0.399400  0.112100  1.0  -0.1452
  C  C293  1  0.655400  0.385300  0.043400  1.0  0.0042
  C  C294  1  0.637900  0.434000  0.000300  1.0  0.1095
  C  C295  1  0.845100  0.030400  0.849000  1.0  0.0643
  C  C296  1  0.812400  0.089600  0.873100  1.0  -0.1398
  C  C297  1  0.819700  0.125900  0.946700  1.0  0.0134
  C  C298  1  0.864900  0.092700  0.991900  1.0  0.112
  C  C299  1  0.698800  0.319400  0.018500  1.0  0.0088
  C  C300  1  0.707800  0.294000  0.944000  1.0  -0.1221
  C  C301  1  0.747400  0.232200  0.919800  1.0  -0.1378
  C  C302  1  0.779800  0.194200  0.971200  1.0  0.0109
  C  C303  1  0.770200  0.220700  0.045000  1.0  -0.1027
  C  C304  1  0.729900  0.281100  0.070000  1.0  -0.156
  N  N305  1  0.883200  0.655100  0.806500  1.0  -0.1472
  N  N306  1  0.931000  0.605600  0.776400  1.0  -0.2088
  N  N307  1  0.022400  0.195700  0.095900  1.0  -0.2132
  N  N308  1  0.970900  0.244200  0.124300  1.0  -0.1635
  N  N309  1  0.997900  0.295500  0.395600  1.0  -0.2308
  N  N310  1  0.958800  0.239000  0.360700  1.0  -0.1626
  N  N311  1  0.874500  0.833900  0.685700  1.0  -0.1708
  N  N312  1  0.912200  0.889900  0.720500  1.0  -0.2055
  N  N313  1  0.928600  0.504500  0.597800  1.0  -0.123
  N  N314  1  0.905200  0.494500  0.528800  1.0  -0.2882
  N  N315  1  0.607000  0.001600  0.394000  1.0  -0.1618
  N  N316  1  0.597300  0.030800  0.464600  1.0  -0.2608
  N  N317  1  0.383200  0.344900  0.693500  1.0  -0.1444
  N  N318  1  0.431000  0.394400  0.723600  1.0  -0.2092
  N  N319  1  0.522400  0.804300  0.404100  1.0  -0.2131
  N  N320  1  0.470900  0.755800  0.375700  1.0  -0.1651
  N  N321  1  0.497900  0.704500  0.104400  1.0  -0.2267
  N  N322  1  0.458800  0.761000  0.139300  1.0  -0.1625
  N  N323  1  0.374500  0.166100  0.814300  1.0  -0.1727
  N  N324  1  0.412200  0.110100  0.779500  1.0  -0.2017
  N  N325  1  0.428600  0.495500  0.902200  1.0  -0.1213
  N  N326  1  0.405200  0.505500  0.971200  1.0  -0.2878
  N  N327  1  0.107000  0.998400  0.106000  1.0  -0.1633
  N  N328  1  0.097300  0.969200  0.035400  1.0  -0.2603
  N  N329  1  0.116800  0.344900  0.193500  1.0  -0.1464
  N  N330  1  0.069000  0.394400  0.223600  1.0  -0.2079
  N  N331  1  0.977600  0.804300  0.904100  1.0  -0.2127
  N  N332  1  0.029100  0.755800  0.875700  1.0  -0.1656
  N  N333  1  0.002100  0.704500  0.604400  1.0  -0.2281
  N  N334  1  0.041200  0.761000  0.639300  1.0  -0.162
  N  N335  1  0.125500  0.166100  0.314300  1.0  -0.1765
  N  N336  1  0.087800  0.110100  0.279500  1.0  -0.2016
  N  N337  1  0.071400  0.495500  0.402200  1.0  -0.1223
  N  N338  1  0.094800  0.505500  0.471200  1.0  -0.2868
  N  N339  1  0.393000  0.998400  0.606000  1.0  -0.165
  N  N340  1  0.402700  0.969200  0.535400  1.0  -0.2611
  N  N341  1  0.616800  0.655100  0.306500  1.0  -0.1503
  N  N342  1  0.569000  0.605600  0.276400  1.0  -0.2084
  N  N343  1  0.477600  0.195700  0.595900  1.0  -0.2137
  N  N344  1  0.529100  0.244200  0.624300  1.0  -0.163
  N  N345  1  0.502100  0.295500  0.895600  1.0  -0.2312
  N  N346  1  0.541200  0.239000  0.860700  1.0  -0.1628
  N  N347  1  0.625500  0.833900  0.185700  1.0  -0.1727
  N  N348  1  0.587800  0.889900  0.220500  1.0  -0.2045
  N  N349  1  0.571400  0.504500  0.097800  1.0  -0.1242
  N  N350  1  0.594800  0.494500  0.028800  1.0  -0.2867
  N  N351  1  0.893000  0.001600  0.894000  1.0  -0.1612
  N  N352  1  0.902700  0.030800  0.964600  1.0  -0.2603
