# generated using pymatgen
data_Cu12H32C58N32Cl
_symmetry_space_group_name_H-M   'P 1'
_cell_length_a   15.50060000
_cell_length_b   15.50060000
_cell_length_c   18.33680000
_cell_angle_alpha   115.00300000
_cell_angle_beta   115.00300000
_cell_angle_gamma   90.00000000
_symmetry_Int_Tables_number   1
_chemical_formula_structural   Cu12H32C58N32Cl
_chemical_formula_sum   'Cu12 H32 C58 N32 Cl1'
_cell_volume   3532.05300319
_cell_formula_units_Z   1
loop_
 _symmetry_equiv_pos_site_id
 _symmetry_equiv_pos_as_xyz
  1  'x, y, z'
loop_
 _atom_site_type_symbol
 _atom_site_label
 _atom_site_symmetry_multiplicity
 _atom_site_fract_x
 _atom_site_fract_y
 _atom_site_fract_z
 _atom_site_occupancy
 _atom_site_charge
  Cu  Cu1  1  0.884180  0.884180  0.000000  1.0  0.2272
  Cu  Cu2  1  0.115820  0.115820  0.000000  1.0  0.2317
  Cu  Cu3  1  0.884180  0.115820  0.000000  1.0  0.2361
  Cu  Cu4  1  0.115820  0.884180  0.000000  1.0  0.2346
  Cu  Cu5  1  0.883160  0.883160  0.189520  1.0  0.1073
  Cu  Cu6  1  0.306360  0.306360  0.189520  1.0  0.1125
  Cu  Cu7  1  0.883160  0.306360  0.189520  1.0  0.1032
  Cu  Cu8  1  0.306360  0.883160  0.189520  1.0  0.1021
  Cu  Cu9  1  0.693640  0.116840  0.810480  1.0  0.1044
  Cu  Cu10  1  0.116840  0.693640  0.810480  1.0  0.1004
  Cu  Cu11  1  0.693640  0.693640  0.810480  1.0  0.1117
  Cu  Cu12  1  0.116840  0.116840  0.810480  1.0  0.1079
  H  H13  1  0.022900  0.837200  0.303000  1.0  0.0908
  H  H14  1  0.082500  0.801000  0.421800  1.0  0.0958
  H  H15  1  0.280100  0.465800  0.303000  1.0  0.0889
  H  H16  1  0.339300  0.620800  0.421800  1.0  0.0976
  H  H17  1  0.837200  0.280100  0.303000  1.0  0.0935
  H  H18  1  0.801000  0.339300  0.421800  1.0  0.099
  H  H19  1  0.465800  0.022900  0.303000  1.0  0.09
  H  H20  1  0.620800  0.082500  0.421800  1.0  0.0989
  H  H21  1  0.719900  0.162800  0.697000  1.0  0.0931
  H  H22  1  0.660700  0.199000  0.578200  1.0  0.0999
  H  H23  1  0.977100  0.534200  0.697000  1.0  0.0899
  H  H24  1  0.917500  0.379200  0.578200  1.0  0.0972
  H  H25  1  0.534200  0.719900  0.697000  1.0  0.0901
  H  H26  1  0.379200  0.660700  0.578200  1.0  0.0959
  H  H27  1  0.162800  0.977100  0.697000  1.0  0.092
  H  H28  1  0.199000  0.917500  0.578200  1.0  0.0983
  H  H29  1  0.977100  0.162800  0.697000  1.0  0.0904
  H  H30  1  0.917500  0.199000  0.578200  1.0  0.0961
  H  H31  1  0.719900  0.534200  0.697000  1.0  0.089
  H  H32  1  0.660700  0.379200  0.578200  1.0  0.0973
  H  H33  1  0.162800  0.719900  0.697000  1.0  0.0929
  H  H34  1  0.199000  0.660700  0.578200  1.0  0.0986
  H  H35  1  0.534200  0.977100  0.697000  1.0  0.0908
  H  H36  1  0.379200  0.917500  0.578200  1.0  0.0997
  H  H37  1  0.280100  0.837200  0.303000  1.0  0.093
  H  H38  1  0.339300  0.801000  0.421800  1.0  0.0992
  H  H39  1  0.022900  0.465800  0.303000  1.0  0.0901
  H  H40  1  0.082500  0.620800  0.421800  1.0  0.0974
  H  H41  1  0.465800  0.280100  0.303000  1.0  0.0901
  H  H42  1  0.620800  0.339300  0.421800  1.0  0.0959
  H  H43  1  0.837200  0.022900  0.303000  1.0  0.0908
  H  H44  1  0.801000  0.082500  0.421800  1.0  0.0968
  C  C45  1  0.086630  0.828930  0.326060  1.0  -0.0492
  C  C46  1  0.122640  0.807040  0.397480  1.0  -0.1529
  C  C47  1  0.239430  0.497130  0.326060  1.0  -0.0582
  C  C48  1  0.274840  0.590440  0.397480  1.0  -0.1491
  C  C49  1  0.828930  0.239430  0.326060  1.0  -0.0518
  C  C50  1  0.807040  0.274840  0.397480  1.0  -0.156
  C  C51  1  0.497130  0.086630  0.326060  1.0  -0.0553
  C  C52  1  0.590440  0.122640  0.397480  1.0  -0.1497
  C  C53  1  0.760570  0.171070  0.673940  1.0  -0.0514
  C  C54  1  0.725160  0.192960  0.602520  1.0  -0.156
  C  C55  1  0.913370  0.502870  0.673940  1.0  -0.054
  C  C56  1  0.877360  0.409560  0.602520  1.0  -0.1495
  C  C57  1  0.502870  0.760570  0.673940  1.0  -0.0564
  C  C58  1  0.409560  0.725160  0.602520  1.0  -0.1504
  C  C59  1  0.171070  0.913370  0.673940  1.0  -0.0542
  C  C60  1  0.192960  0.877360  0.602520  1.0  -0.1564
  C  C61  1  0.913370  0.171070  0.673940  1.0  -0.051
  C  C62  1  0.877360  0.192960  0.602520  1.0  -0.1523
  C  C63  1  0.760570  0.502870  0.673940  1.0  -0.0575
  C  C64  1  0.725160  0.409560  0.602520  1.0  -0.1489
  C  C65  1  0.171070  0.760570  0.673940  1.0  -0.0529
  C  C66  1  0.192960  0.725160  0.602520  1.0  -0.1568
  C  C67  1  0.502870  0.913370  0.673940  1.0  -0.0567
  C  C68  1  0.409560  0.877360  0.602520  1.0  -0.1499
  C  C69  1  0.239430  0.828930  0.326060  1.0  -0.0534
  C  C70  1  0.274840  0.807040  0.397480  1.0  -0.1562
  C  C71  1  0.086630  0.497130  0.326060  1.0  -0.0553
  C  C72  1  0.122640  0.590440  0.397480  1.0  -0.1486
  C  C73  1  0.497130  0.239430  0.326060  1.0  -0.0564
  C  C74  1  0.590440  0.274840  0.397480  1.0  -0.1524
  C  C75  1  0.828930  0.086630  0.326060  1.0  -0.0558
  C  C76  1  0.807040  0.122640  0.397480  1.0  -0.156
  C  C77  1  0.103920  0.854720  0.207840  1.0  0.3184
  C  C78  1  0.144270  0.838770  0.288540  1.0  -0.0613
  C  C79  1  0.216860  0.793860  0.433720  1.0  0.0485
  C  C80  1  0.103920  0.353120  0.207840  1.0  0.3185
  C  C81  1  0.144270  0.449770  0.288540  1.0  -0.0578
  C  C82  1  0.216860  0.639860  0.433720  1.0  0.0354
  C  C83  1  0.854720  0.103920  0.207840  1.0  0.3181
  C  C84  1  0.838770  0.144270  0.288540  1.0  -0.0608
  C  C85  1  0.793860  0.216860  0.433720  1.0  0.0481
  C  C86  1  0.353120  0.103920  0.207840  1.0  0.3183
  C  C87  1  0.449770  0.144270  0.288540  1.0  -0.0575
  C  C88  1  0.639860  0.216860  0.433720  1.0  0.0321
  C  C89  1  0.896080  0.145280  0.792160  1.0  0.3184
  C  C90  1  0.855730  0.161230  0.711460  1.0  -0.0603
  C  C91  1  0.783140  0.206140  0.566280  1.0  0.0485
  C  C92  1  0.896080  0.646880  0.792160  1.0  0.3186
  C  C93  1  0.855730  0.550230  0.711460  1.0  -0.0578
  C  C94  1  0.783140  0.360140  0.566280  1.0  0.0363
  C  C95  1  0.646880  0.896080  0.792160  1.0  0.3183
  C  C96  1  0.550230  0.855730  0.711460  1.0  -0.0573
  C  C97  1  0.360140  0.783140  0.566280  1.0  0.0335
  C  C98  1  0.145280  0.896080  0.792160  1.0  0.3179
  C  C99  1  0.161230  0.855730  0.711460  1.0  -0.0605
  C  C100  1  0.206140  0.783140  0.566280  1.0  0.0489
  C  C101  1  0.250000  0.750000  0.500000  1.0  0.0027
  C  C102  1  0.750000  0.250000  0.500000  1.0  0.0024
  N  N103  1  0.005130  0.871280  0.095680  1.0  0.0311
  N  N104  1  0.011080  0.861080  0.166020  1.0  -0.2691
  N  N105  1  0.090550  0.224400  0.095680  1.0  0.0381
  N  N106  1  0.154940  0.304940  0.166020  1.0  -0.2684
  N  N107  1  0.871280  0.090550  0.095680  1.0  0.039
  N  N108  1  0.861080  0.154940  0.166020  1.0  -0.2631
  N  N109  1  0.224400  0.005130  0.095680  1.0  0.0327
  N  N110  1  0.304940  0.011080  0.166020  1.0  -0.274
  N  N111  1  0.909450  0.128720  0.904320  1.0  0.0376
  N  N112  1  0.845060  0.138920  0.833980  1.0  -0.2623
  N  N113  1  0.994870  0.775600  0.904320  1.0  0.0316
  N  N114  1  0.988920  0.695060  0.833980  1.0  -0.2763
  N  N115  1  0.775600  0.909450  0.904320  1.0  0.0374
  N  N116  1  0.695060  0.845060  0.833980  1.0  -0.2675
  N  N117  1  0.128720  0.994870  0.904320  1.0  0.0313
  N  N118  1  0.138920  0.988920  0.833980  1.0  -0.2692
  N  N119  1  0.994870  0.128720  0.904320  1.0  0.0303
  N  N120  1  0.988920  0.138920  0.833980  1.0  -0.2704
  N  N121  1  0.909450  0.775600  0.904320  1.0  0.0376
  N  N122  1  0.845060  0.695060  0.833980  1.0  -0.2669
  N  N123  1  0.128720  0.909450  0.904320  1.0  0.0379
  N  N124  1  0.138920  0.845060  0.833980  1.0  -0.2625
  N  N125  1  0.775600  0.994870  0.904320  1.0  0.0309
  N  N126  1  0.695060  0.988920  0.833980  1.0  -0.2746
  N  N127  1  0.090550  0.871280  0.095680  1.0  0.0386
  N  N128  1  0.154940  0.861080  0.166020  1.0  -0.2651
  N  N129  1  0.005130  0.224400  0.095680  1.0  0.0316
  N  N130  1  0.011080  0.304940  0.166020  1.0  -0.2744
  N  N131  1  0.224400  0.090550  0.095680  1.0  0.0389
  N  N132  1  0.304940  0.154940  0.166020  1.0  -0.2683
  N  N133  1  0.871280  0.005130  0.095680  1.0  0.0322
  N  N134  1  0.861080  0.011080  0.166020  1.0  -0.2678
  Cl  Cl135  1  0.000000  0.000000  0.000000  1.0  -0.1534
