# generated using pymatgen
data_MnH16C19O5
_symmetry_space_group_name_H-M   'P 1'
_cell_length_a   33.41240000
_cell_length_b   33.41240000
_cell_length_c   13.06650000
_cell_angle_alpha   90.00000000
_cell_angle_beta   90.00000000
_cell_angle_gamma   90.00000000
_symmetry_Int_Tables_number   1
_chemical_formula_structural   MnH16C19O5
_chemical_formula_sum   'Mn16 H256 C304 O80'
_cell_volume   14587.28999239
_cell_formula_units_Z   16
loop_
 _symmetry_equiv_pos_site_id
 _symmetry_equiv_pos_as_xyz
  1  'x, y, z'
loop_
 _atom_site_type_symbol
 _atom_site_label
 _atom_site_symmetry_multiplicity
 _atom_site_fract_x
 _atom_site_fract_y
 _atom_site_fract_z
 _atom_site_occupancy
 _atom_site_charge
  Mn  Mn1  1  0.223200  0.843760  0.996970  1.0  1.1411
  Mn  Mn2  1  0.776800  0.156240  0.496970  1.0  1.1454
  Mn  Mn3  1  0.656240  0.723200  0.246970  1.0  1.1402
  Mn  Mn4  1  0.343760  0.276800  0.746970  1.0  1.1422
  Mn  Mn5  1  0.276800  0.343760  0.253030  1.0  1.1394
  Mn  Mn6  1  0.723200  0.656240  0.753030  1.0  1.1449
  Mn  Mn7  1  0.843760  0.223200  0.003030  1.0  1.1404
  Mn  Mn8  1  0.156240  0.776800  0.503030  1.0  1.1404
  Mn  Mn9  1  0.266590  0.733410  0.250000  1.0  1.0768
  Mn  Mn10  1  0.733410  0.266590  0.750000  1.0  1.0776
  Mn  Mn11  1  0.766590  0.766590  0.500000  1.0  1.0772
  Mn  Mn12  1  0.233410  0.233410  0.000000  1.0  1.0777
  Mn  Mn13  1  0.157250  0.842750  0.750000  1.0  1.0726
  Mn  Mn14  1  0.842750  0.157250  0.250000  1.0  1.0784
  Mn  Mn15  1  0.657250  0.657250  0.000000  1.0  1.0717
  Mn  Mn16  1  0.342750  0.342750  0.500000  1.0  1.0736
  H  H17  1  0.203900  0.771200  0.846300  1.0  0.1081
  H  H18  1  0.143000  0.672400  0.755900  1.0  0.1205
  H  H19  1  0.199000  0.673900  0.031000  1.0  0.1264
  H  H20  1  0.126000  0.639400  0.048200  1.0  0.1211
  H  H21  1  0.199100  0.628100  0.751500  1.0  0.1178
  H  H22  1  0.177900  0.591400  0.694700  1.0  0.1408
  H  H23  1  0.216300  0.583800  0.765500  1.0  0.1354
  H  H24  1  0.179500  0.430400  0.641900  1.0  0.1174
  H  H25  1  0.232300  0.480100  0.945600  1.0  0.1058
  H  H26  1  0.195900  0.505900  0.990100  1.0  0.1312
  H  H27  1  0.228800  0.526700  0.918500  1.0  0.1381
  H  H28  1  0.254000  0.418900  0.676300  1.0  0.1297
  H  H29  1  0.295900  0.348700  0.905500  1.0  0.1191
  H  H30  1  0.201700  0.422600  0.956100  1.0  0.1341
  H  H31  1  0.036200  0.550400  0.159800  1.0  0.1156
  H  H32  1  0.054400  0.530200  0.059100  1.0  0.1195
  H  H33  1  0.037300  0.574900  0.054500  1.0  0.1151
  H  H34  1  0.098600  0.537000  0.256100  1.0  0.1275
  H  H35  1  0.141100  0.551800  0.213700  1.0  0.1198
  H  H36  1  0.118000  0.516100  0.157600  1.0  0.1229
  H  H37  1  0.071500  0.602800  0.247900  1.0  0.1139
  H  H38  1  0.072400  0.628800  0.145000  1.0  0.124
  H  H39  1  0.113000  0.620400  0.206500  1.0  0.114
  H  H40  1  0.066600  0.471300  0.494200  1.0  0.1156
  H  H41  1  0.070200  0.498900  0.593800  1.0  0.1223
  H  H42  1  0.073000  0.451300  0.604300  1.0  0.1167
  H  H43  1  0.122200  0.509900  0.410600  1.0  0.1295
  H  H44  1  0.164700  0.513500  0.466400  1.0  0.1216
  H  H45  1  0.126900  0.537600  0.509700  1.0  0.126
  H  H46  1  0.122300  0.436800  0.427600  1.0  0.1238
  H  H47  1  0.129300  0.415600  0.536100  1.0  0.1237
  H  H48  1  0.165300  0.438600  0.480900  1.0  0.118
  H  H49  1  0.796100  0.228800  0.346300  1.0  0.1084
  H  H50  1  0.857000  0.327600  0.255900  1.0  0.1203
  H  H51  1  0.801000  0.326100  0.531000  1.0  0.1269
  H  H52  1  0.874000  0.360600  0.548200  1.0  0.1221
  H  H53  1  0.800900  0.371900  0.251500  1.0  0.1177
  H  H54  1  0.822100  0.408600  0.194700  1.0  0.1387
  H  H55  1  0.783700  0.416200  0.265500  1.0  0.1359
  H  H56  1  0.820500  0.569600  0.141900  1.0  0.1172
  H  H57  1  0.767700  0.519900  0.445600  1.0  0.107
  H  H58  1  0.804100  0.494100  0.490100  1.0  0.1317
  H  H59  1  0.771200  0.473300  0.418500  1.0  0.1385
  H  H60  1  0.746000  0.581100  0.176300  1.0  0.1298
  H  H61  1  0.704100  0.651300  0.405500  1.0  0.1194
  H  H62  1  0.798300  0.577400  0.456100  1.0  0.1346
  H  H63  1  0.963800  0.449600  0.659800  1.0  0.1155
  H  H64  1  0.945600  0.469800  0.559100  1.0  0.1204
  H  H65  1  0.962700  0.425100  0.554500  1.0  0.1152
  H  H66  1  0.901400  0.463000  0.756100  1.0  0.1262
  H  H67  1  0.858900  0.448200  0.713700  1.0  0.1223
  H  H68  1  0.882000  0.483900  0.657600  1.0  0.1218
  H  H69  1  0.928500  0.397200  0.747900  1.0  0.1145
  H  H70  1  0.927600  0.371200  0.645000  1.0  0.1245
  H  H71  1  0.887000  0.379600  0.706500  1.0  0.1144
  H  H72  1  0.933400  0.528700  0.994200  1.0  0.1173
  H  H73  1  0.929800  0.501100  0.093800  1.0  0.123
  H  H74  1  0.927000  0.548700  0.104300  1.0  0.1165
  H  H75  1  0.877800  0.490100  0.910600  1.0  0.1285
  H  H76  1  0.835300  0.486500  0.966400  1.0  0.1207
  H  H77  1  0.873100  0.462400  0.009700  1.0  0.1264
  H  H78  1  0.877700  0.563200  0.927600  1.0  0.1227
  H  H79  1  0.870700  0.584400  0.036100  1.0  0.1251
  H  H80  1  0.834700  0.561400  0.980900  1.0  0.1155
  H  H81  1  0.728800  0.703900  0.096300  1.0  0.1077
  H  H82  1  0.827600  0.643000  0.005900  1.0  0.1206
  H  H83  1  0.826100  0.699000  0.281000  1.0  0.1291
  H  H84  1  0.860600  0.626000  0.298200  1.0  0.1217
  H  H85  1  0.871900  0.699100  0.001500  1.0  0.1161
  H  H86  1  0.908600  0.677900  0.944700  1.0  0.1399
  H  H87  1  0.916200  0.716300  0.015500  1.0  0.1372
  H  H88  1  0.069600  0.679500  0.891900  1.0  0.1175
  H  H89  1  0.019900  0.732300  0.195600  1.0  0.1085
  H  H90  1  0.994100  0.695900  0.240100  1.0  0.131
  H  H91  1  0.973300  0.728800  0.168500  1.0  0.1372
  H  H92  1  0.081100  0.754000  0.926300  1.0  0.1295
  H  H93  1  0.151300  0.795900  0.155500  1.0  0.1208
  H  H94  1  0.077400  0.701700  0.206100  1.0  0.1332
  H  H95  1  0.949600  0.536200  0.409800  1.0  0.1172
  H  H96  1  0.969800  0.554400  0.309100  1.0  0.1193
  H  H97  1  0.925100  0.537300  0.304500  1.0  0.1158
  H  H98  1  0.963000  0.598600  0.506100  1.0  0.1268
  H  H99  1  0.948200  0.641100  0.463700  1.0  0.1237
  H  H100  1  0.983900  0.618000  0.407600  1.0  0.1246
  H  H101  1  0.897200  0.571500  0.497900  1.0  0.113
  H  H102  1  0.871200  0.572400  0.395000  1.0  0.1226
  H  H103  1  0.879600  0.613000  0.456500  1.0  0.1144
  H  H104  1  0.028700  0.566600  0.744200  1.0  0.1167
  H  H105  1  0.001100  0.570200  0.843800  1.0  0.1223
  H  H106  1  0.048700  0.573000  0.854300  1.0  0.1163
  H  H107  1  0.990100  0.622200  0.660600  1.0  0.1305
  H  H108  1  0.986500  0.664700  0.716400  1.0  0.123
  H  H109  1  0.962400  0.626900  0.759700  1.0  0.1247
  H  H110  1  0.063200  0.622300  0.677600  1.0  0.1232
  H  H111  1  0.084400  0.629300  0.786100  1.0  0.1205
  H  H112  1  0.061400  0.665300  0.730900  1.0  0.113
  H  H113  1  0.271200  0.296100  0.596300  1.0  0.1078
  H  H114  1  0.172400  0.357000  0.505900  1.0  0.12
  H  H115  1  0.173900  0.301000  0.781000  1.0  0.1299
  H  H116  1  0.139400  0.374000  0.798200  1.0  0.1216
  H  H117  1  0.128100  0.300900  0.501500  1.0  0.1164
  H  H118  1  0.091400  0.322100  0.444700  1.0  0.1394
  H  H119  1  0.083800  0.283700  0.515500  1.0  0.1369
  H  H120  1  0.930400  0.320500  0.391900  1.0  0.1163
  H  H121  1  0.980100  0.267700  0.695600  1.0  0.1103
  H  H122  1  0.005900  0.304100  0.740100  1.0  0.1302
  H  H123  1  0.026700  0.271200  0.668500  1.0  0.1354
  H  H124  1  0.918900  0.246000  0.426300  1.0  0.128
  H  H125  1  0.848700  0.204100  0.655500  1.0  0.1208
  H  H126  1  0.922600  0.298300  0.706100  1.0  0.1329
  H  H127  1  0.050400  0.463800  0.909800  1.0  0.1172
  H  H128  1  0.030200  0.445600  0.809100  1.0  0.1183
  H  H129  1  0.074900  0.462700  0.804500  1.0  0.1134
  H  H130  1  0.037000  0.401400  0.006100  1.0  0.1273
  H  H131  1  0.051800  0.358900  0.963700  1.0  0.1233
  H  H132  1  0.016100  0.382000  0.907600  1.0  0.1227
  H  H133  1  0.102800  0.428500  0.997900  1.0  0.1129
  H  H134  1  0.128800  0.427600  0.895000  1.0  0.1221
  H  H135  1  0.120400  0.387000  0.956500  1.0  0.1158
  H  H136  1  0.971300  0.433400  0.244200  1.0  0.1169
  H  H137  1  0.998900  0.429800  0.343800  1.0  0.1212
  H  H138  1  0.951300  0.427000  0.354300  1.0  0.1158
  H  H139  1  0.009900  0.377800  0.160600  1.0  0.1285
  H  H140  1  0.013500  0.335300  0.216400  1.0  0.1192
  H  H141  1  0.037600  0.373100  0.259700  1.0  0.127
  H  H142  1  0.936800  0.377700  0.177600  1.0  0.1222
  H  H143  1  0.915600  0.370700  0.286100  1.0  0.1186
  H  H144  1  0.938600  0.334700  0.230900  1.0  0.1128
  H  H145  1  0.296100  0.271200  0.403700  1.0  0.1085
  H  H146  1  0.357000  0.172400  0.494100  1.0  0.1203
  H  H147  1  0.301000  0.173900  0.219000  1.0  0.1269
  H  H148  1  0.374000  0.139400  0.201800  1.0  0.1218
  H  H149  1  0.300900  0.128100  0.498500  1.0  0.1168
  H  H150  1  0.322100  0.091400  0.555300  1.0  0.1395
  H  H151  1  0.283700  0.083800  0.484500  1.0  0.1364
  H  H152  1  0.320500  0.930400  0.608100  1.0  0.1176
  H  H153  1  0.267700  0.980100  0.304400  1.0  0.1094
  H  H154  1  0.304100  0.005900  0.259900  1.0  0.1287
  H  H155  1  0.271200  0.026700  0.331500  1.0  0.139
  H  H156  1  0.246000  0.918900  0.573700  1.0  0.1271
  H  H157  1  0.204100  0.848700  0.344500  1.0  0.1188
  H  H158  1  0.298300  0.922600  0.293900  1.0  0.1345
  H  H159  1  0.463800  0.050400  0.090200  1.0  0.1152
  H  H160  1  0.445600  0.030200  0.190900  1.0  0.1202
  H  H161  1  0.462700  0.074900  0.195500  1.0  0.1146
  H  H162  1  0.401400  0.037000  0.993900  1.0  0.1253
  H  H163  1  0.358900  0.051800  0.036300  1.0  0.1208
  H  H164  1  0.382000  0.016100  0.092400  1.0  0.1225
  H  H165  1  0.428500  0.102800  0.002100  1.0  0.1127
  H  H166  1  0.427600  0.128800  0.105000  1.0  0.1235
  H  H167  1  0.387000  0.120400  0.043500  1.0  0.1124
  H  H168  1  0.433400  0.971300  0.755800  1.0  0.1166
  H  H169  1  0.429800  0.998900  0.656200  1.0  0.1217
  H  H170  1  0.427000  0.951300  0.645700  1.0  0.1171
  H  H171  1  0.377800  0.009900  0.839400  1.0  0.129
  H  H172  1  0.335300  0.013500  0.783600  1.0  0.1221
  H  H173  1  0.373100  0.037600  0.740300  1.0  0.1263
  H  H174  1  0.377700  0.936800  0.822400  1.0  0.1235
  H  H175  1  0.370700  0.915600  0.713900  1.0  0.1256
  H  H176  1  0.334700  0.938600  0.769100  1.0  0.1174
  H  H177  1  0.703900  0.728800  0.903700  1.0  0.1085
  H  H178  1  0.643000  0.827600  0.994100  1.0  0.1204
  H  H179  1  0.699000  0.826100  0.719000  1.0  0.1273
  H  H180  1  0.626000  0.860600  0.701800  1.0  0.1218
  H  H181  1  0.699100  0.871900  0.998500  1.0  0.1178
  H  H182  1  0.677900  0.908600  0.055300  1.0  0.1379
  H  H183  1  0.716300  0.916200  0.984500  1.0  0.1355
  H  H184  1  0.679500  0.069600  0.108100  1.0  0.1171
  H  H185  1  0.732300  0.019900  0.804400  1.0  0.1111
  H  H186  1  0.695900  0.994100  0.759900  1.0  0.1317
  H  H187  1  0.728800  0.973300  0.831500  1.0  0.1393
  H  H188  1  0.754000  0.081100  0.073700  1.0  0.129
  H  H189  1  0.795900  0.151300  0.844500  1.0  0.1186
  H  H190  1  0.701700  0.077400  0.793900  1.0  0.1343
  H  H191  1  0.536200  0.949600  0.590200  1.0  0.1152
  H  H192  1  0.554400  0.969800  0.690900  1.0  0.1196
  H  H193  1  0.537300  0.925100  0.695500  1.0  0.1147
  H  H194  1  0.598600  0.963000  0.493900  1.0  0.1277
  H  H195  1  0.641100  0.948200  0.536300  1.0  0.1207
  H  H196  1  0.618000  0.983900  0.592400  1.0  0.1232
  H  H197  1  0.571500  0.897200  0.502100  1.0  0.1135
  H  H198  1  0.572400  0.871200  0.605000  1.0  0.1215
  H  H199  1  0.613000  0.879600  0.543500  1.0  0.1148
  H  H200  1  0.566600  0.028700  0.255800  1.0  0.1156
  H  H201  1  0.570200  0.001100  0.156200  1.0  0.1219
  H  H202  1  0.573000  0.048700  0.145700  1.0  0.1172
  H  H203  1  0.622200  0.990100  0.339400  1.0  0.129
  H  H204  1  0.664700  0.986500  0.283600  1.0  0.1192
  H  H205  1  0.626900  0.962400  0.240300  1.0  0.1274
  H  H206  1  0.622300  0.063200  0.322400  1.0  0.1238
  H  H207  1  0.629300  0.084400  0.213900  1.0  0.1255
  H  H208  1  0.665300  0.061400  0.269100  1.0  0.1165
  H  H209  1  0.771200  0.203900  0.153700  1.0  0.1079
  H  H210  1  0.672400  0.143000  0.244100  1.0  0.1205
  H  H211  1  0.673900  0.199000  0.969000  1.0  0.1293
  H  H212  1  0.639400  0.126000  0.951800  1.0  0.1212
  H  H213  1  0.628100  0.199100  0.248500  1.0  0.1139
  H  H214  1  0.591400  0.177900  0.305300  1.0  0.1389
  H  H215  1  0.583800  0.216300  0.234500  1.0  0.138
  H  H216  1  0.430400  0.179500  0.358100  1.0  0.1169
  H  H217  1  0.480100  0.232300  0.054400  1.0  0.1065
  H  H218  1  0.505900  0.195900  0.009900  1.0  0.1296
  H  H219  1  0.526700  0.228800  0.081500  1.0  0.1364
  H  H220  1  0.418900  0.254000  0.323700  1.0  0.1291
  H  H221  1  0.348700  0.295900  0.094500  1.0  0.1207
  H  H222  1  0.422600  0.201700  0.043900  1.0  0.1331
  H  H223  1  0.550400  0.036200  0.840200  1.0  0.1179
  H  H224  1  0.530200  0.054400  0.940900  1.0  0.118
  H  H225  1  0.574900  0.037300  0.945500  1.0  0.1145
  H  H226  1  0.537000  0.098600  0.743900  1.0  0.1268
  H  H227  1  0.551800  0.141100  0.786300  1.0  0.1245
  H  H228  1  0.516100  0.118000  0.842400  1.0  0.1207
  H  H229  1  0.602800  0.071500  0.752100  1.0  0.1131
  H  H230  1  0.628800  0.072400  0.855000  1.0  0.1208
  H  H231  1  0.620400  0.113000  0.793500  1.0  0.116
  H  H232  1  0.471300  0.066600  0.505800  1.0  0.1165
  H  H233  1  0.498900  0.070200  0.406200  1.0  0.1215
  H  H234  1  0.451300  0.073000  0.395700  1.0  0.1173
  H  H235  1  0.509900  0.122200  0.589400  1.0  0.1287
  H  H236  1  0.513500  0.164700  0.533600  1.0  0.1222
  H  H237  1  0.537600  0.126900  0.490300  1.0  0.1253
  H  H238  1  0.436800  0.122300  0.572400  1.0  0.1224
  H  H239  1  0.415600  0.129300  0.463900  1.0  0.1201
  H  H240  1  0.438600  0.165300  0.519100  1.0  0.1128
  H  H241  1  0.228800  0.796100  0.653700  1.0  0.1077
  H  H242  1  0.327600  0.857000  0.744100  1.0  0.1205
  H  H243  1  0.326100  0.801000  0.469000  1.0  0.1282
  H  H244  1  0.360600  0.874000  0.451800  1.0  0.1214
  H  H245  1  0.371900  0.800900  0.748500  1.0  0.1164
  H  H246  1  0.408600  0.822100  0.805300  1.0  0.1389
  H  H247  1  0.416200  0.783700  0.734500  1.0  0.1359
  H  H248  1  0.569600  0.820500  0.858100  1.0  0.1178
  H  H249  1  0.519900  0.767700  0.554400  1.0  0.1053
  H  H250  1  0.494100  0.804100  0.509900  1.0  0.1286
  H  H251  1  0.473300  0.771200  0.581500  1.0  0.1369
  H  H252  1  0.581100  0.746000  0.823700  1.0  0.1305
  H  H253  1  0.651300  0.704100  0.594500  1.0  0.1204
  H  H254  1  0.577400  0.798300  0.543900  1.0  0.1336
  H  H255  1  0.449600  0.963800  0.340200  1.0  0.1175
  H  H256  1  0.469800  0.945600  0.440900  1.0  0.119
  H  H257  1  0.425100  0.962700  0.445500  1.0  0.1145
  H  H258  1  0.463000  0.901400  0.243900  1.0  0.1268
  H  H259  1  0.448200  0.858900  0.286300  1.0  0.1211
  H  H260  1  0.483900  0.882000  0.342400  1.0  0.1266
  H  H261  1  0.397200  0.928500  0.252100  1.0  0.1122
  H  H262  1  0.371200  0.927600  0.355000  1.0  0.1209
  H  H263  1  0.379600  0.887000  0.293500  1.0  0.1137
  H  H264  1  0.528700  0.933400  0.005800  1.0  0.1164
  H  H265  1  0.501100  0.929800  0.906200  1.0  0.1212
  H  H266  1  0.548700  0.927000  0.895700  1.0  0.1159
  H  H267  1  0.490100  0.877800  0.089400  1.0  0.1291
  H  H268  1  0.486500  0.835300  0.033600  1.0  0.1195
  H  H269  1  0.462400  0.873100  0.990300  1.0  0.1268
  H  H270  1  0.563200  0.877700  0.072400  1.0  0.1239
  H  H271  1  0.584400  0.870700  0.963900  1.0  0.1218
  H  H272  1  0.561400  0.834700  0.019100  1.0  0.1147
  C  C273  1  0.233200  0.745800  0.023000  1.0  0.6681
  C  C274  1  0.205100  0.725690  0.950100  1.0  -0.1303
  C  C275  1  0.194970  0.744670  0.859000  1.0  -0.0559
  C  C276  1  0.171830  0.724820  0.786700  1.0  -0.1079
  C  C277  1  0.158810  0.685990  0.805300  1.0  -0.092
  C  C278  1  0.168940  0.667010  0.896400  1.0  0.0698
  C  C279  1  0.192080  0.686850  0.968800  1.0  -0.0585
  C  C280  1  0.160200  0.745100  0.691300  1.0  0.6957
  C  C281  1  0.155180  0.624980  0.916200  1.0  0.0395
  C  C282  1  0.164340  0.593620  0.850400  1.0  0.0614
  C  C283  1  0.150620  0.555220  0.871500  1.0  0.0203
  C  C284  1  0.127730  0.548190  0.958500  1.0  0.2482
  C  C285  1  0.118570  0.579550  0.024400  1.0  -0.036
  C  C286  1  0.132300  0.617940  0.003200  1.0  -0.1636
  C  C287  1  0.191900  0.599800  0.757000  1.0  -0.3798
  C  C288  1  0.160370  0.520030  0.804800  1.0  -0.016
  C  C289  1  0.139550  0.515040  0.713600  1.0  0.2235
  C  C290  1  0.146670  0.481630  0.652900  1.0  -0.0201
  C  C291  1  0.174620  0.453210  0.683300  1.0  -0.1653
  C  C292  1  0.195450  0.458210  0.774500  1.0  0.0087
  C  C293  1  0.188320  0.491620  0.835300  1.0  0.0761
  C  C294  1  0.213700  0.502100  0.931200  1.0  -0.3571
  C  C295  1  0.223570  0.425220  0.810600  1.0  0.048
  C  C296  1  0.252560  0.409870  0.745200  1.0  -0.0641
  C  C297  1  0.279520  0.381370  0.780600  1.0  -0.1008
  C  C298  1  0.277480  0.368210  0.881300  1.0  0.0193
  C  C299  1  0.248490  0.383560  0.946800  1.0  -0.1168
  C  C300  1  0.221530  0.412060  0.911400  1.0  -0.115
  C  C301  1  0.244500  0.373000  0.060400  1.0  0.7121
  C  C302  1  0.310000  0.364200  0.710300  1.0  0.6535
  C  C303  1  0.093500  0.571800  0.125100  1.0  0.161
  C  C304  1  0.051500  0.555300  0.097000  1.0  -0.3628
  C  C305  1  0.114700  0.541400  0.194400  1.0  -0.3799
  C  C306  1  0.087000  0.609200  0.186400  1.0  -0.359
  C  C307  1  0.124700  0.476500  0.546500  1.0  0.162
  C  C308  1  0.079600  0.474300  0.561000  1.0  -0.3531
  C  C309  1  0.135600  0.512700  0.476900  1.0  -0.36
  C  C310  1  0.136400  0.438600  0.493200  1.0  -0.3649
  C  C311  1  0.766800  0.254200  0.523000  1.0  0.6653
  C  C312  1  0.794900  0.274310  0.450100  1.0  -0.1293
  C  C313  1  0.805030  0.255330  0.359000  1.0  -0.0539
  C  C314  1  0.828170  0.275180  0.286700  1.0  -0.1087
  C  C315  1  0.841190  0.314010  0.305300  1.0  -0.0918
  C  C316  1  0.831060  0.332990  0.396400  1.0  0.0715
  C  C317  1  0.807920  0.313150  0.468800  1.0  -0.0595
  C  C318  1  0.839800  0.254900  0.191300  1.0  0.6945
  C  C319  1  0.844820  0.375020  0.416200  1.0  0.0405
  C  C320  1  0.835660  0.406380  0.350400  1.0  0.062
  C  C321  1  0.849380  0.444780  0.371500  1.0  0.0198
  C  C322  1  0.872270  0.451810  0.458500  1.0  0.2488
  C  C323  1  0.881430  0.420450  0.524400  1.0  -0.0374
  C  C324  1  0.867700  0.382060  0.503200  1.0  -0.1648
  C  C325  1  0.808100  0.400200  0.257000  1.0  -0.378
  C  C326  1  0.839630  0.479970  0.304800  1.0  -0.018
  C  C327  1  0.860450  0.484960  0.213600  1.0  0.2252
  C  C328  1  0.853330  0.518370  0.152900  1.0  -0.0189
  C  C329  1  0.825380  0.546790  0.183300  1.0  -0.1644
  C  C330  1  0.804550  0.541790  0.274500  1.0  0.0115
  C  C331  1  0.811680  0.508380  0.335300  1.0  0.0756
  C  C332  1  0.786300  0.497900  0.431200  1.0  -0.3559
  C  C333  1  0.776430  0.574780  0.310600  1.0  0.0493
  C  C334  1  0.747440  0.590130  0.245200  1.0  -0.0633
  C  C335  1  0.720480  0.618630  0.280600  1.0  -0.1039
  C  C336  1  0.722520  0.631790  0.381300  1.0  0.0201
  C  C337  1  0.751510  0.616440  0.446800  1.0  -0.1167
  C  C338  1  0.778470  0.587940  0.411400  1.0  -0.1156
  C  C339  1  0.755500  0.627000  0.560400  1.0  0.7114
  C  C340  1  0.690000  0.635800  0.210300  1.0  0.652
  C  C341  1  0.906500  0.428200  0.625100  1.0  0.1617
  C  C342  1  0.948500  0.444700  0.597000  1.0  -0.3607
  C  C343  1  0.885300  0.458600  0.694400  1.0  -0.3803
  C  C344  1  0.913000  0.390800  0.686400  1.0  -0.3585
  C  C345  1  0.875300  0.523500  0.046500  1.0  0.1618
  C  C346  1  0.920400  0.525700  0.061000  1.0  -0.3525
  C  C347  1  0.864400  0.487300  0.976900  1.0  -0.3587
  C  C348  1  0.863600  0.561400  0.993200  1.0  -0.3661
  C  C349  1  0.754200  0.733200  0.273000  1.0  0.6701
  C  C350  1  0.774310  0.705100  0.200100  1.0  -0.1277
  C  C351  1  0.755330  0.694970  0.109000  1.0  -0.0564
  C  C352  1  0.775180  0.671830  0.036700  1.0  -0.1055
  C  C353  1  0.814010  0.658810  0.055300  1.0  -0.0912
  C  C354  1  0.832990  0.668940  0.146400  1.0  0.0732
  C  C355  1  0.813150  0.692080  0.218800  1.0  -0.0586
  C  C356  1  0.754900  0.660200  0.941300  1.0  0.6949
  C  C357  1  0.875020  0.655180  0.166200  1.0  0.0435
  C  C358  1  0.906380  0.664340  0.100400  1.0  0.0617
  C  C359  1  0.944780  0.650620  0.121500  1.0  0.0217
  C  C360  1  0.951810  0.627730  0.208500  1.0  0.2481
  C  C361  1  0.920450  0.618570  0.274400  1.0  -0.0362
  C  C362  1  0.882060  0.632300  0.253200  1.0  -0.166
  C  C363  1  0.900200  0.691900  0.007000  1.0  -0.3782
  C  C364  1  0.979970  0.660370  0.054800  1.0  -0.0155
  C  C365  1  0.984960  0.639550  0.963600  1.0  0.2262
  C  C366  1  0.018370  0.646670  0.902900  1.0  -0.0191
  C  C367  1  0.046790  0.674620  0.933300  1.0  -0.1656
  C  C368  1  0.041790  0.695450  0.024500  1.0  0.0123
  C  C369  1  0.008380  0.688320  0.085300  1.0  0.077
  C  C370  1  0.997900  0.713700  0.181200  1.0  -0.3555
  C  C371  1  0.074780  0.723570  0.060600  1.0  0.049
  C  C372  1  0.090130  0.752560  0.995200  1.0  -0.0608
  C  C373  1  0.118630  0.779520  0.030600  1.0  -0.1015
  C  C374  1  0.131790  0.777480  0.131300  1.0  0.0172
  C  C375  1  0.116440  0.748490  0.196800  1.0  -0.1122
  C  C376  1  0.087940  0.721530  0.161400  1.0  -0.1157
  C  C377  1  0.127000  0.744500  0.310400  1.0  0.7115
  C  C378  1  0.135800  0.810000  0.960300  1.0  0.6668
  C  C379  1  0.928200  0.593500  0.375100  1.0  0.1616
  C  C380  1  0.944700  0.551500  0.347000  1.0  -0.3631
  C  C381  1  0.958600  0.614700  0.444400  1.0  -0.378
  C  C382  1  0.890800  0.587000  0.436400  1.0  -0.359
  C  C383  1  0.023500  0.624700  0.796500  1.0  0.1619
  C  C384  1  0.025700  0.579600  0.811000  1.0  -0.3531
  C  C385  1  0.987300  0.635600  0.726900  1.0  -0.3581
  C  C386  1  0.061400  0.636400  0.743200  1.0  -0.3647
  C  C387  1  0.245800  0.266800  0.773000  1.0  0.6694
  C  C388  1  0.225690  0.294900  0.700100  1.0  -0.1273
  C  C389  1  0.244670  0.305030  0.609000  1.0  -0.0569
  C  C390  1  0.224820  0.328170  0.536700  1.0  -0.1055
  C  C391  1  0.185990  0.341190  0.555300  1.0  -0.0926
  C  C392  1  0.167010  0.331060  0.646400  1.0  0.0737
  C  C393  1  0.186850  0.307920  0.718800  1.0  -0.0596
  C  C394  1  0.245100  0.339800  0.441300  1.0  0.6956
  C  C395  1  0.124980  0.344820  0.666200  1.0  0.0444
  C  C396  1  0.093620  0.335660  0.600400  1.0  0.0631
  C  C397  1  0.055220  0.349380  0.621500  1.0  0.0212
  C  C398  1  0.048190  0.372270  0.708500  1.0  0.249
  C  C399  1  0.079550  0.381430  0.774400  1.0  -0.0359
  C  C400  1  0.117940  0.367700  0.753200  1.0  -0.1642
  C  C401  1  0.099800  0.308100  0.507000  1.0  -0.3788
  C  C402  1  0.020030  0.339630  0.554800  1.0  -0.0165
  C  C403  1  0.015040  0.360450  0.463600  1.0  0.2259
  C  C404  1  0.981630  0.353330  0.402900  1.0  -0.0202
  C  C405  1  0.953210  0.325380  0.433300  1.0  -0.1656
  C  C406  1  0.958210  0.304550  0.524500  1.0  0.0113
  C  C407  1  0.991620  0.311680  0.585300  1.0  0.0777
  C  C408  1  0.002100  0.286300  0.681200  1.0  -0.3535
  C  C409  1  0.925220  0.276430  0.560600  1.0  0.0515
  C  C410  1  0.909870  0.247440  0.495200  1.0  -0.061
  C  C411  1  0.881370  0.220480  0.530600  1.0  -0.101
  C  C412  1  0.868210  0.222520  0.631300  1.0  0.0168
  C  C413  1  0.883560  0.251510  0.696800  1.0  -0.1123
  C  C414  1  0.912060  0.278470  0.661400  1.0  -0.1173
  C  C415  1  0.873000  0.255500  0.810400  1.0  0.7116
  C  C416  1  0.864200  0.190000  0.460300  1.0  0.664
  C  C417  1  0.071800  0.406500  0.875100  1.0  0.162
  C  C418  1  0.055300  0.448500  0.847000  1.0  -0.3636
  C  C419  1  0.041400  0.385300  0.944400  1.0  -0.3786
  C  C420  1  0.109200  0.413000  0.936400  1.0  -0.3589
  C  C421  1  0.976500  0.375300  0.296500  1.0  0.1615
  C  C422  1  0.974300  0.420400  0.311000  1.0  -0.3527
  C  C423  1  0.012700  0.364400  0.226900  1.0  -0.3589
  C  C424  1  0.938600  0.363600  0.243200  1.0  -0.3642
  C  C425  1  0.266800  0.245800  0.227000  1.0  0.6669
  C  C426  1  0.294900  0.225690  0.299900  1.0  -0.1306
  C  C427  1  0.305030  0.244670  0.391000  1.0  -0.055
  C  C428  1  0.328170  0.224820  0.463300  1.0  -0.1084
  C  C429  1  0.341190  0.185990  0.444700  1.0  -0.0914
  C  C430  1  0.331060  0.167010  0.353600  1.0  0.0713
  C  C431  1  0.307920  0.186850  0.281200  1.0  -0.0586
  C  C432  1  0.339800  0.245100  0.558700  1.0  0.6954
  C  C433  1  0.344820  0.124980  0.333800  1.0  0.0414
  C  C434  1  0.335660  0.093620  0.399600  1.0  0.0621
  C  C435  1  0.349380  0.055220  0.378500  1.0  0.0198
  C  C436  1  0.372270  0.048190  0.291500  1.0  0.2478
  C  C437  1  0.381430  0.079550  0.225600  1.0  -0.036
  C  C438  1  0.367700  0.117940  0.246800  1.0  -0.1648
  C  C439  1  0.308100  0.099800  0.493000  1.0  -0.3789
  C  C440  1  0.339630  0.020030  0.445200  1.0  -0.0172
  C  C441  1  0.360450  0.015040  0.536400  1.0  0.2232
  C  C442  1  0.353330  0.981630  0.597100  1.0  -0.0184
  C  C443  1  0.325380  0.953210  0.566700  1.0  -0.1638
  C  C444  1  0.304550  0.958210  0.475500  1.0  0.0107
  C  C445  1  0.311680  0.991620  0.414700  1.0  0.0763
  C  C446  1  0.286300  0.002100  0.318800  1.0  -0.3545
  C  C447  1  0.276430  0.925220  0.439400  1.0  0.0496
  C  C448  1  0.247440  0.909870  0.504800  1.0  -0.0643
  C  C449  1  0.220480  0.881370  0.469400  1.0  -0.1026
  C  C450  1  0.222520  0.868210  0.368700  1.0  0.0205
  C  C451  1  0.251510  0.883560  0.303200  1.0  -0.1183
  C  C452  1  0.278470  0.912060  0.338600  1.0  -0.115
  C  C453  1  0.255500  0.873000  0.189600  1.0  0.7106
  C  C454  1  0.190000  0.864200  0.539700  1.0  0.6609
  C  C455  1  0.406500  0.071800  0.124900  1.0  0.163
  C  C456  1  0.448500  0.055300  0.153000  1.0  -0.3621
  C  C457  1  0.385300  0.041400  0.055600  1.0  -0.3791
  C  C458  1  0.413000  0.109200  0.063600  1.0  -0.3588
  C  C459  1  0.375300  0.976500  0.703500  1.0  0.161
  C  C460  1  0.420400  0.974300  0.689000  1.0  -0.3527
  C  C461  1  0.364400  0.012700  0.773100  1.0  -0.3596
  C  C462  1  0.363600  0.938600  0.756800  1.0  -0.3647
  C  C463  1  0.733200  0.754200  0.727000  1.0  0.6666
  C  C464  1  0.705100  0.774310  0.799900  1.0  -0.1292
  C  C465  1  0.694970  0.755330  0.891000  1.0  -0.0545
  C  C466  1  0.671830  0.775180  0.963300  1.0  -0.1079
  C  C467  1  0.658810  0.814010  0.944700  1.0  -0.0906
  C  C468  1  0.668940  0.832990  0.853600  1.0  0.0692
  C  C469  1  0.692080  0.813150  0.781200  1.0  -0.0591
  C  C470  1  0.660200  0.754900  0.058700  1.0  0.6945
  C  C471  1  0.655180  0.875020  0.833800  1.0  0.0392
  C  C472  1  0.664340  0.906380  0.899600  1.0  0.0618
  C  C473  1  0.650620  0.944780  0.878500  1.0  0.0203
  C  C474  1  0.627730  0.951810  0.791500  1.0  0.2479
  C  C475  1  0.618570  0.920450  0.725600  1.0  -0.0355
  C  C476  1  0.632300  0.882060  0.746800  1.0  -0.1633
  C  C477  1  0.691900  0.900200  0.993000  1.0  -0.3798
  C  C478  1  0.660370  0.979970  0.945200  1.0  -0.0167
  C  C479  1  0.639550  0.984960  0.036400  1.0  0.2241
  C  C480  1  0.646670  0.018370  0.097100  1.0  -0.0205
  C  C481  1  0.674620  0.046790  0.066700  1.0  -0.1629
  C  C482  1  0.695450  0.041790  0.975500  1.0  0.0077
  C  C483  1  0.688320  0.008380  0.914700  1.0  0.0764
  C  C484  1  0.713700  0.997900  0.818800  1.0  -0.3549
  C  C485  1  0.723570  0.074780  0.939400  1.0  0.0477
  C  C486  1  0.752560  0.090130  0.004800  1.0  -0.0645
  C  C487  1  0.779520  0.118630  0.969400  1.0  -0.1016
  C  C488  1  0.777480  0.131790  0.868700  1.0  0.0204
  C  C489  1  0.748490  0.116440  0.803200  1.0  -0.1172
  C  C490  1  0.721530  0.087940  0.838600  1.0  -0.1143
  C  C491  1  0.744500  0.127000  0.689600  1.0  0.7122
  C  C492  1  0.810000  0.135800  0.039700  1.0  0.6622
  C  C493  1  0.593500  0.928200  0.624900  1.0  0.1627
  C  C494  1  0.551500  0.944700  0.653000  1.0  -0.3633
  C  C495  1  0.614700  0.958600  0.555600  1.0  -0.3792
  C  C496  1  0.587000  0.890800  0.563600  1.0  -0.3582
  C  C497  1  0.624700  0.023500  0.203500  1.0  0.1608
  C  C498  1  0.579600  0.025700  0.189000  1.0  -0.3534
  C  C499  1  0.635600  0.987300  0.273100  1.0  -0.3603
  C  C500  1  0.636400  0.061400  0.256800  1.0  -0.3663
  C  C501  1  0.745800  0.233200  0.977000  1.0  0.6729
  C  C502  1  0.725690  0.205100  0.049900  1.0  -0.128
  C  C503  1  0.744670  0.194970  0.141000  1.0  -0.0554
  C  C504  1  0.724820  0.171830  0.213300  1.0  -0.1052
  C  C505  1  0.685990  0.158810  0.194700  1.0  -0.0907
  C  C506  1  0.667010  0.168940  0.103600  1.0  0.0727
  C  C507  1  0.686850  0.192080  0.031200  1.0  -0.0593
  C  C508  1  0.745100  0.160200  0.308700  1.0  0.6954
  C  C509  1  0.624980  0.155180  0.083800  1.0  0.0434
  C  C510  1  0.593620  0.164340  0.149600  1.0  0.063
  C  C511  1  0.555220  0.150620  0.128500  1.0  0.0221
  C  C512  1  0.548190  0.127730  0.041500  1.0  0.2482
  C  C513  1  0.579550  0.118570  0.975600  1.0  -0.036
  C  C514  1  0.617940  0.132300  0.996800  1.0  -0.1648
  C  C515  1  0.599800  0.191900  0.243000  1.0  -0.3805
  C  C516  1  0.520030  0.160370  0.195200  1.0  -0.0157
  C  C517  1  0.515040  0.139550  0.286400  1.0  0.2251
  C  C518  1  0.481630  0.146670  0.347100  1.0  -0.0205
  C  C519  1  0.453210  0.174620  0.316700  1.0  -0.1648
  C  C520  1  0.458210  0.195450  0.225500  1.0  0.0117
  C  C521  1  0.491620  0.188320  0.164700  1.0  0.0785
  C  C522  1  0.502100  0.213700  0.068800  1.0  -0.3532
  C  C523  1  0.425220  0.223570  0.189400  1.0  0.0486
  C  C524  1  0.409870  0.252560  0.254800  1.0  -0.0632
  C  C525  1  0.381370  0.279520  0.219400  1.0  -0.1015
  C  C526  1  0.368210  0.277480  0.118700  1.0  0.0175
  C  C527  1  0.383560  0.248490  0.053200  1.0  -0.113
  C  C528  1  0.412060  0.221530  0.088600  1.0  -0.1161
  C  C529  1  0.373000  0.244500  0.939600  1.0  0.7115
  C  C530  1  0.364200  0.310000  0.289700  1.0  0.6564
  C  C531  1  0.571800  0.093500  0.874900  1.0  0.1636
  C  C532  1  0.555300  0.051500  0.903000  1.0  -0.3647
  C  C533  1  0.541400  0.114700  0.805600  1.0  -0.3775
  C  C534  1  0.609200  0.087000  0.813600  1.0  -0.3592
  C  C535  1  0.476500  0.124700  0.453500  1.0  0.1603
  C  C536  1  0.474300  0.079600  0.439000  1.0  -0.3532
  C  C537  1  0.512700  0.135600  0.523100  1.0  -0.3593
  C  C538  1  0.438600  0.136400  0.506800  1.0  -0.365
  C  C539  1  0.254200  0.766800  0.477000  1.0  0.6698
  C  C540  1  0.274310  0.794900  0.549900  1.0  -0.1284
  C  C541  1  0.255330  0.805030  0.641000  1.0  -0.0569
  C  C542  1  0.275180  0.828170  0.713300  1.0  -0.1044
  C  C543  1  0.314010  0.841190  0.694700  1.0  -0.0907
  C  C544  1  0.332990  0.831060  0.603600  1.0  0.073
  C  C545  1  0.313150  0.807920  0.531200  1.0  -0.0581
  C  C546  1  0.254900  0.839800  0.808700  1.0  0.6949
  C  C547  1  0.375020  0.844820  0.583800  1.0  0.044
  C  C548  1  0.406380  0.835660  0.649600  1.0  0.0622
  C  C549  1  0.444780  0.849380  0.628500  1.0  0.0205
  C  C550  1  0.451810  0.872270  0.541500  1.0  0.2478
  C  C551  1  0.420450  0.881430  0.475600  1.0  -0.0355
  C  C552  1  0.382060  0.867700  0.496800  1.0  -0.165
  C  C553  1  0.400200  0.808100  0.743000  1.0  -0.3796
  C  C554  1  0.479970  0.839630  0.695200  1.0  -0.0162
  C  C555  1  0.484960  0.860450  0.786400  1.0  0.2259
  C  C556  1  0.518370  0.853330  0.847100  1.0  -0.0185
  C  C557  1  0.546790  0.825380  0.816700  1.0  -0.1645
  C  C558  1  0.541790  0.804550  0.725500  1.0  0.0115
  C  C559  1  0.508380  0.811680  0.664700  1.0  0.0782
  C  C560  1  0.497900  0.786300  0.568800  1.0  -0.3506
  C  C561  1  0.574780  0.776430  0.689400  1.0  0.0512
  C  C562  1  0.590130  0.747440  0.754800  1.0  -0.062
  C  C563  1  0.618630  0.720480  0.719400  1.0  -0.1013
  C  C564  1  0.631790  0.722520  0.618700  1.0  0.0173
  C  C565  1  0.616440  0.751510  0.553200  1.0  -0.1139
  C  C566  1  0.587940  0.778470  0.588600  1.0  -0.1153
  C  C567  1  0.627000  0.755500  0.439600  1.0  0.7115
  C  C568  1  0.635800  0.690000  0.789700  1.0  0.655
  C  C569  1  0.428200  0.906500  0.374900  1.0  0.1628
  C  C570  1  0.444700  0.948500  0.403000  1.0  -0.3654
  C  C571  1  0.458600  0.885300  0.305600  1.0  -0.3789
  C  C572  1  0.390800  0.913000  0.313600  1.0  -0.3581
  C  C573  1  0.523500  0.875300  0.953500  1.0  0.1603
  C  C574  1  0.525700  0.920400  0.939000  1.0  -0.3544
  C  C575  1  0.487300  0.864400  0.023100  1.0  -0.3586
  C  C576  1  0.561400  0.863600  0.006800  1.0  -0.3629
  O  O577  1  0.250160  0.723380  0.092000  1.0  -0.6377
  O  O578  1  0.239810  0.783080  0.014700  1.0  -0.6943
  O  O579  1  0.163510  0.782860  0.678900  1.0  -0.7001
  O  O580  1  0.150120  0.724410  0.612300  1.0  -0.5804
  O  O581  1  0.114000  0.510650  0.978400  1.0  -0.5357
  O  O582  1  0.111780  0.542960  0.685200  1.0  -0.5269
  O  O583  1  0.311880  0.374180  0.619100  1.0  -0.542
  O  O584  1  0.335600  0.337560  0.751400  1.0  -0.6339
  O  O585  1  0.273600  0.350620  0.092200  1.0  -0.5869
  O  O586  1  0.217900  0.385500  0.112900  1.0  -0.4109
  O  O587  1  0.749840  0.276620  0.592000  1.0  -0.6373
  O  O588  1  0.760190  0.216920  0.514700  1.0  -0.6987
  O  O589  1  0.836490  0.217140  0.178900  1.0  -0.7038
  O  O590  1  0.849880  0.275590  0.112300  1.0  -0.5833
  O  O591  1  0.886000  0.489350  0.478400  1.0  -0.5335
  O  O592  1  0.888220  0.457040  0.185200  1.0  -0.5259
  O  O593  1  0.688120  0.625820  0.119100  1.0  -0.5421
  O  O594  1  0.664400  0.662440  0.251400  1.0  -0.6369
  O  O595  1  0.726400  0.649380  0.592200  1.0  -0.5856
  O  O596  1  0.782100  0.614500  0.612900  1.0  -0.4117
  O  O597  1  0.776620  0.750160  0.342000  1.0  -0.6406
  O  O598  1  0.716920  0.739810  0.264700  1.0  -0.705
  O  O599  1  0.717140  0.663510  0.928900  1.0  -0.7026
  O  O600  1  0.775590  0.650120  0.862300  1.0  -0.5817
  O  O601  1  0.989350  0.614000  0.228400  1.0  -0.536
  O  O602  1  0.957040  0.611780  0.935200  1.0  -0.5269
  O  O603  1  0.125820  0.811880  0.869100  1.0  -0.546
  O  O604  1  0.162440  0.835600  0.001400  1.0  -0.6338
  O  O605  1  0.149380  0.773600  0.342200  1.0  -0.5888
  O  O606  1  0.114500  0.717900  0.362900  1.0  -0.4099
  O  O607  1  0.223380  0.249840  0.842000  1.0  -0.6428
  O  O608  1  0.283080  0.260190  0.764700  1.0  -0.696
  O  O609  1  0.282860  0.336490  0.428900  1.0  -0.7
  O  O610  1  0.224410  0.349880  0.362300  1.0  -0.5807
  O  O611  1  0.010650  0.386000  0.728400  1.0  -0.5347
  O  O612  1  0.042960  0.388220  0.435200  1.0  -0.5277
  O  O613  1  0.874180  0.188120  0.369100  1.0  -0.5395
  O  O614  1  0.837560  0.164400  0.501400  1.0  -0.6359
  O  O615  1  0.850620  0.226400  0.842200  1.0  -0.5867
  O  O616  1  0.885500  0.282100  0.862900  1.0  -0.4099
  O  O617  1  0.249840  0.223380  0.158000  1.0  -0.6365
  O  O618  1  0.260190  0.283080  0.235300  1.0  -0.698
  O  O619  1  0.336490  0.282860  0.571100  1.0  -0.7009
  O  O620  1  0.349880  0.224410  0.637700  1.0  -0.5871
  O  O621  1  0.386000  0.010650  0.271600  1.0  -0.5348
  O  O622  1  0.388220  0.042960  0.564800  1.0  -0.5285
  O  O623  1  0.188120  0.874180  0.630900  1.0  -0.5415
  O  O624  1  0.164400  0.837560  0.498600  1.0  -0.6308
  O  O625  1  0.226400  0.850620  0.157800  1.0  -0.5864
  O  O626  1  0.282100  0.885500  0.137100  1.0  -0.412
  O  O627  1  0.750160  0.776620  0.658000  1.0  -0.6374
  O  O628  1  0.739810  0.716920  0.735300  1.0  -0.6965
  O  O629  1  0.663510  0.717140  0.071100  1.0  -0.7002
  O  O630  1  0.650120  0.775590  0.137700  1.0  -0.5881
  O  O631  1  0.614000  0.989350  0.771600  1.0  -0.5326
  O  O632  1  0.611780  0.957040  0.064800  1.0  -0.5263
  O  O633  1  0.811880  0.125820  0.130900  1.0  -0.5461
  O  O634  1  0.835600  0.162440  0.998600  1.0  -0.6274
  O  O635  1  0.773600  0.149380  0.657800  1.0  -0.5872
  O  O636  1  0.717900  0.114500  0.637100  1.0  -0.4132
  O  O637  1  0.723380  0.250160  0.908000  1.0  -0.6424
  O  O638  1  0.783080  0.239810  0.985300  1.0  -0.7058
  O  O639  1  0.782860  0.163510  0.321100  1.0  -0.7012
  O  O640  1  0.724410  0.150120  0.387700  1.0  -0.5867
  O  O641  1  0.510650  0.114000  0.021600  1.0  -0.5339
  O  O642  1  0.542960  0.111780  0.314800  1.0  -0.5285
  O  O643  1  0.374180  0.311880  0.380900  1.0  -0.5423
  O  O644  1  0.337560  0.335600  0.248600  1.0  -0.6411
  O  O645  1  0.350620  0.273600  0.907800  1.0  -0.5872
  O  O646  1  0.385500  0.217900  0.887100  1.0  -0.4114
  O  O647  1  0.276620  0.749840  0.408000  1.0  -0.6401
  O  O648  1  0.216920  0.760190  0.485300  1.0  -0.6968
  O  O649  1  0.217140  0.836490  0.821100  1.0  -0.7001
  O  O650  1  0.275590  0.849880  0.887700  1.0  -0.5855
  O  O651  1  0.489350  0.886000  0.521600  1.0  -0.5346
  O  O652  1  0.457040  0.888220  0.814800  1.0  -0.5283
  O  O653  1  0.625820  0.688120  0.880900  1.0  -0.5443
  O  O654  1  0.662440  0.664400  0.748600  1.0  -0.6387
  O  O655  1  0.649380  0.726400  0.407800  1.0  -0.5886
  O  O656  1  0.614500  0.782100  0.387100  1.0  -0.4119
