# generated using pymatgen
data_MnH4C4(NO)4
_symmetry_space_group_name_H-M   'P 1'
_cell_length_a   10.05230000
_cell_length_b   14.32950000
_cell_length_c   14.32950000
_cell_angle_alpha   120.00000000
_cell_angle_beta   90.00000000
_cell_angle_gamma   90.00000000
_symmetry_Int_Tables_number   1
_chemical_formula_structural   MnH4C4(NO)4
_chemical_formula_sum   'Mn6 H24 C24 N24 O24'
_cell_volume   1787.54978622
_cell_formula_units_Z   6
loop_
 _symmetry_equiv_pos_site_id
 _symmetry_equiv_pos_as_xyz
  1  'x, y, z'
loop_
 _atom_site_type_symbol
 _atom_site_label
 _atom_site_symmetry_multiplicity
 _atom_site_fract_x
 _atom_site_fract_y
 _atom_site_fract_z
 _atom_site_occupancy
 _atom_site_charge
  Mn  Mn1  1  0.604280  0.339600  0.874830  1.0  1.0269
  Mn  Mn2  1  0.270950  0.535230  0.660400  1.0  1.0272
  Mn  Mn3  1  0.937610  0.125170  0.464770  1.0  1.0265
  Mn  Mn4  1  0.104280  0.660400  0.125170  1.0  1.0262
  Mn  Mn5  1  0.770950  0.464770  0.339600  1.0  1.0265
  Mn  Mn6  1  0.437610  0.874830  0.535230  1.0  1.0262
  H  H7  1  0.139000  0.758100  0.506500  1.0  0.2346
  H  H8  1  0.069600  0.668900  0.505200  1.0  0.2094
  H  H9  1  0.082500  0.683200  0.412300  1.0  0.2164
  H  H10  1  0.995900  0.762400  0.494800  1.0  0.3524
  H  H11  1  0.805670  0.748400  0.241900  1.0  0.2368
  H  H12  1  0.736270  0.836300  0.331100  1.0  0.2088
  H  H13  1  0.749170  0.729100  0.316800  1.0  0.2169
  H  H14  1  0.662570  0.732400  0.237600  1.0  0.3525
  H  H15  1  0.472330  0.493500  0.251600  1.0  0.2362
  H  H16  1  0.402930  0.494800  0.163700  1.0  0.207
  H  H17  1  0.415830  0.587700  0.270900  1.0  0.2171
  H  H18  1  0.329230  0.505200  0.267600  1.0  0.3512
  H  H19  1  0.639000  0.241900  0.493500  1.0  0.236
  H  H20  1  0.569600  0.331100  0.494800  1.0  0.2091
  H  H21  1  0.582500  0.316800  0.587700  1.0  0.2179
  H  H22  1  0.495900  0.237600  0.505200  1.0  0.3512
  H  H23  1  0.305670  0.251600  0.758100  1.0  0.235
  H  H24  1  0.236270  0.163700  0.668900  1.0  0.2074
  H  H25  1  0.249170  0.270900  0.683200  1.0  0.2189
  H  H26  1  0.162570  0.267600  0.762400  1.0  0.3557
  H  H27  1  0.972330  0.506500  0.748400  1.0  0.2348
  H  H28  1  0.902930  0.505200  0.836300  1.0  0.2067
  H  H29  1  0.915830  0.412300  0.729100  1.0  0.2144
  H  H30  1  0.829230  0.494800  0.732400  1.0  0.3484
  C  C31  1  0.801800  0.220300  0.681300  1.0  0.7154
  C  C32  1  0.714700  0.128500  0.609400  1.0  0.0358
  C  C33  1  0.604100  0.079300  0.623400  1.0  -0.0069
  C  C34  1  0.514200  0.097300  0.714200  1.0  0.7625
  C  C35  1  0.468470  0.461000  0.779700  1.0  0.7135
  C  C36  1  0.381370  0.480900  0.871500  1.0  0.0373
  C  C37  1  0.270770  0.544100  0.920700  1.0  -0.0074
  C  C38  1  0.180870  0.616900  0.902700  1.0  0.7547
  C  C39  1  0.135130  0.318700  0.539000  1.0  0.7124
  C  C40  1  0.048030  0.390600  0.519100  1.0  0.0368
  C  C41  1  0.937430  0.376600  0.455900  1.0  -0.0077
  C  C42  1  0.847530  0.285800  0.383100  1.0  0.7521
  C  C43  1  0.301800  0.779700  0.318700  1.0  0.7153
  C  C44  1  0.214700  0.871500  0.390600  1.0  0.0378
  C  C45  1  0.104100  0.920700  0.376600  1.0  -0.0069
  C  C46  1  0.014200  0.902700  0.285800  1.0  0.7608
  C  C47  1  0.968470  0.539000  0.220300  1.0  0.7127
  C  C48  1  0.881370  0.519100  0.128500  1.0  0.0362
  C  C49  1  0.770770  0.455900  0.079300  1.0  -0.0089
  C  C50  1  0.680870  0.383100  0.097300  1.0  0.758
  C  C51  1  0.635130  0.681300  0.461000  1.0  0.7126
  C  C52  1  0.548030  0.609400  0.480900  1.0  0.0364
  C  C53  1  0.437430  0.623400  0.544100  1.0  -0.0072
  C  C54  1  0.347530  0.714200  0.616900  1.0  0.7537
  N  N55  1  0.750000  0.070300  0.505000  1.0  -0.165
  N  N56  1  0.666200  0.988200  0.456300  1.0  -0.2256
  N  N57  1  0.577800  0.991700  0.526300  1.0  -0.1805
  N  N58  1  0.416670  0.434700  0.929700  1.0  -0.1654
  N  N59  1  0.332870  0.468100  0.011800  1.0  -0.2241
  N  N60  1  0.244470  0.534600  0.008300  1.0  -0.1812
  N  N61  1  0.083330  0.495000  0.565300  1.0  -0.1653
  N  N62  1  0.999530  0.543700  0.531900  1.0  -0.2259
  N  N63  1  0.911130  0.473700  0.465400  1.0  -0.1813
  N  N64  1  0.250000  0.929700  0.495000  1.0  -0.1652
  N  N65  1  0.166200  0.011800  0.543700  1.0  -0.225
  N  N66  1  0.077800  0.008300  0.473700  1.0  -0.181
  N  N67  1  0.916670  0.565300  0.070300  1.0  -0.1642
  N  N68  1  0.832870  0.531900  0.988200  1.0  -0.2238
  N  N69  1  0.744470  0.465400  0.991700  1.0  -0.182
  N  N70  1  0.583330  0.505000  0.434700  1.0  -0.1646
  N  N71  1  0.499530  0.456300  0.468100  1.0  -0.2262
  N  N72  1  0.411130  0.526300  0.534600  1.0  -0.1828
  N  N73  1  0.064700  0.717800  0.483400  1.0  -0.4782
  N  N74  1  0.731370  0.765600  0.282200  1.0  -0.474
  N  N75  1  0.398030  0.516600  0.234400  1.0  -0.4785
  N  N76  1  0.564700  0.282200  0.516600  1.0  -0.4754
  N  N77  1  0.231370  0.234400  0.717800  1.0  -0.4799
  N  N78  1  0.898030  0.483400  0.765600  1.0  -0.4751
  O  O79  1  0.896900  0.239900  0.636200  1.0  -0.5961
  O  O80  1  0.781600  0.271600  0.781500  1.0  -0.6172
  O  O81  1  0.508900  0.187500  0.797500  1.0  -0.6643
  O  O82  1  0.443200  0.018500  0.697000  1.0  -0.6088
  O  O83  1  0.563570  0.396300  0.760100  1.0  -0.5978
  O  O84  1  0.448270  0.509900  0.728400  1.0  -0.6141
  O  O85  1  0.175570  0.610000  0.812500  1.0  -0.6712
  O  O86  1  0.109870  0.678500  0.981500  1.0  -0.6151
  O  O87  1  0.230230  0.363800  0.603700  1.0  -0.5966
  O  O88  1  0.114930  0.218500  0.490100  1.0  -0.6153
  O  O89  1  0.842230  0.202500  0.390000  1.0  -0.6625
  O  O90  1  0.776530  0.303000  0.321500  1.0  -0.609
  O  O91  1  0.396900  0.760100  0.363800  1.0  -0.5972
  O  O92  1  0.281600  0.728400  0.218500  1.0  -0.6189
  O  O93  1  0.008900  0.812500  0.202500  1.0  -0.6678
  O  O94  1  0.943200  0.981500  0.303000  1.0  -0.6097
  O  O95  1  0.063570  0.603700  0.239900  1.0  -0.5971
  O  O96  1  0.948270  0.490100  0.271600  1.0  -0.6154
  O  O97  1  0.675570  0.390000  0.187500  1.0  -0.6675
  O  O98  1  0.609870  0.321500  0.018500  1.0  -0.603
  O  O99  1  0.730230  0.636200  0.396300  1.0  -0.5965
  O  O100  1  0.614930  0.781500  0.509900  1.0  -0.6163
  O  O101  1  0.342230  0.797500  0.610000  1.0  -0.6668
  O  O102  1  0.276530  0.697000  0.678500  1.0  -0.619
