# generated using pymatgen
data_Co7(PO4)6
_symmetry_space_group_name_H-M   'P 1'
_cell_length_a   5.07980000
_cell_length_b   15.20300000
_cell_length_c   16.35350000
_cell_angle_alpha   90.00000000
_cell_angle_beta   95.69000000
_cell_angle_gamma   90.00000000
_symmetry_Int_Tables_number   1
_chemical_formula_structural   Co7(PO4)6
_chemical_formula_sum   'Co14 P12 O48'
_cell_volume   1256.72865782
_cell_formula_units_Z   2
loop_
 _symmetry_equiv_pos_site_id
 _symmetry_equiv_pos_as_xyz
  1  'x, y, z'
loop_
 _atom_site_type_symbol
 _atom_site_label
 _atom_site_symmetry_multiplicity
 _atom_site_fract_x
 _atom_site_fract_y
 _atom_site_fract_z
 _atom_site_occupancy
 _atom_site_charge
  Co  Co1  1  0.965500  0.677120  0.216390  1.0  1.025
  Co  Co2  1  0.345700  0.803120  0.081540  1.0  1.1341
  Co  Co3  1  0.008500  0.928970  0.819840  1.0  1.1142
  Co  Co4  1  0.534500  0.177120  0.283610  1.0  1.0255
  Co  Co5  1  0.154300  0.303120  0.418460  1.0  1.1332
  Co  Co6  1  0.491500  0.428970  0.680160  1.0  1.1157
  Co  Co7  1  0.034500  0.322880  0.783610  1.0  1.0251
  Co  Co8  1  0.654300  0.196880  0.918460  1.0  1.1332
  Co  Co9  1  0.991500  0.071030  0.180160  1.0  1.1155
  Co  Co10  1  0.465500  0.822880  0.716390  1.0  1.0246
  Co  Co11  1  0.845700  0.696880  0.581540  1.0  1.1342
  Co  Co12  1  0.508500  0.571030  0.319840  1.0  1.1143
  Co  Co13  1  0.000000  0.000000  0.000000  1.0  1.0694
  Co  Co14  1  0.500000  0.500000  0.500000  1.0  1.0694
  P  P15  1  0.415400  0.600780  0.130080  1.0  1.756
  P  P16  1  0.924600  0.869450  0.162190  1.0  1.9075
  P  P17  1  0.474800  0.886040  0.911840  1.0  1.8114
  P  P18  1  0.084600  0.100780  0.369920  1.0  1.7561
  P  P19  1  0.575400  0.369450  0.337810  1.0  1.9056
  P  P20  1  0.025200  0.386040  0.588160  1.0  1.8123
  P  P21  1  0.584600  0.399220  0.869920  1.0  1.7539
  P  P22  1  0.075400  0.130550  0.837810  1.0  1.9051
  P  P23  1  0.525200  0.113960  0.088160  1.0  1.8131
  P  P24  1  0.915400  0.899220  0.630080  1.0  1.755
  P  P25  1  0.424600  0.630550  0.662190  1.0  1.9069
  P  P26  1  0.974800  0.613960  0.411840  1.0  1.8124
  O  O27  1  0.289800  0.959800  0.933700  1.0  -0.8672
  O  O28  1  0.029800  0.885200  0.077300  1.0  -0.8638
  O  O29  1  0.754300  0.921400  0.905000  1.0  -0.8522
  O  O30  1  0.100000  0.794200  0.201200  1.0  -0.8116
  O  O31  1  0.716400  0.610500  0.142800  1.0  -0.7293
  O  O32  1  0.805900  0.885900  0.715900  1.0  -0.8811
  O  O33  1  0.346800  0.854900  0.825400  1.0  -0.8511
  O  O34  1  0.637000  0.841200  0.158100  1.0  -0.7723
  O  O35  1  0.294300  0.674200  0.073800  1.0  -0.693
  O  O36  1  0.477100  0.808800  0.971200  1.0  -0.7091
  O  O37  1  0.032600  0.049300  0.782900  1.0  -0.7348
  O  O38  1  0.333000  0.512100  0.096500  1.0  -0.5157
  O  O39  1  0.210200  0.459800  0.566300  1.0  -0.8666
  O  O40  1  0.470200  0.385200  0.422700  1.0  -0.8625
  O  O41  1  0.745700  0.421400  0.595000  1.0  -0.8524
  O  O42  1  0.400000  0.294200  0.298800  1.0  -0.8123
  O  O43  1  0.783600  0.110500  0.357200  1.0  -0.7286
  O  O44  1  0.694100  0.385900  0.784100  1.0  -0.8822
  O  O45  1  0.153200  0.354900  0.674600  1.0  -0.8518
  O  O46  1  0.863000  0.341200  0.341900  1.0  -0.7726
  O  O47  1  0.205700  0.174200  0.426200  1.0  -0.6912
  O  O48  1  0.022900  0.308800  0.528800  1.0  -0.7094
  O  O49  1  0.467400  0.549300  0.717100  1.0  -0.7347
  O  O50  1  0.167000  0.012100  0.403500  1.0  -0.5154
  O  O51  1  0.710200  0.040200  0.066300  1.0  -0.8674
  O  O52  1  0.970200  0.114800  0.922700  1.0  -0.8627
  O  O53  1  0.245700  0.078600  0.095000  1.0  -0.8531
  O  O54  1  0.900000  0.205800  0.798800  1.0  -0.8117
  O  O55  1  0.283600  0.389500  0.857200  1.0  -0.7294
  O  O56  1  0.194100  0.114100  0.284100  1.0  -0.8823
  O  O57  1  0.653200  0.145100  0.174600  1.0  -0.8532
  O  O58  1  0.363000  0.158800  0.841900  1.0  -0.7716
  O  O59  1  0.705700  0.325800  0.926200  1.0  -0.6918
  O  O60  1  0.522900  0.191200  0.028800  1.0  -0.7098
  O  O61  1  0.967400  0.950700  0.217100  1.0  -0.7336
  O  O62  1  0.667000  0.487900  0.903500  1.0  -0.5158
  O  O63  1  0.789800  0.540200  0.433700  1.0  -0.8678
  O  O64  1  0.529800  0.614800  0.577300  1.0  -0.864
  O  O65  1  0.254300  0.578600  0.405000  1.0  -0.8531
  O  O66  1  0.600000  0.705800  0.701200  1.0  -0.8112
  O  O67  1  0.216400  0.889500  0.642800  1.0  -0.7292
  O  O68  1  0.305900  0.614100  0.215900  1.0  -0.8812
  O  O69  1  0.846800  0.645100  0.325400  1.0  -0.8524
  O  O70  1  0.137000  0.658800  0.658100  1.0  -0.7718
  O  O71  1  0.794300  0.825800  0.573800  1.0  -0.6932
  O  O72  1  0.977100  0.691200  0.471200  1.0  -0.7095
  O  O73  1  0.532600  0.450700  0.282900  1.0  -0.7341
  O  O74  1  0.833000  0.987900  0.596500  1.0  -0.5178
