# generated using pymatgen
data_Co7(PO4)6
_symmetry_space_group_name_H-M   'P 1'
_cell_length_a   5.07940000
_cell_length_b   15.21540000
_cell_length_c   16.36040000
_cell_angle_alpha   90.00000000
_cell_angle_beta   95.69600000
_cell_angle_gamma   90.00000000
_symmetry_Int_Tables_number   1
_chemical_formula_structural   Co7(PO4)6
_chemical_formula_sum   'Co14 P12 O48'
_cell_volume   1258.17214689
_cell_formula_units_Z   2
loop_
 _symmetry_equiv_pos_site_id
 _symmetry_equiv_pos_as_xyz
  1  'x, y, z'
loop_
 _atom_site_type_symbol
 _atom_site_label
 _atom_site_symmetry_multiplicity
 _atom_site_fract_x
 _atom_site_fract_y
 _atom_site_fract_z
 _atom_site_occupancy
 _atom_site_charge
  Co  Co1  1  0.345310  0.196830  0.081500  1.0  1.1011
  Co  Co2  1  0.965170  0.322920  0.216330  1.0  1.0423
  Co  Co3  1  0.991540  0.928920  0.180050  1.0  1.0872
  Co  Co4  1  0.154690  0.696830  0.418500  1.0  1.1001
  Co  Co5  1  0.534830  0.822920  0.283670  1.0  1.043
  Co  Co6  1  0.508460  0.428920  0.319950  1.0  1.0864
  Co  Co7  1  0.654690  0.803170  0.918500  1.0  1.1002
  Co  Co8  1  0.034830  0.677080  0.783670  1.0  1.0436
  Co  Co9  1  0.008460  0.071080  0.819950  1.0  1.0868
  Co  Co10  1  0.845310  0.303170  0.581500  1.0  1.101
  Co  Co11  1  0.465170  0.177080  0.716330  1.0  1.0429
  Co  Co12  1  0.491540  0.571080  0.680050  1.0  1.0875
  Co  Co13  1  0.000000  0.000000  0.000000  1.0  1.0587
  Co  Co14  1  0.500000  0.500000  0.500000  1.0  1.0587
  P  P15  1  0.414770  0.399320  0.130060  1.0  1.7525
  P  P16  1  0.924880  0.130340  0.162250  1.0  1.9161
  P  P17  1  0.525250  0.886220  0.087840  1.0  1.8204
  P  P18  1  0.085230  0.899320  0.369940  1.0  1.7516
  P  P19  1  0.575120  0.630340  0.337750  1.0  1.9146
  P  P20  1  0.974750  0.386220  0.412160  1.0  1.8198
  P  P21  1  0.585230  0.600680  0.869940  1.0  1.7534
  P  P22  1  0.075120  0.869660  0.837750  1.0  1.9147
  P  P23  1  0.474750  0.113780  0.912160  1.0  1.8207
  P  P24  1  0.914770  0.100680  0.630060  1.0  1.7534
  P  P25  1  0.424880  0.369660  0.662250  1.0  1.9163
  P  P26  1  0.025250  0.613780  0.587840  1.0  1.8211
  O  O27  1  0.307200  0.386240  0.216200  1.0  -0.8783
  O  O28  1  0.292600  0.326270  0.073510  1.0  -0.6832
  O  O29  1  0.716300  0.389900  0.142930  1.0  -0.7418
  O  O30  1  0.333500  0.488000  0.096070  1.0  -0.5303
  O  O31  1  0.030700  0.114640  0.077570  1.0  -0.8495
  O  O32  1  0.967500  0.049940  0.217350  1.0  -0.7382
  O  O33  1  0.101900  0.205430  0.201060  1.0  -0.8138
  O  O34  1  0.637400  0.158300  0.157900  1.0  -0.7773
  O  O35  1  0.244800  0.920960  0.094950  1.0  -0.8528
  O  O36  1  0.652900  0.854680  0.174650  1.0  -0.8389
  O  O37  1  0.522100  0.809170  0.029080  1.0  -0.7048
  O  O38  1  0.710600  0.959770  0.066870  1.0  -0.8417
  O  O39  1  0.192800  0.886240  0.283800  1.0  -0.8792
  O  O40  1  0.207400  0.826270  0.426490  1.0  -0.6822
  O  O41  1  0.783700  0.889900  0.357070  1.0  -0.7414
  O  O42  1  0.166500  0.988000  0.403930  1.0  -0.529
  O  O43  1  0.469300  0.614640  0.422430  1.0  -0.8485
  O  O44  1  0.532500  0.549940  0.282650  1.0  -0.7386
  O  O45  1  0.398100  0.705430  0.298940  1.0  -0.8137
  O  O46  1  0.862600  0.658300  0.342100  1.0  -0.7772
  O  O47  1  0.255200  0.420960  0.405050  1.0  -0.8526
  O  O48  1  0.847100  0.354680  0.325350  1.0  -0.8374
  O  O49  1  0.977900  0.309170  0.470920  1.0  -0.7044
  O  O50  1  0.789400  0.459770  0.433130  1.0  -0.843
  O  O51  1  0.692800  0.613760  0.783800  1.0  -0.8792
  O  O52  1  0.707400  0.673730  0.926490  1.0  -0.6816
  O  O53  1  0.283700  0.610100  0.857070  1.0  -0.7408
  O  O54  1  0.666500  0.512000  0.903930  1.0  -0.5278
  O  O55  1  0.969300  0.885360  0.922430  1.0  -0.8483
  O  O56  1  0.032500  0.950060  0.782650  1.0  -0.7378
  O  O57  1  0.898100  0.794570  0.798940  1.0  -0.8139
  O  O58  1  0.362600  0.841700  0.842100  1.0  -0.778
  O  O59  1  0.755200  0.079040  0.905050  1.0  -0.8534
  O  O60  1  0.347100  0.145320  0.825350  1.0  -0.838
  O  O61  1  0.477900  0.190830  0.970920  1.0  -0.7049
  O  O62  1  0.289400  0.040230  0.933130  1.0  -0.8428
  O  O63  1  0.807200  0.113760  0.716200  1.0  -0.8783
  O  O64  1  0.792600  0.173730  0.573510  1.0  -0.6833
  O  O65  1  0.216300  0.110100  0.642930  1.0  -0.7422
  O  O66  1  0.833500  0.012000  0.596070  1.0  -0.5274
  O  O67  1  0.530700  0.385360  0.577570  1.0  -0.8493
  O  O68  1  0.467500  0.450060  0.717350  1.0  -0.7371
  O  O69  1  0.601900  0.294570  0.701060  1.0  -0.8139
  O  O70  1  0.137400  0.341700  0.657900  1.0  -0.7779
  O  O71  1  0.744800  0.579040  0.594950  1.0  -0.8533
  O  O72  1  0.152900  0.645320  0.674650  1.0  -0.8396
  O  O73  1  0.022100  0.690830  0.529080  1.0  -0.7053
  O  O74  1  0.210600  0.540230  0.566870  1.0  -0.8419
