# generated using pymatgen
data_Co7(PO4)6
_symmetry_space_group_name_H-M   'P 1'
_cell_length_a   5.09790000
_cell_length_b   15.23380000
_cell_length_c   16.42470000
_cell_angle_alpha   90.00000000
_cell_angle_beta   95.66800000
_cell_angle_gamma   90.00000000
_symmetry_Int_Tables_number   1
_chemical_formula_structural   Co7(PO4)6
_chemical_formula_sum   'Co14 P12 O48'
_cell_volume   1269.31228827
_cell_formula_units_Z   2
loop_
 _symmetry_equiv_pos_site_id
 _symmetry_equiv_pos_as_xyz
  1  'x, y, z'
loop_
 _atom_site_type_symbol
 _atom_site_label
 _atom_site_symmetry_multiplicity
 _atom_site_fract_x
 _atom_site_fract_y
 _atom_site_fract_z
 _atom_site_occupancy
 _atom_site_charge
  Co  Co1  1  0.965400  0.677110  0.216500  1.0  1.0456
  Co  Co2  1  0.343300  0.802620  0.082220  1.0  1.0924
  Co  Co3  1  0.010400  0.928490  0.820410  1.0  1.0938
  Co  Co4  1  0.534600  0.177110  0.283500  1.0  1.0459
  Co  Co5  1  0.156700  0.302620  0.417780  1.0  1.0913
  Co  Co6  1  0.489600  0.428490  0.679590  1.0  1.0933
  Co  Co7  1  0.034600  0.322890  0.783500  1.0  1.0462
  Co  Co8  1  0.656700  0.197380  0.917780  1.0  1.0906
  Co  Co9  1  0.989600  0.071510  0.179590  1.0  1.0929
  Co  Co10  1  0.465400  0.822890  0.716500  1.0  1.0461
  Co  Co11  1  0.843300  0.697380  0.582220  1.0  1.0916
  Co  Co12  1  0.510400  0.571510  0.320410  1.0  1.0935
  Co  Co13  1  0.000000  0.000000  0.000000  1.0  1.0504
  Co  Co14  1  0.500000  0.500000  0.500000  1.0  1.0504
  P  P15  1  0.415100  0.599910  0.130490  1.0  1.769
  P  P16  1  0.924400  0.869460  0.162200  1.0  1.8584
  P  P17  1  0.476100  0.885910  0.912480  1.0  1.7643
  P  P18  1  0.084900  0.099910  0.369510  1.0  1.7699
  P  P19  1  0.575600  0.369460  0.337800  1.0  1.8577
  P  P20  1  0.023900  0.385910  0.587520  1.0  1.7652
  P  P21  1  0.584900  0.400090  0.869510  1.0  1.7687
  P  P22  1  0.075600  0.130540  0.837800  1.0  1.8575
  P  P23  1  0.523900  0.114090  0.087520  1.0  1.7664
  P  P24  1  0.915100  0.900090  0.630490  1.0  1.7692
  P  P25  1  0.424400  0.630540  0.662200  1.0  1.8582
  P  P26  1  0.976100  0.614090  0.412480  1.0  1.7656
  O  O27  1  0.290500  0.959700  0.933200  1.0  -0.8397
  O  O28  1  0.029400  0.885200  0.077100  1.0  -0.8363
  O  O29  1  0.757200  0.920600  0.906000  1.0  -0.8527
  O  O30  1  0.104200  0.794900  0.201100  1.0  -0.8048
  O  O31  1  0.717800  0.609500  0.142800  1.0  -0.7193
  O  O32  1  0.806500  0.885900  0.716300  1.0  -0.8732
  O  O33  1  0.348300  0.853900  0.825600  1.0  -0.8514
  O  O34  1  0.637200  0.839700  0.158500  1.0  -0.7546
  O  O35  1  0.292900  0.672700  0.073500  1.0  -0.6857
  O  O36  1  0.479000  0.808900  0.971700  1.0  -0.6993
  O  O37  1  0.034200  0.048900  0.782400  1.0  -0.7345
  O  O38  1  0.334100  0.510000  0.097400  1.0  -0.497
  O  O39  1  0.209500  0.459700  0.566800  1.0  -0.839
  O  O40  1  0.470600  0.385200  0.422900  1.0  -0.8349
  O  O41  1  0.742800  0.420600  0.594000  1.0  -0.8527
  O  O42  1  0.395800  0.294900  0.298900  1.0  -0.805
  O  O43  1  0.782200  0.109500  0.357200  1.0  -0.7187
  O  O44  1  0.693500  0.385900  0.783700  1.0  -0.8734
  O  O45  1  0.151700  0.353900  0.674400  1.0  -0.8531
  O  O46  1  0.862800  0.339700  0.341500  1.0  -0.7545
  O  O47  1  0.207100  0.172700  0.426500  1.0  -0.6839
  O  O48  1  0.021000  0.308900  0.528300  1.0  -0.6995
  O  O49  1  0.465800  0.548900  0.717600  1.0  -0.7343
  O  O50  1  0.165900  0.010000  0.402600  1.0  -0.4973
  O  O51  1  0.709500  0.040300  0.066800  1.0  -0.8394
  O  O52  1  0.970600  0.114800  0.922900  1.0  -0.8349
  O  O53  1  0.242800  0.079400  0.094000  1.0  -0.8533
  O  O54  1  0.895800  0.205100  0.798900  1.0  -0.8046
  O  O55  1  0.282200  0.390500  0.857200  1.0  -0.7195
  O  O56  1  0.193500  0.114100  0.283700  1.0  -0.8735
  O  O57  1  0.651700  0.146100  0.174400  1.0  -0.8539
  O  O58  1  0.362800  0.160300  0.841500  1.0  -0.7538
  O  O59  1  0.707100  0.327300  0.926500  1.0  -0.6842
  O  O60  1  0.521000  0.191100  0.028300  1.0  -0.7006
  O  O61  1  0.965800  0.951100  0.217600  1.0  -0.7333
  O  O62  1  0.665900  0.490000  0.902600  1.0  -0.4967
  O  O63  1  0.790500  0.540300  0.433200  1.0  -0.8399
  O  O64  1  0.529400  0.614800  0.577100  1.0  -0.8363
  O  O65  1  0.257200  0.579400  0.406000  1.0  -0.8535
  O  O66  1  0.604200  0.705100  0.701100  1.0  -0.8045
  O  O67  1  0.217800  0.890500  0.642800  1.0  -0.7191
  O  O68  1  0.306500  0.614100  0.216300  1.0  -0.8733
  O  O69  1  0.848300  0.646100  0.325600  1.0  -0.8522
  O  O70  1  0.137200  0.660300  0.658500  1.0  -0.7543
  O  O71  1  0.792900  0.827300  0.573500  1.0  -0.6862
  O  O72  1  0.979000  0.691100  0.471700  1.0  -0.7001
  O  O73  1  0.534200  0.451100  0.282400  1.0  -0.7337
  O  O74  1  0.834100  0.990000  0.597400  1.0  -0.4986
