# generated using pymatgen
data_GdCuH8C14(NO4)2
_symmetry_space_group_name_H-M   'P 1'
_cell_length_a   9.22090000
_cell_length_b   9.54410000
_cell_length_c   21.58410000
_cell_angle_alpha   90.00000000
_cell_angle_beta   90.00000000
_cell_angle_gamma   116.21900000
_symmetry_Int_Tables_number   1
_chemical_formula_structural   GdCuH8C14(NO4)2
_chemical_formula_sum   'Gd4 Cu4 H32 C56 N8 O32'
_cell_volume   1704.07561084
_cell_formula_units_Z   4
loop_
 _symmetry_equiv_pos_site_id
 _symmetry_equiv_pos_as_xyz
  1  'x, y, z'
loop_
 _atom_site_type_symbol
 _atom_site_label
 _atom_site_symmetry_multiplicity
 _atom_site_fract_x
 _atom_site_fract_y
 _atom_site_fract_z
 _atom_site_occupancy
 _atom_site_charge
  Gd  Gd1  1  0.124100  0.858320  0.491540  1.0  2.1813
  Gd  Gd2  1  0.375900  0.141680  0.991540  1.0  2.1776
  Gd  Gd3  1  0.875900  0.141680  0.508460  1.0  2.1779
  Gd  Gd4  1  0.624100  0.858320  0.008460  1.0  2.178
  Cu  Cu5  1  0.040050  0.191360  0.854070  1.0  0.4095
  Cu  Cu6  1  0.459950  0.808640  0.354070  1.0  0.409
  Cu  Cu7  1  0.959950  0.808640  0.145930  1.0  0.4082
  Cu  Cu8  1  0.540050  0.191360  0.645930  1.0  0.4087
  H  H9  1  0.994800  0.152600  0.723700  1.0  0.0745
  H  H10  1  0.106700  0.813400  0.666667  1.0  0.1169
  H  H11  1  0.152100  0.774100  0.769400  1.0  0.1254
  H  H12  1  0.116700  0.923400  0.845500  1.0  0.0776
  H  H13  1  0.794600  0.298200  0.843600  1.0  0.0667
  H  H14  1  0.747000  0.504600  0.872600  1.0  0.1376
  H  H15  1  0.938600  0.703300  0.931400  1.0  0.1043
  H  H16  1  0.209300  0.473700  0.929300  1.0  0.0925
  H  H17  1  0.505200  0.847400  0.223700  1.0  0.0748
  H  H18  1  0.393300  0.186600  0.166700  1.0  0.117
  H  H19  1  0.347900  0.225900  0.269400  1.0  0.1257
  H  H20  1  0.383300  0.076600  0.345500  1.0  0.0776
  H  H21  1  0.705400  0.701800  0.343600  1.0  0.066
  H  H22  1  0.753000  0.495400  0.372600  1.0  0.1348
  H  H23  1  0.561400  0.296700  0.431400  1.0  0.1042
  H  H24  1  0.290700  0.526300  0.429300  1.0  0.0927
  H  H25  1  0.005200  0.847400  0.276300  1.0  0.0745
  H  H26  1  0.893300  0.186600  0.333333  1.0  0.1165
  H  H27  1  0.847900  0.225900  0.230600  1.0  0.1261
  H  H28  1  0.883300  0.076600  0.154500  1.0  0.0778
  H  H29  1  0.205400  0.701800  0.156400  1.0  0.0661
  H  H30  1  0.253000  0.495400  0.127400  1.0  0.135
  H  H31  1  0.061400  0.296700  0.068600  1.0  0.1047
  H  H32  1  0.790700  0.526300  0.070700  1.0  0.0924
  H  H33  1  0.494800  0.152600  0.776300  1.0  0.0747
  H  H34  1  0.606700  0.813400  0.833300  1.0  0.1165
  H  H35  1  0.652100  0.774100  0.730600  1.0  0.1257
  H  H36  1  0.616700  0.923400  0.654500  1.0  0.0777
  H  H37  1  0.294600  0.298200  0.656400  1.0  0.067
  H  H38  1  0.247000  0.504600  0.627400  1.0  0.1361
  H  H39  1  0.438600  0.703300  0.568600  1.0  0.1045
  H  H40  1  0.709300  0.473700  0.570700  1.0  0.0927
  C  C41  1  0.028700  0.076400  0.732700  1.0  0.1796
  C  C42  1  0.045000  0.990200  0.683600  1.0  -0.2044
  C  C43  1  0.093200  0.874000  0.697900  1.0  0.0298
  C  C44  1  0.120400  0.851000  0.758900  1.0  -0.1236
  C  C45  1  0.100500  0.942400  0.804400  1.0  0.1787
  C  C46  1  0.012200  0.024300  0.619500  1.0  0.7337
  C  C47  1  0.871900  0.377200  0.867400  1.0  0.1747
  C  C48  1  0.842300  0.500900  0.884400  1.0  -0.1782
  C  C49  1  0.955900  0.618600  0.919000  1.0  0.0364
  C  C50  1  0.096700  0.609800  0.935200  1.0  -0.2234
  C  C51  1  0.116000  0.481000  0.917400  1.0  0.1843
  C  C52  1  0.230900  0.742000  0.970000  1.0  0.7463
  C  C53  1  0.988700  0.492300  0.464600  1.0  0.5428
  C  C54  1  0.996400  0.022700  0.965800  1.0  0.5582
  C  C55  1  0.471300  0.923600  0.232700  1.0  0.1807
  C  C56  1  0.455000  0.009800  0.183600  1.0  -0.1903
  C  C57  1  0.406800  0.126000  0.197900  1.0  0.0314
  C  C58  1  0.379600  0.149000  0.258900  1.0  -0.1236
  C  C59  1  0.399500  0.057600  0.304400  1.0  0.178
  C  C60  1  0.487800  0.975700  0.119500  1.0  0.7331
  C  C61  1  0.628100  0.622800  0.367400  1.0  0.1756
  C  C62  1  0.657700  0.499100  0.384400  1.0  -0.1774
  C  C63  1  0.544100  0.381400  0.419000  1.0  0.0363
  C  C64  1  0.403300  0.390200  0.435200  1.0  -0.2234
  C  C65  1  0.384000  0.519000  0.417400  1.0  0.184
  C  C66  1  0.269100  0.258000  0.470000  1.0  0.7464
  C  C67  1  0.511300  0.507700  0.964600  1.0  0.5426
  C  C68  1  0.503600  0.977300  0.465800  1.0  0.5571
  C  C69  1  0.971300  0.923600  0.267300  1.0  0.1804
  C  C70  1  0.955000  0.009800  0.316400  1.0  -0.2036
  C  C71  1  0.906800  0.126000  0.302100  1.0  0.0305
  C  C72  1  0.879600  0.149000  0.241100  1.0  -0.1233
  C  C73  1  0.899500  0.057600  0.195600  1.0  0.1768
  C  C74  1  0.987800  0.975700  0.380500  1.0  0.7451
  C  C75  1  0.128100  0.622800  0.132600  1.0  0.1756
  C  C76  1  0.157700  0.499100  0.115600  1.0  -0.1769
  C  C77  1  0.044100  0.381400  0.081000  1.0  0.0364
  C  C78  1  0.903300  0.390200  0.064800  1.0  -0.2232
  C  C79  1  0.884000  0.519000  0.082600  1.0  0.1846
  C  C80  1  0.769100  0.258000  0.030000  1.0  0.7338
  C  C81  1  0.011300  0.507700  0.535400  1.0  0.543
  C  C82  1  0.003600  0.977300  0.034200  1.0  0.5582
  C  C83  1  0.528700  0.076400  0.767300  1.0  0.1792
  C  C84  1  0.545000  0.990200  0.816400  1.0  -0.1896
  C  C85  1  0.593200  0.874000  0.802100  1.0  0.0313
  C  C86  1  0.620400  0.851000  0.741100  1.0  -0.1229
  C  C87  1  0.600500  0.942400  0.695600  1.0  0.1772
  C  C88  1  0.512200  0.024300  0.880500  1.0  0.7451
  C  C89  1  0.371900  0.377200  0.632600  1.0  0.1754
  C  C90  1  0.342300  0.500900  0.615600  1.0  -0.1782
  C  C91  1  0.455900  0.618600  0.581000  1.0  0.0367
  C  C92  1  0.596700  0.609800  0.564800  1.0  -0.2233
  C  C93  1  0.616000  0.481000  0.582600  1.0  0.1855
  C  C94  1  0.730900  0.742000  0.530000  1.0  0.734
  C  C95  1  0.488700  0.492300  0.035400  1.0  0.5433
  C  C96  1  0.496400  0.022700  0.534200  1.0  0.5589
  N  N97  1  0.058700  0.057300  0.792090  1.0  -0.303
  N  N98  1  0.004600  0.364000  0.883000  1.0  -0.3188
  N  N99  1  0.441300  0.942700  0.292090  1.0  -0.3032
  N  N100  1  0.495400  0.636000  0.383000  1.0  -0.3157
  N  N101  1  0.941300  0.942700  0.207910  1.0  -0.3042
  N  N102  1  0.995400  0.636000  0.117000  1.0  -0.3175
  N  N103  1  0.558700  0.057300  0.707910  1.0  -0.3031
  N  N104  1  0.504600  0.364000  0.617000  1.0  -0.3178
  O  O105  1  0.051900  0.963800  0.575430  1.0  -0.7679
  O  O106  1  0.945200  0.112100  0.612560  1.0  -0.6528
  O  O107  1  0.336900  0.714600  0.995280  1.0  -0.7092
  O  O108  1  0.221400  0.868600  0.970890  1.0  -0.7294
  O  O109  1  0.051300  0.616200  0.433570  1.0  -0.6289
  O  O110  1  0.908100  0.356600  0.443390  1.0  -0.6462
  O  O111  1  0.128900  0.117800  0.941710  1.0  -0.6579
  O  O112  1  0.863100  0.961400  0.938980  1.0  -0.6121
  O  O113  1  0.448100  0.036200  0.075430  1.0  -0.7674
  O  O114  1  0.554800  0.887900  0.112560  1.0  -0.6519
  O  O115  1  0.163100  0.285400  0.495280  1.0  -0.7094
  O  O116  1  0.278600  0.131400  0.470890  1.0  -0.7305
  O  O117  1  0.448700  0.383800  0.933570  1.0  -0.6281
  O  O118  1  0.591900  0.643400  0.943390  1.0  -0.6475
  O  O119  1  0.371100  0.882200  0.441710  1.0  -0.6585
  O  O120  1  0.636900  0.038600  0.438980  1.0  -0.6115
  O  O121  1  0.948100  0.036200  0.424570  1.0  -0.7671
  O  O122  1  0.054800  0.887900  0.387440  1.0  -0.6519
  O  O123  1  0.663100  0.285400  0.004720  1.0  -0.7107
  O  O124  1  0.778600  0.131400  0.029110  1.0  -0.7306
  O  O125  1  0.948700  0.383800  0.566430  1.0  -0.6293
  O  O126  1  0.091900  0.643400  0.556610  1.0  -0.6464
  O  O127  1  0.871100  0.882200  0.058290  1.0  -0.6577
  O  O128  1  0.136900  0.038600  0.061020  1.0  -0.6112
  O  O129  1  0.551900  0.963800  0.924570  1.0  -0.7669
  O  O130  1  0.445200  0.112100  0.887440  1.0  -0.6529
  O  O131  1  0.836900  0.714600  0.504720  1.0  -0.7103
  O  O132  1  0.721400  0.868600  0.529110  1.0  -0.7296
  O  O133  1  0.551300  0.616200  0.066430  1.0  -0.6302
  O  O134  1  0.408100  0.356600  0.056610  1.0  -0.6461
  O  O135  1  0.628900  0.117800  0.558290  1.0  -0.6577
  O  O136  1  0.363100  0.961400  0.561020  1.0  -0.6111
