# generated using pymatgen
data_MnH22C24(NO2)2
_symmetry_space_group_name_H-M   'P 1'
_cell_length_a   13.55830000
_cell_length_b   13.90940000
_cell_length_c   16.28000000
_cell_angle_alpha   107.80200000
_cell_angle_beta   90.00000000
_cell_angle_gamma   119.16900000
_symmetry_Int_Tables_number   1
_chemical_formula_structural   MnH22C24(NO2)2
_chemical_formula_sum   'Mn4 H88 C96 N8 O16'
_cell_volume   2511.16818438
_cell_formula_units_Z   4
loop_
 _symmetry_equiv_pos_site_id
 _symmetry_equiv_pos_as_xyz
  1  'x, y, z'
loop_
 _atom_site_type_symbol
 _atom_site_label
 _atom_site_symmetry_multiplicity
 _atom_site_fract_x
 _atom_site_fract_y
 _atom_site_fract_z
 _atom_site_occupancy
 _atom_site_charge
  Mn  Mn1  1  0.970220  0.410820  0.864240  1.0  1.0065
  Mn  Mn2  1  0.559400  0.589180  0.635760  1.0  1.0063
  Mn  Mn3  1  0.029780  0.589180  0.135760  1.0  1.0067
  Mn  Mn4  1  0.440600  0.410820  0.364240  1.0  1.0069
  H  H5  1  0.013700  0.371400  0.311700  1.0  0.1221
  H  H6  1  0.010400  0.252200  0.292500  1.0  0.1175
  H  H7  1  0.908100  0.253800  0.249400  1.0  0.1088
  H  H8  1  0.792200  0.320000  0.435800  1.0  0.103
  H  H9  1  0.900600  0.426200  0.423000  1.0  0.1107
  H  H10  1  0.803200  0.330000  0.342500  1.0  0.1093
  H  H11  1  0.761000  0.119200  0.306900  1.0  0.1087
  H  H12  1  0.851200  0.097600  0.345700  1.0  0.1125
  H  H13  1  0.777500  0.135800  0.406600  1.0  0.1056
  H  H14  1  0.194900  0.405000  0.661700  1.0  0.1001
  H  H15  1  0.133200  0.344000  0.405500  1.0  0.1032
  H  H16  1  0.880200  0.289400  0.543500  1.0  0.0978
  H  H17  1  0.230000  0.515200  0.842000  1.0  0.0776
  H  H18  1  0.393600  0.679400  0.846300  1.0  0.1246
  H  H19  1  0.231800  0.858000  0.919000  1.0  0.1324
  H  H20  1  0.075200  0.691200  0.911700  1.0  0.0703
  H  H21  1  0.424100  0.962600  0.899200  1.0  0.0971
  H  H22  1  0.545000  0.849200  0.851700  1.0  0.1041
  H  H23  1  0.702900  0.284200  0.868100  1.0  0.0718
  H  H24  1  0.551400  0.120000  0.870200  1.0  0.1057
  H  H25  1  0.751200  0.981200  0.862200  1.0  0.1431
  H  H26  1  0.900100  0.155000  0.862700  1.0  0.0795
  H  H27  1  0.642300  0.628600  0.188300  1.0  0.1187
  H  H28  1  0.758200  0.747800  0.207500  1.0  0.1158
  H  H29  1  0.654300  0.746200  0.250600  1.0  0.111
  H  H30  1  0.472200  0.680000  0.064200  1.0  0.1029
  H  H31  1  0.474400  0.573800  0.077000  1.0  0.1101
  H  H32  1  0.473200  0.670000  0.157500  1.0  0.11
  H  H33  1  0.641800  0.880800  0.193100  1.0  0.1088
  H  H34  1  0.753600  0.902400  0.154300  1.0  0.1131
  H  H35  1  0.641700  0.864200  0.093400  1.0  0.1063
  H  H36  1  0.789900  0.595000  0.838300  1.0  0.0994
  H  H37  1  0.789200  0.656000  0.094500  1.0  0.1032
  H  H38  1  0.590800  0.710600  0.956500  1.0  0.0979
  H  H39  1  0.714800  0.484800  0.658000  1.0  0.0773
  H  H40  1  0.714200  0.320600  0.653700  1.0  0.1246
  H  H41  1  0.373800  0.142000  0.581000  1.0  0.1324
  H  H42  1  0.384000  0.308800  0.588300  1.0  0.0677
  H  H43  1  0.461500  0.037400  0.600800  1.0  0.0969
  H  H44  1  0.695800  0.150800  0.648300  1.0  0.1044
  H  H45  1  0.418700  0.715800  0.631900  1.0  0.0711
  H  H46  1  0.431400  0.880000  0.629800  1.0  0.106
  H  H47  1  0.770000  0.018800  0.637800  1.0  0.1439
  H  H48  1  0.745100  0.845000  0.637300  1.0  0.0795
  H  H49  1  0.986300  0.628600  0.688300  1.0  0.1169
  H  H50  1  0.989600  0.747800  0.707500  1.0  0.1153
  H  H51  1  0.091900  0.746200  0.750600  1.0  0.1108
  H  H52  1  0.207800  0.680000  0.564200  1.0  0.1026
  H  H53  1  0.099400  0.573800  0.577000  1.0  0.1098
  H  H54  1  0.196800  0.670000  0.657500  1.0  0.1107
  H  H55  1  0.239000  0.880800  0.693100  1.0  0.1085
  H  H56  1  0.148800  0.902400  0.654300  1.0  0.1126
  H  H57  1  0.222500  0.864200  0.593400  1.0  0.1054
  H  H58  1  0.805100  0.595000  0.338300  1.0  0.0993
  H  H59  1  0.866800  0.656000  0.594500  1.0  0.1036
  H  H60  1  0.119800  0.710600  0.456500  1.0  0.0985
  H  H61  1  0.770000  0.484800  0.158000  1.0  0.0776
  H  H62  1  0.606400  0.320600  0.153700  1.0  0.1279
  H  H63  1  0.768200  0.142000  0.081000  1.0  0.1326
  H  H64  1  0.924800  0.308800  0.088300  1.0  0.0695
  H  H65  1  0.575900  0.037400  0.100800  1.0  0.0973
  H  H66  1  0.455000  0.150800  0.148300  1.0  0.1049
  H  H67  1  0.297100  0.715800  0.131900  1.0  0.0704
  H  H68  1  0.448600  0.880000  0.129800  1.0  0.1083
  H  H69  1  0.248800  0.018800  0.137800  1.0  0.144
  H  H70  1  0.099900  0.845000  0.137300  1.0  0.079
  H  H71  1  0.357700  0.371400  0.811700  1.0  0.1228
  H  H72  1  0.241800  0.252200  0.792500  1.0  0.1161
  H  H73  1  0.345700  0.253800  0.749400  1.0  0.1076
  H  H74  1  0.527800  0.320000  0.935800  1.0  0.1032
  H  H75  1  0.525600  0.426200  0.923000  1.0  0.1108
  H  H76  1  0.526800  0.330000  0.842500  1.0  0.1103
  H  H77  1  0.358200  0.119200  0.806900  1.0  0.1079
  H  H78  1  0.246400  0.097600  0.845700  1.0  0.1129
  H  H79  1  0.358300  0.135800  0.906600  1.0  0.1051
  H  H80  1  0.210100  0.405000  0.161700  1.0  0.0995
  H  H81  1  0.210800  0.344000  0.905500  1.0  0.1036
  H  H82  1  0.409200  0.289400  0.043500  1.0  0.099
  H  H83  1  0.285200  0.515200  0.342000  1.0  0.0774
  H  H84  1  0.285800  0.679400  0.346300  1.0  0.1273
  H  H85  1  0.626200  0.858000  0.419000  1.0  0.132
  H  H86  1  0.616000  0.691200  0.411700  1.0  0.0673
  H  H87  1  0.538500  0.962600  0.399200  1.0  0.0971
  H  H88  1  0.304200  0.849200  0.351700  1.0  0.1043
  H  H89  1  0.581300  0.284200  0.368100  1.0  0.0705
  H  H90  1  0.568600  0.120000  0.370200  1.0  0.108
  H  H91  1  0.230000  0.981200  0.362200  1.0  0.1432
  H  H92  1  0.254900  0.155000  0.362700  1.0  0.0785
  C  C93  1  0.965000  0.289000  0.301000  1.0  -0.3834
  C  C94  1  0.844700  0.344000  0.396700  1.0  -0.374
  C  C95  1  0.815800  0.144600  0.357500  1.0  -0.3809
  C  C96  1  0.031900  0.347400  0.615300  1.0  -0.1145
  C  C97  1  0.144800  0.383800  0.611900  1.0  -0.0353
  C  C98  1  0.184200  0.389000  0.534800  1.0  -0.1382
  C  C99  1  0.107400  0.348600  0.458700  1.0  -0.0819
  C  C100  1  0.994300  0.315800  0.460600  1.0  1e-04
  C  C101  1  0.956800  0.313800  0.540500  1.0  -0.0909
  C  C102  1  0.988900  0.343600  0.700400  1.0  0.6414
  C  C103  1  0.310100  0.436000  0.531700  1.0  0.689
  C  C104  1  0.906600  0.272200  0.378400  1.0  0.2236
  C  C105  1  0.230300  0.585600  0.857600  1.0  0.1889
  C  C106  1  0.329000  0.684000  0.859700  1.0  -0.2034
  C  C107  1  0.334200  0.789000  0.881200  1.0  0.1337
  C  C108  1  0.233500  0.788800  0.902300  1.0  -0.2276
  C  C109  1  0.140700  0.688600  0.898300  1.0  0.1856
  C  C110  1  0.432100  0.897000  0.883600  1.0  -0.1059
  C  C111  1  0.534100  0.913000  0.865700  1.0  -0.1306
  C  C112  1  0.713900  0.223200  0.868000  1.0  0.184
  C  C113  1  0.622000  0.124400  0.868700  1.0  -0.2146
  C  C114  1  0.630700  0.027600  0.867300  1.0  0.1354
  C  C115  1  0.739000  0.042000  0.864300  1.0  -0.2273
  C  C116  1  0.828300  0.147800  0.864600  1.0  0.1793
  C  C117  1  0.676000  0.711000  0.199000  1.0  -0.3835
  C  C118  1  0.500700  0.656000  0.103300  1.0  -0.3744
  C  C119  1  0.671200  0.855400  0.142500  1.0  -0.3812
  C  C120  1  0.684500  0.652600  0.884700  1.0  -0.114
  C  C121  1  0.761000  0.616200  0.888100  1.0  -0.0355
  C  C122  1  0.795200  0.611000  0.965200  1.0  -0.1382
  C  C123  1  0.758800  0.651400  0.041300  1.0  -0.0828
  C  C124  1  0.678500  0.684200  0.039400  1.0  0.0014
  C  C125  1  0.643000  0.686200  0.959500  1.0  -0.0922
  C  C126  1  0.645300  0.656400  0.799600  1.0  0.6409
  C  C127  1  0.874100  0.564000  0.968300  1.0  0.6886
  C  C128  1  0.634400  0.727800  0.121600  1.0  0.2232
  C  C129  1  0.644700  0.414400  0.642400  1.0  0.189
  C  C130  1  0.645000  0.316000  0.640300  1.0  -0.2035
  C  C131  1  0.545200  0.211000  0.618800  1.0  0.1336
  C  C132  1  0.444700  0.211200  0.597700  1.0  -0.2285
  C  C133  1  0.452100  0.311400  0.601700  1.0  0.1858
  C  C134  1  0.535100  0.103000  0.616400  1.0  -0.1072
  C  C135  1  0.621100  0.087000  0.634300  1.0  -0.1309
  C  C136  1  0.490700  0.776800  0.632000  1.0  0.1846
  C  C137  1  0.497600  0.875600  0.631300  1.0  -0.2143
  C  C138  1  0.603100  0.972400  0.632700  1.0  0.1359
  C  C139  1  0.697000  0.958000  0.635700  1.0  -0.2269
  C  C140  1  0.680500  0.852200  0.635400  1.0  0.1788
  C  C141  1  0.035000  0.711000  0.699000  1.0  -0.3847
  C  C142  1  0.155300  0.656000  0.603300  1.0  -0.3742
  C  C143  1  0.184200  0.855400  0.642500  1.0  -0.381
  C  C144  1  0.968100  0.652600  0.384700  1.0  -0.1139
  C  C145  1  0.855200  0.616200  0.388100  1.0  -0.035
  C  C146  1  0.815800  0.611000  0.465200  1.0  -0.1374
  C  C147  1  0.892600  0.651400  0.541300  1.0  -0.0822
  C  C148  1  0.005700  0.684200  0.539400  1.0  0.0014
  C  C149  1  0.043200  0.686200  0.459500  1.0  -0.0939
  C  C150  1  0.011100  0.656400  0.299600  1.0  0.6402
  C  C151  1  0.689900  0.564000  0.468300  1.0  0.6871
  C  C152  1  0.093400  0.727800  0.621600  1.0  0.2247
  C  C153  1  0.769700  0.414400  0.142400  1.0  0.1898
  C  C154  1  0.671000  0.316000  0.140300  1.0  -0.2038
  C  C155  1  0.665800  0.211000  0.118800  1.0  0.1334
  C  C156  1  0.766500  0.211200  0.097700  1.0  -0.2276
  C  C157  1  0.859300  0.311400  0.101700  1.0  0.1863
  C  C158  1  0.567900  0.103000  0.116400  1.0  -0.1074
  C  C159  1  0.465900  0.087000  0.134300  1.0  -0.1306
  C  C160  1  0.286100  0.776800  0.132000  1.0  0.1847
  C  C161  1  0.378000  0.875600  0.131300  1.0  -0.2126
  C  C162  1  0.369300  0.972400  0.132700  1.0  0.1355
  C  C163  1  0.261000  0.958000  0.135700  1.0  -0.2285
  C  C164  1  0.171700  0.852200  0.135400  1.0  0.1782
  C  C165  1  0.324000  0.289000  0.801000  1.0  -0.3838
  C  C166  1  0.499300  0.344000  0.896700  1.0  -0.374
  C  C167  1  0.328800  0.144600  0.857500  1.0  -0.3823
  C  C168  1  0.315500  0.347400  0.115300  1.0  -0.114
  C  C169  1  0.239000  0.383800  0.111900  1.0  -0.0342
  C  C170  1  0.204800  0.389000  0.034800  1.0  -0.1384
  C  C171  1  0.241200  0.348600  0.958700  1.0  -0.0815
  C  C172  1  0.321500  0.315800  0.960600  1.0  0.001
  C  C173  1  0.357000  0.313800  0.040500  1.0  -0.0935
  C  C174  1  0.354700  0.343600  0.200400  1.0  0.6407
  C  C175  1  0.125900  0.436000  0.031700  1.0  0.687
  C  C176  1  0.365600  0.272200  0.878400  1.0  0.2251
  C  C177  1  0.355300  0.585600  0.357600  1.0  0.1898
  C  C178  1  0.355000  0.684000  0.359700  1.0  -0.2034
  C  C179  1  0.454800  0.789000  0.381200  1.0  0.1335
  C  C180  1  0.555300  0.788800  0.402300  1.0  -0.2271
  C  C181  1  0.547900  0.688600  0.398300  1.0  0.1856
  C  C182  1  0.464900  0.897000  0.383600  1.0  -0.1065
  C  C183  1  0.378900  0.913000  0.365700  1.0  -0.131
  C  C184  1  0.509300  0.223200  0.368000  1.0  0.1849
  C  C185  1  0.502400  0.124400  0.368700  1.0  -0.2138
  C  C186  1  0.396900  0.027600  0.367300  1.0  0.1349
  C  C187  1  0.303000  0.042000  0.364300  1.0  -0.2282
  C  C188  1  0.319500  0.147800  0.364600  1.0  0.1779
  N  N189  1  0.133700  0.584000  0.876500  1.0  -0.3632
  N  N190  1  0.821000  0.242000  0.867200  1.0  -0.3674
  N  N191  1  0.549700  0.416000  0.623500  1.0  -0.3635
  N  N192  1  0.579000  0.758000  0.632800  1.0  -0.366
  N  N193  1  0.866300  0.416000  0.123500  1.0  -0.3627
  N  N194  1  0.179000  0.758000  0.132800  1.0  -0.3661
  N  N195  1  0.450300  0.584000  0.376500  1.0  -0.3614
  N  N196  1  0.421000  0.242000  0.367200  1.0  -0.3667
  O  O197  1  0.041000  0.330000  0.756700  1.0  -0.6046
  O  O198  1  0.908000  0.360800  0.716400  1.0  -0.5971
  O  O199  1  0.335100  0.400000  0.457800  1.0  -0.6385
  O  O200  1  0.380600  0.504200  0.602500  1.0  -0.5891
  O  O201  1  0.711000  0.670000  0.743300  1.0  -0.6048
  O  O202  1  0.547200  0.639200  0.783600  1.0  -0.5983
  O  O203  1  0.935100  0.600000  0.042200  1.0  -0.6388
  O  O204  1  0.876400  0.495800  0.897500  1.0  -0.5896
  O  O205  1  0.959000  0.670000  0.243300  1.0  -0.6054
  O  O206  1  0.092000  0.639200  0.283600  1.0  -0.5983
  O  O207  1  0.664900  0.600000  0.542200  1.0  -0.639
  O  O208  1  0.619400  0.495800  0.397500  1.0  -0.5895
  O  O209  1  0.289000  0.330000  0.256700  1.0  -0.6052
  O  O210  1  0.452800  0.360800  0.216400  1.0  -0.5989
  O  O211  1  0.064900  0.400000  0.957800  1.0  -0.6378
  O  O212  1  0.123600  0.504200  0.102500  1.0  -0.5894
