# generated using pymatgen
data_ZnH12C18N3O5
_symmetry_space_group_name_H-M   'P 1'
_cell_length_a   38.03000000
_cell_length_b   10.00980000
_cell_length_c   26.42300000
_cell_angle_alpha   90.00000000
_cell_angle_beta   125.58900000
_cell_angle_gamma   90.00000000
_symmetry_Int_Tables_number   1
_chemical_formula_structural   ZnH12C18N3O5
_chemical_formula_sum   'Zn16 H192 C288 N48 O80'
_cell_volume   8179.70985573
_cell_formula_units_Z   16
loop_
 _symmetry_equiv_pos_site_id
 _symmetry_equiv_pos_as_xyz
  1  'x, y, z'
loop_
 _atom_site_type_symbol
 _atom_site_label
 _atom_site_symmetry_multiplicity
 _atom_site_fract_x
 _atom_site_fract_y
 _atom_site_fract_z
 _atom_site_occupancy
 _atom_site_charge
  Zn  Zn1  1  0.837340  0.667790  0.291600  1.0  0.9494
  Zn  Zn2  1  0.886090  0.964370  0.415580  1.0  0.9744
  Zn  Zn3  1  0.337340  0.167790  0.291600  1.0  0.9494
  Zn  Zn4  1  0.386090  0.464370  0.415580  1.0  0.9744
  Zn  Zn5  1  0.162660  0.667790  0.208400  1.0  0.9496
  Zn  Zn6  1  0.113910  0.964370  0.084420  1.0  0.9738
  Zn  Zn7  1  0.662660  0.167790  0.208400  1.0  0.9496
  Zn  Zn8  1  0.613910  0.464370  0.084420  1.0  0.9738
  Zn  Zn9  1  0.162660  0.332210  0.708400  1.0  0.95
  Zn  Zn10  1  0.113910  0.035630  0.584420  1.0  0.9739
  Zn  Zn11  1  0.662660  0.832210  0.708400  1.0  0.95
  Zn  Zn12  1  0.613910  0.535630  0.584420  1.0  0.9739
  Zn  Zn13  1  0.837340  0.332210  0.791600  1.0  0.9496
  Zn  Zn14  1  0.886090  0.035630  0.915580  1.0  0.9742
  Zn  Zn15  1  0.337340  0.832210  0.791600  1.0  0.9496
  Zn  Zn16  1  0.386090  0.535630  0.915580  1.0  0.9742
  H  H17  1  0.050700  0.488500  0.109900  1.0  0.1133
  H  H18  1  0.921000  0.525100  0.009200  1.0  0.1268
  H  H19  1  0.992800  0.815300  0.005800  1.0  0.1044
  H  H20  1  0.031800  0.333900  0.161800  1.0  0.0824
  H  H21  1  0.032300  0.268700  0.107900  1.0  0.0674
  H  H22  1  0.965400  0.235400  0.162500  1.0  0.1083
  H  H23  1  0.961500  0.840300  0.155300  1.0  0.1195
  H  H24  1  0.005400  0.836900  0.124300  1.0  0.0934
  H  H25  1  0.030300  0.037800  0.108700  1.0  0.1152
  H  H26  1  0.904700  0.974000  0.154100  1.0  0.0889
  H  H27  1  0.945300  0.988200  0.223300  1.0  0.0778
  H  H28  1  0.892700  0.363400  0.212600  1.0  0.1259
  H  H29  1  0.844100  0.203700  0.298700  1.0  0.0974
  H  H30  1  0.889300  0.965100  0.226400  1.0  0.1247
  H  H31  1  0.770300  0.854800  0.284000  1.0  0.0749
  H  H32  1  0.732400  0.882000  0.324800  1.0  0.113
  H  H33  1  0.782100  0.534700  0.416500  1.0  0.1225
  H  H34  1  0.823200  0.531900  0.377700  1.0  0.0753
  H  H35  1  0.634200  0.820900  0.451400  1.0  0.1316
  H  H36  1  0.605100  0.749200  0.502400  1.0  0.0741
  H  H37  1  0.669900  0.417300  0.549200  1.0  0.0808
  H  H38  1  0.697600  0.475700  0.495800  1.0  0.124
  H  H39  1  0.719400  0.462700  0.392900  1.0  0.3422
  H  H40  1  0.697600  0.450400  0.424700  1.0  0.3842
  H  H41  1  0.550700  0.988500  0.109900  1.0  0.1133
  H  H42  1  0.421000  0.025100  0.009200  1.0  0.1268
  H  H43  1  0.492800  0.315300  0.005800  1.0  0.1044
  H  H44  1  0.531800  0.833900  0.161800  1.0  0.0824
  H  H45  1  0.532300  0.768700  0.107900  1.0  0.0674
  H  H46  1  0.465400  0.735400  0.162500  1.0  0.1083
  H  H47  1  0.461500  0.340300  0.155300  1.0  0.1195
  H  H48  1  0.505400  0.336900  0.124300  1.0  0.0934
  H  H49  1  0.530300  0.537800  0.108700  1.0  0.1152
  H  H50  1  0.404700  0.474000  0.154100  1.0  0.0889
  H  H51  1  0.445300  0.488200  0.223300  1.0  0.0778
  H  H52  1  0.392700  0.863400  0.212600  1.0  0.1259
  H  H53  1  0.344100  0.703700  0.298700  1.0  0.0974
  H  H54  1  0.389300  0.465100  0.226400  1.0  0.1247
  H  H55  1  0.270300  0.354800  0.284000  1.0  0.0749
  H  H56  1  0.232400  0.382000  0.324800  1.0  0.113
  H  H57  1  0.282100  0.034700  0.416500  1.0  0.1225
  H  H58  1  0.323200  0.031900  0.377700  1.0  0.0753
  H  H59  1  0.134200  0.320900  0.451400  1.0  0.1316
  H  H60  1  0.105100  0.249200  0.502400  1.0  0.0741
  H  H61  1  0.169900  0.917300  0.549200  1.0  0.0808
  H  H62  1  0.197600  0.975700  0.495800  1.0  0.124
  H  H63  1  0.219400  0.962700  0.392900  1.0  0.3422
  H  H64  1  0.197600  0.950400  0.424700  1.0  0.3842
  H  H65  1  0.949300  0.488500  0.390100  1.0  0.1131
  H  H66  1  0.079000  0.525100  0.490800  1.0  0.1271
  H  H67  1  0.007200  0.815300  0.494200  1.0  0.1045
  H  H68  1  0.968200  0.333900  0.338200  1.0  0.0839
  H  H69  1  0.967700  0.268700  0.392100  1.0  0.0678
  H  H70  1  0.034600  0.235400  0.337500  1.0  0.108
  H  H71  1  0.038500  0.840300  0.344700  1.0  0.1195
  H  H72  1  0.994600  0.836900  0.375700  1.0  0.0931
  H  H73  1  0.969700  0.037800  0.391300  1.0  0.1158
  H  H74  1  0.095300  0.974000  0.345900  1.0  0.0896
  H  H75  1  0.054700  0.988200  0.276700  1.0  0.077
  H  H76  1  0.107300  0.363400  0.287400  1.0  0.1264
  H  H77  1  0.155900  0.203700  0.201300  1.0  0.0975
  H  H78  1  0.110700  0.965100  0.273600  1.0  0.1249
  H  H79  1  0.229700  0.854800  0.216000  1.0  0.0743
  H  H80  1  0.267600  0.882000  0.175200  1.0  0.1129
  H  H81  1  0.217900  0.534700  0.083500  1.0  0.1228
  H  H82  1  0.176800  0.531900  0.122300  1.0  0.0748
  H  H83  1  0.365800  0.820900  0.048600  1.0  0.1312
  H  H84  1  0.394900  0.749200  0.997600  1.0  0.0735
  H  H85  1  0.330100  0.417300  0.950800  1.0  0.0803
  H  H86  1  0.302400  0.475700  0.004200  1.0  0.123
  H  H87  1  0.280600  0.462700  0.107100  1.0  0.3438
  H  H88  1  0.302400  0.450400  0.075300  1.0  0.3839
  H  H89  1  0.449300  0.988500  0.390100  1.0  0.1131
  H  H90  1  0.579000  0.025100  0.490800  1.0  0.1271
  H  H91  1  0.507200  0.315300  0.494200  1.0  0.1045
  H  H92  1  0.468200  0.833900  0.338200  1.0  0.0839
  H  H93  1  0.467700  0.768700  0.392100  1.0  0.0678
  H  H94  1  0.534600  0.735400  0.337500  1.0  0.108
  H  H95  1  0.538500  0.340300  0.344700  1.0  0.1195
  H  H96  1  0.494600  0.336900  0.375700  1.0  0.0931
  H  H97  1  0.469700  0.537800  0.391300  1.0  0.1158
  H  H98  1  0.595300  0.474000  0.345900  1.0  0.0896
  H  H99  1  0.554700  0.488200  0.276700  1.0  0.077
  H  H100  1  0.607300  0.863400  0.287400  1.0  0.1264
  H  H101  1  0.655900  0.703700  0.201300  1.0  0.0975
  H  H102  1  0.610700  0.465100  0.273600  1.0  0.1249
  H  H103  1  0.729700  0.354800  0.216000  1.0  0.0743
  H  H104  1  0.767600  0.382000  0.175200  1.0  0.1129
  H  H105  1  0.717900  0.034700  0.083500  1.0  0.1228
  H  H106  1  0.676800  0.031900  0.122300  1.0  0.0748
  H  H107  1  0.865800  0.320900  0.048600  1.0  0.1312
  H  H108  1  0.894900  0.249200  0.997600  1.0  0.0735
  H  H109  1  0.830100  0.917300  0.950800  1.0  0.0803
  H  H110  1  0.802400  0.975700  0.004200  1.0  0.123
  H  H111  1  0.780600  0.962700  0.107100  1.0  0.3438
  H  H112  1  0.802400  0.950400  0.075300  1.0  0.3839
  H  H113  1  0.949300  0.511500  0.890100  1.0  0.113
  H  H114  1  0.079000  0.474900  0.990800  1.0  0.1269
  H  H115  1  0.007200  0.184700  0.994200  1.0  0.1049
  H  H116  1  0.968200  0.666100  0.838200  1.0  0.0838
  H  H117  1  0.967700  0.731300  0.892100  1.0  0.0678
  H  H118  1  0.034600  0.764600  0.837500  1.0  0.1085
  H  H119  1  0.038500  0.159700  0.844700  1.0  0.1188
  H  H120  1  0.994600  0.163100  0.875700  1.0  0.0933
  H  H121  1  0.969700  0.962200  0.891300  1.0  0.1158
  H  H122  1  0.095300  0.026000  0.845900  1.0  0.0887
  H  H123  1  0.054700  0.011800  0.776700  1.0  0.0769
  H  H124  1  0.107300  0.636600  0.787400  1.0  0.1275
  H  H125  1  0.155900  0.796300  0.701300  1.0  0.0958
  H  H126  1  0.110700  0.034900  0.773600  1.0  0.124
  H  H127  1  0.229700  0.145200  0.716000  1.0  0.0744
  H  H128  1  0.267600  0.118000  0.675200  1.0  0.1127
  H  H129  1  0.217900  0.465300  0.583500  1.0  0.1233
  H  H130  1  0.176800  0.468100  0.622300  1.0  0.0744
  H  H131  1  0.365800  0.179100  0.548600  1.0  0.132
  H  H132  1  0.394900  0.250800  0.497600  1.0  0.0736
  H  H133  1  0.330100  0.582700  0.450800  1.0  0.0813
  H  H134  1  0.302400  0.524300  0.504200  1.0  0.1236
  H  H135  1  0.280600  0.537300  0.607100  1.0  0.3429
  H  H136  1  0.302400  0.549600  0.575300  1.0  0.3851
  H  H137  1  0.449300  0.011500  0.890100  1.0  0.113
  H  H138  1  0.579000  0.974900  0.990800  1.0  0.1269
  H  H139  1  0.507200  0.684700  0.994200  1.0  0.1049
  H  H140  1  0.468200  0.166100  0.838200  1.0  0.0838
  H  H141  1  0.467700  0.231300  0.892100  1.0  0.0678
  H  H142  1  0.534600  0.264600  0.837500  1.0  0.1085
  H  H143  1  0.538500  0.659700  0.844700  1.0  0.1188
  H  H144  1  0.494600  0.663100  0.875700  1.0  0.0933
  H  H145  1  0.469700  0.462200  0.891300  1.0  0.1158
  H  H146  1  0.595300  0.526000  0.845900  1.0  0.0887
  H  H147  1  0.554700  0.511800  0.776700  1.0  0.0769
  H  H148  1  0.607300  0.136600  0.787400  1.0  0.1275
  H  H149  1  0.655900  0.296300  0.701300  1.0  0.0958
  H  H150  1  0.610700  0.534900  0.773600  1.0  0.124
  H  H151  1  0.729700  0.645200  0.716000  1.0  0.0744
  H  H152  1  0.767600  0.618000  0.675200  1.0  0.1127
  H  H153  1  0.717900  0.965300  0.583500  1.0  0.1233
  H  H154  1  0.676800  0.968100  0.622300  1.0  0.0744
  H  H155  1  0.865800  0.679100  0.548600  1.0  0.132
  H  H156  1  0.894900  0.750800  0.497600  1.0  0.0736
  H  H157  1  0.830100  0.082700  0.450800  1.0  0.0813
  H  H158  1  0.802400  0.024300  0.504200  1.0  0.1236
  H  H159  1  0.780600  0.037300  0.607100  1.0  0.3429
  H  H160  1  0.802400  0.049600  0.575300  1.0  0.3851
  H  H161  1  0.050700  0.511500  0.609900  1.0  0.1131
  H  H162  1  0.921000  0.474900  0.509200  1.0  0.1264
  H  H163  1  0.992800  0.184700  0.505800  1.0  0.1043
  H  H164  1  0.031800  0.666100  0.661800  1.0  0.0834
  H  H165  1  0.032300  0.731300  0.607900  1.0  0.0673
  H  H166  1  0.965400  0.764600  0.662500  1.0  0.1089
  H  H167  1  0.961500  0.159700  0.655300  1.0  0.1185
  H  H168  1  0.005400  0.163100  0.624300  1.0  0.0931
  H  H169  1  0.030300  0.962200  0.608700  1.0  0.1153
  H  H170  1  0.904700  0.026000  0.654100  1.0  0.0885
  H  H171  1  0.945300  0.011800  0.723300  1.0  0.0763
  H  H172  1  0.892700  0.636600  0.712600  1.0  0.1258
  H  H173  1  0.844100  0.796300  0.798700  1.0  0.0955
  H  H174  1  0.889300  0.034900  0.726400  1.0  0.1235
  H  H175  1  0.770300  0.145200  0.784000  1.0  0.0751
  H  H176  1  0.732400  0.118000  0.824800  1.0  0.1125
  H  H177  1  0.782100  0.465300  0.916500  1.0  0.1216
  H  H178  1  0.823200  0.468100  0.877700  1.0  0.0745
  H  H179  1  0.634200  0.179100  0.951400  1.0  0.1317
  H  H180  1  0.605100  0.250800  0.002400  1.0  0.0741
  H  H181  1  0.669900  0.582700  0.049200  1.0  0.0811
  H  H182  1  0.697600  0.524300  0.995800  1.0  0.1241
  H  H183  1  0.719400  0.537300  0.892900  1.0  0.3426
  H  H184  1  0.697600  0.549600  0.924700  1.0  0.3856
  H  H185  1  0.550700  0.011500  0.609900  1.0  0.1131
  H  H186  1  0.421000  0.974900  0.509200  1.0  0.1264
  H  H187  1  0.492800  0.684700  0.505800  1.0  0.1043
  H  H188  1  0.531800  0.166100  0.661800  1.0  0.0834
  H  H189  1  0.532300  0.231300  0.607900  1.0  0.0673
  H  H190  1  0.465400  0.264600  0.662500  1.0  0.1089
  H  H191  1  0.461500  0.659700  0.655300  1.0  0.1185
  H  H192  1  0.505400  0.663100  0.624300  1.0  0.0931
  H  H193  1  0.530300  0.462200  0.608700  1.0  0.1153
  H  H194  1  0.404700  0.526000  0.654100  1.0  0.0885
  H  H195  1  0.445300  0.511800  0.723300  1.0  0.0763
  H  H196  1  0.392700  0.136600  0.712600  1.0  0.1258
  H  H197  1  0.344100  0.296300  0.798700  1.0  0.0955
  H  H198  1  0.389300  0.534900  0.726400  1.0  0.1235
  H  H199  1  0.270300  0.645200  0.784000  1.0  0.0751
  H  H200  1  0.232400  0.618000  0.824800  1.0  0.1125
  H  H201  1  0.282100  0.965300  0.916500  1.0  0.1216
  H  H202  1  0.323200  0.968100  0.877700  1.0  0.0745
  H  H203  1  0.134200  0.679100  0.951400  1.0  0.1317
  H  H204  1  0.105100  0.750800  0.002400  1.0  0.0741
  H  H205  1  0.169900  0.082700  0.049200  1.0  0.0811
  H  H206  1  0.197600  0.024300  0.995800  1.0  0.1241
  H  H207  1  0.219400  0.037300  0.892900  1.0  0.3426
  H  H208  1  0.197600  0.049600  0.924700  1.0  0.3856
  C  C209  1  0.070790  0.720500  0.084200  1.0  0.6692
  C  C210  1  0.027740  0.661100  0.061200  1.0  -0.1529
  C  C211  1  0.025650  0.536800  0.082500  1.0  -0.1161
  C  C212  1  0.985300  0.485300  0.062100  1.0  0.2185
  C  C213  1  0.947750  0.558400  0.021800  1.0  -0.1265
  C  C214  1  0.950930  0.683300  0.000500  1.0  -0.1597
  C  C215  1  0.990840  0.732900  0.020300  1.0  -0.0736
  C  C216  1  0.911700  0.767400  0.959800  1.0  0.6925
  C  C217  1  0.014600  0.285900  0.122600  1.0  0.0788
  C  C218  1  0.998500  0.156700  0.131200  1.0  0.0419
  C  C219  1  0.972700  0.155100  0.153200  1.0  -0.0854
  C  C220  1  0.957900  0.037300  0.161100  1.0  0.0455
  C  C221  1  0.971000  0.920900  0.149800  1.0  -0.1501
  C  C222  1  0.997000  0.918500  0.131000  1.0  -0.1336
  C  C223  1  0.012000  0.038800  0.121300  1.0  -0.1463
  C  C224  1  0.929500  0.029800  0.182500  1.0  -0.0164
  C  C225  1  0.894300  0.161700  0.215300  1.0  0.2405
  C  C226  1  0.885500  0.289100  0.225900  1.0  -0.1433
  C  C227  1  0.866100  0.305800  0.256400  1.0  -0.1707
  C  C228  1  0.856500  0.193400  0.277200  1.0  -0.007
  C  C229  1  0.864910  0.069300  0.266600  1.0  -0.1467
  C  C230  1  0.884000  0.050400  0.234400  1.0  -0.2152
  C  C231  1  0.855200  0.442200  0.268200  1.0  0.6457
  C  C232  1  0.854410  0.946500  0.288600  1.0  0.6743
  C  C233  1  0.773370  0.791500  0.312000  1.0  0.1897
  C  C234  1  0.749730  0.806800  0.335400  1.0  -0.1579
  C  C235  1  0.751200  0.712500  0.374300  1.0  0.0139
  C  C236  1  0.779600  0.602600  0.390600  1.0  -0.1999
  C  C237  1  0.803600  0.601200  0.365900  1.0  0.1776
  C  C238  1  0.726500  0.731900  0.400300  1.0  0.3304
  C  C239  1  0.690800  0.708200  0.439700  1.0  0.2214
  C  C240  1  0.670800  0.653700  0.469800  1.0  0.0876
  C  C241  1  0.641900  0.738300  0.471300  1.0  -0.1551
  C  C242  1  0.625300  0.695500  0.502900  1.0  0.1669
  C  C243  1  0.662900  0.500400  0.529800  1.0  0.1647
  C  C244  1  0.679700  0.535200  0.497900  1.0  -0.1873
  C  C245  1  0.570790  0.220500  0.084200  1.0  0.6692
  C  C246  1  0.527740  0.161100  0.061200  1.0  -0.1529
  C  C247  1  0.525650  0.036800  0.082500  1.0  -0.1161
  C  C248  1  0.485300  0.985300  0.062100  1.0  0.2185
  C  C249  1  0.447750  0.058400  0.021800  1.0  -0.1265
  C  C250  1  0.450930  0.183300  0.000500  1.0  -0.1597
  C  C251  1  0.490840  0.232900  0.020300  1.0  -0.0736
  C  C252  1  0.411700  0.267400  0.959800  1.0  0.6925
  C  C253  1  0.514600  0.785900  0.122600  1.0  0.0788
  C  C254  1  0.498500  0.656700  0.131200  1.0  0.0419
  C  C255  1  0.472700  0.655100  0.153200  1.0  -0.0854
  C  C256  1  0.457900  0.537300  0.161100  1.0  0.0455
  C  C257  1  0.471000  0.420900  0.149800  1.0  -0.1501
  C  C258  1  0.497000  0.418500  0.131000  1.0  -0.1336
  C  C259  1  0.512000  0.538800  0.121300  1.0  -0.1463
  C  C260  1  0.429500  0.529800  0.182500  1.0  -0.0164
  C  C261  1  0.394300  0.661700  0.215300  1.0  0.2405
  C  C262  1  0.385500  0.789100  0.225900  1.0  -0.1433
  C  C263  1  0.366100  0.805800  0.256400  1.0  -0.1707
  C  C264  1  0.356500  0.693400  0.277200  1.0  -0.007
  C  C265  1  0.364910  0.569300  0.266600  1.0  -0.1467
  C  C266  1  0.384000  0.550400  0.234400  1.0  -0.2152
  C  C267  1  0.355200  0.942200  0.268200  1.0  0.6457
  C  C268  1  0.354410  0.446500  0.288600  1.0  0.6743
  C  C269  1  0.273370  0.291500  0.312000  1.0  0.1897
  C  C270  1  0.249730  0.306800  0.335400  1.0  -0.1579
  C  C271  1  0.251200  0.212500  0.374300  1.0  0.0139
  C  C272  1  0.279600  0.102600  0.390600  1.0  -0.1999
  C  C273  1  0.303600  0.101200  0.365900  1.0  0.1776
  C  C274  1  0.226500  0.231900  0.400300  1.0  0.3304
  C  C275  1  0.190800  0.208200  0.439700  1.0  0.2214
  C  C276  1  0.170800  0.153700  0.469800  1.0  0.0876
  C  C277  1  0.141900  0.238300  0.471300  1.0  -0.1551
  C  C278  1  0.125300  0.195500  0.502900  1.0  0.1669
  C  C279  1  0.162900  0.000400  0.529800  1.0  0.1647
  C  C280  1  0.179700  0.035200  0.497900  1.0  -0.1873
  C  C281  1  0.929210  0.720500  0.415800  1.0  0.6696
  C  C282  1  0.972260  0.661100  0.438800  1.0  -0.1538
  C  C283  1  0.974350  0.536800  0.417500  1.0  -0.1192
  C  C284  1  0.014700  0.485300  0.437900  1.0  0.2159
  C  C285  1  0.052250  0.558400  0.478200  1.0  -0.1276
  C  C286  1  0.049070  0.683300  0.499500  1.0  -0.1598
  C  C287  1  0.009160  0.732900  0.479700  1.0  -0.0731
  C  C288  1  0.088300  0.767400  0.540200  1.0  0.6941
  C  C289  1  0.985400  0.285900  0.377400  1.0  0.0772
  C  C290  1  0.001500  0.156700  0.368800  1.0  0.0418
  C  C291  1  0.027300  0.155100  0.346800  1.0  -0.0847
  C  C292  1  0.042100  0.037300  0.338900  1.0  0.0458
  C  C293  1  0.029000  0.920900  0.350200  1.0  -0.1509
  C  C294  1  0.003000  0.918500  0.369000  1.0  -0.1332
  C  C295  1  0.988000  0.038800  0.378700  1.0  -0.1446
  C  C296  1  0.070500  0.029800  0.317500  1.0  -0.0165
  C  C297  1  0.105700  0.161700  0.284700  1.0  0.2402
  C  C298  1  0.114500  0.289100  0.274100  1.0  -0.1421
  C  C299  1  0.133900  0.305800  0.243600  1.0  -0.1701
  C  C300  1  0.143500  0.193400  0.222800  1.0  -0.0064
  C  C301  1  0.135090  0.069300  0.233400  1.0  -0.1477
  C  C302  1  0.116000  0.050400  0.265600  1.0  -0.2154
  C  C303  1  0.144800  0.442200  0.231800  1.0  0.6454
  C  C304  1  0.145590  0.946500  0.211400  1.0  0.6751
  C  C305  1  0.226630  0.791500  0.188000  1.0  0.1884
  C  C306  1  0.250270  0.806800  0.164600  1.0  -0.1597
  C  C307  1  0.248800  0.712500  0.125700  1.0  0.0137
  C  C308  1  0.220400  0.602600  0.109400  1.0  -0.2008
  C  C309  1  0.196400  0.601200  0.134100  1.0  0.1796
  C  C310  1  0.273500  0.731900  0.099700  1.0  0.3302
  C  C311  1  0.309200  0.708200  0.060300  1.0  0.2207
  C  C312  1  0.329200  0.653700  0.030200  1.0  0.0869
  C  C313  1  0.358100  0.738300  0.028700  1.0  -0.1549
  C  C314  1  0.374700  0.695500  0.997100  1.0  0.1671
  C  C315  1  0.337100  0.500400  0.970200  1.0  0.1647
  C  C316  1  0.320300  0.535200  0.002100  1.0  -0.1871
  C  C317  1  0.429210  0.220500  0.415800  1.0  0.6696
  C  C318  1  0.472260  0.161100  0.438800  1.0  -0.1538
  C  C319  1  0.474350  0.036800  0.417500  1.0  -0.1192
  C  C320  1  0.514700  0.985300  0.437900  1.0  0.2159
  C  C321  1  0.552250  0.058400  0.478200  1.0  -0.1276
  C  C322  1  0.549070  0.183300  0.499500  1.0  -0.1598
  C  C323  1  0.509160  0.232900  0.479700  1.0  -0.0731
  C  C324  1  0.588300  0.267400  0.540200  1.0  0.6941
  C  C325  1  0.485400  0.785900  0.377400  1.0  0.0772
  C  C326  1  0.501500  0.656700  0.368800  1.0  0.0418
  C  C327  1  0.527300  0.655100  0.346800  1.0  -0.0847
  C  C328  1  0.542100  0.537300  0.338900  1.0  0.0458
  C  C329  1  0.529000  0.420900  0.350200  1.0  -0.1509
  C  C330  1  0.503000  0.418500  0.369000  1.0  -0.1332
  C  C331  1  0.488000  0.538800  0.378700  1.0  -0.1446
  C  C332  1  0.570500  0.529800  0.317500  1.0  -0.0165
  C  C333  1  0.605700  0.661700  0.284700  1.0  0.2402
  C  C334  1  0.614500  0.789100  0.274100  1.0  -0.1421
  C  C335  1  0.633900  0.805800  0.243600  1.0  -0.1701
  C  C336  1  0.643500  0.693400  0.222800  1.0  -0.0064
  C  C337  1  0.635090  0.569300  0.233400  1.0  -0.1477
  C  C338  1  0.616000  0.550400  0.265600  1.0  -0.2154
  C  C339  1  0.644800  0.942200  0.231800  1.0  0.6454
  C  C340  1  0.645590  0.446500  0.211400  1.0  0.6751
  C  C341  1  0.726630  0.291500  0.188000  1.0  0.1884
  C  C342  1  0.750270  0.306800  0.164600  1.0  -0.1597
  C  C343  1  0.748800  0.212500  0.125700  1.0  0.0137
  C  C344  1  0.720400  0.102600  0.109400  1.0  -0.2008
  C  C345  1  0.696400  0.101200  0.134100  1.0  0.1796
  C  C346  1  0.773500  0.231900  0.099700  1.0  0.3302
  C  C347  1  0.809200  0.208200  0.060300  1.0  0.2207
  C  C348  1  0.829200  0.153700  0.030200  1.0  0.0869
  C  C349  1  0.858100  0.238300  0.028700  1.0  -0.1549
  C  C350  1  0.874700  0.195500  0.997100  1.0  0.1671
  C  C351  1  0.837100  0.000400  0.970200  1.0  0.1647
  C  C352  1  0.820300  0.035200  0.002100  1.0  -0.1871
  C  C353  1  0.929210  0.279500  0.915800  1.0  0.669
  C  C354  1  0.972260  0.338900  0.938800  1.0  -0.1541
  C  C355  1  0.974350  0.463200  0.917500  1.0  -0.1187
  C  C356  1  0.014700  0.514700  0.937900  1.0  0.2159
  C  C357  1  0.052250  0.441600  0.978200  1.0  -0.1277
  C  C358  1  0.049070  0.316700  0.999500  1.0  -0.1596
  C  C359  1  0.009160  0.267100  0.979700  1.0  -0.0736
  C  C360  1  0.088300  0.232600  0.040200  1.0  0.6939
  C  C361  1  0.985400  0.714100  0.877400  1.0  0.0769
  C  C362  1  0.001500  0.843300  0.868800  1.0  0.0417
  C  C363  1  0.027300  0.844900  0.846800  1.0  -0.0838
  C  C364  1  0.042100  0.962700  0.838900  1.0  0.0467
  C  C365  1  0.029000  0.079100  0.850200  1.0  -0.1498
  C  C366  1  0.003000  0.081500  0.869000  1.0  -0.1329
  C  C367  1  0.988000  0.961200  0.878700  1.0  -0.1442
  C  C368  1  0.070500  0.970200  0.817500  1.0  -0.0161
  C  C369  1  0.105700  0.838300  0.784700  1.0  0.2402
  C  C370  1  0.114500  0.710900  0.774100  1.0  -0.1413
  C  C371  1  0.133900  0.694200  0.743600  1.0  -0.1719
  C  C372  1  0.143500  0.806600  0.722800  1.0  -0.0064
  C  C373  1  0.135090  0.930700  0.733400  1.0  -0.1475
  C  C374  1  0.116000  0.949600  0.765600  1.0  -0.2159
  C  C375  1  0.144800  0.557800  0.731800  1.0  0.6454
  C  C376  1  0.145590  0.053500  0.711400  1.0  0.6742
  C  C377  1  0.226630  0.208500  0.688000  1.0  0.1886
  C  C378  1  0.250270  0.193200  0.664600  1.0  -0.1582
  C  C379  1  0.248800  0.287500  0.625700  1.0  0.0136
  C  C380  1  0.220400  0.397400  0.609400  1.0  -0.2042
  C  C381  1  0.196400  0.398800  0.634100  1.0  0.1796
  C  C382  1  0.273500  0.268100  0.599700  1.0  0.3302
  C  C383  1  0.309200  0.291800  0.560300  1.0  0.2209
  C  C384  1  0.329200  0.346300  0.530200  1.0  0.0868
  C  C385  1  0.358100  0.261700  0.528700  1.0  -0.1557
  C  C386  1  0.374700  0.304500  0.497100  1.0  0.1671
  C  C387  1  0.337100  0.499600  0.470200  1.0  0.1647
  C  C388  1  0.320300  0.464800  0.502100  1.0  -0.1905
  C  C389  1  0.429210  0.779500  0.915800  1.0  0.669
  C  C390  1  0.472260  0.838900  0.938800  1.0  -0.1541
  C  C391  1  0.474350  0.963200  0.917500  1.0  -0.1187
  C  C392  1  0.514700  0.014700  0.937900  1.0  0.2159
  C  C393  1  0.552250  0.941600  0.978200  1.0  -0.1277
  C  C394  1  0.549070  0.816700  0.999500  1.0  -0.1596
  C  C395  1  0.509160  0.767100  0.979700  1.0  -0.0736
  C  C396  1  0.588300  0.732600  0.040200  1.0  0.6939
  C  C397  1  0.485400  0.214100  0.877400  1.0  0.0769
  C  C398  1  0.501500  0.343300  0.868800  1.0  0.0417
  C  C399  1  0.527300  0.344900  0.846800  1.0  -0.0838
  C  C400  1  0.542100  0.462700  0.838900  1.0  0.0467
  C  C401  1  0.529000  0.579100  0.850200  1.0  -0.1498
  C  C402  1  0.503000  0.581500  0.869000  1.0  -0.1329
  C  C403  1  0.488000  0.461200  0.878700  1.0  -0.1442
  C  C404  1  0.570500  0.470200  0.817500  1.0  -0.0161
  C  C405  1  0.605700  0.338300  0.784700  1.0  0.2402
  C  C406  1  0.614500  0.210900  0.774100  1.0  -0.1413
  C  C407  1  0.633900  0.194200  0.743600  1.0  -0.1719
  C  C408  1  0.643500  0.306600  0.722800  1.0  -0.0064
  C  C409  1  0.635090  0.430700  0.733400  1.0  -0.1475
  C  C410  1  0.616000  0.449600  0.765600  1.0  -0.2159
  C  C411  1  0.644800  0.057800  0.731800  1.0  0.6454
  C  C412  1  0.645590  0.553500  0.711400  1.0  0.6742
  C  C413  1  0.726630  0.708500  0.688000  1.0  0.1886
  C  C414  1  0.750270  0.693200  0.664600  1.0  -0.1582
  C  C415  1  0.748800  0.787500  0.625700  1.0  0.0136
  C  C416  1  0.720400  0.897400  0.609400  1.0  -0.2042
  C  C417  1  0.696400  0.898800  0.634100  1.0  0.1796
  C  C418  1  0.773500  0.768100  0.599700  1.0  0.3302
  C  C419  1  0.809200  0.791800  0.560300  1.0  0.2209
  C  C420  1  0.829200  0.846300  0.530200  1.0  0.0868
  C  C421  1  0.858100  0.761700  0.528700  1.0  -0.1557
  C  C422  1  0.874700  0.804500  0.497100  1.0  0.1671
  C  C423  1  0.837100  0.999600  0.470200  1.0  0.1647
  C  C424  1  0.820300  0.964800  0.502100  1.0  -0.1905
  C  C425  1  0.070790  0.279500  0.584200  1.0  0.6687
  C  C426  1  0.027740  0.338900  0.561200  1.0  -0.1528
  C  C427  1  0.025650  0.463200  0.582500  1.0  -0.1154
  C  C428  1  0.985300  0.514700  0.562100  1.0  0.2184
  C  C429  1  0.947750  0.441600  0.521800  1.0  -0.1266
  C  C430  1  0.950930  0.316700  0.500500  1.0  -0.1605
  C  C431  1  0.990840  0.267100  0.520300  1.0  -0.0744
  C  C432  1  0.911700  0.232600  0.459800  1.0  0.692
  C  C433  1  0.014600  0.714100  0.622600  1.0  0.0776
  C  C434  1  0.998500  0.843300  0.631200  1.0  0.0421
  C  C435  1  0.972700  0.844900  0.653200  1.0  -0.0846
  C  C436  1  0.957900  0.962700  0.661100  1.0  0.0462
  C  C437  1  0.971000  0.079100  0.649800  1.0  -0.1498
  C  C438  1  0.997000  0.081500  0.631000  1.0  -0.1326
  C  C439  1  0.012000  0.961200  0.621300  1.0  -0.1452
  C  C440  1  0.929500  0.970200  0.682500  1.0  -0.0163
  C  C441  1  0.894300  0.838300  0.715300  1.0  0.2403
  C  C442  1  0.885500  0.710900  0.725900  1.0  -0.1438
  C  C443  1  0.866100  0.694200  0.756400  1.0  -0.1714
  C  C444  1  0.856500  0.806600  0.777200  1.0  -0.0072
  C  C445  1  0.864910  0.930700  0.766600  1.0  -0.1468
  C  C446  1  0.884000  0.949600  0.734400  1.0  -0.2147
  C  C447  1  0.855200  0.557800  0.768200  1.0  0.6459
  C  C448  1  0.854410  0.053500  0.788600  1.0  0.6736
  C  C449  1  0.773370  0.208500  0.812000  1.0  0.1905
  C  C450  1  0.749730  0.193200  0.835400  1.0  -0.1566
  C  C451  1  0.751200  0.287500  0.874300  1.0  0.0138
  C  C452  1  0.779600  0.397400  0.890600  1.0  -0.2022
  C  C453  1  0.803600  0.398800  0.865900  1.0  0.1788
  C  C454  1  0.726500  0.268100  0.900300  1.0  0.3306
  C  C455  1  0.690800  0.291800  0.939700  1.0  0.2217
  C  C456  1  0.670800  0.346300  0.969800  1.0  0.0876
  C  C457  1  0.641900  0.261700  0.971300  1.0  -0.1545
  C  C458  1  0.625300  0.304500  0.002900  1.0  0.1676
  C  C459  1  0.662900  0.499600  0.029800  1.0  0.1653
  C  C460  1  0.679700  0.464800  0.997900  1.0  -0.1896
  C  C461  1  0.570790  0.779500  0.584200  1.0  0.6687
  C  C462  1  0.527740  0.838900  0.561200  1.0  -0.1528
  C  C463  1  0.525650  0.963200  0.582500  1.0  -0.1154
  C  C464  1  0.485300  0.014700  0.562100  1.0  0.2184
  C  C465  1  0.447750  0.941600  0.521800  1.0  -0.1266
  C  C466  1  0.450930  0.816700  0.500500  1.0  -0.1605
  C  C467  1  0.490840  0.767100  0.520300  1.0  -0.0744
  C  C468  1  0.411700  0.732600  0.459800  1.0  0.692
  C  C469  1  0.514600  0.214100  0.622600  1.0  0.0776
  C  C470  1  0.498500  0.343300  0.631200  1.0  0.0421
  C  C471  1  0.472700  0.344900  0.653200  1.0  -0.0846
  C  C472  1  0.457900  0.462700  0.661100  1.0  0.0462
  C  C473  1  0.471000  0.579100  0.649800  1.0  -0.1498
  C  C474  1  0.497000  0.581500  0.631000  1.0  -0.1326
  C  C475  1  0.512000  0.461200  0.621300  1.0  -0.1452
  C  C476  1  0.429500  0.470200  0.682500  1.0  -0.0163
  C  C477  1  0.394300  0.338300  0.715300  1.0  0.2403
  C  C478  1  0.385500  0.210900  0.725900  1.0  -0.1438
  C  C479  1  0.366100  0.194200  0.756400  1.0  -0.1714
  C  C480  1  0.356500  0.306600  0.777200  1.0  -0.0072
  C  C481  1  0.364910  0.430700  0.766600  1.0  -0.1468
  C  C482  1  0.384000  0.449600  0.734400  1.0  -0.2147
  C  C483  1  0.355200  0.057800  0.768200  1.0  0.6459
  C  C484  1  0.354410  0.553500  0.788600  1.0  0.6736
  C  C485  1  0.273370  0.708500  0.812000  1.0  0.1905
  C  C486  1  0.249730  0.693200  0.835400  1.0  -0.1566
  C  C487  1  0.251200  0.787500  0.874300  1.0  0.0138
  C  C488  1  0.279600  0.897400  0.890600  1.0  -0.2022
  C  C489  1  0.303600  0.898800  0.865900  1.0  0.1788
  C  C490  1  0.226500  0.768100  0.900300  1.0  0.3306
  C  C491  1  0.190800  0.791800  0.939700  1.0  0.2217
  C  C492  1  0.170800  0.846300  0.969800  1.0  0.0876
  C  C493  1  0.141900  0.761700  0.971300  1.0  -0.1545
  C  C494  1  0.125300  0.804500  0.002900  1.0  0.1676
  C  C495  1  0.162900  0.999600  0.029800  1.0  0.1653
  C  C496  1  0.179700  0.964800  0.997900  1.0  -0.1896
  N  N497  1  0.800310  0.691400  0.327200  1.0  -0.3293
  N  N498  1  0.710530  0.640400  0.418100  1.0  0.0998
  N  N499  1  0.717650  0.849800  0.409900  1.0  -0.2226
  N  N500  1  0.694900  0.835100  0.434800  1.0  -0.233
  N  N501  1  0.709000  0.499200  0.411000  1.0  -0.6611
  N  N502  1  0.636720  0.580500  0.534400  1.0  -0.3515
  N  N503  1  0.300310  0.191400  0.327200  1.0  -0.3293
  N  N504  1  0.210530  0.140400  0.418100  1.0  0.0998
  N  N505  1  0.217650  0.349800  0.409900  1.0  -0.2226
  N  N506  1  0.194900  0.335100  0.434800  1.0  -0.233
  N  N507  1  0.209000  0.999200  0.411000  1.0  -0.6611
  N  N508  1  0.136720  0.080500  0.534400  1.0  -0.3515
  N  N509  1  0.199690  0.691400  0.172800  1.0  -0.3259
  N  N510  1  0.289470  0.640400  0.081900  1.0  0.0997
  N  N511  1  0.282350  0.849800  0.090100  1.0  -0.222
  N  N512  1  0.305100  0.835100  0.065200  1.0  -0.2315
  N  N513  1  0.291000  0.499200  0.089000  1.0  -0.6599
  N  N514  1  0.363280  0.580500  0.965600  1.0  -0.3544
  N  N515  1  0.699690  0.191400  0.172800  1.0  -0.3259
  N  N516  1  0.789470  0.140400  0.081900  1.0  0.0997
  N  N517  1  0.782350  0.349800  0.090100  1.0  -0.222
  N  N518  1  0.805100  0.335100  0.065200  1.0  -0.2315
  N  N519  1  0.791000  0.999200  0.089000  1.0  -0.6599
  N  N520  1  0.863280  0.080500  0.965600  1.0  -0.3544
  N  N521  1  0.199690  0.308600  0.672800  1.0  -0.3254
  N  N522  1  0.289470  0.359600  0.581900  1.0  0.1002
  N  N523  1  0.282350  0.150200  0.590100  1.0  -0.2233
  N  N524  1  0.305100  0.164900  0.565200  1.0  -0.2335
  N  N525  1  0.291000  0.500800  0.589000  1.0  -0.6606
  N  N526  1  0.363280  0.419500  0.465600  1.0  -0.3532
  N  N527  1  0.699690  0.808600  0.672800  1.0  -0.3254
  N  N528  1  0.789470  0.859600  0.581900  1.0  0.1002
  N  N529  1  0.782350  0.650200  0.590100  1.0  -0.2233
  N  N530  1  0.805100  0.664900  0.565200  1.0  -0.2335
  N  N531  1  0.791000  0.000800  0.589000  1.0  -0.6606
  N  N532  1  0.863280  0.919500  0.465600  1.0  -0.3532
  N  N533  1  0.800310  0.308600  0.827200  1.0  -0.329
  N  N534  1  0.710530  0.359600  0.918100  1.0  0.1001
  N  N535  1  0.717650  0.150200  0.909900  1.0  -0.2234
  N  N536  1  0.694900  0.164900  0.934800  1.0  -0.2334
  N  N537  1  0.709000  0.500800  0.911000  1.0  -0.6625
  N  N538  1  0.636720  0.419500  0.034400  1.0  -0.3529
  N  N539  1  0.300310  0.808600  0.827200  1.0  -0.329
  N  N540  1  0.210530  0.859600  0.918100  1.0  0.1001
  N  N541  1  0.217650  0.650200  0.909900  1.0  -0.2234
  N  N542  1  0.194900  0.664900  0.934800  1.0  -0.2334
  N  N543  1  0.209000  0.000800  0.911000  1.0  -0.6625
  N  N544  1  0.136720  0.919500  0.034400  1.0  -0.3529
  O  O545  1  0.069620  0.838800  0.065500  1.0  -0.6235
  O  O546  1  0.104150  0.653300  0.117200  1.0  -0.6022
  O  O547  1  0.876550  0.733800  0.950700  1.0  -0.5932
  O  O548  1  0.916950  0.869100  0.937600  1.0  -0.5987
  O  O549  1  0.977800  0.361800  0.078300  1.0  -0.297
  O  O550  1  0.915150  0.156100  0.185900  1.0  -0.2843
  O  O551  1  0.856800  0.834300  0.270700  1.0  -0.5947
  O  O552  1  0.843540  0.965600  0.325200  1.0  -0.5963
  O  O553  1  0.834540  0.452000  0.290600  1.0  -0.5605
  O  O554  1  0.867600  0.542300  0.255700  1.0  -0.5517
  O  O555  1  0.569620  0.338800  0.065500  1.0  -0.6235
  O  O556  1  0.604150  0.153300  0.117200  1.0  -0.6022
  O  O557  1  0.376550  0.233800  0.950700  1.0  -0.5932
  O  O558  1  0.416950  0.369100  0.937600  1.0  -0.5987
  O  O559  1  0.477800  0.861800  0.078300  1.0  -0.297
  O  O560  1  0.415150  0.656100  0.185900  1.0  -0.2843
  O  O561  1  0.356800  0.334300  0.270700  1.0  -0.5947
  O  O562  1  0.343540  0.465600  0.325200  1.0  -0.5963
  O  O563  1  0.334540  0.952000  0.290600  1.0  -0.5605
  O  O564  1  0.367600  0.042300  0.255700  1.0  -0.5517
  O  O565  1  0.930380  0.838800  0.434500  1.0  -0.6242
  O  O566  1  0.895850  0.653300  0.382800  1.0  -0.6019
  O  O567  1  0.123450  0.733800  0.549300  1.0  -0.5952
  O  O568  1  0.083050  0.869100  0.562400  1.0  -0.5975
  O  O569  1  0.022200  0.361800  0.421700  1.0  -0.2974
  O  O570  1  0.084850  0.156100  0.314100  1.0  -0.2852
  O  O571  1  0.143200  0.834300  0.229300  1.0  -0.5945
  O  O572  1  0.156460  0.965600  0.174800  1.0  -0.5973
  O  O573  1  0.165460  0.452000  0.209400  1.0  -0.5617
  O  O574  1  0.132400  0.542300  0.244300  1.0  -0.5525
  O  O575  1  0.430380  0.338800  0.434500  1.0  -0.6242
  O  O576  1  0.395850  0.153300  0.382800  1.0  -0.6019
  O  O577  1  0.623450  0.233800  0.549300  1.0  -0.5952
  O  O578  1  0.583050  0.369100  0.562400  1.0  -0.5975
  O  O579  1  0.522200  0.861800  0.421700  1.0  -0.2974
  O  O580  1  0.584850  0.656100  0.314100  1.0  -0.2852
  O  O581  1  0.643200  0.334300  0.229300  1.0  -0.5945
  O  O582  1  0.656460  0.465600  0.174800  1.0  -0.5973
  O  O583  1  0.665460  0.952000  0.209400  1.0  -0.5617
  O  O584  1  0.632400  0.042300  0.244300  1.0  -0.5525
  O  O585  1  0.930380  0.161200  0.934500  1.0  -0.6236
  O  O586  1  0.895850  0.346700  0.882800  1.0  -0.6015
  O  O587  1  0.123450  0.266200  0.049300  1.0  -0.5951
  O  O588  1  0.083050  0.130900  0.062400  1.0  -0.5983
  O  O589  1  0.022200  0.638200  0.921700  1.0  -0.2973
  O  O590  1  0.084850  0.843900  0.814100  1.0  -0.2849
  O  O591  1  0.143200  0.165700  0.729300  1.0  -0.5932
  O  O592  1  0.156460  0.034400  0.674800  1.0  -0.5973
  O  O593  1  0.165460  0.548000  0.709400  1.0  -0.5614
  O  O594  1  0.132400  0.457700  0.744300  1.0  -0.5553
  O  O595  1  0.430380  0.661200  0.934500  1.0  -0.6236
  O  O596  1  0.395850  0.846700  0.882800  1.0  -0.6015
  O  O597  1  0.623450  0.766200  0.049300  1.0  -0.5951
  O  O598  1  0.583050  0.630900  0.062400  1.0  -0.5983
  O  O599  1  0.522200  0.138200  0.921700  1.0  -0.2973
  O  O600  1  0.584850  0.343900  0.814100  1.0  -0.2849
  O  O601  1  0.643200  0.665700  0.729300  1.0  -0.5932
  O  O602  1  0.656460  0.534400  0.674800  1.0  -0.5973
  O  O603  1  0.665460  0.048000  0.709400  1.0  -0.5614
  O  O604  1  0.632400  0.957700  0.744300  1.0  -0.5553
  O  O605  1  0.069620  0.161200  0.565500  1.0  -0.6225
  O  O606  1  0.104150  0.346700  0.617200  1.0  -0.6021
  O  O607  1  0.876550  0.266200  0.450700  1.0  -0.5939
  O  O608  1  0.916950  0.130900  0.437600  1.0  -0.5994
  O  O609  1  0.977800  0.638200  0.578300  1.0  -0.2968
  O  O610  1  0.915150  0.843900  0.685900  1.0  -0.2846
  O  O611  1  0.856800  0.165700  0.770700  1.0  -0.5935
  O  O612  1  0.843540  0.034400  0.825200  1.0  -0.5958
  O  O613  1  0.834540  0.548000  0.790600  1.0  -0.5603
  O  O614  1  0.867600  0.457700  0.755700  1.0  -0.5507
  O  O615  1  0.569620  0.661200  0.565500  1.0  -0.6225
  O  O616  1  0.604150  0.846700  0.617200  1.0  -0.6021
  O  O617  1  0.376550  0.766200  0.450700  1.0  -0.5939
  O  O618  1  0.416950  0.630900  0.437600  1.0  -0.5994
  O  O619  1  0.477800  0.138200  0.578300  1.0  -0.2968
  O  O620  1  0.415150  0.343900  0.685900  1.0  -0.2846
  O  O621  1  0.356800  0.665700  0.770700  1.0  -0.5935
  O  O622  1  0.343540  0.534400  0.825200  1.0  -0.5958
  O  O623  1  0.334540  0.048000  0.790600  1.0  -0.5603
  O  O624  1  0.367600  0.957700  0.755700  1.0  -0.5507
