# generated using pymatgen
data_ZnH12C18N3O5
_symmetry_space_group_name_H-M   'P 1'
_cell_length_a   30.89200000
_cell_length_b   14.75100000
_cell_length_c   19.08000000
_cell_angle_alpha   90.00000000
_cell_angle_beta   111.55200000
_cell_angle_gamma   90.00000000
_symmetry_Int_Tables_number   1
_chemical_formula_structural   ZnH12C18N3O5
_chemical_formula_sum   'Zn16 H192 C288 N48 O80'
_cell_volume   8086.64343010
_cell_formula_units_Z   16
loop_
 _symmetry_equiv_pos_site_id
 _symmetry_equiv_pos_as_xyz
  1  'x, y, z'
loop_
 _atom_site_type_symbol
 _atom_site_label
 _atom_site_symmetry_multiplicity
 _atom_site_fract_x
 _atom_site_fract_y
 _atom_site_fract_z
 _atom_site_occupancy
 _atom_site_charge
  Zn  Zn1  1  0.458160  0.419750  0.143930  1.0  1.0634
  Zn  Zn2  1  0.995480  0.735490  0.513630  1.0  0.8709
  Zn  Zn3  1  0.958160  0.919750  0.143930  1.0  1.0634
  Zn  Zn4  1  0.495480  0.235490  0.513630  1.0  0.8709
  Zn  Zn5  1  0.541840  0.419750  0.356070  1.0  1.0635
  Zn  Zn6  1  0.004520  0.735490  0.986370  1.0  0.8719
  Zn  Zn7  1  0.041840  0.919750  0.356070  1.0  1.0635
  Zn  Zn8  1  0.504520  0.235490  0.986370  1.0  0.8719
  Zn  Zn9  1  0.541840  0.580250  0.856070  1.0  1.0628
  Zn  Zn10  1  0.004520  0.264510  0.486370  1.0  0.8723
  Zn  Zn11  1  0.041840  0.080250  0.856070  1.0  1.0631
  Zn  Zn12  1  0.504520  0.764510  0.486370  1.0  0.8723
  Zn  Zn13  1  0.458160  0.580250  0.643930  1.0  1.0634
  Zn  Zn14  1  0.995480  0.264510  0.013630  1.0  0.8707
  Zn  Zn15  1  0.958160  0.080250  0.643930  1.0  1.0639
  Zn  Zn16  1  0.495480  0.764510  0.013630  1.0  0.8707
  H  H17  1  0.343400  0.467100  0.213900  1.0  0.1175
  H  H18  1  0.315400  0.534700  0.397700  1.0  0.1108
  H  H19  1  0.446800  0.489600  0.415100  1.0  0.0931
  H  H20  1  0.267700  0.427500  0.172600  1.0  0.083
  H  H21  1  0.269000  0.532000  0.156700  1.0  0.081
  H  H22  1  0.198700  0.513000  0.045900  1.0  0.1176
  H  H23  1  0.118800  0.513400  0.995500  1.0  0.07
  H  H24  1  0.076600  0.492200  0.067000  1.0  0.1057
  H  H25  1  0.195100  0.473400  0.248700  1.0  0.0925
  H  H26  1  0.074700  0.419200  0.192900  1.0  0.0664
  H  H27  1  0.122000  0.416400  0.263000  1.0  0.081
  H  H28  1  0.061500  0.398700  0.306100  1.0  0.101
  H  H29  1  0.010500  0.564900  0.425000  1.0  0.0856
  H  H30  1  0.070700  0.667100  0.286500  1.0  0.1037
  H  H31  1  0.052400  0.788700  0.670300  1.0  0.0992
  H  H32  1  0.125300  0.801300  0.756400  1.0  0.08
  H  H33  1  0.176800  0.727300  0.603400  1.0  0.1206
  H  H34  1  0.100300  0.721200  0.515400  1.0  0.0617
  H  H35  1  0.344900  0.800400  0.781700  1.0  0.1558
  H  H36  1  0.424800  0.800700  0.850600  1.0  0.0623
  H  H37  1  0.403000  0.721700  0.023200  1.0  0.0504
  H  H38  1  0.326200  0.711200  0.958000  1.0  0.1075
  H  H39  1  0.287700  0.796400  0.700300  1.0  0.3947
  H  H40  1  0.237900  0.788500  0.649800  1.0  0.3859
  H  H41  1  0.843400  0.967100  0.213900  1.0  0.1175
  H  H42  1  0.815400  0.034700  0.397700  1.0  0.1108
  H  H43  1  0.946800  0.989600  0.415100  1.0  0.0931
  H  H44  1  0.767700  0.927500  0.172600  1.0  0.083
  H  H45  1  0.769000  0.032000  0.156700  1.0  0.081
  H  H46  1  0.698700  0.013000  0.045900  1.0  0.1176
  H  H47  1  0.618800  0.013400  0.995500  1.0  0.07
  H  H48  1  0.576600  0.992200  0.067000  1.0  0.1057
  H  H49  1  0.695100  0.973400  0.248700  1.0  0.0925
  H  H50  1  0.574700  0.919200  0.192900  1.0  0.0664
  H  H51  1  0.622000  0.916400  0.263000  1.0  0.081
  H  H52  1  0.561500  0.898700  0.306100  1.0  0.101
  H  H53  1  0.510500  0.064900  0.425000  1.0  0.0856
  H  H54  1  0.570700  0.167100  0.286500  1.0  0.1037
  H  H55  1  0.552400  0.288700  0.670300  1.0  0.0992
  H  H56  1  0.625300  0.301300  0.756400  1.0  0.08
  H  H57  1  0.676800  0.227300  0.603400  1.0  0.1206
  H  H58  1  0.600300  0.221200  0.515400  1.0  0.0617
  H  H59  1  0.844900  0.300400  0.781700  1.0  0.1558
  H  H60  1  0.924800  0.300700  0.850600  1.0  0.0623
  H  H61  1  0.903000  0.221700  0.023200  1.0  0.0504
  H  H62  1  0.826200  0.211200  0.958000  1.0  0.1075
  H  H63  1  0.787700  0.296400  0.700300  1.0  0.3947
  H  H64  1  0.737900  0.288500  0.649800  1.0  0.3859
  H  H65  1  0.656600  0.467100  0.286100  1.0  0.1179
  H  H66  1  0.684600  0.534700  0.102300  1.0  0.1112
  H  H67  1  0.553200  0.489600  0.084900  1.0  0.093
  H  H68  1  0.732300  0.427500  0.327400  1.0  0.084
  H  H69  1  0.731000  0.532000  0.343300  1.0  0.0821
  H  H70  1  0.801300  0.513000  0.454100  1.0  0.1168
  H  H71  1  0.881200  0.513400  0.504500  1.0  0.0714
  H  H72  1  0.923400  0.492200  0.433000  1.0  0.1073
  H  H73  1  0.804900  0.473400  0.251300  1.0  0.0934
  H  H74  1  0.925300  0.419200  0.307100  1.0  0.0655
  H  H75  1  0.878000  0.416400  0.237000  1.0  0.0798
  H  H76  1  0.938500  0.398700  0.193900  1.0  0.0999
  H  H77  1  0.989500  0.564900  0.075000  1.0  0.0854
  H  H78  1  0.929300  0.667100  0.213500  1.0  0.104
  H  H79  1  0.947600  0.788700  0.829700  1.0  0.0997
  H  H80  1  0.874700  0.801300  0.743600  1.0  0.0802
  H  H81  1  0.823200  0.727300  0.896600  1.0  0.1193
  H  H82  1  0.899700  0.721200  0.984600  1.0  0.0607
  H  H83  1  0.655100  0.800400  0.718300  1.0  0.156
  H  H84  1  0.575200  0.800700  0.649400  1.0  0.0619
  H  H85  1  0.597000  0.721700  0.476800  1.0  0.0516
  H  H86  1  0.673800  0.711200  0.542000  1.0  0.108
  H  H87  1  0.712300  0.796400  0.799700  1.0  0.3916
  H  H88  1  0.762100  0.788500  0.850200  1.0  0.3855
  H  H89  1  0.156600  0.967100  0.286100  1.0  0.1179
  H  H90  1  0.184600  0.034700  0.102300  1.0  0.1112
  H  H91  1  0.053200  0.989600  0.084900  1.0  0.093
  H  H92  1  0.232300  0.927500  0.327400  1.0  0.084
  H  H93  1  0.231000  0.032000  0.343300  1.0  0.0821
  H  H94  1  0.301300  0.013000  0.454100  1.0  0.1168
  H  H95  1  0.381200  0.013400  0.504500  1.0  0.0714
  H  H96  1  0.423400  0.992200  0.433000  1.0  0.1073
  H  H97  1  0.304900  0.973400  0.251300  1.0  0.0934
  H  H98  1  0.425300  0.919200  0.307100  1.0  0.0655
  H  H99  1  0.378000  0.916400  0.237000  1.0  0.0798
  H  H100  1  0.438500  0.898700  0.193900  1.0  0.0999
  H  H101  1  0.489500  0.064900  0.075000  1.0  0.0854
  H  H102  1  0.429300  0.167100  0.213500  1.0  0.104
  H  H103  1  0.447600  0.288700  0.829700  1.0  0.0997
  H  H104  1  0.374700  0.301300  0.743600  1.0  0.0802
  H  H105  1  0.323200  0.227300  0.896600  1.0  0.1193
  H  H106  1  0.399700  0.221200  0.984600  1.0  0.0607
  H  H107  1  0.155100  0.300400  0.718300  1.0  0.156
  H  H108  1  0.075200  0.300700  0.649400  1.0  0.0619
  H  H109  1  0.097000  0.221700  0.476800  1.0  0.0516
  H  H110  1  0.173800  0.211200  0.542000  1.0  0.108
  H  H111  1  0.212300  0.296400  0.799700  1.0  0.3916
  H  H112  1  0.262100  0.288500  0.850200  1.0  0.3855
  H  H113  1  0.656600  0.532900  0.786100  1.0  0.1172
  H  H114  1  0.684600  0.465300  0.602300  1.0  0.111
  H  H115  1  0.553200  0.510400  0.584900  1.0  0.093
  H  H116  1  0.732300  0.572500  0.827400  1.0  0.0837
  H  H117  1  0.731000  0.468000  0.843300  1.0  0.0831
  H  H118  1  0.801300  0.487000  0.954100  1.0  0.1168
  H  H119  1  0.881200  0.486600  0.004500  1.0  0.0715
  H  H120  1  0.923400  0.507800  0.933000  1.0  0.1072
  H  H121  1  0.804900  0.526600  0.751300  1.0  0.0933
  H  H122  1  0.925300  0.580800  0.807100  1.0  0.0656
  H  H123  1  0.878000  0.583600  0.737000  1.0  0.0801
  H  H124  1  0.938500  0.601300  0.693900  1.0  0.0999
  H  H125  1  0.989500  0.435100  0.575000  1.0  0.0851
  H  H126  1  0.929300  0.332900  0.713500  1.0  0.1041
  H  H127  1  0.947600  0.211300  0.329700  1.0  0.0993
  H  H128  1  0.874700  0.198700  0.243600  1.0  0.0798
  H  H129  1  0.823200  0.272700  0.396600  1.0  0.119
  H  H130  1  0.899700  0.278800  0.484600  1.0  0.061
  H  H131  1  0.655100  0.199600  0.218300  1.0  0.1564
  H  H132  1  0.575200  0.199300  0.149400  1.0  0.0614
  H  H133  1  0.597000  0.278300  0.976800  1.0  0.0523
  H  H134  1  0.673800  0.288800  0.042000  1.0  0.1079
  H  H135  1  0.712300  0.203600  0.299700  1.0  0.3915
  H  H136  1  0.762100  0.211500  0.350200  1.0  0.3859
  H  H137  1  0.156600  0.032900  0.786100  1.0  0.1172
  H  H138  1  0.184600  0.965300  0.602300  1.0  0.111
  H  H139  1  0.053200  0.010400  0.584900  1.0  0.093
  H  H140  1  0.232300  0.072500  0.827400  1.0  0.0837
  H  H141  1  0.231000  0.968000  0.843300  1.0  0.0831
  H  H142  1  0.301300  0.987000  0.954100  1.0  0.1168
  H  H143  1  0.381200  0.986600  0.004500  1.0  0.0715
  H  H144  1  0.423400  0.007800  0.933000  1.0  0.1072
  H  H145  1  0.304900  0.026600  0.751300  1.0  0.0933
  H  H146  1  0.425300  0.080800  0.807100  1.0  0.0656
  H  H147  1  0.378000  0.083600  0.737000  1.0  0.0801
  H  H148  1  0.438500  0.101300  0.693900  1.0  0.0999
  H  H149  1  0.489500  0.935100  0.575000  1.0  0.0851
  H  H150  1  0.429300  0.832900  0.713500  1.0  0.1041
  H  H151  1  0.447600  0.711300  0.329700  1.0  0.0993
  H  H152  1  0.374700  0.698700  0.243600  1.0  0.0798
  H  H153  1  0.323200  0.772700  0.396600  1.0  0.119
  H  H154  1  0.399700  0.778800  0.484600  1.0  0.061
  H  H155  1  0.155100  0.699600  0.218300  1.0  0.1564
  H  H156  1  0.075200  0.699300  0.149400  1.0  0.0614
  H  H157  1  0.097000  0.778300  0.976800  1.0  0.0523
  H  H158  1  0.173800  0.788800  0.042000  1.0  0.1079
  H  H159  1  0.212300  0.703600  0.299700  1.0  0.3915
  H  H160  1  0.262100  0.711500  0.350200  1.0  0.3859
  H  H161  1  0.343400  0.532900  0.713900  1.0  0.1176
  H  H162  1  0.315400  0.465300  0.897700  1.0  0.1107
  H  H163  1  0.446800  0.510400  0.915100  1.0  0.093
  H  H164  1  0.267700  0.572500  0.672600  1.0  0.0836
  H  H165  1  0.269000  0.468000  0.656700  1.0  0.0813
  H  H166  1  0.198700  0.487000  0.545900  1.0  0.1175
  H  H167  1  0.118800  0.486600  0.495500  1.0  0.0701
  H  H168  1  0.076600  0.507800  0.567000  1.0  0.1054
  H  H169  1  0.195100  0.526600  0.748700  1.0  0.0922
  H  H170  1  0.074700  0.580800  0.692900  1.0  0.067
  H  H171  1  0.122000  0.583600  0.763000  1.0  0.0802
  H  H172  1  0.061500  0.601300  0.806100  1.0  0.0997
  H  H173  1  0.010500  0.435100  0.925000  1.0  0.0856
  H  H174  1  0.070700  0.332900  0.786500  1.0  0.1036
  H  H175  1  0.052400  0.211300  0.170300  1.0  0.0992
  H  H176  1  0.125300  0.198700  0.256400  1.0  0.0801
  H  H177  1  0.176800  0.272700  0.103400  1.0  0.1208
  H  H178  1  0.100300  0.278800  0.015400  1.0  0.0616
  H  H179  1  0.344900  0.199600  0.281700  1.0  0.1559
  H  H180  1  0.424800  0.199300  0.350600  1.0  0.0623
  H  H181  1  0.403000  0.278300  0.523200  1.0  0.0505
  H  H182  1  0.326200  0.288800  0.458000  1.0  0.1071
  H  H183  1  0.287700  0.203600  0.200300  1.0  0.3947
  H  H184  1  0.237900  0.211500  0.149800  1.0  0.3857
  H  H185  1  0.843400  0.032900  0.713900  1.0  0.1176
  H  H186  1  0.815400  0.965300  0.897700  1.0  0.1107
  H  H187  1  0.946800  0.010400  0.915100  1.0  0.093
  H  H188  1  0.767700  0.072500  0.672600  1.0  0.0836
  H  H189  1  0.769000  0.968000  0.656700  1.0  0.0813
  H  H190  1  0.698700  0.987000  0.545900  1.0  0.1175
  H  H191  1  0.618800  0.986600  0.495500  1.0  0.0701
  H  H192  1  0.576600  0.007800  0.567000  1.0  0.1054
  H  H193  1  0.695100  0.026600  0.748700  1.0  0.0922
  H  H194  1  0.574700  0.080800  0.692900  1.0  0.067
  H  H195  1  0.622000  0.083600  0.763000  1.0  0.0802
  H  H196  1  0.561500  0.101300  0.806100  1.0  0.0997
  H  H197  1  0.510500  0.935100  0.925000  1.0  0.0856
  H  H198  1  0.570700  0.832900  0.786500  1.0  0.1036
  H  H199  1  0.552400  0.711300  0.170300  1.0  0.0992
  H  H200  1  0.625300  0.698700  0.256400  1.0  0.0801
  H  H201  1  0.676800  0.772700  0.103400  1.0  0.1208
  H  H202  1  0.600300  0.778800  0.015400  1.0  0.0616
  H  H203  1  0.844900  0.699600  0.281700  1.0  0.1559
  H  H204  1  0.924800  0.699300  0.350600  1.0  0.0623
  H  H205  1  0.903000  0.778300  0.523200  1.0  0.0505
  H  H206  1  0.826200  0.788800  0.458000  1.0  0.1071
  H  H207  1  0.787700  0.703600  0.200300  1.0  0.3947
  H  H208  1  0.737900  0.711500  0.149800  1.0  0.3857
  C  C209  1  0.435600  0.455700  0.275100  1.0  0.7261
  C  C210  1  0.400400  0.474900  0.309800  1.0  -0.1553
  C  C211  1  0.353500  0.478500  0.265300  1.0  -0.2071
  C  C212  1  0.321900  0.499400  0.299100  1.0  0.2385
  C  C213  1  0.337000  0.519400  0.376200  1.0  -0.1067
  C  C214  1  0.383500  0.516400  0.420300  1.0  -0.1672
  C  C215  1  0.399400  0.541900  0.501900  1.0  0.6571
  C  C216  1  0.415200  0.493000  0.385900  1.0  0.0008
  C  C217  1  0.257300  0.486700  0.182100  1.0  0.0686
  C  C218  1  0.205400  0.489700  0.153400  1.0  0.0787
  C  C219  1  0.182000  0.503700  0.077100  1.0  -0.154
  C  C220  1  0.133900  0.503900  0.046900  1.0  -0.1042
  C  C221  1  0.108900  0.491300  0.088500  1.0  -0.0992
  C  C222  1  0.131400  0.476600  0.165300  1.0  -0.0643
  C  C223  1  0.180100  0.479100  0.196800  1.0  -0.1042
  C  C224  1  0.102900  0.452500  0.220200  1.0  0.0432
  C  C225  1  0.070600  0.532000  0.290100  1.0  0.2601
  C  C226  1  0.056300  0.456900  0.320000  1.0  -0.1984
  C  C227  1  0.033700  0.469900  0.371800  1.0  -0.1742
  C  C228  1  0.020800  0.390300  0.407100  1.0  0.6354
  C  C229  1  0.025300  0.556400  0.391000  1.0  -0.0156
  C  C230  1  0.039200  0.631500  0.359300  1.0  -0.1565
  C  C231  1  0.031300  0.726200  0.377800  1.0  0.6428
  C  C232  1  0.061700  0.617600  0.308100  1.0  -0.1386
  C  C233  1  0.077400  0.775100  0.655900  1.0  0.1361
  C  C234  1  0.121300  0.781400  0.708200  1.0  -0.1635
  C  C235  1  0.157900  0.760700  0.693300  1.0  0.0469
  C  C236  1  0.151700  0.738700  0.617800  1.0  -0.1839
  C  C237  1  0.105100  0.734900  0.565300  1.0  0.1776
  C  C238  1  0.202600  0.760200  0.759000  1.0  0.3428
  C  C239  1  0.274600  0.754100  0.830100  1.0  0.3833
  C  C240  1  0.328300  0.755400  0.865300  1.0  0.2128
  C  C241  1  0.356500  0.782100  0.831800  1.0  -0.2
  C  C242  1  0.404800  0.782200  0.874200  1.0  0.1394
  C  C243  1  0.392400  0.736000  0.972200  1.0  0.1977
  C  C244  1  0.345500  0.731600  0.933800  1.0  -0.1736
  C  C245  1  0.935600  0.955700  0.275100  1.0  0.7261
  C  C246  1  0.900400  0.974900  0.309800  1.0  -0.1553
  C  C247  1  0.853500  0.978500  0.265300  1.0  -0.2071
  C  C248  1  0.821900  0.999400  0.299100  1.0  0.2385
  C  C249  1  0.837000  0.019400  0.376200  1.0  -0.1067
  C  C250  1  0.883500  0.016400  0.420300  1.0  -0.1672
  C  C251  1  0.899400  0.041900  0.501900  1.0  0.6571
  C  C252  1  0.915200  0.993000  0.385900  1.0  0.0008
  C  C253  1  0.757300  0.986700  0.182100  1.0  0.0686
  C  C254  1  0.705400  0.989700  0.153400  1.0  0.0787
  C  C255  1  0.682000  0.003700  0.077100  1.0  -0.154
  C  C256  1  0.633900  0.003900  0.046900  1.0  -0.1042
  C  C257  1  0.608900  0.991300  0.088500  1.0  -0.0992
  C  C258  1  0.631400  0.976600  0.165300  1.0  -0.0643
  C  C259  1  0.680100  0.979100  0.196800  1.0  -0.1042
  C  C260  1  0.602900  0.952500  0.220200  1.0  0.0432
  C  C261  1  0.570600  0.032000  0.290100  1.0  0.2601
  C  C262  1  0.556300  0.956900  0.320000  1.0  -0.1984
  C  C263  1  0.533700  0.969900  0.371800  1.0  -0.1742
  C  C264  1  0.520800  0.890300  0.407100  1.0  0.6354
  C  C265  1  0.525300  0.056400  0.391000  1.0  -0.0156
  C  C266  1  0.539200  0.131500  0.359300  1.0  -0.1565
  C  C267  1  0.531300  0.226200  0.377800  1.0  0.6428
  C  C268  1  0.561700  0.117600  0.308100  1.0  -0.1386
  C  C269  1  0.577400  0.275100  0.655900  1.0  0.1361
  C  C270  1  0.621300  0.281400  0.708200  1.0  -0.1635
  C  C271  1  0.657900  0.260700  0.693300  1.0  0.0469
  C  C272  1  0.651700  0.238700  0.617800  1.0  -0.1839
  C  C273  1  0.605100  0.234900  0.565300  1.0  0.1776
  C  C274  1  0.702600  0.260200  0.759000  1.0  0.3428
  C  C275  1  0.774600  0.254100  0.830100  1.0  0.3833
  C  C276  1  0.828300  0.255400  0.865300  1.0  0.2128
  C  C277  1  0.856500  0.282100  0.831800  1.0  -0.2
  C  C278  1  0.904800  0.282200  0.874200  1.0  0.1394
  C  C279  1  0.892400  0.236000  0.972200  1.0  0.1977
  C  C280  1  0.845500  0.231600  0.933800  1.0  -0.1736
  C  C281  1  0.564400  0.455700  0.224900  1.0  0.7253
  C  C282  1  0.599600  0.474900  0.190200  1.0  -0.1552
  C  C283  1  0.646500  0.478500  0.234700  1.0  -0.2094
  C  C284  1  0.678100  0.499400  0.200900  1.0  0.2392
  C  C285  1  0.663000  0.519400  0.123800  1.0  -0.1064
  C  C286  1  0.616500  0.516400  0.079700  1.0  -0.1672
  C  C287  1  0.600600  0.541900  0.998100  1.0  0.6554
  C  C288  1  0.584800  0.493000  0.114100  1.0  -0.001
  C  C289  1  0.742700  0.486700  0.317900  1.0  0.0683
  C  C290  1  0.794600  0.489700  0.346600  1.0  0.0795
  C  C291  1  0.818000  0.503700  0.422900  1.0  -0.1562
  C  C292  1  0.866100  0.503900  0.453100  1.0  -0.1023
  C  C293  1  0.891100  0.491300  0.411500  1.0  -0.0971
  C  C294  1  0.868600  0.476600  0.334700  1.0  -0.0658
  C  C295  1  0.819900  0.479100  0.303200  1.0  -0.1059
  C  C296  1  0.897100  0.452500  0.279800  1.0  0.0411
  C  C297  1  0.929400  0.532000  0.209900  1.0  0.2613
  C  C298  1  0.943700  0.456900  0.180000  1.0  -0.2004
  C  C299  1  0.966300  0.469900  0.128200  1.0  -0.1738
  C  C300  1  0.979200  0.390300  0.092900  1.0  0.6355
  C  C301  1  0.974700  0.556400  0.109000  1.0  -0.0165
  C  C302  1  0.960800  0.631500  0.140700  1.0  -0.1568
  C  C303  1  0.968700  0.726200  0.122200  1.0  0.6419
  C  C304  1  0.938300  0.617600  0.191900  1.0  -0.1378
  C  C305  1  0.922600  0.775100  0.844100  1.0  0.1363
  C  C306  1  0.878700  0.781400  0.791800  1.0  -0.1664
  C  C307  1  0.842100  0.760700  0.806700  1.0  0.046
  C  C308  1  0.848300  0.738700  0.882200  1.0  -0.1822
  C  C309  1  0.894900  0.734900  0.934700  1.0  0.1778
  C  C310  1  0.797400  0.760200  0.741000  1.0  0.3424
  C  C311  1  0.725400  0.754100  0.669900  1.0  0.3807
  C  C312  1  0.671700  0.755400  0.634700  1.0  0.2103
  C  C313  1  0.643500  0.782100  0.668200  1.0  -0.1985
  C  C314  1  0.595200  0.782200  0.625800  1.0  0.1401
  C  C315  1  0.607600  0.736000  0.527800  1.0  0.197
  C  C316  1  0.654500  0.731600  0.566200  1.0  -0.1682
  C  C317  1  0.064400  0.955700  0.224900  1.0  0.7253
  C  C318  1  0.099600  0.974900  0.190200  1.0  -0.1552
  C  C319  1  0.146500  0.978500  0.234700  1.0  -0.2094
  C  C320  1  0.178100  0.999400  0.200900  1.0  0.2392
  C  C321  1  0.163000  0.019400  0.123800  1.0  -0.1064
  C  C322  1  0.116500  0.016400  0.079700  1.0  -0.1672
  C  C323  1  0.100600  0.041900  0.998100  1.0  0.6554
  C  C324  1  0.084800  0.993000  0.114100  1.0  -0.001
  C  C325  1  0.242700  0.986700  0.317900  1.0  0.0683
  C  C326  1  0.294600  0.989700  0.346600  1.0  0.0795
  C  C327  1  0.318000  0.003700  0.422900  1.0  -0.1562
  C  C328  1  0.366100  0.003900  0.453100  1.0  -0.1023
  C  C329  1  0.391100  0.991300  0.411500  1.0  -0.0971
  C  C330  1  0.368600  0.976600  0.334700  1.0  -0.0658
  C  C331  1  0.319900  0.979100  0.303200  1.0  -0.1059
  C  C332  1  0.397100  0.952500  0.279800  1.0  0.0411
  C  C333  1  0.429400  0.032000  0.209900  1.0  0.2613
  C  C334  1  0.443700  0.956900  0.180000  1.0  -0.2004
  C  C335  1  0.466300  0.969900  0.128200  1.0  -0.1738
  C  C336  1  0.479200  0.890300  0.092900  1.0  0.6355
  C  C337  1  0.474700  0.056400  0.109000  1.0  -0.0165
  C  C338  1  0.460800  0.131500  0.140700  1.0  -0.1568
  C  C339  1  0.468700  0.226200  0.122200  1.0  0.6419
  C  C340  1  0.438300  0.117600  0.191900  1.0  -0.1378
  C  C341  1  0.422600  0.275100  0.844100  1.0  0.1363
  C  C342  1  0.378700  0.281400  0.791800  1.0  -0.1664
  C  C343  1  0.342100  0.260700  0.806700  1.0  0.046
  C  C344  1  0.348300  0.238700  0.882200  1.0  -0.1822
  C  C345  1  0.394900  0.234900  0.934700  1.0  0.1778
  C  C346  1  0.297400  0.260200  0.741000  1.0  0.3424
  C  C347  1  0.225400  0.254100  0.669900  1.0  0.3807
  C  C348  1  0.171700  0.255400  0.634700  1.0  0.2103
  C  C349  1  0.143500  0.282100  0.668200  1.0  -0.1985
  C  C350  1  0.095200  0.282200  0.625800  1.0  0.1401
  C  C351  1  0.107600  0.236000  0.527800  1.0  0.197
  C  C352  1  0.154500  0.231600  0.566200  1.0  -0.1682
  C  C353  1  0.564400  0.544300  0.724900  1.0  0.7259
  C  C354  1  0.599600  0.525100  0.690200  1.0  -0.155
  C  C355  1  0.646500  0.521500  0.734700  1.0  -0.2098
  C  C356  1  0.678100  0.500600  0.700900  1.0  0.2391
  C  C357  1  0.663000  0.480600  0.623800  1.0  -0.1061
  C  C358  1  0.616500  0.483600  0.579700  1.0  -0.1668
  C  C359  1  0.600600  0.458100  0.498100  1.0  0.656
  C  C360  1  0.584800  0.507000  0.614100  1.0  -0.0008
  C  C361  1  0.742700  0.513300  0.817900  1.0  0.0683
  C  C362  1  0.794600  0.510300  0.846600  1.0  0.0796
  C  C363  1  0.818000  0.496300  0.922900  1.0  -0.156
  C  C364  1  0.866100  0.496100  0.953100  1.0  -0.1025
  C  C365  1  0.891100  0.508700  0.911500  1.0  -0.0969
  C  C366  1  0.868600  0.523400  0.834700  1.0  -0.0663
  C  C367  1  0.819900  0.520900  0.803200  1.0  -0.1059
  C  C368  1  0.897100  0.547500  0.779800  1.0  0.0421
  C  C369  1  0.929400  0.468000  0.709900  1.0  0.2608
  C  C370  1  0.943700  0.543100  0.680000  1.0  -0.202
  C  C371  1  0.966300  0.530100  0.628200  1.0  -0.1733
  C  C372  1  0.979200  0.609700  0.592900  1.0  0.6357
  C  C373  1  0.974700  0.443600  0.609000  1.0  -0.0163
  C  C374  1  0.960800  0.368500  0.640700  1.0  -0.1562
  C  C375  1  0.968700  0.273800  0.622200  1.0  0.6387
  C  C376  1  0.938300  0.382400  0.691900  1.0  -0.1375
  C  C377  1  0.922600  0.224900  0.344100  1.0  0.1361
  C  C378  1  0.878700  0.218600  0.291800  1.0  -0.165
  C  C379  1  0.842100  0.239300  0.306700  1.0  0.0459
  C  C380  1  0.848300  0.261300  0.382200  1.0  -0.1821
  C  C381  1  0.894900  0.265100  0.434700  1.0  0.1778
  C  C382  1  0.797400  0.239800  0.241000  1.0  0.3422
  C  C383  1  0.725400  0.245900  0.169900  1.0  0.3807
  C  C384  1  0.671700  0.244600  0.134700  1.0  0.2097
  C  C385  1  0.643500  0.217900  0.168200  1.0  -0.1991
  C  C386  1  0.595200  0.217800  0.125800  1.0  0.1404
  C  C387  1  0.607600  0.264000  0.027800  1.0  0.1976
  C  C388  1  0.654500  0.268400  0.066200  1.0  -0.1687
  C  C389  1  0.064400  0.044300  0.724900  1.0  0.7259
  C  C390  1  0.099600  0.025100  0.690200  1.0  -0.155
  C  C391  1  0.146500  0.021500  0.734700  1.0  -0.2098
  C  C392  1  0.178100  0.000600  0.700900  1.0  0.2391
  C  C393  1  0.163000  0.980600  0.623800  1.0  -0.1061
  C  C394  1  0.116500  0.983600  0.579700  1.0  -0.1668
  C  C395  1  0.100600  0.958100  0.498100  1.0  0.656
  C  C396  1  0.084800  0.007000  0.614100  1.0  -0.0008
  C  C397  1  0.242700  0.013300  0.817900  1.0  0.0683
  C  C398  1  0.294600  0.010300  0.846600  1.0  0.0796
  C  C399  1  0.318000  0.996300  0.922900  1.0  -0.156
  C  C400  1  0.366100  0.996100  0.953100  1.0  -0.1025
  C  C401  1  0.391100  0.008700  0.911500  1.0  -0.0969
  C  C402  1  0.368600  0.023400  0.834700  1.0  -0.0663
  C  C403  1  0.319900  0.020900  0.803200  1.0  -0.1059
  C  C404  1  0.397100  0.047500  0.779800  1.0  0.0421
  C  C405  1  0.429400  0.968000  0.709900  1.0  0.2608
  C  C406  1  0.443700  0.043100  0.680000  1.0  -0.202
  C  C407  1  0.466300  0.030100  0.628200  1.0  -0.1733
  C  C408  1  0.479200  0.109700  0.592900  1.0  0.6357
  C  C409  1  0.474700  0.943600  0.609000  1.0  -0.0163
  C  C410  1  0.460800  0.868500  0.640700  1.0  -0.1562
  C  C411  1  0.468700  0.773800  0.622200  1.0  0.6387
  C  C412  1  0.438300  0.882400  0.691900  1.0  -0.1375
  C  C413  1  0.422600  0.724900  0.344100  1.0  0.1361
  C  C414  1  0.378700  0.718600  0.291800  1.0  -0.165
  C  C415  1  0.342100  0.739300  0.306700  1.0  0.0459
  C  C416  1  0.348300  0.761300  0.382200  1.0  -0.1821
  C  C417  1  0.394900  0.765100  0.434700  1.0  0.1778
  C  C418  1  0.297400  0.739800  0.241000  1.0  0.3422
  C  C419  1  0.225400  0.745900  0.169900  1.0  0.3807
  C  C420  1  0.171700  0.744600  0.134700  1.0  0.2097
  C  C421  1  0.143500  0.717900  0.168200  1.0  -0.1991
  C  C422  1  0.095200  0.717800  0.125800  1.0  0.1404
  C  C423  1  0.107600  0.764000  0.027800  1.0  0.1976
  C  C424  1  0.154500  0.768400  0.066200  1.0  -0.1687
  C  C425  1  0.435600  0.544300  0.775100  1.0  0.7262
  C  C426  1  0.400400  0.525100  0.809800  1.0  -0.1545
  C  C427  1  0.353500  0.521500  0.765300  1.0  -0.2084
  C  C428  1  0.321900  0.500600  0.799100  1.0  0.2381
  C  C429  1  0.337000  0.480600  0.876200  1.0  -0.1063
  C  C430  1  0.383500  0.483600  0.920300  1.0  -0.1668
  C  C431  1  0.399400  0.458100  0.001900  1.0  0.657
  C  C432  1  0.415200  0.507000  0.885900  1.0  0.0005
  C  C433  1  0.257300  0.513300  0.682100  1.0  0.0681
  C  C434  1  0.205400  0.510300  0.653400  1.0  0.0786
  C  C435  1  0.182000  0.496300  0.577100  1.0  -0.1538
  C  C436  1  0.133900  0.496100  0.546900  1.0  -0.1042
  C  C437  1  0.108900  0.508700  0.588500  1.0  -0.0993
  C  C438  1  0.131400  0.523400  0.665300  1.0  -0.0647
  C  C439  1  0.180100  0.520900  0.696800  1.0  -0.1041
  C  C440  1  0.102900  0.547500  0.720200  1.0  0.0438
  C  C441  1  0.070600  0.468000  0.790100  1.0  0.2601
  C  C442  1  0.056300  0.543100  0.820000  1.0  -0.2004
  C  C443  1  0.033700  0.530100  0.871800  1.0  -0.1737
  C  C444  1  0.020800  0.609700  0.907100  1.0  0.635
  C  C445  1  0.025300  0.443600  0.891000  1.0  -0.0151
  C  C446  1  0.039200  0.368500  0.859300  1.0  -0.1558
  C  C447  1  0.031300  0.273800  0.877800  1.0  0.6403
  C  C448  1  0.061700  0.382400  0.808100  1.0  -0.1386
  C  C449  1  0.077400  0.224900  0.155900  1.0  0.1365
  C  C450  1  0.121300  0.218600  0.208200  1.0  -0.1625
  C  C451  1  0.157900  0.239300  0.193300  1.0  0.0466
  C  C452  1  0.151700  0.261300  0.117800  1.0  -0.1842
  C  C453  1  0.105100  0.265100  0.065300  1.0  0.1771
  C  C454  1  0.202600  0.239800  0.259000  1.0  0.3431
  C  C455  1  0.274600  0.245900  0.330100  1.0  0.3834
  C  C456  1  0.328300  0.244600  0.365300  1.0  0.2139
  C  C457  1  0.356500  0.217900  0.331800  1.0  -0.2003
  C  C458  1  0.404800  0.217800  0.374200  1.0  0.1399
  C  C459  1  0.392400  0.264000  0.472200  1.0  0.1974
  C  C460  1  0.345500  0.268400  0.433800  1.0  -0.1736
  C  C461  1  0.935600  0.044300  0.775100  1.0  0.7262
  C  C462  1  0.900400  0.025100  0.809800  1.0  -0.1545
  C  C463  1  0.853500  0.021500  0.765300  1.0  -0.2084
  C  C464  1  0.821900  0.000600  0.799100  1.0  0.2381
  C  C465  1  0.837000  0.980600  0.876200  1.0  -0.1063
  C  C466  1  0.883500  0.983600  0.920300  1.0  -0.1668
  C  C467  1  0.899400  0.958100  0.001900  1.0  0.657
  C  C468  1  0.915200  0.007000  0.885900  1.0  0.0005
  C  C469  1  0.757300  0.013300  0.682100  1.0  0.0681
  C  C470  1  0.705400  0.010300  0.653400  1.0  0.0786
  C  C471  1  0.682000  0.996300  0.577100  1.0  -0.1538
  C  C472  1  0.633900  0.996100  0.546900  1.0  -0.1042
  C  C473  1  0.608900  0.008700  0.588500  1.0  -0.0993
  C  C474  1  0.631400  0.023400  0.665300  1.0  -0.0647
  C  C475  1  0.680100  0.020900  0.696800  1.0  -0.1041
  C  C476  1  0.602900  0.047500  0.720200  1.0  0.0438
  C  C477  1  0.570600  0.968000  0.790100  1.0  0.2601
  C  C478  1  0.556300  0.043100  0.820000  1.0  -0.2004
  C  C479  1  0.533700  0.030100  0.871800  1.0  -0.1737
  C  C480  1  0.520800  0.109700  0.907100  1.0  0.635
  C  C481  1  0.525300  0.943600  0.891000  1.0  -0.0151
  C  C482  1  0.539200  0.868500  0.859300  1.0  -0.1558
  C  C483  1  0.531300  0.773800  0.877800  1.0  0.6403
  C  C484  1  0.561700  0.882400  0.808100  1.0  -0.1386
  C  C485  1  0.577400  0.724900  0.155900  1.0  0.1365
  C  C486  1  0.621300  0.718600  0.208200  1.0  -0.1625
  C  C487  1  0.657900  0.739300  0.193300  1.0  0.0466
  C  C488  1  0.651700  0.761300  0.117800  1.0  -0.1842
  C  C489  1  0.605100  0.765100  0.065300  1.0  0.1771
  C  C490  1  0.702600  0.739800  0.259000  1.0  0.3431
  C  C491  1  0.774600  0.745900  0.330100  1.0  0.3834
  C  C492  1  0.828300  0.744600  0.365300  1.0  0.2139
  C  C493  1  0.856500  0.717900  0.331800  1.0  -0.2003
  C  C494  1  0.904800  0.717800  0.374200  1.0  0.1399
  C  C495  1  0.892400  0.764000  0.472200  1.0  0.1974
  C  C496  1  0.845500  0.768400  0.433800  1.0  -0.1736
  N  N497  1  0.068600  0.749500  0.582900  1.0  -0.3653
  N  N498  1  0.204300  0.747800  0.825400  1.0  -0.2945
  N  N499  1  0.247900  0.741700  0.864200  1.0  -0.2
  N  N500  1  0.246600  0.761300  0.760000  1.0  0.1064
  N  N501  1  0.259200  0.785500  0.694100  1.0  -0.6157
  N  N502  1  0.422900  0.757700  0.945200  1.0  -0.3429
  N  N503  1  0.568600  0.249500  0.582900  1.0  -0.3653
  N  N504  1  0.704300  0.247800  0.825400  1.0  -0.2945
  N  N505  1  0.747900  0.241700  0.864200  1.0  -0.2
  N  N506  1  0.746600  0.261300  0.760000  1.0  0.1064
  N  N507  1  0.759200  0.285500  0.694100  1.0  -0.6157
  N  N508  1  0.922900  0.257700  0.945200  1.0  -0.3429
  N  N509  1  0.931400  0.749500  0.917100  1.0  -0.3659
  N  N510  1  0.795700  0.747800  0.674600  1.0  -0.2916
  N  N511  1  0.752100  0.741700  0.635800  1.0  -0.1995
  N  N512  1  0.753400  0.761300  0.740000  1.0  0.1058
  N  N513  1  0.740800  0.785500  0.805900  1.0  -0.6185
  N  N514  1  0.577100  0.757700  0.554800  1.0  -0.3424
  N  N515  1  0.431400  0.249500  0.917100  1.0  -0.3659
  N  N516  1  0.295700  0.247800  0.674600  1.0  -0.2916
  N  N517  1  0.252100  0.241700  0.635800  1.0  -0.1995
  N  N518  1  0.253400  0.261300  0.740000  1.0  0.1058
  N  N519  1  0.240800  0.285500  0.805900  1.0  -0.6185
  N  N520  1  0.077100  0.257700  0.554800  1.0  -0.3424
  N  N521  1  0.931400  0.250500  0.417100  1.0  -0.3655
  N  N522  1  0.795700  0.252200  0.174600  1.0  -0.2917
  N  N523  1  0.752100  0.258300  0.135800  1.0  -0.1983
  N  N524  1  0.753400  0.238700  0.240000  1.0  0.1059
  N  N525  1  0.740800  0.214500  0.305900  1.0  -0.6187
  N  N526  1  0.577100  0.242300  0.054800  1.0  -0.3412
  N  N527  1  0.431400  0.750500  0.417100  1.0  -0.3655
  N  N528  1  0.295700  0.752200  0.174600  1.0  -0.2917
  N  N529  1  0.252100  0.758300  0.135800  1.0  -0.1983
  N  N530  1  0.253400  0.738700  0.240000  1.0  0.1059
  N  N531  1  0.240800  0.714500  0.305900  1.0  -0.6187
  N  N532  1  0.077100  0.742300  0.054800  1.0  -0.3412
  N  N533  1  0.068600  0.250500  0.082900  1.0  -0.3662
  N  N534  1  0.204300  0.252200  0.325400  1.0  -0.2952
  N  N535  1  0.247900  0.258300  0.364200  1.0  -0.2005
  N  N536  1  0.246600  0.238700  0.260000  1.0  0.1062
  N  N537  1  0.259200  0.214500  0.194100  1.0  -0.6148
  N  N538  1  0.422900  0.242300  0.445200  1.0  -0.3427
  N  N539  1  0.568600  0.750500  0.082900  1.0  -0.3662
  N  N540  1  0.704300  0.752200  0.325400  1.0  -0.2952
  N  N541  1  0.747900  0.758300  0.364200  1.0  -0.2005
  N  N542  1  0.746600  0.738700  0.260000  1.0  0.1062
  N  N543  1  0.759200  0.714500  0.194100  1.0  -0.6148
  N  N544  1  0.922900  0.742300  0.445200  1.0  -0.3427
  O  O545  1  0.421920  0.449900  0.205100  1.0  -0.621
  O  O546  1  0.476040  0.447000  0.317300  1.0  -0.6641
  O  O547  1  0.443430  0.542100  0.538300  1.0  -0.6112
  O  O548  1  0.371600  0.565100  0.529400  1.0  -0.4994
  O  O549  1  0.274160  0.504400  0.261000  1.0  -0.2701
  O  O550  1  0.093100  0.531300  0.242600  1.0  -0.3018
  O  O551  1  0.024400  0.311700  0.384600  1.0  -0.6342
  O  O552  1  0.007320  0.400500  0.461100  1.0  -0.5851
  O  O553  1  0.009100  0.742700  0.419100  1.0  -0.6714
  O  O554  1  0.048000  0.788000  0.348400  1.0  -0.6061
  O  O555  1  0.921920  0.949900  0.205100  1.0  -0.621
  O  O556  1  0.976040  0.947000  0.317300  1.0  -0.6641
  O  O557  1  0.943430  0.042100  0.538300  1.0  -0.6112
  O  O558  1  0.871600  0.065100  0.529400  1.0  -0.4994
  O  O559  1  0.774160  0.004400  0.261000  1.0  -0.2701
  O  O560  1  0.593100  0.031300  0.242600  1.0  -0.3018
  O  O561  1  0.524400  0.811700  0.384600  1.0  -0.6342
  O  O562  1  0.507320  0.900500  0.461100  1.0  -0.5851
  O  O563  1  0.509100  0.242700  0.419100  1.0  -0.6714
  O  O564  1  0.548000  0.288000  0.348400  1.0  -0.6062
  O  O565  1  0.578080  0.449900  0.294900  1.0  -0.6222
  O  O566  1  0.523960  0.447000  0.182700  1.0  -0.6626
  O  O567  1  0.556570  0.542100  0.961700  1.0  -0.6108
  O  O568  1  0.628400  0.565100  0.970600  1.0  -0.4975
  O  O569  1  0.725840  0.504400  0.239000  1.0  -0.2704
  O  O570  1  0.906900  0.531300  0.257400  1.0  -0.3033
  O  O571  1  0.975600  0.311700  0.115400  1.0  -0.6354
  O  O572  1  0.992680  0.400500  0.038900  1.0  -0.5858
  O  O573  1  0.990900  0.742700  0.080900  1.0  -0.6727
  O  O574  1  0.952000  0.788000  0.151600  1.0  -0.6051
  O  O575  1  0.078080  0.949900  0.294900  1.0  -0.6222
  O  O576  1  0.023960  0.947000  0.182700  1.0  -0.6626
  O  O577  1  0.056570  0.042100  0.961700  1.0  -0.6108
  O  O578  1  0.128400  0.065100  0.970600  1.0  -0.4975
  O  O579  1  0.225840  0.004400  0.239000  1.0  -0.2704
  O  O580  1  0.406900  0.031300  0.257400  1.0  -0.3033
  O  O581  1  0.475600  0.811700  0.115400  1.0  -0.6354
  O  O582  1  0.492680  0.900500  0.038900  1.0  -0.5858
  O  O583  1  0.490900  0.242700  0.080900  1.0  -0.6727
  O  O584  1  0.452000  0.288000  0.151600  1.0  -0.6051
  O  O585  1  0.578080  0.550100  0.794900  1.0  -0.6217
  O  O586  1  0.523960  0.553000  0.682700  1.0  -0.6624
  O  O587  1  0.556570  0.457900  0.461700  1.0  -0.6103
  O  O588  1  0.628400  0.434900  0.470600  1.0  -0.4977
  O  O589  1  0.725840  0.495600  0.739000  1.0  -0.2705
  O  O590  1  0.906900  0.468700  0.757400  1.0  -0.3044
  O  O591  1  0.975600  0.688300  0.615400  1.0  -0.6341
  O  O592  1  0.992680  0.599500  0.538900  1.0  -0.586
  O  O593  1  0.990900  0.257300  0.580900  1.0  -0.6728
  O  O594  1  0.952000  0.212000  0.651600  1.0  -0.6054
  O  O595  1  0.078080  0.050100  0.794900  1.0  -0.6217
  O  O596  1  0.023960  0.053000  0.682700  1.0  -0.6624
  O  O597  1  0.056570  0.957900  0.461700  1.0  -0.6103
  O  O598  1  0.128400  0.934900  0.470600  1.0  -0.4977
  O  O599  1  0.225840  0.995600  0.739000  1.0  -0.2705
  O  O600  1  0.406900  0.968700  0.757400  1.0  -0.3044
  O  O601  1  0.475600  0.188300  0.615400  1.0  -0.6341
  O  O602  1  0.492680  0.099500  0.538900  1.0  -0.586
  O  O603  1  0.490900  0.757300  0.580900  1.0  -0.6728
  O  O604  1  0.452000  0.712000  0.651600  1.0  -0.6054
  O  O605  1  0.421920  0.550100  0.705100  1.0  -0.6212
  O  O606  1  0.476040  0.553000  0.817300  1.0  -0.6637
  O  O607  1  0.443430  0.457900  0.038300  1.0  -0.6113
  O  O608  1  0.371600  0.434900  0.029400  1.0  -0.4988
  O  O609  1  0.274160  0.495600  0.761000  1.0  -0.2702
  O  O610  1  0.093100  0.468700  0.742600  1.0  -0.3034
  O  O611  1  0.024400  0.688300  0.884600  1.0  -0.6328
  O  O612  1  0.007320  0.599500  0.961100  1.0  -0.5852
  O  O613  1  0.009100  0.257300  0.919100  1.0  -0.6712
  O  O614  1  0.048000  0.212000  0.848400  1.0  -0.6059
  O  O615  1  0.921920  0.050100  0.705100  1.0  -0.6212
  O  O616  1  0.976040  0.053000  0.817300  1.0  -0.6637
  O  O617  1  0.943430  0.957900  0.038300  1.0  -0.6113
  O  O618  1  0.871600  0.934900  0.029400  1.0  -0.4988
  O  O619  1  0.774160  0.995600  0.761000  1.0  -0.2702
  O  O620  1  0.593100  0.968700  0.742600  1.0  -0.3034
  O  O621  1  0.524400  0.188300  0.884600  1.0  -0.6328
  O  O622  1  0.507320  0.099500  0.961100  1.0  -0.5852
  O  O623  1  0.509100  0.757300  0.919100  1.0  -0.6712
  O  O624  1  0.548000  0.712000  0.848400  1.0  -0.6058
