# generated using pymatgen
data_Co2H32C48N11O10
_symmetry_space_group_name_H-M   'P 1'
_cell_length_a   10.07900000
_cell_length_b   14.81700000
_cell_length_c   20.16500000
_cell_angle_alpha   98.57700000
_cell_angle_beta   103.94100000
_cell_angle_gamma   91.75700000
_symmetry_Int_Tables_number   1
_chemical_formula_structural   Co2H32C48N11O10
_chemical_formula_sum   'Co4 H64 C96 N22 O20'
_cell_volume   2883.09478763
_cell_formula_units_Z   2
loop_
 _symmetry_equiv_pos_site_id
 _symmetry_equiv_pos_as_xyz
  1  'x, y, z'
loop_
 _atom_site_type_symbol
 _atom_site_label
 _atom_site_symmetry_multiplicity
 _atom_site_fract_x
 _atom_site_fract_y
 _atom_site_fract_z
 _atom_site_occupancy
 _atom_site_charge
  Co  Co1  1  0.892820  0.374400  0.346930  1.0  0.8725
  Co  Co2  1  0.138890  0.338320  0.206100  1.0  0.8874
  Co  Co3  1  0.107180  0.625600  0.653070  1.0  0.8702
  Co  Co4  1  0.861110  0.661680  0.793900  1.0  0.8897
  H  H5  1  0.696700  0.212700  0.273200  1.0  0.0762
  H  H6  1  0.695600  0.052500  0.238000  1.0  0.1191
  H  H7  1  0.320500  0.207800  0.274400  1.0  0.0572
  H  H8  1  0.600300  0.343900  0.208900  1.0  0.0912
  H  H9  1  0.429400  0.373800  0.341100  1.0  0.1004
  H  H10  1  0.274600  0.372600  0.508000  1.0  0.0903
  H  H11  1  0.681800  0.394000  0.530200  1.0  0.0921
  H  H12  1  0.759400  0.324100  0.042200  1.0  0.0939
  H  H13  1  0.680800  0.274400  0.920000  1.0  0.0834
  H  H14  1  0.702200  0.381700  0.938300  1.0  0.0672
  H  H15  1  0.027700  0.493200  0.124900  1.0  0.066
  H  H16  1  0.243300  0.505900  0.313900  1.0  0.0624
  H  H17  1  0.545300  0.203400  0.807600  1.0  0.1036
  H  H18  1  0.583700  0.476500  0.855800  1.0  0.0947
  H  H19  1  0.353300  0.331000  0.018200  1.0  0.1133
  H  H20  1  0.004900  0.046200  0.396900  1.0  0.0855
  H  H21  1  0.347200  0.306900  0.606800  1.0  0.0619
  H  H22  1  0.342700  0.413200  0.628200  1.0  0.0571
  H  H23  1  0.455800  0.215800  0.690700  1.0  0.1031
  H  H24  1  0.252600  0.661500  0.330000  1.0  0.0992
  H  H25  1  0.986200  0.992100  0.144600  1.0  0.1231
  H  H26  1  0.983900  0.739500  0.416500  1.0  0.0992
  H  H27  1  0.335900  0.061200  0.294100  1.0  0.1246
  H  H28  1  0.015900  0.563100  0.439800  1.0  0.0807
  H  H29  1  0.983000  0.146800  0.134700  1.0  0.0652
  H  H30  1  0.036200  0.649400  0.135700  1.0  0.1304
  H  H31  1  0.004700  0.216400  0.427500  1.0  0.0648
  H  H32  1  0.482500  0.489000  0.742500  1.0  0.0862
  H  H33  1  0.113100  0.860300  0.110400  1.0  0.3336
  H  H34  1  0.099700  0.760900  0.114200  1.0  0.3669
  H  H35  1  0.789500  0.639800  0.225500  1.0  0.0962
  H  H36  1  0.815100  0.500900  0.247400  1.0  0.0547
  H  H37  1  0.303300  0.787300  0.726800  1.0  0.0762
  H  H38  1  0.304400  0.947500  0.762000  1.0  0.1192
  H  H39  1  0.679500  0.792200  0.725600  1.0  0.0575
  H  H40  1  0.399700  0.656100  0.791100  1.0  0.0911
  H  H41  1  0.570600  0.626200  0.658900  1.0  0.1009
  H  H42  1  0.725400  0.627400  0.492000  1.0  0.0901
  H  H43  1  0.318200  0.606000  0.469800  1.0  0.0925
  H  H44  1  0.240600  0.675900  0.957800  1.0  0.0941
  H  H45  1  0.319200  0.725600  0.080000  1.0  0.0806
  H  H46  1  0.297800  0.618300  0.061700  1.0  0.0677
  H  H47  1  0.972300  0.506800  0.875100  1.0  0.0671
  H  H48  1  0.756700  0.494100  0.686100  1.0  0.0618
  H  H49  1  0.454700  0.796600  0.192400  1.0  0.1028
  H  H50  1  0.416300  0.523500  0.144200  1.0  0.0946
  H  H51  1  0.646700  0.669000  0.981800  1.0  0.1129
  H  H52  1  0.995100  0.953800  0.603100  1.0  0.0846
  H  H53  1  0.652800  0.693100  0.393200  1.0  0.0629
  H  H54  1  0.657300  0.586800  0.371800  1.0  0.0579
  H  H55  1  0.544200  0.784200  0.309300  1.0  0.1024
  H  H56  1  0.747400  0.338500  0.670000  1.0  0.0987
  H  H57  1  0.013800  0.007900  0.855400  1.0  0.124
  H  H58  1  0.016100  0.260500  0.583500  1.0  0.0976
  H  H59  1  0.664100  0.938800  0.705900  1.0  0.1248
  H  H60  1  0.984100  0.436900  0.560200  1.0  0.0798
  H  H61  1  0.017000  0.853200  0.865300  1.0  0.0654
  H  H62  1  0.963800  0.350600  0.864300  1.0  0.1307
  H  H63  1  0.995300  0.783600  0.572500  1.0  0.0644
  H  H64  1  0.517500  0.511000  0.257500  1.0  0.0858
  H  H65  1  0.886900  0.139700  0.889600  1.0  0.3342
  H  H66  1  0.900300  0.239100  0.885800  1.0  0.3684
  H  H67  1  0.210500  0.360200  0.774500  1.0  0.0956
  H  H68  1  0.184900  0.499100  0.752600  1.0  0.0549
  C  C69  1  0.765500  0.179900  0.296100  1.0  0.1162
  C  C70  1  0.757000  0.083700  0.277400  1.0  -0.1456
  C  C71  1  0.849500  0.039600  0.323300  1.0  0.206
  C  C72  1  0.251600  0.164400  0.248800  1.0  0.1681
  C  C73  1  0.588500  0.338800  0.161300  1.0  -0.0436
  C  C74  1  0.442400  0.377100  0.388600  1.0  -0.0429
  C  C75  1  0.329900  0.373000  0.418100  1.0  -0.1332
  C  C76  1  0.573500  0.386100  0.432300  1.0  -0.1588
  C  C77  1  0.186400  0.364700  0.372600  1.0  0.6474
  C  C78  1  0.843900  0.333000  0.179200  1.0  0.6396
  C  C79  1  0.703900  0.332700  0.132600  1.0  -0.1622
  C  C80  1  0.695400  0.388200  0.402200  1.0  0.6211
  C  C81  1  0.555900  0.332400  0.019800  1.0  0.2676
  C  C82  1  0.349700  0.375100  0.489000  1.0  -0.1959
  C  C83  1  0.593100  0.388000  0.502000  1.0  -0.1331
  C  C84  1  0.684500  0.329000  0.061600  1.0  -0.1447
  C  C85  1  0.459500  0.337100  0.118800  1.0  -0.1007
  C  C86  1  0.635400  0.330900  0.916600  1.0  0.0721
  C  C87  1  0.335200  0.340100  0.148200  1.0  0.6099
  C  C88  1  0.075600  0.527500  0.166800  1.0  0.169
  C  C89  1  0.156600  0.773900  0.251100  1.0  0.239
  C  C90  1  0.869200  0.792600  0.304300  1.0  0.401
  C  C91  1  0.482200  0.381000  0.531400  1.0  0.2991
  C  C92  1  0.161100  0.011000  0.224200  1.0  -0.0495
  C  C93  1  0.201000  0.534900  0.277400  1.0  0.1434
  C  C94  1  0.163800  0.919700  0.245400  1.0  0.236
  C  C95  1  0.575800  0.338300  0.842400  1.0  0.0215
  C  C96  1  0.462000  0.354200  0.704300  1.0  0.0119
  C  C97  1  0.535900  0.260800  0.794200  1.0  -0.0738
  C  C98  1  0.556800  0.424000  0.822900  1.0  -0.1251
  C  C99  1  0.440900  0.333100  0.047100  1.0  -0.1174
  C  C100  1  0.940200  0.078800  0.370800  1.0  -0.0788
  C  C101  1  0.145500  0.674900  0.233300  1.0  0.0613
  C  C102  1  0.401500  0.362600  0.630800  1.0  0.0786
  C  C103  1  0.480200  0.268200  0.723800  1.0  -0.0776
  C  C104  1  0.207200  0.628400  0.287200  1.0  -0.1766
  C  C105  1  0.053500  0.034800  0.172700  1.0  -0.1943
  C  C106  1  0.951100  0.688200  0.383000  1.0  -0.0707
  C  C107  1  0.261900  0.076500  0.261200  1.0  -0.2076
  C  C108  1  0.845700  0.934600  0.305100  1.0  0.3328
  C  C109  1  0.884400  0.691800  0.318000  1.0  0.2061
  C  C110  1  0.969000  0.578300  0.397700  1.0  0.1267
  C  C111  1  0.055400  0.128500  0.166900  1.0  0.1595
  C  C112  1  0.079400  0.622200  0.173100  1.0  -0.2079
  C  C113  1  0.945000  0.185900  0.387000  1.0  0.1856
  C  C114  1  0.498100  0.431400  0.754700  1.0  -0.1152
  C  C115  1  0.834700  0.629000  0.269200  1.0  -0.122
  C  C116  1  0.850800  0.547800  0.284200  1.0  0.1348
  C  C117  1  0.234500  0.820100  0.703900  1.0  0.1164
  C  C118  1  0.243000  0.916300  0.722600  1.0  -0.1442
  C  C119  1  0.150500  0.960400  0.676700  1.0  0.2028
  C  C120  1  0.748400  0.835600  0.751200  1.0  0.1683
  C  C121  1  0.411500  0.661200  0.838700  1.0  -0.0424
  C  C122  1  0.557600  0.622900  0.611400  1.0  -0.044
  C  C123  1  0.670100  0.627000  0.581900  1.0  -0.1326
  C  C124  1  0.426500  0.613900  0.567700  1.0  -0.1592
  C  C125  1  0.813600  0.635300  0.627400  1.0  0.6483
  C  C126  1  0.156100  0.667000  0.820800  1.0  0.6402
  C  C127  1  0.296100  0.667300  0.867400  1.0  -0.1612
  C  C128  1  0.304600  0.611800  0.597800  1.0  0.6189
  C  C129  1  0.444100  0.667600  0.980200  1.0  0.2674
  C  C130  1  0.650300  0.624900  0.511000  1.0  -0.1945
  C  C131  1  0.406900  0.612000  0.498000  1.0  -0.1307
  C  C132  1  0.315500  0.671000  0.938400  1.0  -0.1454
  C  C133  1  0.540500  0.662900  0.881200  1.0  -0.0999
  C  C134  1  0.364600  0.669100  0.083400  1.0  0.0728
  C  C135  1  0.664800  0.659900  0.851800  1.0  0.6098
  C  C136  1  0.924400  0.472500  0.833200  1.0  0.1665
  C  C137  1  0.843400  0.226100  0.748900  1.0  0.2384
  C  C138  1  0.130800  0.207400  0.695700  1.0  0.4011
  C  C139  1  0.517800  0.619000  0.468600  1.0  0.3004
  C  C140  1  0.838900  0.989000  0.775800  1.0  -0.0495
  C  C141  1  0.799000  0.465100  0.722600  1.0  0.1438
  C  C142  1  0.836200  0.080300  0.754600  1.0  0.2357
  C  C143  1  0.424200  0.661700  0.157600  1.0  0.021
  C  C144  1  0.538000  0.645800  0.295700  1.0  0.0121
  C  C145  1  0.464100  0.739200  0.205800  1.0  -0.076
  C  C146  1  0.443200  0.576000  0.177100  1.0  -0.1286
  C  C147  1  0.559100  0.666900  0.952900  1.0  -0.1177
  C  C148  1  0.059800  0.921200  0.629200  1.0  -0.0769
  C  C149  1  0.854500  0.325100  0.766700  1.0  0.0608
  C  C150  1  0.598500  0.637400  0.369200  1.0  0.081
  C  C151  1  0.519800  0.731800  0.276200  1.0  -0.0775
  C  C152  1  0.792800  0.371600  0.712800  1.0  -0.177
  C  C153  1  0.946500  0.965200  0.827300  1.0  -0.194
  C  C154  1  0.048900  0.311800  0.617000  1.0  -0.071
  C  C155  1  0.738100  0.923500  0.738800  1.0  -0.2091
  C  C156  1  0.154300  0.065400  0.694900  1.0  0.3346
  C  C157  1  0.115600  0.308200  0.682000  1.0  0.2046
  C  C158  1  0.031000  0.421700  0.602300  1.0  0.1285
  C  C159  1  0.944600  0.871500  0.833100  1.0  0.1573
  C  C160  1  0.920600  0.377800  0.826900  1.0  -0.2065
  C  C161  1  0.055000  0.814100  0.613000  1.0  0.1849
  C  C162  1  0.501900  0.568600  0.245300  1.0  -0.1153
  C  C163  1  0.165300  0.371000  0.730800  1.0  -0.1185
  C  C164  1  0.149200  0.452200  0.715800  1.0  0.1331
  N  N165  1  0.876100  0.228600  0.349300  1.0  -0.2771
  N  N166  1  0.149200  0.192300  0.202400  1.0  -0.3414
  N  N167  1  0.136000  0.483400  0.216800  1.0  -0.3335
  N  N168  1  0.911000  0.518700  0.344700  1.0  -0.3513
  N  N169  1  0.814600  0.898900  0.243000  1.0  -0.2409
  N  N170  1  0.831700  0.819100  0.250800  1.0  -0.0087
  N  N171  1  0.189400  0.817200  0.314000  1.0  -0.2536
  N  N172  1  0.193500  0.908600  0.310500  1.0  -0.1931
  N  N173  1  0.139400  0.837200  0.205800  1.0  0.1198
  N  N174  1  0.889700  0.874000  0.350100  1.0  -0.4708
  N  N175  1  0.114200  0.816900  0.134500  1.0  -0.662
  N  N176  1  0.123900  0.771400  0.650700  1.0  -0.2767
  N  N177  1  0.850800  0.807700  0.797600  1.0  -0.341
  N  N178  1  0.864000  0.516600  0.783200  1.0  -0.3343
  N  N179  1  0.089000  0.481300  0.655300  1.0  -0.3524
  N  N180  1  0.185400  0.101100  0.757000  1.0  -0.2434
  N  N181  1  0.168300  0.180900  0.749200  1.0  -0.0024
  N  N182  1  0.810600  0.182800  0.686000  1.0  -0.2512
  N  N183  1  0.806500  0.091400  0.689500  1.0  -0.194
  N  N184  1  0.860600  0.162800  0.794200  1.0  0.1199
  N  N185  1  0.110300  0.126000  0.649900  1.0  -0.4709
  N  N186  1  0.885800  0.183100  0.865500  1.0  -0.6641
  O  O187  1  0.090300  0.378400  0.401300  1.0  -0.5912
  O  O188  1  0.940800  0.323100  0.149800  1.0  -0.6113
  O  O189  1  0.812600  0.398600  0.439800  1.0  -0.5593
  O  O190  1  0.353600  0.345000  0.212000  1.0  -0.5764
  O  O191  1  0.676600  0.378800  0.337000  1.0  -0.5773
  O  O192  1  0.217200  0.334400  0.108600  1.0  -0.565
  O  O193  1  0.170300  0.344000  0.308800  1.0  -0.6618
  O  O194  1  0.513000  0.378300  0.599800  1.0  -0.2849
  O  O195  1  0.525300  0.332400  0.950100  1.0  -0.2949
  O  O196  1  0.857800  0.341200  0.242200  1.0  -0.6455
  O  O197  1  0.909700  0.621600  0.598700  1.0  -0.592
  O  O198  1  0.059200  0.676900  0.850200  1.0  -0.6105
  O  O199  1  0.187400  0.601400  0.560200  1.0  -0.5593
  O  O200  1  0.646400  0.655000  0.788000  1.0  -0.5745
  O  O201  1  0.323400  0.621200  0.663000  1.0  -0.5764
  O  O202  1  0.782800  0.665600  0.891400  1.0  -0.5659
  O  O203  1  0.829700  0.656000  0.691200  1.0  -0.6619
  O  O204  1  0.487000  0.621700  0.400200  1.0  -0.285
  O  O205  1  0.474700  0.667600  0.049900  1.0  -0.2963
  O  O206  1  0.142200  0.658800  0.757800  1.0  -0.6464
