# generated using pymatgen
data_La2CuH26C32N4O13
_symmetry_space_group_name_H-M   'P 1'
_cell_length_a   12.64300000
_cell_length_b   13.94400000
_cell_length_c   15.44300000
_cell_angle_alpha   59.64700000
_cell_angle_beta   83.26200000
_cell_angle_gamma   86.87600000
_symmetry_Int_Tables_number   1
_chemical_formula_structural   La2CuH26C32N4O13
_chemical_formula_sum   'La4 Cu2 H52 C64 N8 O26'
_cell_volume   2333.06661195
_cell_formula_units_Z   2
loop_
 _symmetry_equiv_pos_site_id
 _symmetry_equiv_pos_as_xyz
  1  'x, y, z'
loop_
 _atom_site_type_symbol
 _atom_site_label
 _atom_site_symmetry_multiplicity
 _atom_site_fract_x
 _atom_site_fract_y
 _atom_site_fract_z
 _atom_site_occupancy
 _atom_site_charge
  La  La1  1  0.068310  0.093280  0.251080  1.0  2.1394
  La  La2  1  0.067660  0.846340  0.533370  1.0  2.1134
  La  La3  1  0.931690  0.906720  0.748920  1.0  2.1406
  La  La4  1  0.932340  0.153660  0.466630  1.0  2.1137
  Cu  Cu5  1  0.452250  0.587240  0.225450  1.0  0.4948
  Cu  Cu6  1  0.547750  0.412760  0.774550  1.0  0.4951
  H  H7  1  0.368000  0.845600  0.419800  1.0  0.1085
  H  H8  1  0.511900  0.724100  0.451900  1.0  0.1319
  H  H9  1  0.651900  0.628300  0.457200  1.0  0.1195
  H  H10  1  0.785600  0.497500  0.477100  1.0  0.111
  H  H11  1  0.276300  0.801600  0.135400  1.0  0.1416
  H  H12  1  0.181200  0.767800  0.223900  1.0  0.1275
  H  H13  1  0.252000  0.673400  0.215800  1.0  0.1441
  H  H14  1  0.585100  0.325300  0.333100  1.0  0.1397
  H  H15  1  0.696200  0.371600  0.265100  1.0  0.1218
  H  H16  1  0.588500  0.437600  0.226100  1.0  0.1394
  H  H17  1  0.570500  0.732100  0.805500  1.0  0.1094
  H  H18  1  0.413500  0.633400  0.893800  1.0  0.1232
  H  H19  1  0.262200  0.561400  0.981800  1.0  0.1297
  H  H20  1  0.129100  0.435700  0.093600  1.0  0.1136
  H  H21  1  0.628800  0.815800  0.073100  1.0  0.1499
  H  H22  1  0.729400  0.748000  0.059600  1.0  0.1281
  H  H23  1  0.642100  0.687300  0.154800  1.0  0.1356
  H  H24  1  0.325500  0.320400  0.391000  1.0  0.1405
  H  H25  1  0.212200  0.370500  0.405200  1.0  0.1328
  H  H26  1  0.318200  0.443000  0.375400  1.0  0.1264
  H  H27  1  0.888100  0.736500  0.351800  1.0  0.1416
  H  H28  1  0.796500  0.825100  0.300900  1.0  0.1496
  H  H29  1  0.812000  0.777500  0.417000  1.0  0.151
  H  H30  1  0.307400  0.826500  0.763300  1.0  0.1414
  H  H31  1  0.246700  0.935900  0.750700  1.0  0.1503
  H  H32  1  0.348400  0.946400  0.674100  1.0  0.1649
  H  H33  1  0.632000  0.154400  0.580200  1.0  0.1083
  H  H34  1  0.488100  0.275900  0.548100  1.0  0.1321
  H  H35  1  0.348100  0.371700  0.542800  1.0  0.12
  H  H36  1  0.214400  0.502500  0.522900  1.0  0.1111
  H  H37  1  0.723700  0.198400  0.864600  1.0  0.1427
  H  H38  1  0.818800  0.232200  0.776100  1.0  0.1292
  H  H39  1  0.748000  0.326600  0.784200  1.0  0.1435
  H  H40  1  0.414900  0.674700  0.666900  1.0  0.1396
  H  H41  1  0.303800  0.628400  0.734900  1.0  0.1217
  H  H42  1  0.411500  0.562400  0.773900  1.0  0.1375
  H  H43  1  0.429500  0.267900  0.194500  1.0  0.1092
  H  H44  1  0.586500  0.366600  0.106200  1.0  0.1235
  H  H45  1  0.737800  0.438600  0.018200  1.0  0.1296
  H  H46  1  0.870900  0.564300  0.906400  1.0  0.1137
  H  H47  1  0.371200  0.184200  0.926900  1.0  0.1497
  H  H48  1  0.270600  0.252000  0.940400  1.0  0.1288
  H  H49  1  0.357900  0.312700  0.845200  1.0  0.1358
  H  H50  1  0.674500  0.679600  0.609000  1.0  0.1398
  H  H51  1  0.787800  0.629500  0.594800  1.0  0.1313
  H  H52  1  0.681800  0.557000  0.624600  1.0  0.127
  H  H53  1  0.111900  0.263500  0.648200  1.0  0.1413
  H  H54  1  0.203500  0.174900  0.699100  1.0  0.1492
  H  H55  1  0.188000  0.222500  0.583000  1.0  0.1499
  H  H56  1  0.692600  0.173500  0.236700  1.0  0.1397
  H  H57  1  0.753300  0.064100  0.249300  1.0  0.1495
  H  H58  1  0.651600  0.053600  0.325900  1.0  0.1626
  C  C59  1  0.327700  0.752100  0.271800  1.0  0.2718
  C  C60  1  0.311200  0.817600  0.317100  1.0  -0.1114
  C  C61  1  0.379500  0.804600  0.385700  1.0  0.0281
  C  C62  1  0.464300  0.732700  0.405200  1.0  -0.1256
  C  C63  1  0.478700  0.673000  0.355000  1.0  0.1709
  C  C64  1  0.567700  0.594500  0.370100  1.0  0.1902
  C  C65  1  0.650100  0.583900  0.426800  1.0  -0.154
  C  C66  1  0.729300  0.507100  0.437800  1.0  0.0066
  C  C67  1  0.726700  0.444100  0.391500  1.0  -0.1314
  C  C68  1  0.641800  0.458000  0.335400  1.0  0.2306
  C  C69  1  0.253000  0.748400  0.206200  1.0  -0.3926
  C  C70  1  0.224400  0.901600  0.296600  1.0  0.7095
  C  C71  1  0.626600  0.392500  0.285600  1.0  -0.4024
  C  C72  1  0.813400  0.360500  0.408300  1.0  0.6954
  C  C73  1  0.591800  0.711100  0.023700  1.0  0.2069
  C  C74  1  0.622600  0.737800  0.923200  1.0  -0.1621
  C  C75  1  0.553400  0.710500  0.874600  1.0  0.0023
  C  C76  1  0.460800  0.652600  0.926100  1.0  -0.1442
  C  C77  1  0.438000  0.622600  0.028100  1.0  0.1657
  C  C78  1  0.345600  0.551700  0.091700  1.0  0.1717
  C  C79  1  0.263900  0.527600  0.052700  1.0  -0.1038
  C  C80  1  0.185300  0.453300  0.119000  1.0  -0.0156
  C  C81  1  0.187900  0.404000  0.223000  1.0  -0.1596
  C  C82  1  0.270800  0.434600  0.258000  1.0  0.2635
  C  C83  1  0.653400  0.743400  0.083000  1.0  -0.4158
  C  C84  1  0.725900  0.794600  0.865100  1.0  0.708
  C  C85  1  0.282700  0.388200  0.366600  1.0  -0.3747
  C  C86  1  0.103500  0.320200  0.290900  1.0  0.7151
  C  C87  1  0.848800  0.799900  0.350000  1.0  -0.436
  C  C88  1  0.924400  0.892100  0.320300  1.0  0.7605
  C  C89  1  0.214000  0.895000  0.646500  1.0  0.7903
  C  C90  1  0.285300  0.901500  0.714500  1.0  -0.4811
  C  C91  1  0.672300  0.247900  0.728200  1.0  0.269
  C  C92  1  0.688800  0.182400  0.682900  1.0  -0.1116
  C  C93  1  0.620500  0.195400  0.614300  1.0  0.0304
  C  C94  1  0.535700  0.267300  0.594800  1.0  -0.1242
  C  C95  1  0.521300  0.327000  0.645000  1.0  0.1691
  C  C96  1  0.432300  0.405500  0.629900  1.0  0.1906
  C  C97  1  0.349900  0.416100  0.573200  1.0  -0.1547
  C  C98  1  0.270700  0.492900  0.562200  1.0  -0.0006
  C  C99  1  0.273300  0.555900  0.608500  1.0  -0.1295
  C  C100  1  0.358200  0.542000  0.664600  1.0  0.2232
  C  C101  1  0.747000  0.251600  0.793800  1.0  -0.3928
  C  C102  1  0.775600  0.098400  0.703400  1.0  0.7103
  C  C103  1  0.373400  0.607500  0.714400  1.0  -0.4029
  C  C104  1  0.186600  0.639500  0.591700  1.0  0.6929
  C  C105  1  0.408200  0.288900  0.976300  1.0  0.2087
  C  C106  1  0.377400  0.262200  0.076800  1.0  -0.1639
  C  C107  1  0.446600  0.289500  0.125400  1.0  0.0027
  C  C108  1  0.539200  0.347400  0.073900  1.0  -0.1433
  C  C109  1  0.562000  0.377400  0.971900  1.0  0.1701
  C  C110  1  0.654400  0.448300  0.908300  1.0  0.1744
  C  C111  1  0.736100  0.472400  0.947300  1.0  -0.1052
  C  C112  1  0.814700  0.546700  0.881000  1.0  -0.013
  C  C113  1  0.812100  0.596000  0.777000  1.0  -0.1636
  C  C114  1  0.729200  0.565400  0.742000  1.0  0.2592
  C  C115  1  0.346600  0.256600  0.917000  1.0  -0.4134
  C  C116  1  0.274100  0.205400  0.134900  1.0  0.708
  C  C117  1  0.717300  0.611800  0.633400  1.0  -0.3746
  C  C118  1  0.896500  0.679800  0.709100  1.0  0.7155
  C  C119  1  0.151200  0.200100  0.650000  1.0  -0.4362
  C  C120  1  0.075600  0.107900  0.679700  1.0  0.7603
  C  C121  1  0.786000  0.105000  0.353500  1.0  0.7898
  C  C122  1  0.714700  0.098500  0.285500  1.0  -0.4805
  N  N123  1  0.410500  0.682200  0.291000  1.0  -0.4279
  N  N124  1  0.564700  0.533200  0.324900  1.0  -0.4417
  N  N125  1  0.501400  0.652500  0.074800  1.0  -0.4527
  N  N126  1  0.346600  0.507800  0.192600  1.0  -0.4278
  N  N127  1  0.589500  0.317800  0.709000  1.0  -0.4255
  N  N128  1  0.435300  0.466800  0.675100  1.0  -0.4343
  N  N129  1  0.498600  0.347500  0.925200  1.0  -0.4558
  N  N130  1  0.653400  0.492200  0.807400  1.0  -0.4324
  O  O131  1  0.191000  0.955800  0.211500  1.0  -0.664
  O  O132  1  0.188200  0.918500  0.368000  1.0  -0.7961
  O  O133  1  0.859900  0.322000  0.486300  1.0  -0.6326
  O  O134  1  0.835800  0.329500  0.344500  1.0  -0.6051
  O  O135  1  0.805600  0.783300  0.911500  1.0  -0.6084
  O  O136  1  0.731200  0.849900  0.769900  1.0  -0.6475
  O  O137  1  0.080000  0.301400  0.378900  1.0  -0.5882
  O  O138  1  0.058800  0.271600  0.254100  1.0  -0.721
  O  O139  1  0.082100  0.057000  0.425400  1.0  -0.7346
  O  O140  1  0.966600  0.896600  0.388900  1.0  -0.7872
  O  O141  1  0.943500  0.967300  0.229600  1.0  -0.6816
  O  O142  1  0.251300  0.899300  0.565800  1.0  -0.6662
  O  O143  1  0.114600  0.881100  0.674700  1.0  -0.8103
  O  O144  1  0.809000  0.044200  0.788500  1.0  -0.6627
  O  O145  1  0.811800  0.081500  0.632000  1.0  -0.7979
  O  O146  1  0.140100  0.678000  0.513700  1.0  -0.6315
  O  O147  1  0.164200  0.670500  0.655500  1.0  -0.6049
  O  O148  1  0.194400  0.216700  0.088500  1.0  -0.6063
  O  O149  1  0.268800  0.150100  0.230100  1.0  -0.6472
  O  O150  1  0.920000  0.698600  0.621100  1.0  -0.5873
  O  O151  1  0.941200  0.728400  0.745900  1.0  -0.7194
  O  O152  1  0.917900  0.943000  0.574600  1.0  -0.7346
  O  O153  1  0.033400  0.103400  0.611100  1.0  -0.7882
  O  O154  1  0.056500  0.032700  0.770400  1.0  -0.6823
  O  O155  1  0.748700  0.100700  0.434200  1.0  -0.6637
  O  O156  1  0.885400  0.118900  0.325300  1.0  -0.8107
