# generated using pymatgen
data_FeHC4O3
_symmetry_space_group_name_H-M   'P 1'
_cell_length_a   25.61910000
_cell_length_b   25.61910000
_cell_length_c   6.80420000
_cell_angle_alpha   90.00000000
_cell_angle_beta   90.00000000
_cell_angle_gamma   120.00000000
_symmetry_Int_Tables_number   1
_chemical_formula_structural   FeHC4O3
_chemical_formula_sum   'Fe18 H18 C72 O54'
_cell_volume   3867.54557487
_cell_formula_units_Z   18
loop_
 _symmetry_equiv_pos_site_id
 _symmetry_equiv_pos_as_xyz
  1  'x, y, z'
loop_
 _atom_site_type_symbol
 _atom_site_label
 _atom_site_symmetry_multiplicity
 _atom_site_fract_x
 _atom_site_fract_y
 _atom_site_fract_z
 _atom_site_occupancy
 _atom_site_charge
  Fe  Fe1  1  0.389680  0.351160  0.154000  1.0  1.0355
  Fe  Fe2  1  0.056350  0.684490  0.487330  1.0  1.0356
  Fe  Fe3  1  0.723010  0.017830  0.820670  1.0  1.0361
  Fe  Fe4  1  0.648840  0.038520  0.154000  1.0  1.041
  Fe  Fe5  1  0.315510  0.371850  0.487330  1.0  1.0365
  Fe  Fe6  1  0.982170  0.705190  0.820670  1.0  1.0525
  Fe  Fe7  1  0.961480  0.610320  0.154000  1.0  1.0363
  Fe  Fe8  1  0.628150  0.943650  0.487330  1.0  1.0316
  Fe  Fe9  1  0.294810  0.276990  0.820670  1.0  1.0402
  Fe  Fe10  1  0.610320  0.648840  0.846000  1.0  1.0366
  Fe  Fe11  1  0.276990  0.982170  0.179330  1.0  1.0384
  Fe  Fe12  1  0.943650  0.315510  0.512670  1.0  1.0363
  Fe  Fe13  1  0.351160  0.961480  0.846000  1.0  1.0397
  Fe  Fe14  1  0.017830  0.294810  0.179330  1.0  1.05
  Fe  Fe15  1  0.684490  0.628150  0.512670  1.0  1.0354
  Fe  Fe16  1  0.038520  0.389680  0.846000  1.0  1.0386
  Fe  Fe17  1  0.705190  0.723010  0.179330  1.0  1.0431
  Fe  Fe18  1  0.371850  0.056350  0.512670  1.0  1.0337
  H  H19  1  0.361700  0.190700  0.834000  1.0  0.1468
  H  H20  1  0.028370  0.524030  0.167330  1.0  0.1464
  H  H21  1  0.695030  0.857370  0.500670  1.0  0.1468
  H  H22  1  0.809300  0.171000  0.834000  1.0  0.1481
  H  H23  1  0.475970  0.504330  0.167330  1.0  0.148
  H  H24  1  0.142630  0.837670  0.500670  1.0  0.1469
  H  H25  1  0.829000  0.638300  0.834000  1.0  0.1471
  H  H26  1  0.495670  0.971630  0.167330  1.0  0.1474
  H  H27  1  0.162330  0.304970  0.500670  1.0  0.1468
  H  H28  1  0.638300  0.809300  0.166000  1.0  0.1484
  H  H29  1  0.304970  0.142630  0.499330  1.0  0.1485
  H  H30  1  0.971630  0.475970  0.832670  1.0  0.1484
  H  H31  1  0.190700  0.829000  0.166000  1.0  0.1493
  H  H32  1  0.857370  0.162330  0.499330  1.0  0.1483
  H  H33  1  0.524030  0.495670  0.832670  1.0  0.1488
  H  H34  1  0.171000  0.361700  0.166000  1.0  0.1481
  H  H35  1  0.837670  0.695030  0.499330  1.0  0.148
  H  H36  1  0.504330  0.028370  0.832670  1.0  0.1484
  C  C37  1  0.316700  0.247300  0.415600  1.0  0.7028
  C  C38  1  0.326500  0.205100  0.293500  1.0  -0.074
  C  C39  1  0.343100  0.221900  0.101100  1.0  0.1759
  C  C40  1  0.348800  0.181500  0.961500  1.0  -0.0068
  C  C41  1  0.983370  0.580630  0.748930  1.0  0.7028
  C  C42  1  0.993170  0.538430  0.626830  1.0  -0.0745
  C  C43  1  0.009770  0.555230  0.434430  1.0  0.1759
  C  C44  1  0.015470  0.514830  0.294830  1.0  -0.0078
  C  C45  1  0.650030  0.913970  0.082270  1.0  0.7028
  C  C46  1  0.659830  0.871770  0.960170  1.0  -0.074
  C  C47  1  0.676430  0.888570  0.767770  1.0  0.1759
  C  C48  1  0.682130  0.848170  0.628170  1.0  -0.0068
  C  C49  1  0.752700  0.069400  0.415600  1.0  0.7041
  C  C50  1  0.794900  0.121400  0.293500  1.0  -0.0743
  C  C51  1  0.778100  0.121200  0.101100  1.0  0.1771
  C  C52  1  0.818500  0.167300  0.961500  1.0  -0.0086
  C  C53  1  0.419370  0.402730  0.748930  1.0  0.7041
  C  C54  1  0.461570  0.454730  0.626830  1.0  -0.0744
  C  C55  1  0.444770  0.454530  0.434430  1.0  0.1771
  C  C56  1  0.485170  0.500630  0.294830  1.0  -0.0088
  C  C57  1  0.086030  0.736070  0.082270  1.0  0.7041
  C  C58  1  0.128230  0.788070  0.960170  1.0  -0.0743
  C  C59  1  0.111430  0.787870  0.767770  1.0  0.1771
  C  C60  1  0.151830  0.833970  0.628170  1.0  -0.0086
  C  C61  1  0.930600  0.683300  0.415600  1.0  0.7005
  C  C62  1  0.878600  0.673500  0.293500  1.0  -0.075
  C  C63  1  0.878800  0.656900  0.101100  1.0  0.1777
  C  C64  1  0.832700  0.651200  0.961500  1.0  -0.0072
  C  C65  1  0.597270  0.016630  0.748930  1.0  0.7006
  C  C66  1  0.545270  0.006830  0.626830  1.0  -0.0742
  C  C67  1  0.545470  0.990230  0.434430  1.0  0.1778
  C  C68  1  0.499370  0.984530  0.294830  1.0  -0.0064
  C  C69  1  0.263930  0.349970  0.082270  1.0  0.7005
  C  C70  1  0.211930  0.340170  0.960170  1.0  -0.0749
  C  C71  1  0.212130  0.323570  0.767770  1.0  0.1778
  C  C72  1  0.166030  0.317870  0.628170  1.0  -0.0071
  C  C73  1  0.683300  0.752700  0.584400  1.0  0.7032
  C  C74  1  0.673500  0.794900  0.706500  1.0  -0.0744
  C  C75  1  0.656900  0.778100  0.898900  1.0  0.1765
  C  C76  1  0.651200  0.818500  0.038500  1.0  -0.0082
  C  C77  1  0.349970  0.086030  0.917730  1.0  0.7031
  C  C78  1  0.340170  0.128230  0.039830  1.0  -0.0744
  C  C79  1  0.323570  0.111430  0.232230  1.0  0.1765
  C  C80  1  0.317870  0.151830  0.371830  1.0  -0.0082
  C  C81  1  0.016630  0.419370  0.251070  1.0  0.7031
  C  C82  1  0.006830  0.461570  0.373170  1.0  -0.0749
  C  C83  1  0.990230  0.444770  0.565570  1.0  0.1765
  C  C84  1  0.984530  0.485170  0.705170  1.0  -0.0092
  C  C85  1  0.247300  0.930600  0.584400  1.0  0.703
  C  C86  1  0.205100  0.878600  0.706500  1.0  -0.0743
  C  C87  1  0.221900  0.878800  0.898900  1.0  0.1766
  C  C88  1  0.181500  0.832700  0.038500  1.0  -0.008
  C  C89  1  0.913970  0.263930  0.917730  1.0  0.703
  C  C90  1  0.871770  0.211930  0.039830  1.0  -0.0743
  C  C91  1  0.888570  0.212130  0.232230  1.0  0.1766
  C  C92  1  0.848170  0.166030  0.371830  1.0  -0.008
  C  C93  1  0.580630  0.597270  0.251070  1.0  0.703
  C  C94  1  0.538430  0.545270  0.373170  1.0  -0.0744
  C  C95  1  0.555230  0.545470  0.565570  1.0  0.1766
  C  C96  1  0.514830  0.499370  0.705170  1.0  -0.0081
  C  C97  1  0.069400  0.316700  0.584400  1.0  0.7003
  C  C98  1  0.121400  0.326500  0.706500  1.0  -0.0749
  C  C99  1  0.121200  0.343100  0.898900  1.0  0.1765
  C  C100  1  0.167300  0.348800  0.038500  1.0  -0.0079
  C  C101  1  0.736070  0.650030  0.917730  1.0  0.7003
  C  C102  1  0.788070  0.659830  0.039830  1.0  -0.0748
  C  C103  1  0.787870  0.676430  0.232230  1.0  0.1766
  C  C104  1  0.833970  0.682130  0.371830  1.0  -0.0079
  C  C105  1  0.402730  0.983370  0.251070  1.0  0.7003
  C  C106  1  0.454730  0.993170  0.373170  1.0  -0.0741
  C  C107  1  0.454530  0.009770  0.565570  1.0  0.1766
  C  C108  1  0.500630  0.015470  0.705170  1.0  -0.0072
  O  O109  1  0.322220  0.296700  0.357700  1.0  -0.639
  O  O110  1  0.300500  0.229500  0.595800  1.0  -0.628
  O  O111  1  0.355340  0.273600  0.996200  1.0  -0.7185
  O  O112  1  0.988890  0.630030  0.691030  1.0  -0.639
  O  O113  1  0.967170  0.562830  0.929130  1.0  -0.628
  O  O114  1  0.022010  0.606930  0.329530  1.0  -0.7185
  O  O115  1  0.655550  0.963370  0.024370  1.0  -0.639
  O  O116  1  0.633830  0.896170  0.262470  1.0  -0.6192
  O  O117  1  0.688670  0.940270  0.662870  1.0  -0.7185
  O  O118  1  0.703300  0.025520  0.357700  1.0  -0.6406
  O  O119  1  0.770500  0.071000  0.595800  1.0  -0.6258
  O  O120  1  0.726400  0.081740  0.996200  1.0  -0.7174
  O  O121  1  0.369970  0.358850  0.691030  1.0  -0.6406
  O  O122  1  0.437170  0.404330  0.929130  1.0  -0.6204
  O  O123  1  0.393070  0.415070  0.329530  1.0  -0.7174
  O  O124  1  0.036630  0.692190  0.024370  1.0  -0.6406
  O  O125  1  0.103830  0.737670  0.262470  1.0  -0.627
  O  O126  1  0.059730  0.748410  0.662870  1.0  -0.7175
  O  O127  1  0.974480  0.677780  0.357700  1.0  -0.6395
  O  O128  1  0.929000  0.699500  0.595800  1.0  -0.6282
  O  O129  1  0.918260  0.644660  0.996200  1.0  -0.7199
  O  O130  1  0.641150  0.011110  0.691030  1.0  -0.6395
  O  O131  1  0.595670  0.032830  0.929130  1.0  -0.6298
  O  O132  1  0.584930  0.977990  0.329530  1.0  -0.7199
  O  O133  1  0.307810  0.344450  0.024370  1.0  -0.6395
  O  O134  1  0.262330  0.366170  0.262470  1.0  -0.6206
  O  O135  1  0.251590  0.311330  0.662870  1.0  -0.7199
  O  O136  1  0.677780  0.703300  0.642300  1.0  -0.6375
  O  O137  1  0.699500  0.770500  0.404200  1.0  -0.6274
  O  O138  1  0.644660  0.726400  0.003800  1.0  -0.7183
  O  O139  1  0.344450  0.036630  0.975630  1.0  -0.6375
  O  O140  1  0.366170  0.103830  0.737530  1.0  -0.6194
  O  O141  1  0.311330  0.059730  0.337130  1.0  -0.7183
  O  O142  1  0.011110  0.369970  0.308970  1.0  -0.6376
  O  O143  1  0.032830  0.437170  0.070870  1.0  -0.6274
  O  O144  1  0.977990  0.393070  0.670470  1.0  -0.7183
  O  O145  1  0.296700  0.974480  0.642300  1.0  -0.6404
  O  O146  1  0.229500  0.929000  0.404200  1.0  -0.6262
  O  O147  1  0.273600  0.918260  0.003800  1.0  -0.7166
  O  O148  1  0.963370  0.307810  0.975630  1.0  -0.6404
  O  O149  1  0.896170  0.262330  0.737530  1.0  -0.6274
  O  O150  1  0.940270  0.251590  0.337130  1.0  -0.7167
  O  O151  1  0.630030  0.641150  0.308970  1.0  -0.6404
  O  O152  1  0.562830  0.595670  0.070870  1.0  -0.6203
  O  O153  1  0.606930  0.584930  0.670470  1.0  -0.7166
  O  O154  1  0.025520  0.322220  0.642300  1.0  -0.6393
  O  O155  1  0.071000  0.300500  0.404200  1.0  -0.6277
  O  O156  1  0.081740  0.355340  0.003800  1.0  -0.7216
  O  O157  1  0.692190  0.655550  0.975630  1.0  -0.6393
  O  O158  1  0.737670  0.633830  0.737530  1.0  -0.6207
  O  O159  1  0.748410  0.688670  0.337130  1.0  -0.7215
  O  O160  1  0.358850  0.988890  0.308970  1.0  -0.6393
  O  O161  1  0.404330  0.967170  0.070870  1.0  -0.6297
  O  O162  1  0.415070  0.022010  0.670470  1.0  -0.7215
