# generated using pymatgen
data_FeHC4O3
_symmetry_space_group_name_H-M   'P 1'
_cell_length_a   26.15770000
_cell_length_b   26.15770000
_cell_length_c   6.86710000
_cell_angle_alpha   90.00000000
_cell_angle_beta   90.00000000
_cell_angle_gamma   120.00000000
_symmetry_Int_Tables_number   1
_chemical_formula_structural   FeHC4O3
_chemical_formula_sum   'Fe18 H18 C72 O54'
_cell_volume   4069.14450160
_cell_formula_units_Z   18
loop_
 _symmetry_equiv_pos_site_id
 _symmetry_equiv_pos_as_xyz
  1  'x, y, z'
loop_
 _atom_site_type_symbol
 _atom_site_label
 _atom_site_symmetry_multiplicity
 _atom_site_fract_x
 _atom_site_fract_y
 _atom_site_fract_z
 _atom_site_occupancy
 _atom_site_charge
  Fe  Fe1  1  0.382890  0.352250  0.142800  1.0  1.0236
  Fe  Fe2  1  0.049560  0.685580  0.476130  1.0  1.0231
  Fe  Fe3  1  0.716220  0.018920  0.809470  1.0  1.0231
  Fe  Fe4  1  0.647750  0.030640  0.142800  1.0  1.0247
  Fe  Fe5  1  0.314420  0.363970  0.476130  1.0  1.0248
  Fe  Fe6  1  0.981080  0.697310  0.809470  1.0  1.0251
  Fe  Fe7  1  0.969360  0.617110  0.142800  1.0  1.0243
  Fe  Fe8  1  0.636030  0.950440  0.476130  1.0  1.0242
  Fe  Fe9  1  0.302690  0.283780  0.809470  1.0  1.0238
  Fe  Fe10  1  0.617110  0.647750  0.857200  1.0  1.0242
  Fe  Fe11  1  0.283780  0.981080  0.190530  1.0  1.0237
  Fe  Fe12  1  0.950440  0.314420  0.523870  1.0  1.0238
  Fe  Fe13  1  0.352250  0.969360  0.857200  1.0  1.024
  Fe  Fe14  1  0.018920  0.302690  0.190530  1.0  1.0245
  Fe  Fe15  1  0.685580  0.636030  0.523870  1.0  1.0241
  Fe  Fe16  1  0.030640  0.382890  0.857200  1.0  1.0248
  Fe  Fe17  1  0.697310  0.716220  0.190530  1.0  1.0245
  Fe  Fe18  1  0.363970  0.049560  0.523870  1.0  1.0248
  H  H19  1  0.360230  0.192660  0.829600  1.0  0.1315
  H  H20  1  0.026900  0.525990  0.162930  1.0  0.1316
  H  H21  1  0.693560  0.859330  0.496270  1.0  0.1333
  H  H22  1  0.807340  0.167570  0.829600  1.0  0.133
  H  H23  1  0.474010  0.500900  0.162930  1.0  0.1329
  H  H24  1  0.140670  0.834240  0.496270  1.0  0.1343
  H  H25  1  0.832430  0.639770  0.829600  1.0  0.1322
  H  H26  1  0.499100  0.973100  0.162930  1.0  0.1324
  H  H27  1  0.165760  0.306440  0.496270  1.0  0.1329
  H  H28  1  0.639770  0.807340  0.170400  1.0  0.1323
  H  H29  1  0.306440  0.140670  0.503730  1.0  0.1338
  H  H30  1  0.973100  0.474010  0.837070  1.0  0.1325
  H  H31  1  0.192660  0.832430  0.170400  1.0  0.1337
  H  H32  1  0.859330  0.165760  0.503730  1.0  0.1347
  H  H33  1  0.525990  0.499100  0.837070  1.0  0.1336
  H  H34  1  0.167570  0.360230  0.170400  1.0  0.1331
  H  H35  1  0.834240  0.693560  0.503730  1.0  0.1335
  H  H36  1  0.500900  0.026900  0.837070  1.0  0.1333
  C  C37  1  0.318930  0.245220  0.427300  1.0  0.7013
  C  C38  1  0.328030  0.205890  0.285700  1.0  -0.1909
  C  C39  1  0.344640  0.221130  0.093300  1.0  0.3471
  C  C40  1  0.352140  0.183260  0.973800  1.0  -0.0782
  C  C41  1  0.985600  0.578550  0.760630  1.0  0.7015
  C  C42  1  0.994700  0.539220  0.619030  1.0  -0.1882
  C  C43  1  0.011310  0.554460  0.426630  1.0  0.3479
  C  C44  1  0.018810  0.516590  0.307130  1.0  -0.0781
  C  C45  1  0.652260  0.911890  0.093970  1.0  0.7015
  C  C46  1  0.661360  0.872560  0.952370  1.0  -0.1909
  C  C47  1  0.677970  0.887800  0.759970  1.0  0.3472
  C  C48  1  0.685470  0.849930  0.640470  1.0  -0.0865
  C  C49  1  0.754780  0.073710  0.427300  1.0  0.7017
  C  C50  1  0.794110  0.122140  0.285700  1.0  -0.1896
  C  C51  1  0.778870  0.123510  0.093300  1.0  0.3459
  C  C52  1  0.816740  0.168880  0.973800  1.0  -0.0872
  C  C53  1  0.421450  0.407040  0.760630  1.0  0.7017
  C  C54  1  0.460780  0.455470  0.619030  1.0  -0.1895
  C  C55  1  0.445540  0.456840  0.426630  1.0  0.3459
  C  C56  1  0.483410  0.502210  0.307130  1.0  -0.0872
  C  C57  1  0.088110  0.740380  0.093970  1.0  0.7018
  C  C58  1  0.127440  0.788810  0.952370  1.0  -0.1896
  C  C59  1  0.112200  0.790180  0.759970  1.0  0.3459
  C  C60  1  0.150070  0.835550  0.640470  1.0  -0.0789
  C  C61  1  0.926290  0.681070  0.427300  1.0  0.7004
  C  C62  1  0.877860  0.671970  0.285700  1.0  -0.191
  C  C63  1  0.876490  0.655360  0.093300  1.0  0.3502
  C  C64  1  0.831120  0.647860  0.973800  1.0  -0.0857
  C  C65  1  0.592960  0.014400  0.760630  1.0  0.7004
  C  C66  1  0.544530  0.005300  0.619030  1.0  -0.1915
  C  C67  1  0.543160  0.988690  0.426630  1.0  0.3511
  C  C68  1  0.497790  0.981190  0.307130  1.0  -0.0855
  C  C69  1  0.259620  0.347740  0.093970  1.0  0.7001
  C  C70  1  0.211190  0.338640  0.952370  1.0  -0.191
  C  C71  1  0.209820  0.322030  0.759970  1.0  0.3503
  C  C72  1  0.164450  0.314530  0.640470  1.0  -0.0863
  C  C73  1  0.681070  0.754780  0.572700  1.0  0.7041
  C  C74  1  0.671970  0.794110  0.714300  1.0  -0.1909
  C  C75  1  0.655360  0.778870  0.906700  1.0  0.3466
  C  C76  1  0.647860  0.816740  0.026200  1.0  -0.0795
  C  C77  1  0.347740  0.088110  0.906030  1.0  0.7043
  C  C78  1  0.338640  0.127440  0.047630  1.0  -0.1909
  C  C79  1  0.322030  0.112200  0.240030  1.0  0.3466
  C  C80  1  0.314530  0.150070  0.359530  1.0  -0.0873
  C  C81  1  0.014400  0.421450  0.239370  1.0  0.7043
  C  C82  1  0.005300  0.460780  0.380970  1.0  -0.1883
  C  C83  1  0.988690  0.445540  0.573370  1.0  0.3474
  C  C84  1  0.981190  0.483410  0.692870  1.0  -0.0794
  C  C85  1  0.245220  0.926290  0.572700  1.0  0.7012
  C  C86  1  0.205890  0.877860  0.714300  1.0  -0.1902
  C  C87  1  0.221130  0.876490  0.906700  1.0  0.3476
  C  C88  1  0.183260  0.831120  0.026200  1.0  -0.0861
  C  C89  1  0.911890  0.259620  0.906030  1.0  0.7014
  C  C90  1  0.872560  0.211190  0.047630  1.0  -0.1902
  C  C91  1  0.887800  0.209820  0.240030  1.0  0.3476
  C  C92  1  0.849930  0.164450  0.359530  1.0  -0.0798
  C  C93  1  0.578550  0.592960  0.239370  1.0  0.7012
  C  C94  1  0.539220  0.544530  0.380970  1.0  -0.1902
  C  C95  1  0.554460  0.543160  0.573370  1.0  0.3476
  C  C96  1  0.516590  0.497790  0.692870  1.0  -0.0861
  C  C97  1  0.073710  0.318930  0.572700  1.0  0.7013
  C  C98  1  0.122140  0.328030  0.714300  1.0  -0.1906
  C  C99  1  0.123510  0.344640  0.906700  1.0  0.3478
  C  C100  1  0.168880  0.352140  0.026200  1.0  -0.0859
  C  C101  1  0.740380  0.652260  0.906030  1.0  0.7012
  C  C102  1  0.788810  0.661360  0.047630  1.0  -0.1906
  C  C103  1  0.790180  0.677970  0.240030  1.0  0.3479
  C  C104  1  0.835550  0.685470  0.359530  1.0  -0.0868
  C  C105  1  0.407040  0.985600  0.239370  1.0  0.7015
  C  C106  1  0.455470  0.994700  0.380970  1.0  -0.1907
  C  C107  1  0.456840  0.011310  0.573370  1.0  0.3488
  C  C108  1  0.502210  0.018810  0.692870  1.0  -0.0858
  O  O109  1  0.326760  0.294500  0.366700  1.0  -0.6514
  O  O110  1  0.301870  0.227410  0.600000  1.0  -0.6149
  O  O111  1  0.355010  0.273260  0.009300  1.0  -0.6642
  O  O112  1  0.993430  0.627830  0.700030  1.0  -0.6511
  O  O113  1  0.968540  0.560740  0.933330  1.0  -0.6149
  O  O114  1  0.021680  0.606590  0.342630  1.0  -0.6642
  O  O115  1  0.660090  0.961170  0.033370  1.0  -0.6512
  O  O116  1  0.635200  0.894080  0.266670  1.0  -0.6149
  O  O117  1  0.688340  0.939930  0.675970  1.0  -0.6641
  O  O118  1  0.705500  0.032260  0.366700  1.0  -0.6543
  O  O119  1  0.772590  0.074460  0.600000  1.0  -0.6147
  O  O120  1  0.726740  0.081750  0.009300  1.0  -0.6633
  O  O121  1  0.372170  0.365590  0.700030  1.0  -0.6545
  O  O122  1  0.439260  0.407790  0.933330  1.0  -0.6144
  O  O123  1  0.393410  0.415080  0.342630  1.0  -0.6633
  O  O124  1  0.038830  0.698930  0.033370  1.0  -0.6545
  O  O125  1  0.105920  0.741130  0.266670  1.0  -0.6147
  O  O126  1  0.060070  0.748420  0.675970  1.0  -0.6634
  O  O127  1  0.967740  0.673240  0.366700  1.0  -0.6534
  O  O128  1  0.925540  0.698130  0.600000  1.0  -0.6164
  O  O129  1  0.918250  0.644990  0.009300  1.0  -0.6645
  O  O130  1  0.634410  0.006570  0.700030  1.0  -0.6531
  O  O131  1  0.592210  0.031460  0.933330  1.0  -0.6164
  O  O132  1  0.584920  0.978320  0.342630  1.0  -0.6645
  O  O133  1  0.301070  0.339910  0.033370  1.0  -0.6532
  O  O134  1  0.258870  0.364800  0.266670  1.0  -0.6161
  O  O135  1  0.251580  0.311660  0.675970  1.0  -0.6646
  O  O136  1  0.673240  0.705500  0.633300  1.0  -0.6521
  O  O137  1  0.698130  0.772590  0.400000  1.0  -0.6141
  O  O138  1  0.644990  0.726740  0.990700  1.0  -0.6663
  O  O139  1  0.339910  0.038830  0.966630  1.0  -0.652
  O  O140  1  0.364800  0.105920  0.733330  1.0  -0.6141
  O  O141  1  0.311660  0.060070  0.324030  1.0  -0.6663
  O  O142  1  0.006570  0.372170  0.299970  1.0  -0.6518
  O  O143  1  0.031460  0.439260  0.066670  1.0  -0.6141
  O  O144  1  0.978320  0.393410  0.657370  1.0  -0.6663
  O  O145  1  0.294500  0.967740  0.633300  1.0  -0.6535
  O  O146  1  0.227410  0.925540  0.400000  1.0  -0.6154
  O  O147  1  0.273260  0.918250  0.990700  1.0  -0.6627
  O  O148  1  0.961170  0.301070  0.966630  1.0  -0.6536
  O  O149  1  0.894080  0.258870  0.733330  1.0  -0.6154
  O  O150  1  0.939930  0.251580  0.324030  1.0  -0.6627
  O  O151  1  0.627830  0.634410  0.299970  1.0  -0.6537
  O  O152  1  0.560740  0.592210  0.066670  1.0  -0.615
  O  O153  1  0.606590  0.584920  0.657370  1.0  -0.6628
  O  O154  1  0.032260  0.326760  0.633300  1.0  -0.6531
  O  O155  1  0.074460  0.301870  0.400000  1.0  -0.6156
  O  O156  1  0.081750  0.355010  0.990700  1.0  -0.6659
  O  O157  1  0.698930  0.660090  0.966630  1.0  -0.6529
  O  O158  1  0.741130  0.635200  0.733330  1.0  -0.6152
  O  O159  1  0.748420  0.688340  0.324030  1.0  -0.6659
  O  O160  1  0.365590  0.993430  0.299970  1.0  -0.6528
  O  O161  1  0.407790  0.968540  0.066670  1.0  -0.6156
  O  O162  1  0.415080  0.021680  0.657370  1.0  -0.6659
