# generated using pymatgen
data_FeC4O3
_symmetry_space_group_name_H-M   'P 1'
_cell_length_a   25.61250000
_cell_length_b   25.61250000
_cell_length_c   6.80360000
_cell_angle_alpha   90.00000000
_cell_angle_beta   90.00000000
_cell_angle_gamma   120.00000000
_symmetry_Int_Tables_number   1
_chemical_formula_structural   FeC4O3
_chemical_formula_sum   'Fe18 C72 O54'
_cell_volume   3865.21224743
_cell_formula_units_Z   18
loop_
 _symmetry_equiv_pos_site_id
 _symmetry_equiv_pos_as_xyz
  1  'x, y, z'
loop_
 _atom_site_type_symbol
 _atom_site_label
 _atom_site_symmetry_multiplicity
 _atom_site_fract_x
 _atom_site_fract_y
 _atom_site_fract_z
 _atom_site_occupancy
 _atom_site_charge
  Fe  Fe1  1  0.389290  0.351130  0.153990  1.0  1.0488
  Fe  Fe2  1  0.055960  0.684460  0.487320  1.0  1.0481
  Fe  Fe3  1  0.722620  0.017800  0.820660  1.0  1.0522
  Fe  Fe4  1  0.648870  0.038160  0.153990  1.0  1.0474
  Fe  Fe5  1  0.315540  0.371490  0.487320  1.0  1.05
  Fe  Fe6  1  0.982200  0.704830  0.820660  1.0  1.0488
  Fe  Fe7  1  0.961840  0.610710  0.153990  1.0  1.046
  Fe  Fe8  1  0.628510  0.944040  0.487320  1.0  1.0494
  Fe  Fe9  1  0.295170  0.277380  0.820660  1.0  1.048
  Fe  Fe10  1  0.610710  0.648870  0.846010  1.0  1.0459
  Fe  Fe11  1  0.277380  0.982200  0.179340  1.0  1.0496
  Fe  Fe12  1  0.944040  0.315540  0.512680  1.0  1.0452
  Fe  Fe13  1  0.351130  0.961840  0.846010  1.0  1.0479
  Fe  Fe14  1  0.017800  0.295170  0.179340  1.0  1.0489
  Fe  Fe15  1  0.684460  0.628510  0.512680  1.0  1.0501
  Fe  Fe16  1  0.038160  0.389290  0.846010  1.0  1.0466
  Fe  Fe17  1  0.704830  0.722620  0.179340  1.0  1.0483
  Fe  Fe18  1  0.371490  0.055960  0.512680  1.0  1.0496
  C  C19  1  0.316400  0.246700  0.415100  1.0  0.652
  C  C20  1  0.326000  0.205200  0.288100  1.0  -0.0661
  C  C21  1  0.343100  0.220200  0.092200  1.0  0.2803
  C  C22  1  0.349200  0.179500  0.956500  1.0  0.0138
  C  C23  1  0.983070  0.580030  0.748430  1.0  0.652
  C  C24  1  0.992670  0.538530  0.621430  1.0  -0.0664
  C  C25  1  0.009770  0.553530  0.425530  1.0  0.2802
  C  C26  1  0.015870  0.512830  0.289830  1.0  0.0144
  C  C27  1  0.649730  0.913370  0.081770  1.0  0.652
  C  C28  1  0.659330  0.871870  0.954770  1.0  -0.0661
  C  C29  1  0.676430  0.886870  0.758870  1.0  0.2803
  C  C30  1  0.682530  0.846170  0.623170  1.0  0.0138
  C  C31  1  0.753300  0.069700  0.415100  1.0  0.6529
  C  C32  1  0.794800  0.120800  0.288100  1.0  -0.0662
  C  C33  1  0.779800  0.122900  0.092200  1.0  0.2818
  C  C34  1  0.820500  0.169700  0.956500  1.0  0.014
  C  C35  1  0.419970  0.403030  0.748430  1.0  0.6529
  C  C36  1  0.461470  0.454130  0.621430  1.0  -0.0657
  C  C37  1  0.446470  0.456230  0.425530  1.0  0.2818
  C  C38  1  0.487170  0.503030  0.289830  1.0  0.014
  C  C39  1  0.086630  0.736370  0.081770  1.0  0.6529
  C  C40  1  0.128130  0.787470  0.954770  1.0  -0.0662
  C  C41  1  0.113130  0.789570  0.758870  1.0  0.2817
  C  C42  1  0.153830  0.836370  0.623170  1.0  0.014
  C  C43  1  0.930300  0.683600  0.415100  1.0  0.6524
  C  C44  1  0.879200  0.674000  0.288100  1.0  -0.065
  C  C45  1  0.877100  0.656900  0.092200  1.0  0.2803
  C  C46  1  0.830300  0.650800  0.956500  1.0  0.0137
  C  C47  1  0.596970  0.016930  0.748430  1.0  0.6523
  C  C48  1  0.545870  0.007330  0.621430  1.0  -0.0655
  C  C49  1  0.543770  0.990230  0.425530  1.0  0.2804
  C  C50  1  0.496970  0.984130  0.289830  1.0  0.0133
  C  C51  1  0.263630  0.350270  0.081770  1.0  0.6524
  C  C52  1  0.212530  0.340670  0.954770  1.0  -0.0654
  C  C53  1  0.210430  0.323570  0.758870  1.0  0.2803
  C  C54  1  0.163630  0.317470  0.623170  1.0  0.0137
  C  C55  1  0.683600  0.753300  0.584900  1.0  0.6529
  C  C56  1  0.674000  0.794800  0.711900  1.0  -0.0661
  C  C57  1  0.656900  0.779800  0.907800  1.0  0.2787
  C  C58  1  0.650800  0.820500  0.043500  1.0  0.0113
  C  C59  1  0.350270  0.086630  0.918230  1.0  0.6529
  C  C60  1  0.340670  0.128130  0.045230  1.0  -0.0661
  C  C61  1  0.323570  0.113130  0.241130  1.0  0.2787
  C  C62  1  0.317470  0.153830  0.376830  1.0  0.0113
  C  C63  1  0.016930  0.419970  0.251570  1.0  0.6529
  C  C64  1  0.007330  0.461470  0.378570  1.0  -0.0668
  C  C65  1  0.990230  0.446470  0.574470  1.0  0.2786
  C  C66  1  0.984130  0.487170  0.710170  1.0  0.0116
  C  C67  1  0.246700  0.930300  0.584900  1.0  0.6522
  C  C68  1  0.205200  0.879200  0.711900  1.0  -0.0672
  C  C69  1  0.220200  0.877100  0.907800  1.0  0.28
  C  C70  1  0.179500  0.830300  0.043500  1.0  0.0123
  C  C71  1  0.913370  0.263630  0.918230  1.0  0.6521
  C  C72  1  0.871870  0.212530  0.045230  1.0  -0.0665
  C  C73  1  0.886870  0.210430  0.241130  1.0  0.2799
  C  C74  1  0.846170  0.163630  0.376830  1.0  0.0123
  C  C75  1  0.580030  0.596970  0.251570  1.0  0.6521
  C  C76  1  0.538530  0.545870  0.378570  1.0  -0.0661
  C  C77  1  0.553530  0.543770  0.574470  1.0  0.28
  C  C78  1  0.512830  0.496970  0.710170  1.0  0.0122
  C  C79  1  0.069700  0.316400  0.584900  1.0  0.6537
  C  C80  1  0.120800  0.326000  0.711900  1.0  -0.0662
  C  C81  1  0.122900  0.343100  0.907800  1.0  0.2781
  C  C82  1  0.169700  0.349200  0.043500  1.0  0.0131
  C  C83  1  0.736370  0.649730  0.918230  1.0  0.6537
  C  C84  1  0.787470  0.659330  0.045230  1.0  -0.0666
  C  C85  1  0.789570  0.676430  0.241130  1.0  0.2781
  C  C86  1  0.836370  0.682530  0.376830  1.0  0.013
  C  C87  1  0.403030  0.983070  0.251570  1.0  0.6536
  C  C88  1  0.454130  0.992670  0.378570  1.0  -0.0673
  C  C89  1  0.456230  0.009770  0.574470  1.0  0.2781
  C  C90  1  0.503030  0.015870  0.710170  1.0  0.0126
  O  O91  1  0.323000  0.297150  0.355500  1.0  -0.6338
  O  O92  1  0.300900  0.228390  0.594000  1.0  -0.6016
  O  O93  1  0.355340  0.272800  0.998900  1.0  -0.6906
  O  O94  1  0.989670  0.630480  0.688830  1.0  -0.6339
  O  O95  1  0.967570  0.561720  0.927330  1.0  -0.6016
  O  O96  1  0.022010  0.606130  0.332230  1.0  -0.6908
  O  O97  1  0.656330  0.963820  0.022170  1.0  -0.6338
  O  O98  1  0.634230  0.895060  0.260670  1.0  -0.5987
  O  O99  1  0.688670  0.939470  0.665570  1.0  -0.6909
  O  O100  1  0.702850  0.025850  0.355500  1.0  -0.6364
  O  O101  1  0.771610  0.072510  0.594000  1.0  -0.6061
  O  O102  1  0.727200  0.082540  0.998900  1.0  -0.6903
  O  O103  1  0.369520  0.359180  0.688830  1.0  -0.6363
  O  O104  1  0.438280  0.405840  0.927330  1.0  -0.5976
  O  O105  1  0.393870  0.415870  0.332230  1.0  -0.6898
  O  O106  1  0.036180  0.692520  0.022170  1.0  -0.6363
  O  O107  1  0.104940  0.739180  0.260670  1.0  -0.6025
  O  O108  1  0.060530  0.749210  0.665570  1.0  -0.6897
  O  O109  1  0.974150  0.677000  0.355500  1.0  -0.6347
  O  O110  1  0.927490  0.699100  0.594000  1.0  -0.6028
  O  O111  1  0.917460  0.644660  0.998900  1.0  -0.6926
  O  O112  1  0.640820  0.010330  0.688830  1.0  -0.6347
  O  O113  1  0.594160  0.032430  0.927330  1.0  -0.5995
  O  O114  1  0.584130  0.977990  0.332230  1.0  -0.6926
  O  O115  1  0.307480  0.343670  0.022170  1.0  -0.6347
  O  O116  1  0.260820  0.365770  0.260670  1.0  -0.5977
  O  O117  1  0.250790  0.311330  0.665570  1.0  -0.6927
  O  O118  1  0.677000  0.702850  0.644500  1.0  -0.6349
  O  O119  1  0.699100  0.771610  0.406000  1.0  -0.6005
  O  O120  1  0.644660  0.727200  0.001100  1.0  -0.6923
  O  O121  1  0.343670  0.036180  0.977830  1.0  -0.6349
  O  O122  1  0.365770  0.104940  0.739330  1.0  -0.598
  O  O123  1  0.311330  0.060530  0.334430  1.0  -0.6926
  O  O124  1  0.010330  0.369520  0.311170  1.0  -0.6349
  O  O125  1  0.032430  0.438280  0.072670  1.0  -0.6004
  O  O126  1  0.977990  0.393870  0.667770  1.0  -0.6924
  O  O127  1  0.297150  0.974150  0.644500  1.0  -0.6371
  O  O128  1  0.228390  0.927490  0.406000  1.0  -0.6051
  O  O129  1  0.272800  0.917460  0.001100  1.0  -0.6913
  O  O130  1  0.963820  0.307480  0.977830  1.0  -0.6371
  O  O131  1  0.895060  0.260820  0.739330  1.0  -0.6014
  O  O132  1  0.939470  0.250790  0.334430  1.0  -0.6908
  O  O133  1  0.630480  0.640820  0.311170  1.0  -0.6371
  O  O134  1  0.561720  0.594160  0.072670  1.0  -0.5963
  O  O135  1  0.606130  0.584130  0.667770  1.0  -0.6909
  O  O136  1  0.025850  0.323000  0.644500  1.0  -0.6351
  O  O137  1  0.072510  0.300900  0.406000  1.0  -0.6038
  O  O138  1  0.082540  0.355340  0.001100  1.0  -0.6933
  O  O139  1  0.692520  0.656330  0.977830  1.0  -0.6351
  O  O140  1  0.739180  0.634230  0.739330  1.0  -0.5988
  O  O141  1  0.749210  0.688670  0.334430  1.0  -0.6934
  O  O142  1  0.359180  0.989670  0.311170  1.0  -0.6351
  O  O143  1  0.405840  0.967570  0.072670  1.0  -0.5998
  O  O144  1  0.415870  0.022010  0.667770  1.0  -0.6933
