# generated using pymatgen
data_FeHC4O3
_symmetry_space_group_name_H-M   'P 1'
_cell_length_a   26.16600000
_cell_length_b   26.16600000
_cell_length_c   6.85950000
_cell_angle_alpha   90.00000000
_cell_angle_beta   90.00000000
_cell_angle_gamma   120.00000000
_symmetry_Int_Tables_number   1
_chemical_formula_structural   FeHC4O3
_chemical_formula_sum   'Fe18 H18 C72 O54'
_cell_volume   4067.22095321
_cell_formula_units_Z   18
loop_
 _symmetry_equiv_pos_site_id
 _symmetry_equiv_pos_as_xyz
  1  'x, y, z'
loop_
 _atom_site_type_symbol
 _atom_site_label
 _atom_site_symmetry_multiplicity
 _atom_site_fract_x
 _atom_site_fract_y
 _atom_site_fract_z
 _atom_site_occupancy
 _atom_site_charge
  Fe  Fe1  1  0.381890  0.352050  0.143700  1.0  1.0403
  Fe  Fe2  1  0.048560  0.685380  0.477030  1.0  1.0415
  Fe  Fe3  1  0.715220  0.018720  0.810370  1.0  1.0404
  Fe  Fe4  1  0.647950  0.029840  0.143700  1.0  1.0449
  Fe  Fe5  1  0.314620  0.363170  0.477030  1.0  1.0439
  Fe  Fe6  1  0.981280  0.696510  0.810370  1.0  1.0439
  Fe  Fe7  1  0.970160  0.618110  0.143700  1.0  1.0426
  Fe  Fe8  1  0.636830  0.951440  0.477030  1.0  1.0415
  Fe  Fe9  1  0.303490  0.284780  0.810370  1.0  1.0416
  Fe  Fe10  1  0.618110  0.647950  0.856300  1.0  1.0405
  Fe  Fe11  1  0.284780  0.981280  0.189630  1.0  1.0405
  Fe  Fe12  1  0.951440  0.314620  0.522970  1.0  1.0417
  Fe  Fe13  1  0.352050  0.970160  0.856300  1.0  1.0423
  Fe  Fe14  1  0.018720  0.303490  0.189630  1.0  1.0413
  Fe  Fe15  1  0.685380  0.636830  0.522970  1.0  1.0412
  Fe  Fe16  1  0.029840  0.381890  0.856300  1.0  1.0435
  Fe  Fe17  1  0.696510  0.715220  0.189630  1.0  1.0425
  Fe  Fe18  1  0.363170  0.048560  0.522970  1.0  1.0423
  H  H19  1  0.361900  0.193040  0.828800  1.0  0.1325
  H  H20  1  0.028570  0.526370  0.162130  1.0  0.1326
  H  H21  1  0.695230  0.859710  0.495470  1.0  0.1343
  H  H22  1  0.806960  0.168860  0.828800  1.0  0.1337
  H  H23  1  0.473630  0.502190  0.162130  1.0  0.1339
  H  H24  1  0.140290  0.835530  0.495470  1.0  0.1344
  H  H25  1  0.831140  0.638100  0.828800  1.0  0.134
  H  H26  1  0.497810  0.971430  0.162130  1.0  0.1337
  H  H27  1  0.164470  0.304770  0.495470  1.0  0.1343
  H  H28  1  0.638100  0.806960  0.171200  1.0  0.133
  H  H29  1  0.304770  0.140290  0.504530  1.0  0.1345
  H  H30  1  0.971430  0.473630  0.837870  1.0  0.1331
  H  H31  1  0.193040  0.831140  0.171200  1.0  0.1345
  H  H32  1  0.859710  0.164470  0.504530  1.0  0.1351
  H  H33  1  0.526370  0.497810  0.837870  1.0  0.1347
  H  H34  1  0.168860  0.361900  0.171200  1.0  0.1347
  H  H35  1  0.835530  0.695230  0.504530  1.0  0.135
  H  H36  1  0.502190  0.028570  0.837870  1.0  0.1343
  C  C37  1  0.319300  0.246300  0.429200  1.0  0.7764
  C  C38  1  0.327470  0.206280  0.288700  1.0  -0.2254
  C  C39  1  0.343800  0.221330  0.092400  1.0  0.3361
  C  C40  1  0.350600  0.181660  0.972800  1.0  -0.0835
  C  C41  1  0.985970  0.579630  0.762530  1.0  0.7764
  C  C42  1  0.994140  0.539610  0.622030  1.0  -0.2234
  C  C43  1  0.010470  0.554660  0.425730  1.0  0.3355
  C  C44  1  0.017270  0.514990  0.306130  1.0  -0.0848
  C  C45  1  0.652630  0.912970  0.095870  1.0  0.7767
  C  C46  1  0.660800  0.872950  0.955370  1.0  -0.2253
  C  C47  1  0.677130  0.888000  0.759070  1.0  0.336
  C  C48  1  0.683930  0.848330  0.639470  1.0  -0.0886
  C  C49  1  0.753700  0.073000  0.429200  1.0  0.7768
  C  C50  1  0.793720  0.121190  0.288700  1.0  -0.2242
  C  C51  1  0.778670  0.122470  0.092400  1.0  0.3346
  C  C52  1  0.818340  0.168940  0.972800  1.0  -0.0918
  C  C53  1  0.420370  0.406330  0.762530  1.0  0.7768
  C  C54  1  0.460390  0.454520  0.622030  1.0  -0.2247
  C  C55  1  0.445340  0.455800  0.425730  1.0  0.3346
  C  C56  1  0.485010  0.502270  0.306130  1.0  -0.0918
  C  C57  1  0.087030  0.739670  0.095870  1.0  0.7768
  C  C58  1  0.127050  0.787860  0.955370  1.0  -0.2242
  C  C59  1  0.112000  0.789140  0.759070  1.0  0.3347
  C  C60  1  0.151670  0.835610  0.639470  1.0  -0.0864
  C  C61  1  0.927000  0.680700  0.429200  1.0  0.7747
  C  C62  1  0.878810  0.672530  0.288700  1.0  -0.2246
  C  C63  1  0.877530  0.656200  0.092400  1.0  0.3391
  C  C64  1  0.831060  0.649400  0.972800  1.0  -0.0914
  C  C65  1  0.593670  0.014030  0.762530  1.0  0.7748
  C  C66  1  0.545480  0.005860  0.622030  1.0  -0.2269
  C  C67  1  0.544200  0.989530  0.425730  1.0  0.3391
  C  C68  1  0.497730  0.982730  0.306130  1.0  -0.0905
  C  C69  1  0.260330  0.347370  0.095870  1.0  0.7744
  C  C70  1  0.212140  0.339200  0.955370  1.0  -0.2245
  C  C71  1  0.210860  0.322870  0.759070  1.0  0.3391
  C  C72  1  0.164390  0.316070  0.639470  1.0  -0.0904
  C  C73  1  0.680700  0.753700  0.570800  1.0  0.7765
  C  C74  1  0.672530  0.793720  0.711300  1.0  -0.2229
  C  C75  1  0.656200  0.778670  0.907600  1.0  0.3365
  C  C76  1  0.649400  0.818340  0.027200  1.0  -0.084
  C  C77  1  0.347370  0.087030  0.904130  1.0  0.7768
  C  C78  1  0.339200  0.127050  0.044630  1.0  -0.2229
  C  C79  1  0.322870  0.112000  0.240930  1.0  0.3364
  C  C80  1  0.316070  0.151670  0.360530  1.0  -0.089
  C  C81  1  0.014030  0.420370  0.237470  1.0  0.7765
  C  C82  1  0.005860  0.460390  0.377970  1.0  -0.2221
  C  C83  1  0.989530  0.445340  0.574270  1.0  0.336
  C  C84  1  0.982730  0.485010  0.693870  1.0  -0.0853
  C  C85  1  0.246300  0.927000  0.570800  1.0  0.7764
  C  C86  1  0.206280  0.878810  0.711300  1.0  -0.2215
  C  C87  1  0.221330  0.877530  0.907600  1.0  0.3365
  C  C88  1  0.181660  0.831060  0.027200  1.0  -0.0903
  C  C89  1  0.912970  0.260330  0.904130  1.0  0.7764
  C  C90  1  0.872950  0.212140  0.044630  1.0  -0.2215
  C  C91  1  0.888000  0.210860  0.240930  1.0  0.3366
  C  C92  1  0.848330  0.164390  0.360530  1.0  -0.0851
  C  C93  1  0.579630  0.593670  0.237470  1.0  0.7764
  C  C94  1  0.539610  0.545480  0.377970  1.0  -0.222
  C  C95  1  0.554660  0.544200  0.574270  1.0  0.3365
  C  C96  1  0.514990  0.497730  0.693870  1.0  -0.0903
  C  C97  1  0.073000  0.319300  0.570800  1.0  0.7733
  C  C98  1  0.121190  0.327470  0.711300  1.0  -0.2216
  C  C99  1  0.122470  0.343800  0.907600  1.0  0.336
  C  C100  1  0.168940  0.350600  0.027200  1.0  -0.0926
  C  C101  1  0.739670  0.652630  0.904130  1.0  0.7729
  C  C102  1  0.787860  0.660800  0.044630  1.0  -0.2216
  C  C103  1  0.789140  0.677130  0.240930  1.0  0.336
  C  C104  1  0.835610  0.683930  0.360530  1.0  -0.0916
  C  C105  1  0.406330  0.985970  0.237470  1.0  0.7733
  C  C106  1  0.454520  0.994140  0.377970  1.0  -0.2241
  C  C107  1  0.455800  0.010470  0.574270  1.0  0.3361
  C  C108  1  0.502270  0.017270  0.693870  1.0  -0.0917
  O  O109  1  0.327860  0.295730  0.367600  1.0  -0.6387
  O  O110  1  0.301040  0.227150  0.601900  1.0  -0.6255
  O  O111  1  0.354970  0.273800  0.008400  1.0  -0.7106
  O  O112  1  0.994530  0.629060  0.700930  1.0  -0.6388
  O  O113  1  0.967710  0.560480  0.935230  1.0  -0.6252
  O  O114  1  0.021640  0.607130  0.341730  1.0  -0.7097
  O  O115  1  0.661190  0.962400  0.034270  1.0  -0.6386
  O  O116  1  0.634370  0.893820  0.268570  1.0  -0.6252
  O  O117  1  0.688300  0.940470  0.675070  1.0  -0.7107
  O  O118  1  0.704270  0.032130  0.367600  1.0  -0.6416
  O  O119  1  0.772850  0.073890  0.601900  1.0  -0.6255
  O  O120  1  0.726200  0.081170  0.008400  1.0  -0.7097
  O  O121  1  0.370940  0.365460  0.700930  1.0  -0.6416
  O  O122  1  0.439520  0.407220  0.935230  1.0  -0.6255
  O  O123  1  0.392870  0.414500  0.341730  1.0  -0.7097
  O  O124  1  0.037600  0.698800  0.034270  1.0  -0.6417
  O  O125  1  0.106180  0.740560  0.268570  1.0  -0.6255
  O  O126  1  0.059530  0.747840  0.675070  1.0  -0.7097
  O  O127  1  0.967870  0.672140  0.367600  1.0  -0.6407
  O  O128  1  0.926110  0.698960  0.601900  1.0  -0.6271
  O  O129  1  0.918830  0.645030  0.008400  1.0  -0.7104
  O  O130  1  0.634540  0.005470  0.700930  1.0  -0.6409
  O  O131  1  0.592780  0.032290  0.935230  1.0  -0.6271
  O  O132  1  0.585500  0.978360  0.341730  1.0  -0.7104
  O  O133  1  0.301200  0.338810  0.034270  1.0  -0.6407
  O  O134  1  0.259440  0.365630  0.268570  1.0  -0.6272
  O  O135  1  0.252160  0.311700  0.675070  1.0  -0.7103
  O  O136  1  0.672140  0.704270  0.632400  1.0  -0.64
  O  O137  1  0.698960  0.772850  0.398100  1.0  -0.6255
  O  O138  1  0.645030  0.726200  0.991600  1.0  -0.7117
  O  O139  1  0.338810  0.037600  0.965730  1.0  -0.64
  O  O140  1  0.365630  0.106180  0.731430  1.0  -0.6251
  O  O141  1  0.311700  0.059530  0.324930  1.0  -0.7117
  O  O142  1  0.005470  0.370940  0.299070  1.0  -0.6401
  O  O143  1  0.032290  0.439520  0.064770  1.0  -0.6251
  O  O144  1  0.978360  0.392870  0.658270  1.0  -0.7108
  O  O145  1  0.295730  0.967870  0.632400  1.0  -0.6397
  O  O146  1  0.227150  0.926110  0.398100  1.0  -0.6245
  O  O147  1  0.273800  0.918830  0.991600  1.0  -0.7081
  O  O148  1  0.962400  0.301200  0.965730  1.0  -0.6398
  O  O149  1  0.893820  0.259440  0.731430  1.0  -0.6245
  O  O150  1  0.940470  0.252160  0.324930  1.0  -0.7081
  O  O151  1  0.629060  0.634540  0.299070  1.0  -0.6397
  O  O152  1  0.560480  0.592780  0.064770  1.0  -0.6246
  O  O153  1  0.607130  0.585500  0.658270  1.0  -0.7081
  O  O154  1  0.032130  0.327860  0.632400  1.0  -0.6401
  O  O155  1  0.073890  0.301040  0.398100  1.0  -0.6249
  O  O156  1  0.081170  0.354970  0.991600  1.0  -0.7109
  O  O157  1  0.698800  0.661190  0.965730  1.0  -0.6401
  O  O158  1  0.740560  0.634370  0.731430  1.0  -0.625
  O  O159  1  0.747840  0.688300  0.324930  1.0  -0.7109
  O  O160  1  0.365460  0.994530  0.299070  1.0  -0.6404
  O  O161  1  0.407220  0.967710  0.064770  1.0  -0.6249
  O  O162  1  0.414500  0.021640  0.658270  1.0  -0.7109
