# generated using pymatgen
data_Cr2Ag3(CO2)12
_symmetry_space_group_name_H-M   'P 1'
_cell_length_a   14.70400000
_cell_length_b   17.24400000
_cell_length_c   24.51600000
_cell_angle_alpha   105.77200000
_cell_angle_beta   90.00000000
_cell_angle_gamma   90.00000000
_symmetry_Int_Tables_number   1
_chemical_formula_structural   Cr2Ag3(CO2)12
_chemical_formula_sum   'Cr16 Ag24 C96 O192'
_cell_volume   5982.14031805
_cell_formula_units_Z   8
loop_
 _symmetry_equiv_pos_site_id
 _symmetry_equiv_pos_as_xyz
  1  'x, y, z'
loop_
 _atom_site_type_symbol
 _atom_site_label
 _atom_site_symmetry_multiplicity
 _atom_site_fract_x
 _atom_site_fract_y
 _atom_site_fract_z
 _atom_site_occupancy
 _atom_site_charge
  Cr  Cr1  1  0.524100  0.209960  0.590600  1.0  1.5334
  Cr  Cr2  1  0.506380  0.216860  0.344460  1.0  1.5252
  Cr  Cr3  1  0.510380  0.206750  0.841200  1.0  1.5309
  Cr  Cr4  1  0.016180  0.289540  0.407000  1.0  1.4814
  Cr  Cr5  1  0.024100  0.290040  0.909400  1.0  1.5338
  Cr  Cr6  1  0.006380  0.283140  0.155540  1.0  1.5274
  Cr  Cr7  1  0.010380  0.293250  0.658800  1.0  1.5325
  Cr  Cr8  1  0.516180  0.210460  0.093000  1.0  1.4792
  Cr  Cr9  1  0.475900  0.790040  0.409400  1.0  1.5342
  Cr  Cr10  1  0.493620  0.783140  0.655540  1.0  1.527
  Cr  Cr11  1  0.489620  0.793250  0.158800  1.0  1.5328
  Cr  Cr12  1  0.983820  0.710460  0.593000  1.0  1.4795
  Cr  Cr13  1  0.975900  0.709960  0.090600  1.0  1.5338
  Cr  Cr14  1  0.993620  0.716860  0.844460  1.0  1.5249
  Cr  Cr15  1  0.989620  0.706750  0.341200  1.0  1.531
  Cr  Cr16  1  0.483820  0.789540  0.907000  1.0  1.482
  Ag  Ag17  1  0.323040  0.254120  0.751790  1.0  0.5988
  Ag  Ag18  1  0.711550  0.245430  0.501060  1.0  0.5974
  Ag  Ag19  1  0.698010  0.082600  0.360760  1.0  0.4916
  Ag  Ag20  1  0.324940  0.084050  0.607010  1.0  0.4811
  Ag  Ag21  1  0.553850  0.993830  0.625980  1.0  0.5587
  Ag  Ag22  1  0.313430  0.253100  0.251220  1.0  0.5719
  Ag  Ag23  1  0.823040  0.245880  0.748210  1.0  0.5994
  Ag  Ag24  1  0.211550  0.254570  0.998940  1.0  0.5983
  Ag  Ag25  1  0.198010  0.417400  0.139240  1.0  0.4883
  Ag  Ag26  1  0.824940  0.415950  0.892990  1.0  0.4817
  Ag  Ag27  1  0.053850  0.506170  0.874020  1.0  0.5589
  Ag  Ag28  1  0.813430  0.246900  0.248780  1.0  0.5721
  Ag  Ag29  1  0.676960  0.745880  0.248210  1.0  0.599
  Ag  Ag30  1  0.288450  0.754570  0.498940  1.0  0.5985
  Ag  Ag31  1  0.301990  0.917400  0.639240  1.0  0.4866
  Ag  Ag32  1  0.675060  0.915950  0.392990  1.0  0.481
  Ag  Ag33  1  0.446150  0.006170  0.374020  1.0  0.5607
  Ag  Ag34  1  0.686570  0.746900  0.748780  1.0  0.5714
  Ag  Ag35  1  0.176960  0.754120  0.251790  1.0  0.5985
  Ag  Ag36  1  0.788450  0.745430  0.001060  1.0  0.5975
  Ag  Ag37  1  0.801990  0.582600  0.860760  1.0  0.4903
  Ag  Ag38  1  0.175060  0.584050  0.107010  1.0  0.4802
  Ag  Ag39  1  0.946150  0.493830  0.125980  1.0  0.5607
  Ag  Ag40  1  0.186570  0.753100  0.751220  1.0  0.5713
  C  C41  1  0.384600  0.316800  0.589300  1.0  0.622
  C  C42  1  0.376300  0.292900  0.645200  1.0  0.7191
  C  C43  1  0.672700  0.273100  0.656300  1.0  0.63
  C  C44  1  0.661900  0.185000  0.660100  1.0  0.6162
  C  C45  1  0.554000  0.109400  0.482100  1.0  0.6542
  C  C46  1  0.462900  0.082600  0.502200  1.0  0.6563
  C  C47  1  0.359200  0.286200  0.411500  1.0  0.597
  C  C48  1  0.362600  0.196500  0.412500  1.0  0.5857
  C  C49  1  0.659400  0.294100  0.397500  1.0  0.6751
  C  C50  1  0.652800  0.315400  0.340100  1.0  0.6452
  C  C51  1  0.553500  0.084000  0.256300  1.0  0.5887
  C  C52  1  0.465100  0.118600  0.237300  1.0  0.6045
  C  C53  1  0.469500  0.109800  0.734100  1.0  0.6562
  C  C54  1  0.558800  0.075200  0.752100  1.0  0.6094
  C  C55  1  0.655500  0.306800  0.837000  1.0  0.6744
  C  C56  1  0.665000  0.283700  0.894300  1.0  0.677
  C  C57  1  0.367200  0.188900  0.910500  1.0  0.6127
  C  C58  1  0.364400  0.277200  0.907100  1.0  0.6162
  C  C59  1  0.865900  0.208000  0.354000  1.0  0.7364
  C  C60  1  0.873100  0.188200  0.411500  1.0  0.6714
  C  C61  1  0.957300  0.416900  0.494900  1.0  0.5964
  C  C62  1  0.049200  0.389000  0.514500  1.0  0.5899
  C  C63  1  0.167700  0.228500  0.342500  1.0  0.6143
  C  C64  1  0.157900  0.316900  0.339300  1.0  0.6063
  C  C65  1  0.884600  0.183200  0.910700  1.0  0.6221
  C  C66  1  0.876300  0.207100  0.854800  1.0  0.7218
  C  C67  1  0.172700  0.226900  0.843700  1.0  0.6298
  C  C68  1  0.161900  0.315000  0.839900  1.0  0.614
  C  C69  1  0.054000  0.390600  0.017900  1.0  0.6545
  C  C70  1  0.962900  0.417400  0.997800  1.0  0.6563
  C  C71  1  0.859200  0.213800  0.088500  1.0  0.5975
  C  C72  1  0.862600  0.303500  0.087500  1.0  0.5865
  C  C73  1  0.159400  0.205900  0.102500  1.0  0.6754
  C  C74  1  0.152800  0.184600  0.159900  1.0  0.645
  C  C75  1  0.053500  0.416000  0.243700  1.0  0.589
  C  C76  1  0.965100  0.381400  0.262700  1.0  0.6047
  C  C77  1  0.969500  0.390200  0.765900  1.0  0.6563
  C  C78  1  0.058800  0.424800  0.747900  1.0  0.6092
  C  C79  1  0.155500  0.193200  0.663000  1.0  0.6733
  C  C80  1  0.165000  0.216300  0.605700  1.0  0.6776
  C  C81  1  0.867200  0.311100  0.589500  1.0  0.6112
  C  C82  1  0.864400  0.222800  0.592900  1.0  0.6165
  C  C83  1  0.365900  0.292000  0.146000  1.0  0.7363
  C  C84  1  0.373100  0.311800  0.088500  1.0  0.6721
  C  C85  1  0.457300  0.083100  0.005100  1.0  0.5969
  C  C86  1  0.549200  0.111000  0.985500  1.0  0.5914
  C  C87  1  0.667700  0.271500  0.157500  1.0  0.6162
  C  C88  1  0.657900  0.183100  0.160700  1.0  0.6064
  C  C89  1  0.615400  0.683200  0.410700  1.0  0.6223
  C  C90  1  0.623700  0.707100  0.354800  1.0  0.7203
  C  C91  1  0.327300  0.726900  0.343700  1.0  0.6302
  C  C92  1  0.338100  0.815000  0.339900  1.0  0.6146
  C  C93  1  0.446000  0.890600  0.517900  1.0  0.6561
  C  C94  1  0.537100  0.917400  0.497800  1.0  0.6572
  C  C95  1  0.640800  0.713800  0.588500  1.0  0.5987
  C  C96  1  0.637400  0.803500  0.587500  1.0  0.5845
  C  C97  1  0.340600  0.705900  0.602500  1.0  0.6756
  C  C98  1  0.347200  0.684600  0.659900  1.0  0.6444
  C  C99  1  0.446500  0.916000  0.743700  1.0  0.5896
  C  C100  1  0.534900  0.881400  0.762700  1.0  0.6112
  C  C101  1  0.530500  0.890200  0.265900  1.0  0.6551
  C  C102  1  0.441200  0.924800  0.247900  1.0  0.6153
  C  C103  1  0.344500  0.693200  0.163000  1.0  0.6739
  C  C104  1  0.335000  0.716300  0.105700  1.0  0.6761
  C  C105  1  0.632800  0.811100  0.089500  1.0  0.6102
  C  C106  1  0.635600  0.722800  0.092900  1.0  0.6167
  C  C107  1  0.134100  0.792000  0.646000  1.0  0.7349
  C  C108  1  0.126900  0.811800  0.588500  1.0  0.6713
  C  C109  1  0.042700  0.583100  0.505100  1.0  0.5959
  C  C110  1  0.950800  0.611000  0.485500  1.0  0.5897
  C  C111  1  0.832300  0.771500  0.657500  1.0  0.6157
  C  C112  1  0.842100  0.683100  0.660700  1.0  0.6059
  C  C113  1  0.115400  0.816800  0.089300  1.0  0.622
  C  C114  1  0.123700  0.792900  0.145200  1.0  0.7208
  C  C115  1  0.827300  0.773100  0.156300  1.0  0.6305
  C  C116  1  0.838100  0.685000  0.160100  1.0  0.6164
  C  C117  1  0.946000  0.609400  0.982100  1.0  0.656
  C  C118  1  0.037100  0.582600  0.002200  1.0  0.6574
  C  C119  1  0.140800  0.786200  0.911500  1.0  0.5984
  C  C120  1  0.137400  0.696500  0.912500  1.0  0.5846
  C  C121  1  0.840600  0.794100  0.897500  1.0  0.6758
  C  C122  1  0.847200  0.815400  0.840100  1.0  0.6449
  C  C123  1  0.946500  0.584000  0.756300  1.0  0.5892
  C  C124  1  0.034900  0.618600  0.737300  1.0  0.6107
  C  C125  1  0.030500  0.609800  0.234100  1.0  0.6548
  C  C126  1  0.941200  0.575200  0.252100  1.0  0.6149
  C  C127  1  0.844500  0.806800  0.337000  1.0  0.6751
  C  C128  1  0.835000  0.783700  0.394300  1.0  0.6803
  C  C129  1  0.132800  0.688900  0.410500  1.0  0.6117
  C  C130  1  0.135600  0.777200  0.407100  1.0  0.6161
  C  C131  1  0.634100  0.708000  0.854000  1.0  0.7361
  C  C132  1  0.626900  0.688200  0.911500  1.0  0.6705
  C  C133  1  0.542700  0.916900  0.994900  1.0  0.5953
  C  C134  1  0.450800  0.889000  0.014500  1.0  0.5881
  C  C135  1  0.332300  0.728500  0.842500  1.0  0.6142
  C  C136  1  0.342100  0.816900  0.839300  1.0  0.6061
  O  O137  1  0.453700  0.284500  0.558600  1.0  -0.5182
  O  O138  1  0.328400  0.361000  0.576100  1.0  -0.3959
  O  O139  1  0.438100  0.245100  0.653200  1.0  -0.5313
  O  O140  1  0.312900  0.319200  0.677700  1.0  -0.5277
  O  O141  1  0.615100  0.292800  0.623600  1.0  -0.5077
  O  O142  1  0.733200  0.315400  0.683300  1.0  -0.4948
  O  O143  1  0.597600  0.145300  0.629600  1.0  -0.5869
  O  O144  1  0.714000  0.157300  0.689300  1.0  -0.5205
  O  O145  1  0.592600  0.167600  0.518200  1.0  -0.5593
  O  O146  1  0.585200  0.072900  0.434900  1.0  -0.6645
  O  O147  1  0.443800  0.119300  0.553800  1.0  -0.5621
  O  O148  1  0.415900  0.029400  0.471400  1.0  -0.5033
  O  O149  1  0.421700  0.304800  0.379300  1.0  -0.499
  O  O150  1  0.300900  0.331000  0.437100  1.0  -0.3998
  O  O151  1  0.429700  0.156100  0.384500  1.0  -0.5724
  O  O152  1  0.306300  0.170600  0.439400  1.0  -0.4315
  O  O153  1  0.596000  0.248900  0.406500  1.0  -0.5351
  O  O154  1  0.723300  0.320100  0.429800  1.0  -0.5319
  O  O155  1  0.582800  0.286200  0.311100  1.0  -0.5069
  O  O156  1  0.712300  0.356500  0.326100  1.0  -0.5214
  O  O157  1  0.578600  0.119900  0.306800  1.0  -0.5609
  O  O158  1  0.591400  0.025900  0.224100  1.0  -0.4525
  O  O159  1  0.433900  0.181200  0.275100  1.0  -0.5656
  O  O160  1  0.429300  0.086700  0.191600  1.0  -0.4512
  O  O161  1  0.437700  0.171200  0.770600  1.0  -0.5558
  O  O162  1  0.435900  0.077000  0.687000  1.0  -0.5362
  O  O163  1  0.582000  0.111400  0.803800  1.0  -0.5104
  O  O164  1  0.598600  0.018300  0.721000  1.0  -0.5046
  O  O165  1  0.585200  0.278000  0.807900  1.0  -0.5088
  O  O166  1  0.713900  0.349300  0.823100  1.0  -0.5477
  O  O167  1  0.599600  0.240000  0.902700  1.0  -0.503
  O  O168  1  0.728700  0.307800  0.925600  1.0  -0.5261
  O  O169  1  0.432100  0.146600  0.880200  1.0  -0.5037
  O  O170  1  0.312300  0.164100  0.938900  1.0  -0.518
  O  O171  1  0.426500  0.296000  0.876400  1.0  -0.4975
  O  O172  1  0.304900  0.322900  0.932700  1.0  -0.5019
  O  O173  1  0.929800  0.251600  0.343600  1.0  -0.5248
  O  O174  1  0.800500  0.183100  0.323000  1.0  -0.515
  O  O175  1  0.943800  0.217900  0.440900  1.0  -0.5145
  O  O176  1  0.814100  0.147900  0.427200  1.0  -0.5726
  O  O177  1  0.936800  0.381300  0.443500  1.0  -0.5075
  O  O178  1  0.912700  0.470300  0.527100  1.0  -0.4507
  O  O179  1  0.085700  0.329600  0.477700  1.0  -0.5001
  O  O180  1  0.082900  0.424300  0.560700  1.0  -0.4285
  O  O181  1  0.108300  0.206700  0.374100  1.0  -0.5088
  O  O182  1  0.229100  0.186200  0.317000  1.0  -0.4945
  O  O183  1  0.089500  0.354500  0.368200  1.0  -0.5081
  O  O184  1  0.211700  0.346400  0.312600  1.0  -0.5012
  O  O185  1  0.953700  0.215500  0.941400  1.0  -0.5187
  O  O186  1  0.828400  0.139000  0.923900  1.0  -0.3948
  O  O187  1  0.938100  0.254900  0.846800  1.0  -0.5289
  O  O188  1  0.812900  0.180800  0.822300  1.0  -0.5269
  O  O189  1  0.115100  0.207200  0.876400  1.0  -0.5054
  O  O190  1  0.233200  0.184600  0.816700  1.0  -0.4959
  O  O191  1  0.097600  0.354700  0.870400  1.0  -0.5882
  O  O192  1  0.214000  0.342700  0.810700  1.0  -0.5197
  O  O193  1  0.092600  0.332400  0.981800  1.0  -0.5591
  O  O194  1  0.085200  0.427100  0.065100  1.0  -0.6649
  O  O195  1  0.943800  0.380700  0.946200  1.0  -0.5632
  O  O196  1  0.915900  0.470600  0.028600  1.0  -0.5037
  O  O197  1  0.921700  0.195200  0.120700  1.0  -0.4974
  O  O198  1  0.800900  0.169000  0.062900  1.0  -0.3999
  O  O199  1  0.929700  0.343900  0.115500  1.0  -0.5716
  O  O200  1  0.806300  0.329400  0.060600  1.0  -0.4334
  O  O201  1  0.096000  0.251100  0.093500  1.0  -0.5351
  O  O202  1  0.223300  0.179900  0.070200  1.0  -0.5323
  O  O203  1  0.082800  0.213800  0.188900  1.0  -0.507
  O  O204  1  0.212300  0.143500  0.173900  1.0  -0.5208
  O  O205  1  0.078600  0.380100  0.193200  1.0  -0.5623
  O  O206  1  0.091400  0.474100  0.275900  1.0  -0.4521
  O  O207  1  0.933900  0.318800  0.224900  1.0  -0.5639
  O  O208  1  0.929300  0.413300  0.308400  1.0  -0.4516
  O  O209  1  0.937700  0.328800  0.729400  1.0  -0.5558
  O  O210  1  0.935900  0.423000  0.813000  1.0  -0.5366
  O  O211  1  0.082000  0.388600  0.696200  1.0  -0.5116
  O  O212  1  0.098600  0.481700  0.779000  1.0  -0.5043
  O  O213  1  0.085200  0.222000  0.692100  1.0  -0.5113
  O  O214  1  0.213900  0.150700  0.676900  1.0  -0.5466
  O  O215  1  0.099600  0.260000  0.597300  1.0  -0.5009
  O  O216  1  0.228700  0.192200  0.574400  1.0  -0.5235
  O  O217  1  0.932100  0.353400  0.619800  1.0  -0.504
  O  O218  1  0.812300  0.335900  0.561100  1.0  -0.5176
  O  O219  1  0.926500  0.204000  0.623600  1.0  -0.4943
  O  O220  1  0.804900  0.177100  0.567300  1.0  -0.5022
  O  O221  1  0.429800  0.248400  0.156400  1.0  -0.5238
  O  O222  1  0.300500  0.316900  0.177000  1.0  -0.5135
  O  O223  1  0.443800  0.282100  0.059100  1.0  -0.5129
  O  O224  1  0.314100  0.352100  0.072800  1.0  -0.572
  O  O225  1  0.436800  0.118700  0.056500  1.0  -0.5073
  O  O226  1  0.412700  0.029700  0.972900  1.0  -0.4505
  O  O227  1  0.585700  0.170400  0.022300  1.0  -0.4979
  O  O228  1  0.582900  0.075700  0.939300  1.0  -0.4268
  O  O229  1  0.608300  0.293300  0.125900  1.0  -0.507
  O  O230  1  0.729100  0.313800  0.183000  1.0  -0.4939
  O  O231  1  0.589500  0.145500  0.131800  1.0  -0.5079
  O  O232  1  0.711700  0.153600  0.187400  1.0  -0.5019
  O  O233  1  0.546300  0.715500  0.441400  1.0  -0.5193
  O  O234  1  0.671600  0.639000  0.423900  1.0  -0.3962
  O  O235  1  0.561900  0.754900  0.346800  1.0  -0.5293
  O  O236  1  0.687100  0.680800  0.322300  1.0  -0.5278
  O  O237  1  0.384900  0.707200  0.376400  1.0  -0.5044
  O  O238  1  0.266800  0.684600  0.316700  1.0  -0.4955
  O  O239  1  0.402400  0.854700  0.370400  1.0  -0.5884
  O  O240  1  0.286000  0.842700  0.310700  1.0  -0.5199
  O  O241  1  0.407400  0.832400  0.481800  1.0  -0.5599
  O  O242  1  0.414800  0.927100  0.565100  1.0  -0.6672
  O  O243  1  0.556200  0.880700  0.446200  1.0  -0.563
  O  O244  1  0.584100  0.970600  0.528600  1.0  -0.5038
  O  O245  1  0.578300  0.695200  0.620700  1.0  -0.4994
  O  O246  1  0.699100  0.669000  0.562900  1.0  -0.3995
  O  O247  1  0.570300  0.843900  0.615500  1.0  -0.5731
  O  O248  1  0.693700  0.829400  0.560600  1.0  -0.4313
  O  O249  1  0.404000  0.751100  0.593500  1.0  -0.5345
  O  O250  1  0.276700  0.679900  0.570200  1.0  -0.5326
  O  O251  1  0.417200  0.713800  0.688900  1.0  -0.5066
  O  O252  1  0.287700  0.643500  0.673900  1.0  -0.5212
  O  O253  1  0.421400  0.880100  0.693200  1.0  -0.5623
  O  O254  1  0.408600  0.974100  0.775900  1.0  -0.4502
  O  O255  1  0.566100  0.818800  0.724900  1.0  -0.5622
  O  O256  1  0.570700  0.913300  0.808400  1.0  -0.4538
  O  O257  1  0.562300  0.828800  0.229400  1.0  -0.555
  O  O258  1  0.564100  0.923000  0.313000  1.0  -0.536
  O  O259  1  0.418000  0.888600  0.196200  1.0  -0.5121
  O  O260  1  0.401400  0.981700  0.279000  1.0  -0.5045
  O  O261  1  0.414800  0.722000  0.192100  1.0  -0.5112
  O  O262  1  0.286100  0.650700  0.176900  1.0  -0.5466
  O  O263  1  0.400400  0.760000  0.097300  1.0  -0.5007
  O  O264  1  0.271300  0.692200  0.074400  1.0  -0.5237
  O  O265  1  0.567900  0.853400  0.119800  1.0  -0.5049
  O  O266  1  0.687700  0.835900  0.061100  1.0  -0.518
  O  O267  1  0.573500  0.704000  0.123600  1.0  -0.4941
  O  O268  1  0.695100  0.677100  0.067300  1.0  -0.5029
  O  O269  1  0.070200  0.748400  0.656400  1.0  -0.5243
  O  O270  1  0.199500  0.816900  0.677000  1.0  -0.5142
  O  O271  1  0.056200  0.782100  0.559100  1.0  -0.5134
  O  O272  1  0.185900  0.852100  0.572800  1.0  -0.5749
  O  O273  1  0.063200  0.618700  0.556500  1.0  -0.5071
  O  O274  1  0.087300  0.529700  0.472900  1.0  -0.4508
  O  O275  1  0.914300  0.670400  0.522300  1.0  -0.4991
  O  O276  1  0.917100  0.575700  0.439300  1.0  -0.4274
  O  O277  1  0.891700  0.793300  0.625900  1.0  -0.5076
  O  O278  1  0.770900  0.813800  0.683000  1.0  -0.4912
  O  O279  1  0.910500  0.645500  0.631800  1.0  -0.5066
  O  O280  1  0.788300  0.653600  0.687400  1.0  -0.5
  O  O281  1  0.046300  0.784500  0.058600  1.0  -0.5186
  O  O282  1  0.171600  0.861000  0.076100  1.0  -0.395
  O  O283  1  0.061900  0.745100  0.153200  1.0  -0.5315
  O  O284  1  0.187100  0.819200  0.177700  1.0  -0.5295
  O  O285  1  0.884900  0.792800  0.123600  1.0  -0.5081
  O  O286  1  0.766800  0.815400  0.183300  1.0  -0.4934
  O  O287  1  0.902400  0.645300  0.129600  1.0  -0.5873
  O  O288  1  0.786000  0.657300  0.189300  1.0  -0.5195
  O  O289  1  0.907400  0.667600  0.018200  1.0  -0.5603
  O  O290  1  0.914800  0.572900  0.934900  1.0  -0.6666
  O  O291  1  0.056200  0.619300  0.053800  1.0  -0.5614
  O  O292  1  0.084100  0.529400  0.971400  1.0  -0.503
  O  O293  1  0.078300  0.804800  0.879300  1.0  -0.5005
  O  O294  1  0.199100  0.831000  0.937100  1.0  -0.4001
  O  O295  1  0.070300  0.656100  0.884500  1.0  -0.5739
  O  O296  1  0.193700  0.670600  0.939400  1.0  -0.4347
  O  O297  1  0.904000  0.748900  0.906500  1.0  -0.5349
  O  O298  1  0.776700  0.820100  0.929800  1.0  -0.5311
  O  O299  1  0.917200  0.786200  0.811100  1.0  -0.5064
  O  O300  1  0.787700  0.856500  0.826100  1.0  -0.5207
  O  O301  1  0.921400  0.619900  0.806800  1.0  -0.5616
  O  O302  1  0.908600  0.525900  0.724100  1.0  -0.4518
  O  O303  1  0.066100  0.681200  0.775100  1.0  -0.5633
  O  O304  1  0.070700  0.586700  0.691600  1.0  -0.4522
  O  O305  1  0.062300  0.671200  0.270600  1.0  -0.5555
  O  O306  1  0.064100  0.577000  0.187000  1.0  -0.5359
  O  O307  1  0.918000  0.611400  0.303800  1.0  -0.5111
  O  O308  1  0.901400  0.518300  0.221000  1.0  -0.5048
  O  O309  1  0.914800  0.778000  0.307900  1.0  -0.5088
  O  O310  1  0.786100  0.849300  0.323100  1.0  -0.5455
  O  O311  1  0.900400  0.740000  0.402700  1.0  -0.503
  O  O312  1  0.771300  0.807800  0.425600  1.0  -0.5244
  O  O313  1  0.067900  0.646600  0.380200  1.0  -0.505
  O  O314  1  0.187700  0.664100  0.438900  1.0  -0.5182
  O  O315  1  0.073500  0.796000  0.376400  1.0  -0.4966
  O  O316  1  0.195100  0.822900  0.432700  1.0  -0.5028
  O  O317  1  0.570200  0.751600  0.843600  1.0  -0.525
  O  O318  1  0.699500  0.683100  0.823000  1.0  -0.515
  O  O319  1  0.556200  0.717900  0.940900  1.0  -0.5157
  O  O320  1  0.685900  0.647900  0.927200  1.0  -0.5747
  O  O321  1  0.563200  0.881300  0.943500  1.0  -0.5081
  O  O322  1  0.587300  0.970300  0.027100  1.0  -0.4523
  O  O323  1  0.414300  0.829600  0.977700  1.0  -0.5009
  O  O324  1  0.417100  0.924300  0.060700  1.0  -0.4268
  O  O325  1  0.391700  0.706700  0.874100  1.0  -0.5087
  O  O326  1  0.270900  0.686200  0.817000  1.0  -0.4924
  O  O327  1  0.410500  0.854500  0.868200  1.0  -0.5071
  O  O328  1  0.288300  0.846400  0.812600  1.0  -0.5001
