# generated using pymatgen
data_Dy4H15C12N3(ClO16)2
_symmetry_space_group_name_H-M   'P 1'
_cell_length_a   14.01100000
_cell_length_b   18.82200000
_cell_length_c   23.42100000
_cell_angle_alpha   90.00000000
_cell_angle_beta   90.00000000
_cell_angle_gamma   90.00000000
_symmetry_Int_Tables_number   1
_chemical_formula_structural   Dy4H15C12N3(ClO16)2
_chemical_formula_sum   'Dy16 H60 C48 N12 Cl8 O128'
_cell_volume   6176.46999868
_cell_formula_units_Z   4
loop_
 _symmetry_equiv_pos_site_id
 _symmetry_equiv_pos_as_xyz
  1  'x, y, z'
loop_
 _atom_site_type_symbol
 _atom_site_label
 _atom_site_symmetry_multiplicity
 _atom_site_fract_x
 _atom_site_fract_y
 _atom_site_fract_z
 _atom_site_occupancy
 _atom_site_charge
  Dy  Dy1  1  0.258970  0.891560  0.919480  1.0  2.3281
  Dy  Dy2  1  0.255460  0.089960  0.896340  1.0  2.2792
  Dy  Dy3  1  0.402800  0.014980  0.013990  1.0  2.415
  Dy  Dy4  1  0.128510  0.006390  0.023240  1.0  2.3244
  Dy  Dy5  1  0.241030  0.108440  0.419480  1.0  2.3273
  Dy  Dy6  1  0.244540  0.910040  0.396340  1.0  2.2794
  Dy  Dy7  1  0.097200  0.985020  0.513990  1.0  2.4127
  Dy  Dy8  1  0.371490  0.993610  0.523240  1.0  2.3233
  Dy  Dy9  1  0.741030  0.391560  0.580520  1.0  2.3284
  Dy  Dy10  1  0.744540  0.589960  0.603660  1.0  2.2777
  Dy  Dy11  1  0.597200  0.514980  0.486010  1.0  2.4154
  Dy  Dy12  1  0.871490  0.506390  0.476760  1.0  2.3252
  Dy  Dy13  1  0.758970  0.608440  0.080520  1.0  2.328
  Dy  Dy14  1  0.755460  0.410040  0.103660  1.0  2.2777
  Dy  Dy15  1  0.902800  0.485020  0.986010  1.0  2.4136
  Dy  Dy16  1  0.628510  0.493610  0.976760  1.0  2.3155
  H  H17  1  0.001100  0.311400  0.927000  1.0  0.3502
  H  H18  1  0.100000  0.285100  0.917300  1.0  0.3522
  H  H19  1  0.467000  0.669500  0.921000  1.0  0.3575
  H  H20  1  0.439200  0.744900  0.911500  1.0  0.3475
  H  H21  1  0.094100  0.008100  0.742900  1.0  0.3935
  H  H22  1  0.094100  0.064200  0.698000  1.0  0.3518
  H  H23  1  0.087100  0.263300  0.010400  1.0  0.1135
  H  H24  1  0.905100  0.216800  0.995500  1.0  0.1531
  H  H25  1  0.964800  0.215700  0.051900  1.0  0.1382
  H  H26  1  0.594400  0.766900  0.946700  1.0  0.1224
  H  H27  1  0.556100  0.791000  0.043700  1.0  0.1485
  H  H28  1  0.460700  0.748200  0.037400  1.0  0.1569
  H  H29  1  0.259600  0.049100  0.704000  1.0  0.13
  H  H30  1  0.226400  0.904200  0.722900  1.0  0.1511
  H  H31  1  0.327100  0.939300  0.715900  1.0  0.1455
  H  H32  1  0.498900  0.688600  0.427000  1.0  0.349
  H  H33  1  0.400000  0.714900  0.417300  1.0  0.3502
  H  H34  1  0.033000  0.330500  0.421000  1.0  0.3587
  H  H35  1  0.060800  0.255100  0.411500  1.0  0.3486
  H  H36  1  0.405900  0.991900  0.242900  1.0  0.3923
  H  H37  1  0.405900  0.935800  0.198000  1.0  0.3519
  H  H38  1  0.412900  0.736700  0.510400  1.0  0.1162
  H  H39  1  0.594900  0.783200  0.495500  1.0  0.1526
  H  H40  1  0.535200  0.784300  0.551900  1.0  0.1373
  H  H41  1  0.905600  0.233100  0.446700  1.0  0.1209
  H  H42  1  0.943900  0.209000  0.543700  1.0  0.1485
  H  H43  1  0.039300  0.251800  0.537400  1.0  0.156
  H  H44  1  0.240400  0.950900  0.204000  1.0  0.1299
  H  H45  1  0.273600  0.095800  0.222900  1.0  0.1504
  H  H46  1  0.172900  0.060700  0.215900  1.0  0.1447
  H  H47  1  0.998900  0.811400  0.573000  1.0  0.3507
  H  H48  1  0.900000  0.785100  0.582700  1.0  0.354
  H  H49  1  0.533000  0.169500  0.579000  1.0  0.3575
  H  H50  1  0.560800  0.244900  0.588500  1.0  0.3474
  H  H51  1  0.905900  0.508100  0.757100  1.0  0.3915
  H  H52  1  0.905900  0.564200  0.802000  1.0  0.3512
  H  H53  1  0.912900  0.763300  0.489600  1.0  0.1172
  H  H54  1  0.094900  0.716800  0.504500  1.0  0.1526
  H  H55  1  0.035200  0.715700  0.448100  1.0  0.1363
  H  H56  1  0.405600  0.266900  0.553300  1.0  0.1217
  H  H57  1  0.443900  0.291000  0.456300  1.0  0.1479
  H  H58  1  0.539300  0.248200  0.462600  1.0  0.1561
  H  H59  1  0.740400  0.549100  0.796000  1.0  0.1297
  H  H60  1  0.773600  0.404200  0.777100  1.0  0.1518
  H  H61  1  0.672900  0.439300  0.784100  1.0  0.1447
  H  H62  1  0.501100  0.188600  0.073000  1.0  0.352
  H  H63  1  0.600000  0.214900  0.082700  1.0  0.3543
  H  H64  1  0.967000  0.830500  0.079000  1.0  0.3589
  H  H65  1  0.939200  0.755100  0.088500  1.0  0.3491
  H  H66  1  0.594100  0.491900  0.257100  1.0  0.3913
  H  H67  1  0.594100  0.435800  0.302000  1.0  0.3522
  H  H68  1  0.587100  0.236700  0.989600  1.0  0.1162
  H  H69  1  0.405100  0.283200  0.004500  1.0  0.153
  H  H70  1  0.464800  0.284300  0.948100  1.0  0.1365
  H  H71  1  0.094400  0.733100  0.053300  1.0  0.1215
  H  H72  1  0.056100  0.709000  0.956300  1.0  0.1482
  H  H73  1  0.960700  0.751800  0.962600  1.0  0.1571
  H  H74  1  0.759600  0.450900  0.296000  1.0  0.1309
  H  H75  1  0.726400  0.595800  0.277100  1.0  0.1495
  H  H76  1  0.827100  0.560700  0.284100  1.0  0.146
  C  C77  1  0.082300  0.168500  0.972400  1.0  0.7068
  C  C78  1  0.040700  0.242400  0.983900  1.0  0.1159
  C  C79  1  0.953400  0.242200  0.017000  1.0  -0.209
  C  C80  1  0.913700  0.314300  0.032900  1.0  0.7441
  C  C81  1  0.600400  0.670700  0.989300  1.0  0.6936
  C  C82  1  0.548800  0.736600  0.967000  1.0  0.097
  C  C83  1  0.505600  0.778400  0.017300  1.0  -0.2998
  C  C84  1  0.454500  0.845900  0.998400  1.0  0.8092
  C  C85  1  0.223000  0.992400  0.634400  1.0  0.7089
  C  C86  1  0.218300  0.007900  0.697600  1.0  0.07
  C  C87  1  0.262900  0.947000  0.730000  1.0  -0.2737
  C  C88  1  0.267200  0.960500  0.795830  1.0  0.7398
  C  C89  1  0.417700  0.831500  0.472400  1.0  0.7055
  C  C90  1  0.459300  0.757600  0.483900  1.0  0.1154
  C  C91  1  0.546600  0.757800  0.517000  1.0  -0.2083
  C  C92  1  0.586300  0.685700  0.532900  1.0  0.7463
  C  C93  1  0.899600  0.329300  0.489300  1.0  0.6907
  C  C94  1  0.951200  0.263400  0.467000  1.0  0.0964
  C  C95  1  0.994400  0.221600  0.517300  1.0  -0.3007
  C  C96  1  0.045500  0.154100  0.498400  1.0  0.8111
  C  C97  1  0.277000  0.007600  0.134400  1.0  0.7095
  C  C98  1  0.281700  0.992100  0.197600  1.0  0.07
  C  C99  1  0.237100  0.053000  0.230000  1.0  -0.2742
  C  C100  1  0.232800  0.039500  0.295830  1.0  0.7398
  C  C101  1  0.917700  0.668500  0.527600  1.0  0.7061
  C  C102  1  0.959300  0.742400  0.516100  1.0  0.116
  C  C103  1  0.046600  0.742200  0.483000  1.0  -0.2075
  C  C104  1  0.086300  0.814300  0.467100  1.0  0.745
  C  C105  1  0.399600  0.170700  0.510700  1.0  0.6918
  C  C106  1  0.451200  0.236600  0.533000  1.0  0.0966
  C  C107  1  0.494400  0.278400  0.482700  1.0  -0.2998
  C  C108  1  0.545500  0.345900  0.501600  1.0  0.811
  C  C109  1  0.777000  0.492400  0.865600  1.0  0.7119
  C  C110  1  0.781700  0.507900  0.802400  1.0  0.0702
  C  C111  1  0.737100  0.447000  0.770000  1.0  -0.273
  C  C112  1  0.732800  0.460500  0.704170  1.0  0.7415
  C  C113  1  0.582300  0.331500  0.027600  1.0  0.7047
  C  C114  1  0.540700  0.257600  0.016100  1.0  0.1156
  C  C115  1  0.453400  0.257800  0.983000  1.0  -0.2081
  C  C116  1  0.413700  0.185700  0.967100  1.0  0.7464
  C  C117  1  0.100400  0.829300  0.010700  1.0  0.6906
  C  C118  1  0.048800  0.763400  0.033000  1.0  0.0967
  C  C119  1  0.005600  0.721600  0.982700  1.0  -0.3008
  C  C120  1  0.954500  0.654100  0.001600  1.0  0.8109
  C  C121  1  0.723000  0.507600  0.365600  1.0  0.7121
  C  C122  1  0.718300  0.492100  0.302400  1.0  0.0699
  C  C123  1  0.762900  0.553000  0.270000  1.0  -0.2723
  C  C124  1  0.767200  0.539500  0.204170  1.0  0.7411
  N  N125  1  0.048200  0.284900  0.937000  1.0  -0.5643
  N  N126  1  0.475000  0.713900  0.927900  1.0  -0.6144
  N  N127  1  0.122300  0.029700  0.715300  1.0  -0.6064
  N  N128  1  0.451800  0.715100  0.437000  1.0  -0.5605
  N  N129  1  0.025000  0.286100  0.427900  1.0  -0.6149
  N  N130  1  0.377700  0.970300  0.215300  1.0  -0.6081
  N  N131  1  0.951800  0.784900  0.563000  1.0  -0.5678
  N  N132  1  0.525000  0.213900  0.572100  1.0  -0.6134
  N  N133  1  0.877700  0.529700  0.784700  1.0  -0.6091
  N  N134  1  0.548200  0.215100  0.063000  1.0  -0.5662
  N  N135  1  0.975000  0.786100  0.072100  1.0  -0.6134
  N  N136  1  0.622300  0.470300  0.284700  1.0  -0.6052
  Cl  Cl137  1  0.257350  0.221280  0.114170  1.0  1.2661
  Cl  Cl138  1  0.272900  0.791830  0.147350  1.0  1.1666
  Cl  Cl139  1  0.242650  0.778720  0.614170  1.0  1.2794
  Cl  Cl140  1  0.227100  0.208170  0.647350  1.0  1.1652
  Cl  Cl141  1  0.742650  0.721280  0.385830  1.0  1.2623
  Cl  Cl142  1  0.727100  0.291830  0.352650  1.0  1.1676
  Cl  Cl143  1  0.757350  0.278720  0.885830  1.0  1.2805
  Cl  Cl144  1  0.772900  0.708170  0.852650  1.0  1.1661
  O  O145  1  0.269930  0.938520  0.011640  1.0  -0.8886
  O  O146  1  0.160260  0.990870  0.925740  1.0  -0.746
  O  O147  1  0.261700  0.076440  0.999090  1.0  -0.756
  O  O148  1  0.357020  0.996350  0.920160  1.0  -0.8024
  O  O149  1  0.069600  0.121500  0.011300  1.0  -0.6437
  O  O150  1  0.132500  0.162100  0.930100  1.0  -0.6364
  O  O151  1  0.843700  0.313110  0.068630  1.0  -0.6482
  O  O152  1  0.947600  0.366480  0.010970  1.0  -0.5964
  O  O153  1  0.667400  0.684120  0.023670  1.0  -0.6385
  O  O154  1  0.575700  0.612670  0.972230  1.0  -0.5786
  O  O155  1  0.463300  0.901150  0.028170  1.0  -0.646
  O  O156  1  0.401600  0.843490  0.954620  1.0  -0.6131
  O  O157  1  0.146600  0.987500  0.608210  1.0  -0.6555
  O  O158  1  0.304300  0.988600  0.614540  1.0  -0.6412
  O  O159  1  0.242800  0.018490  0.813680  1.0  -0.6237
  O  O160  1  0.297900  0.908300  0.824660  1.0  -0.5637
  O  O161  1  0.112700  0.869800  0.863300  1.0  -0.2525
  O  O162  1  0.277300  0.773620  0.877740  1.0  -0.3113
  O  O163  1  0.393800  0.110600  0.834800  1.0  -0.2826
  O  O164  1  0.214300  0.173700  0.823440  1.0  -0.2348
  O  O165  1  0.553200  0.008300  0.962010  1.0  -0.2355
  O  O166  1  0.533900  0.048400  0.076810  1.0  -0.264
  O  O167  1  0.004400  0.017200  0.095580  1.0  -0.2504
  O  O168  1  0.971900  0.997200  0.975800  1.0  -0.2525
  O  O169  1  0.230070  0.061480  0.511640  1.0  -0.8875
  O  O170  1  0.339740  0.009130  0.425740  1.0  -0.7453
  O  O171  1  0.238300  0.923560  0.499090  1.0  -0.7562
  O  O172  1  0.142980  0.003650  0.420160  1.0  -0.8036
  O  O173  1  0.430400  0.878500  0.511300  1.0  -0.6456
  O  O174  1  0.367500  0.837900  0.430100  1.0  -0.6353
  O  O175  1  0.656300  0.686890  0.568630  1.0  -0.6499
  O  O176  1  0.552400  0.633520  0.510970  1.0  -0.5947
  O  O177  1  0.832600  0.315880  0.523670  1.0  -0.6376
  O  O178  1  0.924300  0.387330  0.472230  1.0  -0.5788
  O  O179  1  0.036700  0.098850  0.528170  1.0  -0.6451
  O  O180  1  0.098400  0.156510  0.454620  1.0  -0.6144
  O  O181  1  0.353400  0.012500  0.108210  1.0  -0.6544
  O  O182  1  0.195700  0.011400  0.114540  1.0  -0.6408
  O  O183  1  0.257200  0.981510  0.313680  1.0  -0.623
  O  O184  1  0.202100  0.091700  0.324660  1.0  -0.5633
  O  O185  1  0.387300  0.130200  0.363300  1.0  -0.2519
  O  O186  1  0.222700  0.226380  0.377740  1.0  -0.3128
  O  O187  1  0.106200  0.889400  0.334800  1.0  -0.283
  O  O188  1  0.285700  0.826300  0.323440  1.0  -0.2331
  O  O189  1  0.946800  0.991700  0.462010  1.0  -0.2362
  O  O190  1  0.966100  0.951600  0.576810  1.0  -0.2643
  O  O191  1  0.495600  0.982800  0.595580  1.0  -0.2497
  O  O192  1  0.528100  0.002800  0.475800  1.0  -0.2527
  O  O193  1  0.730070  0.438520  0.488360  1.0  -0.8898
  O  O194  1  0.839740  0.490870  0.574260  1.0  -0.7457
  O  O195  1  0.738300  0.576440  0.500910  1.0  -0.7567
  O  O196  1  0.642980  0.496350  0.579840  1.0  -0.8032
  O  O197  1  0.930400  0.621500  0.488700  1.0  -0.6441
  O  O198  1  0.867500  0.662100  0.569900  1.0  -0.6351
  O  O199  1  0.156300  0.813110  0.431370  1.0  -0.6505
  O  O200  1  0.052400  0.866480  0.489030  1.0  -0.5958
  O  O201  1  0.332600  0.184120  0.476330  1.0  -0.638
  O  O202  1  0.424300  0.112670  0.527770  1.0  -0.579
  O  O203  1  0.536700  0.401150  0.471830  1.0  -0.6477
  O  O204  1  0.598400  0.343490  0.545380  1.0  -0.6131
  O  O205  1  0.853400  0.487500  0.891790  1.0  -0.6551
  O  O206  1  0.695700  0.488600  0.885460  1.0  -0.6418
  O  O207  1  0.757200  0.518490  0.686320  1.0  -0.6239
  O  O208  1  0.702100  0.408300  0.675340  1.0  -0.5626
  O  O209  1  0.887300  0.369800  0.636700  1.0  -0.2524
  O  O210  1  0.722700  0.273620  0.622260  1.0  -0.3121
  O  O211  1  0.606200  0.610600  0.665200  1.0  -0.2832
  O  O212  1  0.785700  0.673700  0.676560  1.0  -0.2346
  O  O213  1  0.446800  0.508300  0.537990  1.0  -0.236
  O  O214  1  0.466100  0.548400  0.423190  1.0  -0.2647
  O  O215  1  0.995600  0.517200  0.404420  1.0  -0.2489
  O  O216  1  0.028100  0.497200  0.524200  1.0  -0.2521
  O  O217  1  0.769930  0.561480  0.988360  1.0  -0.8892
  O  O218  1  0.660260  0.509130  0.074260  1.0  -0.7469
  O  O219  1  0.761700  0.423560  0.000910  1.0  -0.757
  O  O220  1  0.857020  0.503650  0.079840  1.0  -0.8022
  O  O221  1  0.569600  0.378500  0.988700  1.0  -0.6443
  O  O222  1  0.632500  0.337900  0.069900  1.0  -0.6342
  O  O223  1  0.343700  0.186890  0.931370  1.0  -0.648
  O  O224  1  0.447600  0.133520  0.989030  1.0  -0.5959
  O  O225  1  0.167400  0.815880  0.976330  1.0  -0.6387
  O  O226  1  0.075700  0.887330  0.027770  1.0  -0.5791
  O  O227  1  0.963300  0.598850  0.971830  1.0  -0.6464
  O  O228  1  0.901600  0.656510  0.045380  1.0  -0.6126
  O  O229  1  0.646600  0.512500  0.391790  1.0  -0.656
  O  O230  1  0.804300  0.511400  0.385460  1.0  -0.6418
  O  O231  1  0.742800  0.481510  0.186320  1.0  -0.6239
  O  O232  1  0.797900  0.591700  0.175340  1.0  -0.5644
  O  O233  1  0.612700  0.630200  0.136700  1.0  -0.2514
  O  O234  1  0.777300  0.726380  0.122260  1.0  -0.3119
  O  O235  1  0.893800  0.389400  0.165200  1.0  -0.2841
  O  O236  1  0.714300  0.326300  0.176560  1.0  -0.234
  O  O237  1  0.053200  0.491700  0.037990  1.0  -0.2369
  O  O238  1  0.033900  0.451600  0.923190  1.0  -0.2624
  O  O239  1  0.504400  0.482800  0.904420  1.0  -0.25
  O  O240  1  0.471900  0.502800  0.024200  1.0  -0.2518
  O  O241  1  0.244100  0.292000  0.133900  1.0  -0.5212
  O  O242  1  0.346300  0.189100  0.133800  1.0  -0.616
  O  O243  1  0.176100  0.175100  0.130100  1.0  -0.6404
  O  O244  1  0.258100  0.221800  0.050800  1.0  -0.5978
  O  O245  1  0.166700  0.796400  0.152900  1.0  -0.572
  O  O246  1  0.308800  0.721200  0.147500  1.0  -0.5022
  O  O247  1  0.302600  0.837400  0.102000  1.0  -0.5085
  O  O248  1  0.303700  0.828300  0.203100  1.0  -0.5864
  O  O249  1  0.255900  0.708000  0.633900  1.0  -0.5187
  O  O250  1  0.153700  0.810900  0.633800  1.0  -0.615
  O  O251  1  0.323900  0.824900  0.630100  1.0  -0.6424
  O  O252  1  0.241900  0.778200  0.550800  1.0  -0.5971
  O  O253  1  0.333333  0.203600  0.652900  1.0  -0.5753
  O  O254  1  0.191200  0.278800  0.647500  1.0  -0.5047
  O  O255  1  0.197400  0.162600  0.602000  1.0  -0.508
  O  O256  1  0.196300  0.171700  0.703100  1.0  -0.5856
  O  O257  1  0.755900  0.792000  0.366100  1.0  -0.5228
  O  O258  1  0.653700  0.689100  0.366200  1.0  -0.6149
  O  O259  1  0.823900  0.675100  0.369900  1.0  -0.6452
  O  O260  1  0.741900  0.721800  0.449200  1.0  -0.6012
  O  O261  1  0.833300  0.296400  0.347100  1.0  -0.5748
  O  O262  1  0.691200  0.221200  0.352500  1.0  -0.5021
  O  O263  1  0.697400  0.337400  0.398000  1.0  -0.5105
  O  O264  1  0.696300  0.328300  0.296900  1.0  -0.5842
  O  O265  1  0.744100  0.208000  0.866100  1.0  -0.5177
  O  O266  1  0.846300  0.310900  0.866200  1.0  -0.6167
  O  O267  1  0.676100  0.324900  0.869900  1.0  -0.6425
  O  O268  1  0.758100  0.278200  0.949200  1.0  -0.6016
  O  O269  1  0.666667  0.703600  0.847100  1.0  -0.5753
  O  O270  1  0.808800  0.778800  0.852500  1.0  -0.504
  O  O271  1  0.802600  0.662600  0.898000  1.0  -0.5094
  O  O272  1  0.803700  0.671700  0.796900  1.0  -0.5848
