# generated using pymatgen
data_RbZrH12C12(NO6)2
_symmetry_space_group_name_H-M   'P 1'
_cell_length_a   9.95600000
_cell_length_b   11.20800000
_cell_length_c   10.61500000
_cell_angle_alpha   90.00000000
_cell_angle_beta   113.53000000
_cell_angle_gamma   90.00000000
_symmetry_Int_Tables_number   1
_chemical_formula_structural   RbZrH12C12(NO6)2
_chemical_formula_sum   'Rb2 Zr2 H24 C24 N4 O24'
_cell_volume   1086.00506181
_cell_formula_units_Z   2
loop_
 _symmetry_equiv_pos_site_id
 _symmetry_equiv_pos_as_xyz
  1  'x, y, z'
loop_
 _atom_site_type_symbol
 _atom_site_label
 _atom_site_symmetry_multiplicity
 _atom_site_fract_x
 _atom_site_fract_y
 _atom_site_fract_z
 _atom_site_occupancy
 _atom_site_charge
  Rb  Rb1  1  0.619000  0.569020  0.615500  1.0  0.9315
  Rb  Rb2  1  0.381000  0.069020  0.384500  1.0  0.9334
  Zr  Zr3  1  0.910400  0.164160  0.722380  1.0  1.8243
  Zr  Zr4  1  0.089600  0.664160  0.277620  1.0  1.8228
  H  H5  1  0.107000  0.448000  0.966000  1.0  0.1371
  H  H6  1  0.166000  0.397000  0.864000  1.0  0.0953
  H  H7  1  0.259000  0.230000  0.084000  1.0  0.1158
  H  H8  1  0.260000  0.223000  0.939000  1.0  0.0978
  H  H9  1  0.041000  0.213000  0.106000  1.0  0.0944
  H  H10  1  0.998000  0.344000  0.065000  1.0  0.1873
  H  H11  1  0.000000  0.863000  0.692000  1.0  0.0818
  H  H12  1  0.901000  0.839000  0.555000  1.0  0.1957
  H  H13  1  0.140000  0.985000  0.539000  1.0  0.138
  H  H14  1  0.171000  0.972000  0.694000  1.0  0.0914
  H  H15  1  0.835000  0.965000  0.380000  1.0  0.0983
  H  H16  1  0.937000  0.081000  0.394000  1.0  0.103
  H  H17  1  0.893000  0.948000  0.034000  1.0  0.1376
  H  H18  1  0.834000  0.897000  0.136000  1.0  0.0973
  H  H19  1  0.741000  0.730000  0.916000  1.0  0.1119
  H  H20  1  0.740000  0.723000  0.061000  1.0  0.0984
  H  H21  1  0.959000  0.713000  0.894000  1.0  0.094
  H  H22  1  0.002000  0.844000  0.935000  1.0  0.187
  H  H23  1  0.000000  0.363000  0.308000  1.0  0.0806
  H  H24  1  0.099000  0.339000  0.445000  1.0  0.1944
  H  H25  1  0.860000  0.485000  0.461000  1.0  0.1384
  H  H26  1  0.829000  0.472000  0.306000  1.0  0.0927
  H  H27  1  0.165000  0.465000  0.620000  1.0  0.0984
  H  H28  1  0.063000  0.581000  0.606000  1.0  0.1009
  C  C29  1  0.085700  0.394000  0.895000  1.0  -0.1108
  C  C30  1  0.204900  0.204000  0.994800  1.0  -0.0947
  C  C31  1  0.991300  0.269500  0.030600  1.0  -0.1303
  C  C32  1  0.953100  0.436300  0.773500  1.0  0.6979
  C  C33  1  0.169300  0.072000  0.981600  1.0  0.6841
  C  C34  1  0.834900  0.226900  0.968700  1.0  0.6927
  C  C35  1  0.916600  0.893400  0.616300  1.0  -0.1031
  C  C36  1  0.117600  0.014500  0.608600  1.0  -0.0756
  C  C37  1  0.869600  0.039200  0.433200  1.0  -0.1895
  C  C38  1  0.786600  0.906000  0.653400  1.0  0.6683
  C  C39  1  0.171800  0.142100  0.636000  1.0  0.6933
  C  C40  1  0.745400  0.124700  0.412000  1.0  0.6812
  C  C41  1  0.914300  0.894000  0.105000  1.0  -0.1108
  C  C42  1  0.795100  0.704000  0.005200  1.0  -0.0971
  C  C43  1  0.008700  0.769500  0.969400  1.0  -0.1276
  C  C44  1  0.046900  0.936300  0.226500  1.0  0.6978
  C  C45  1  0.830700  0.572000  0.018400  1.0  0.6837
  C  C46  1  0.165100  0.726900  0.031300  1.0  0.691
  C  C47  1  0.083400  0.393400  0.383700  1.0  -0.1018
  C  C48  1  0.882400  0.514500  0.391400  1.0  -0.0784
  C  C49  1  0.130400  0.539200  0.566800  1.0  -0.1908
  C  C50  1  0.213400  0.406000  0.346600  1.0  0.666
  C  C51  1  0.828200  0.642100  0.364000  1.0  0.6968
  C  C52  1  0.254600  0.624700  0.588000  1.0  0.6808
  N  N53  1  0.065500  0.270770  0.933380  1.0  -0.1066
  N  N54  1  0.959200  0.010110  0.579880  1.0  -0.1286
  N  N55  1  0.934500  0.770770  0.066620  1.0  -0.1069
  N  N56  1  0.040800  0.510110  0.420120  1.0  -0.1293
  O  O57  1  0.932300  0.543780  0.749200  1.0  -0.6151
  O  O58  1  0.871070  0.354250  0.696730  1.0  -0.6567
  O  O59  1  0.243400  0.000330  0.066700  1.0  -0.5706
  O  O60  1  0.054150  0.044680  0.871430  1.0  -0.6086
  O  O61  1  0.763600  0.222270  0.039700  1.0  -0.5945
  O  O62  1  0.784760  0.191120  0.843060  1.0  -0.6204
  O  O63  1  0.714300  0.817890  0.655200  1.0  -0.6073
  O  O64  1  0.761200  0.011190  0.684900  1.0  -0.6253
  O  O65  1  0.282960  0.171000  0.621100  1.0  -0.5855
  O  O66  1  0.095700  0.212600  0.678560  1.0  -0.6166
  O  O67  1  0.641500  0.131600  0.301800  1.0  -0.6229
  O  O68  1  0.761500  0.193000  0.514730  1.0  -0.6493
  O  O69  1  0.067700  0.043780  0.250800  1.0  -0.6148
  O  O70  1  0.128930  0.854250  0.303270  1.0  -0.6553
  O  O71  1  0.756600  0.500330  0.933300  1.0  -0.5717
  O  O72  1  0.945850  0.544680  0.128570  1.0  -0.6075
  O  O73  1  0.236400  0.722270  0.960300  1.0  -0.5955
  O  O74  1  0.215240  0.691120  0.156940  1.0  -0.6132
  O  O75  1  0.285700  0.317890  0.344800  1.0  -0.608
  O  O76  1  0.238800  0.511190  0.315100  1.0  -0.6189
  O  O77  1  0.717040  0.671000  0.378900  1.0  -0.5887
  O  O78  1  0.904300  0.712600  0.321440  1.0  -0.6175
  O  O79  1  0.358500  0.631600  0.698200  1.0  -0.6203
  O  O80  1  0.238500  0.693000  0.485270  1.0  -0.6473
