# generated using pymatgen
data_FeH5C5O4
_symmetry_space_group_name_H-M   'P 1'
_cell_length_a   26.27360000
_cell_length_b   26.27360000
_cell_length_c   6.72130000
_cell_angle_alpha   90.00000000
_cell_angle_beta   90.00000000
_cell_angle_gamma   120.00000000
_symmetry_Int_Tables_number   1
_chemical_formula_structural   FeH5C5O4
_chemical_formula_sum   'Fe18 H90 C90 O72'
_cell_volume   4018.12163521
_cell_formula_units_Z   18
loop_
 _symmetry_equiv_pos_site_id
 _symmetry_equiv_pos_as_xyz
  1  'x, y, z'
loop_
 _atom_site_type_symbol
 _atom_site_label
 _atom_site_symmetry_multiplicity
 _atom_site_fract_x
 _atom_site_fract_y
 _atom_site_fract_z
 _atom_site_occupancy
 _atom_site_charge
  Fe  Fe1  1  0.613560  0.648380  0.344200  1.0  0.7555
  Fe  Fe2  1  0.280230  0.981710  0.677530  1.0  0.7554
  Fe  Fe3  1  0.946890  0.315050  0.010870  1.0  0.7555
  Fe  Fe4  1  0.351620  0.965180  0.344200  1.0  0.7547
  Fe  Fe5  1  0.018290  0.298510  0.677530  1.0  0.7547
  Fe  Fe6  1  0.684950  0.631850  0.010870  1.0  0.7548
  Fe  Fe7  1  0.034820  0.386440  0.344200  1.0  0.756
  Fe  Fe8  1  0.701490  0.719770  0.677530  1.0  0.7564
  Fe  Fe9  1  0.368150  0.053110  0.010870  1.0  0.756
  Fe  Fe10  1  0.386440  0.351620  0.655800  1.0  0.758
  Fe  Fe11  1  0.053110  0.684950  0.989130  1.0  0.758
  Fe  Fe12  1  0.719770  0.018290  0.322470  1.0  0.7579
  Fe  Fe13  1  0.648380  0.034820  0.655800  1.0  0.7582
  Fe  Fe14  1  0.315050  0.368150  0.989130  1.0  0.7582
  Fe  Fe15  1  0.981710  0.701490  0.322470  1.0  0.7582
  Fe  Fe16  1  0.965180  0.613560  0.655800  1.0  0.7591
  Fe  Fe17  1  0.631850  0.946890  0.989130  1.0  0.7591
  Fe  Fe18  1  0.298510  0.280230  0.322470  1.0  0.7596
  H  H19  1  0.529100  0.495500  0.332900  1.0  0.1349
  H  H20  1  0.563300  0.636000  0.192000  1.0  0.2329
  H  H21  1  0.460000  0.625000  0.129000  1.0  0.1713
  H  H22  1  0.481100  0.574500  0.181000  1.0  0.1435
  H  H23  1  0.474000  0.614000  0.372000  1.0  0.1712
  H  H24  1  0.195770  0.828830  0.666230  1.0  0.1349
  H  H25  1  0.229970  0.969330  0.525330  1.0  0.2329
  H  H26  1  0.126670  0.958330  0.462330  1.0  0.1706
  H  H27  1  0.147770  0.907830  0.514330  1.0  0.1436
  H  H28  1  0.140670  0.947330  0.705330  1.0  0.172
  H  H29  1  0.862430  0.162170  0.999570  1.0  0.1347
  H  H30  1  0.896630  0.302670  0.858670  1.0  0.2329
  H  H31  1  0.793330  0.291670  0.795670  1.0  0.1713
  H  H32  1  0.814430  0.241170  0.847670  1.0  0.1435
  H  H33  1  0.807330  0.280670  0.038670  1.0  0.1712
  H  H34  1  0.504500  0.033600  0.332900  1.0  0.1347
  H  H35  1  0.364000  0.927300  0.192000  1.0  0.2316
  H  H36  1  0.375000  0.835000  0.129000  1.0  0.1726
  H  H37  1  0.425500  0.906600  0.181000  1.0  0.1392
  H  H38  1  0.386000  0.860000  0.372000  1.0  0.1708
  H  H39  1  0.171170  0.366930  0.666230  1.0  0.1347
  H  H40  1  0.030670  0.260630  0.525330  1.0  0.2316
  H  H41  1  0.041670  0.168330  0.462330  1.0  0.173
  H  H42  1  0.092170  0.239930  0.514330  1.0  0.1393
  H  H43  1  0.052670  0.193330  0.705330  1.0  0.1702
  H  H44  1  0.837830  0.700270  0.999570  1.0  0.1349
  H  H45  1  0.697330  0.593970  0.858670  1.0  0.2316
  H  H46  1  0.708330  0.501670  0.795670  1.0  0.1726
  H  H47  1  0.758830  0.573270  0.847670  1.0  0.1392
  H  H48  1  0.719330  0.526670  0.038670  1.0  0.1708
  H  H49  1  0.966400  0.470900  0.332900  1.0  0.1353
  H  H50  1  0.072700  0.436700  0.192000  1.0  0.2311
  H  H51  1  0.165000  0.540000  0.129000  1.0  0.1738
  H  H52  1  0.093400  0.518900  0.181000  1.0  0.1407
  H  H53  1  0.140000  0.526000  0.372000  1.0  0.1696
  H  H54  1  0.633070  0.804230  0.666230  1.0  0.1353
  H  H55  1  0.739370  0.770030  0.525330  1.0  0.2311
  H  H56  1  0.831670  0.873330  0.462330  1.0  0.1738
  H  H57  1  0.760070  0.852230  0.514330  1.0  0.1407
  H  H58  1  0.806670  0.859330  0.705330  1.0  0.1696
  H  H59  1  0.299730  0.137570  0.999570  1.0  0.1355
  H  H60  1  0.406030  0.103370  0.858670  1.0  0.2311
  H  H61  1  0.498330  0.206670  0.795670  1.0  0.1738
  H  H62  1  0.426730  0.185570  0.847670  1.0  0.1407
  H  H63  1  0.473330  0.192670  0.038670  1.0  0.1696
  H  H64  1  0.470900  0.504500  0.667100  1.0  0.1356
  H  H65  1  0.436700  0.364000  0.808000  1.0  0.2314
  H  H66  1  0.540000  0.375000  0.871000  1.0  0.1721
  H  H67  1  0.518900  0.425500  0.819000  1.0  0.1378
  H  H68  1  0.526000  0.386000  0.628000  1.0  0.1703
  H  H69  1  0.137570  0.837830  0.000430  1.0  0.1354
  H  H70  1  0.103370  0.697330  0.141330  1.0  0.2314
  H  H71  1  0.206670  0.708330  0.204330  1.0  0.1721
  H  H72  1  0.185570  0.758830  0.152330  1.0  0.1378
  H  H73  1  0.192670  0.719330  0.961330  1.0  0.1703
  H  H74  1  0.804230  0.171170  0.333770  1.0  0.1356
  H  H75  1  0.770030  0.030670  0.474670  1.0  0.2314
  H  H76  1  0.873330  0.041670  0.537670  1.0  0.1711
  H  H77  1  0.852230  0.092170  0.485670  1.0  0.1379
  H  H78  1  0.859330  0.052670  0.294670  1.0  0.1711
  H  H79  1  0.495500  0.966400  0.667100  1.0  0.1348
  H  H80  1  0.636000  0.072700  0.808000  1.0  0.2312
  H  H81  1  0.625000  0.165000  0.871000  1.0  0.1729
  H  H82  1  0.574500  0.093400  0.819000  1.0  0.1398
  H  H83  1  0.614000  0.140000  0.628000  1.0  0.1709
  H  H84  1  0.162170  0.299730  0.000430  1.0  0.1349
  H  H85  1  0.302670  0.406030  0.141330  1.0  0.2312
  H  H86  1  0.291670  0.498330  0.204330  1.0  0.1729
  H  H87  1  0.241170  0.426730  0.152330  1.0  0.1398
  H  H88  1  0.280670  0.473330  0.961330  1.0  0.1709
  H  H89  1  0.828830  0.633070  0.333770  1.0  0.1348
  H  H90  1  0.969330  0.739370  0.474670  1.0  0.2312
  H  H91  1  0.958330  0.831670  0.537670  1.0  0.1724
  H  H92  1  0.907830  0.760070  0.485670  1.0  0.1399
  H  H93  1  0.947330  0.806670  0.294670  1.0  0.1696
  H  H94  1  0.033600  0.529100  0.667100  1.0  0.1356
  H  H95  1  0.927300  0.563300  0.808000  1.0  0.2315
  H  H96  1  0.835000  0.460000  0.871000  1.0  0.173
  H  H97  1  0.906600  0.481100  0.819000  1.0  0.1424
  H  H98  1  0.860000  0.474000  0.628000  1.0  0.1696
  H  H99  1  0.700270  0.862430  0.000430  1.0  0.1357
  H  H100  1  0.593970  0.896630  0.141330  1.0  0.2315
  H  H101  1  0.501670  0.793330  0.204330  1.0  0.173
  H  H102  1  0.573270  0.814430  0.152330  1.0  0.1424
  H  H103  1  0.526670  0.807330  0.961330  1.0  0.1696
  H  H104  1  0.366930  0.195770  0.333770  1.0  0.1356
  H  H105  1  0.260630  0.229970  0.474670  1.0  0.2315
  H  H106  1  0.168330  0.126670  0.537670  1.0  0.173
  H  H107  1  0.239930  0.147770  0.485670  1.0  0.1424
  H  H108  1  0.193330  0.140670  0.294670  1.0  0.1696
  C  C109  1  0.421800  0.408300  0.253300  1.0  0.7283
  C  C110  1  0.461100  0.452800  0.123300  1.0  -0.0229
  C  C111  1  0.557300  0.542200  0.069800  1.0  0.1999
  C  C112  1  0.518300  0.496800  0.195800  1.0  -0.0867
  C  C113  1  0.485100  0.614900  0.222000  1.0  0.0388
  C  C114  1  0.088470  0.741630  0.586630  1.0  0.7283
  C  C115  1  0.127770  0.786130  0.456630  1.0  -0.0229
  C  C116  1  0.223970  0.875530  0.403130  1.0  0.1999
  C  C117  1  0.184970  0.830130  0.529130  1.0  -0.0867
  C  C118  1  0.151770  0.948230  0.555330  1.0  0.0388
  C  C119  1  0.755130  0.074970  0.919970  1.0  0.7283
  C  C120  1  0.794430  0.119470  0.789970  1.0  -0.0229
  C  C121  1  0.890630  0.208870  0.736470  1.0  0.1999
  C  C122  1  0.851630  0.163470  0.862470  1.0  -0.0867
  C  C123  1  0.818430  0.281570  0.888670  1.0  0.0388
  C  C124  1  0.591700  0.013500  0.253300  1.0  0.7285
  C  C125  1  0.547200  0.008300  0.123300  1.0  -0.0228
  C  C126  1  0.457800  0.015100  0.069800  1.0  0.199
  C  C127  1  0.503200  0.021500  0.195800  1.0  -0.0886
  C  C128  1  0.385100  0.870200  0.222000  1.0  0.0426
  C  C129  1  0.258370  0.346830  0.586630  1.0  0.7285
  C  C130  1  0.213870  0.341630  0.456630  1.0  -0.0229
  C  C131  1  0.124470  0.348430  0.403130  1.0  0.199
  C  C132  1  0.169870  0.354830  0.529130  1.0  -0.0886
  C  C133  1  0.051770  0.203530  0.555330  1.0  0.0426
  C  C134  1  0.925030  0.680170  0.919970  1.0  0.7285
  C  C135  1  0.880530  0.674970  0.789970  1.0  -0.0229
  C  C136  1  0.791130  0.681770  0.736470  1.0  0.199
  C  C137  1  0.836530  0.688170  0.862470  1.0  -0.0886
  C  C138  1  0.718430  0.536870  0.888670  1.0  0.0426
  C  C139  1  0.986500  0.578200  0.253300  1.0  0.7293
  C  C140  1  0.991700  0.538900  0.123300  1.0  -0.023
  C  C141  1  0.984900  0.442700  0.069800  1.0  0.1999
  C  C142  1  0.978500  0.481700  0.195800  1.0  -0.0853
  C  C143  1  0.129800  0.514900  0.222000  1.0  0.0382
  C  C144  1  0.653170  0.911530  0.586630  1.0  0.7292
  C  C145  1  0.658370  0.872230  0.456630  1.0  -0.023
  C  C146  1  0.651570  0.776030  0.403130  1.0  0.1999
  C  C147  1  0.645170  0.815030  0.529130  1.0  -0.0853
  C  C148  1  0.796470  0.848230  0.555330  1.0  0.0382
  C  C149  1  0.319830  0.244870  0.919970  1.0  0.7292
  C  C150  1  0.325030  0.205570  0.789970  1.0  -0.0229
  C  C151  1  0.318230  0.109370  0.736470  1.0  0.1999
  C  C152  1  0.311830  0.148370  0.862470  1.0  -0.0853
  C  C153  1  0.463130  0.181570  0.888670  1.0  0.0382
  C  C154  1  0.578200  0.591700  0.746700  1.0  0.7282
  C  C155  1  0.538900  0.547200  0.876700  1.0  -0.0212
  C  C156  1  0.442700  0.457800  0.930200  1.0  0.1995
  C  C157  1  0.481700  0.503200  0.804200  1.0  -0.0857
  C  C158  1  0.514900  0.385100  0.778000  1.0  0.0379
  C  C159  1  0.244870  0.925030  0.080030  1.0  0.7282
  C  C160  1  0.205570  0.880530  0.210030  1.0  -0.0212
  C  C161  1  0.109370  0.791130  0.263530  1.0  0.1995
  C  C162  1  0.148370  0.836530  0.137530  1.0  -0.0857
  C  C163  1  0.181570  0.718430  0.111330  1.0  0.0379
  C  C164  1  0.911530  0.258370  0.413370  1.0  0.7282
  C  C165  1  0.872230  0.213870  0.543370  1.0  -0.0211
  C  C166  1  0.776030  0.124470  0.596870  1.0  0.1995
  C  C167  1  0.815030  0.169870  0.470870  1.0  -0.0857
  C  C168  1  0.848230  0.051770  0.444670  1.0  0.0379
  C  C169  1  0.408300  0.986500  0.746700  1.0  0.7294
  C  C170  1  0.452800  0.991700  0.876700  1.0  -0.0216
  C  C171  1  0.542200  0.984900  0.930200  1.0  0.1993
  C  C172  1  0.496800  0.978500  0.804200  1.0  -0.0868
  C  C173  1  0.614900  0.129800  0.778000  1.0  0.0388
  C  C174  1  0.074970  0.319830  0.080030  1.0  0.7293
  C  C175  1  0.119470  0.325030  0.210030  1.0  -0.0215
  C  C176  1  0.208870  0.318230  0.263530  1.0  0.1993
  C  C177  1  0.163470  0.311830  0.137530  1.0  -0.0868
  C  C178  1  0.281570  0.463130  0.111330  1.0  0.0388
  C  C179  1  0.741630  0.653170  0.413370  1.0  0.7293
  C  C180  1  0.786130  0.658370  0.543370  1.0  -0.0216
  C  C181  1  0.875530  0.651570  0.596870  1.0  0.1993
  C  C182  1  0.830130  0.645170  0.470870  1.0  -0.0868
  C  C183  1  0.948230  0.796470  0.444670  1.0  0.0389
  C  C184  1  0.013500  0.421800  0.746700  1.0  0.7285
  C  C185  1  0.008300  0.461100  0.876700  1.0  -0.0212
  C  C186  1  0.015100  0.557300  0.930200  1.0  0.199
  C  C187  1  0.021500  0.518300  0.804200  1.0  -0.0847
  C  C188  1  0.870200  0.485100  0.778000  1.0  0.0411
  C  C189  1  0.680170  0.755130  0.080030  1.0  0.7285
  C  C190  1  0.674970  0.794430  0.210030  1.0  -0.0212
  C  C191  1  0.681770  0.890630  0.263530  1.0  0.199
  C  C192  1  0.688170  0.851630  0.137530  1.0  -0.0847
  C  C193  1  0.536870  0.818430  0.111330  1.0  0.0411
  C  C194  1  0.346830  0.088470  0.413370  1.0  0.7285
  C  C195  1  0.341630  0.127770  0.543370  1.0  -0.0212
  C  C196  1  0.348430  0.223970  0.596870  1.0  0.199
  C  C197  1  0.354830  0.184970  0.470870  1.0  -0.0847
  C  C198  1  0.203530  0.151770  0.444670  1.0  0.0411
  O  O199  1  0.439100  0.404600  0.425900  1.0  -0.5636
  O  O200  1  0.374630  0.366000  0.185800  1.0  -0.6482
  O  O201  1  0.610270  0.586700  0.144700  1.0  -0.684
  O  O202  1  0.542900  0.657800  0.197000  1.0  -0.5697
  O  O203  1  0.105770  0.737930  0.759230  1.0  -0.5636
  O  O204  1  0.041300  0.699330  0.519130  1.0  -0.6482
  O  O205  1  0.276940  0.920030  0.478030  1.0  -0.684
  O  O206  1  0.209570  0.991130  0.530330  1.0  -0.5692
  O  O207  1  0.772430  0.071270  0.092570  1.0  -0.5636
  O  O208  1  0.707960  0.032670  0.852470  1.0  -0.6482
  O  O209  1  0.943600  0.253370  0.811370  1.0  -0.6838
  O  O210  1  0.876230  0.324470  0.863670  1.0  -0.5697
  O  O211  1  0.595400  0.034500  0.425900  1.0  -0.5655
  O  O212  1  0.634000  0.008630  0.185800  1.0  -0.6469
  O  O213  1  0.413300  0.023570  0.144700  1.0  -0.6867
  O  O214  1  0.342200  0.885100  0.197000  1.0  -0.5699
  O  O215  1  0.262070  0.367830  0.759230  1.0  -0.5655
  O  O216  1  0.300670  0.341960  0.519130  1.0  -0.6469
  O  O217  1  0.079970  0.356900  0.478030  1.0  -0.6866
  O  O218  1  0.008870  0.218430  0.530330  1.0  -0.5702
  O  O219  1  0.928730  0.701170  0.092570  1.0  -0.5655
  O  O220  1  0.967330  0.675300  0.852470  1.0  -0.6467
  O  O221  1  0.746630  0.690240  0.811370  1.0  -0.6865
  O  O222  1  0.675530  0.551770  0.863670  1.0  -0.5698
  O  O223  1  0.965500  0.560900  0.425900  1.0  -0.5655
  O  O224  1  0.991370  0.625370  0.185800  1.0  -0.6473
  O  O225  1  0.976430  0.389730  0.144700  1.0  -0.6859
  O  O226  1  0.114900  0.457100  0.197000  1.0  -0.5615
  O  O227  1  0.632170  0.894230  0.759230  1.0  -0.5655
  O  O228  1  0.658040  0.958700  0.519130  1.0  -0.6472
  O  O229  1  0.643100  0.723060  0.478030  1.0  -0.686
  O  O230  1  0.781570  0.790430  0.530330  1.0  -0.5608
  O  O231  1  0.298830  0.227570  0.092570  1.0  -0.5655
  O  O232  1  0.324700  0.292040  0.852470  1.0  -0.6474
  O  O233  1  0.309760  0.056400  0.811370  1.0  -0.6861
  O  O234  1  0.448230  0.123770  0.863670  1.0  -0.5615
  O  O235  1  0.560900  0.595400  0.574100  1.0  -0.564
  O  O236  1  0.625370  0.634000  0.814200  1.0  -0.6477
  O  O237  1  0.389730  0.413300  0.855300  1.0  -0.6853
  O  O238  1  0.457100  0.342200  0.803000  1.0  -0.5731
  O  O239  1  0.227570  0.928730  0.907430  1.0  -0.564
  O  O240  1  0.292040  0.967330  0.147530  1.0  -0.6477
  O  O241  1  0.056400  0.746630  0.188630  1.0  -0.6851
  O  O242  1  0.123770  0.675530  0.136330  1.0  -0.5731
  O  O243  1  0.894230  0.262070  0.240770  1.0  -0.564
  O  O244  1  0.958700  0.300670  0.480870  1.0  -0.6477
  O  O245  1  0.723060  0.079970  0.521970  1.0  -0.6853
  O  O246  1  0.790430  0.008870  0.469670  1.0  -0.5727
  O  O247  1  0.404600  0.965500  0.574100  1.0  -0.5658
  O  O248  1  0.366000  0.991370  0.814200  1.0  -0.6476
  O  O249  1  0.586700  0.976430  0.855300  1.0  -0.6847
  O  O250  1  0.657800  0.114900  0.803000  1.0  -0.5714
  O  O251  1  0.071270  0.298830  0.907430  1.0  -0.5658
  O  O252  1  0.032670  0.324700  0.147530  1.0  -0.6475
  O  O253  1  0.253370  0.309760  0.188630  1.0  -0.6844
  O  O254  1  0.324470  0.448230  0.136330  1.0  -0.5713
  O  O255  1  0.737930  0.632170  0.240770  1.0  -0.5659
  O  O256  1  0.699330  0.658040  0.480870  1.0  -0.6476
  O  O257  1  0.920030  0.643100  0.521970  1.0  -0.6846
  O  O258  1  0.991130  0.781570  0.469670  1.0  -0.5717
  O  O259  1  0.034500  0.439100  0.574100  1.0  -0.5661
  O  O260  1  0.008630  0.374630  0.814200  1.0  -0.6474
  O  O261  1  0.023570  0.610270  0.855300  1.0  -0.6838
  O  O262  1  0.885100  0.542900  0.803000  1.0  -0.5685
  O  O263  1  0.701170  0.772430  0.907430  1.0  -0.5661
  O  O264  1  0.675300  0.707960  0.147530  1.0  -0.6475
  O  O265  1  0.690240  0.943600  0.188630  1.0  -0.684
  O  O266  1  0.551770  0.876230  0.136330  1.0  -0.5685
  O  O267  1  0.367830  0.105770  0.240770  1.0  -0.5661
  O  O268  1  0.341960  0.041300  0.480870  1.0  -0.6473
  O  O269  1  0.356900  0.276940  0.521970  1.0  -0.6838
  O  O270  1  0.218430  0.209570  0.469670  1.0  -0.5677
