# generated using pymatgen
data_Co2PHC3O10
_symmetry_space_group_name_H-M   'P 1'
_cell_length_a   7.49420000
_cell_length_b   7.72570000
_cell_length_c   17.85200000
_cell_angle_alpha   90.00000000
_cell_angle_beta   97.74000000
_cell_angle_gamma   90.00000000
_symmetry_Int_Tables_number   1
_chemical_formula_structural   Co2PHC3O10
_chemical_formula_sum   'Co8 P4 H4 C12 O40'
_cell_volume   1024.17739862
_cell_formula_units_Z   4
loop_
 _symmetry_equiv_pos_site_id
 _symmetry_equiv_pos_as_xyz
  1  'x, y, z'
loop_
 _atom_site_type_symbol
 _atom_site_label
 _atom_site_symmetry_multiplicity
 _atom_site_fract_x
 _atom_site_fract_y
 _atom_site_fract_z
 _atom_site_occupancy
 _atom_site_charge
  Co  Co1  1  0.128930  0.053570  0.363540  1.0  1.1024
  Co  Co2  1  0.784760  0.805200  0.308310  1.0  1.0768
  Co  Co3  1  0.871070  0.553570  0.136460  1.0  1.1032
  Co  Co4  1  0.215240  0.305200  0.191690  1.0  1.0776
  Co  Co5  1  0.871070  0.946430  0.636460  1.0  1.1023
  Co  Co6  1  0.215240  0.194800  0.691690  1.0  1.0768
  Co  Co7  1  0.128930  0.446430  0.863540  1.0  1.1024
  Co  Co8  1  0.784760  0.694800  0.808310  1.0  1.0782
  P  P9  1  0.946600  0.423700  0.310960  1.0  1.7251
  P  P10  1  0.053400  0.923700  0.189040  1.0  1.7242
  P  P11  1  0.053400  0.576300  0.689040  1.0  1.7236
  P  P12  1  0.946600  0.076300  0.810960  1.0  1.7254
  H  H13  1  0.756200  0.242400  0.281000  1.0  0.4715
  H  H14  1  0.243800  0.742400  0.219000  1.0  0.4699
  H  H15  1  0.243800  0.757600  0.719000  1.0  0.4724
  H  H16  1  0.756200  0.257600  0.781000  1.0  0.4692
  C  C17  1  0.914100  0.957400  0.478600  1.0  0.6403
  C  C18  1  0.440700  0.856100  0.352400  1.0  0.6628
  C  C19  1  0.470500  0.019000  0.305300  1.0  0.6414
  C  C20  1  0.085900  0.457400  0.021400  1.0  0.6428
  C  C21  1  0.559300  0.356100  0.147600  1.0  0.6624
  C  C22  1  0.529500  0.519000  0.194700  1.0  0.6413
  C  C23  1  0.085900  0.042600  0.521400  1.0  0.6422
  C  C24  1  0.559300  0.143900  0.647600  1.0  0.6623
  C  C25  1  0.529500  0.981000  0.694700  1.0  0.6412
  C  C26  1  0.914100  0.542600  0.978600  1.0  0.6397
  C  C27  1  0.440700  0.643900  0.852400  1.0  0.6619
  C  C28  1  0.470500  0.481000  0.805300  1.0  0.6408
  O  O29  1  0.908200  0.954300  0.407400  1.0  -0.595
  O  O30  1  0.073600  0.308000  0.362400  1.0  -0.7618
  O  O31  1  0.012000  0.440000  0.233100  1.0  -0.8317
  O  O32  1  0.301700  0.847700  0.383400  1.0  -0.5273
  O  O33  1  0.351300  0.134400  0.301500  1.0  -0.587
  O  O34  1  0.795900  0.904400  0.515800  1.0  -0.5198
  O  O35  1  0.558200  0.740300  0.356600  1.0  -0.5387
  O  O36  1  0.923000  0.598700  0.345300  1.0  -0.7479
  O  O37  1  0.613400  0.020000  0.276700  1.0  -0.544
  O  O38  1  0.751200  0.339000  0.299700  1.0  -0.6667
  O  O39  1  0.091800  0.454300  0.092600  1.0  -0.5996
  O  O40  1  0.926400  0.808000  0.137600  1.0  -0.7626
  O  O41  1  0.988000  0.940000  0.266900  1.0  -0.8313
  O  O42  1  0.698300  0.347700  0.116600  1.0  -0.5289
  O  O43  1  0.648700  0.634400  0.198500  1.0  -0.5873
  O  O44  1  0.204100  0.404400  0.984200  1.0  -0.519
  O  O45  1  0.441800  0.240300  0.143400  1.0  -0.5374
  O  O46  1  0.077000  0.098700  0.154700  1.0  -0.7477
  O  O47  1  0.386600  0.520000  0.223300  1.0  -0.5425
  O  O48  1  0.248800  0.839000  0.200300  1.0  -0.6656
  O  O49  1  0.091800  0.045700  0.592600  1.0  -0.597
  O  O50  1  0.926400  0.692000  0.637600  1.0  -0.7626
  O  O51  1  0.988000  0.560000  0.766900  1.0  -0.8316
  O  O52  1  0.698300  0.152300  0.616600  1.0  -0.5288
  O  O53  1  0.648700  0.865600  0.698500  1.0  -0.5874
  O  O54  1  0.204100  0.095600  0.484200  1.0  -0.5196
  O  O55  1  0.441800  0.259700  0.643400  1.0  -0.5374
  O  O56  1  0.077000  0.401300  0.654700  1.0  -0.748
  O  O57  1  0.386600  0.980000  0.723300  1.0  -0.5426
  O  O58  1  0.248800  0.661000  0.700300  1.0  -0.6656
  O  O59  1  0.908200  0.545700  0.907400  1.0  -0.5949
  O  O60  1  0.073600  0.192000  0.862400  1.0  -0.7617
  O  O61  1  0.012000  0.060000  0.733100  1.0  -0.832
  O  O62  1  0.301700  0.652300  0.883400  1.0  -0.5268
  O  O63  1  0.351300  0.365600  0.801500  1.0  -0.5874
  O  O64  1  0.795900  0.595600  0.015800  1.0  -0.5201
  O  O65  1  0.558200  0.759700  0.856600  1.0  -0.5372
  O  O66  1  0.923000  0.901300  0.845300  1.0  -0.7474
  O  O67  1  0.613400  0.480000  0.776700  1.0  -0.5439
  O  O68  1  0.751200  0.161000  0.799700  1.0  -0.6664
