# generated using pymatgen
data_Zn4H18C36O13
_symmetry_space_group_name_H-M   'P 1'
_cell_length_a   19.11800000
_cell_length_b   23.02400000
_cell_length_c   30.07500000
_cell_angle_alpha   90.07000000
_cell_angle_beta   97.36000000
_cell_angle_gamma   90.09000000
_symmetry_Int_Tables_number   1
_chemical_formula_structural   Zn4H18C36O13
_chemical_formula_sum   'Zn32 H144 C288 O104'
_cell_volume   13129.09654078
_cell_formula_units_Z   8
loop_
 _symmetry_equiv_pos_site_id
 _symmetry_equiv_pos_as_xyz
  1  'x, y, z'
loop_
 _atom_site_type_symbol
 _atom_site_label
 _atom_site_symmetry_multiplicity
 _atom_site_fract_x
 _atom_site_fract_y
 _atom_site_fract_z
 _atom_site_occupancy
 _atom_site_charge
  Zn  Zn1  1  0.993960  0.762560  0.184330  1.0  1.0999
  Zn  Zn2  1  0.003540  0.905760  0.616030  1.0  1.0585
  Zn  Zn3  1  0.422700  0.334670  0.606080  1.0  1.0506
  Zn  Zn4  1  0.930100  0.829030  0.680210  1.0  1.0964
  Zn  Zn5  1  0.503290  0.258530  0.687440  1.0  1.0795
  Zn  Zn6  1  0.888470  0.830780  0.109950  1.0  1.1106
  Zn  Zn7  1  0.479870  0.401630  0.114330  1.0  1.0447
  Zn  Zn8  1  0.588940  0.339920  0.622340  1.0  1.0865
  Zn  Zn9  1  0.096010  0.834560  0.689380  1.0  1.0433
  Zn  Zn10  1  0.014430  0.770590  0.601110  1.0  1.0791
  Zn  Zn11  1  0.561170  0.330730  0.192960  1.0  1.0985
  Zn  Zn12  1  0.059550  0.837350  0.112660  1.0  1.0789
  Zn  Zn13  1  0.503220  0.397220  0.690400  1.0  1.0734
  Zn  Zn14  1  0.488310  0.269390  0.105390  1.0  1.0872
  Zn  Zn15  1  0.389140  0.324920  0.172880  1.0  1.109
  Zn  Zn16  1  0.989030  0.896080  0.188900  1.0  1.0798
  Zn  Zn17  1  0.996460  0.094240  0.383970  1.0  1.0587
  Zn  Zn18  1  0.010970  0.103920  0.811100  1.0  1.079
  Zn  Zn19  1  0.006040  0.237440  0.815670  1.0  1.0994
  Zn  Zn20  1  0.520130  0.598370  0.885670  1.0  1.0449
  Zn  Zn21  1  0.903990  0.165440  0.310620  1.0  1.0432
  Zn  Zn22  1  0.069900  0.170970  0.319790  1.0  1.097
  Zn  Zn23  1  0.496710  0.741470  0.312560  1.0  1.0795
  Zn  Zn24  1  0.411060  0.660080  0.377660  1.0  1.0872
  Zn  Zn25  1  0.496780  0.602780  0.309600  1.0  1.0737
  Zn  Zn26  1  0.438830  0.669270  0.807040  1.0  1.0986
  Zn  Zn27  1  0.111530  0.169220  0.890050  1.0  1.1129
  Zn  Zn28  1  0.511690  0.730610  0.894610  1.0  1.0866
  Zn  Zn29  1  0.985570  0.229410  0.398890  1.0  1.0774
  Zn  Zn30  1  0.940450  0.162650  0.887340  1.0  1.0795
  Zn  Zn31  1  0.577300  0.665330  0.393920  1.0  1.0506
  Zn  Zn32  1  0.610860  0.675080  0.827120  1.0  1.1085
  H  H33  1  0.141500  0.632600  0.190100  1.0  0.1231
  H  H34  1  0.162700  0.140400  0.588500  1.0  0.0982
  H  H35  1  0.341700  0.130700  0.063400  1.0  0.1172
  H  H36  1  0.632800  0.542200  0.716000  1.0  0.0974
  H  H37  1  0.868800  0.611600  0.191500  1.0  0.1028
  H  H38  1  0.838000  0.147500  0.601900  1.0  0.1117
  H  H39  1  0.134100  0.828500  0.908600  1.0  0.1189
  H  H40  1  0.140600  0.637600  0.612900  1.0  0.1051
  H  H41  1  0.195900  0.554200  0.571200  1.0  0.1231
  H  H42  1  0.820500  0.522600  0.221400  1.0  0.1009
  H  H43  1  0.549400  0.231500  0.896200  1.0  0.1091
  H  H44  1  0.699500  0.624900  0.720900  1.0  0.1129
  H  H45  1  0.639000  0.123400  0.675000  1.0  0.1063
  H  H46  1  0.484700  0.452800  0.903400  1.0  0.0932
  H  H47  1  0.617600  0.368100  0.486100  1.0  0.1198
  H  H48  1  0.359800  0.553200  0.115300  1.0  0.0965
  H  H49  1  0.638100  0.518100  0.103200  1.0  0.0974
  H  H50  1  0.312500  0.157400  0.191800  1.0  0.1268
  H  H51  1  0.776600  0.681200  0.074200  1.0  0.1237
  H  H52  1  0.518500  0.270300  0.968700  1.0  0.1319
  H  H53  1  0.366500  0.308200  0.309000  1.0  0.111
  H  H54  1  0.720300  0.487200  0.607600  1.0  0.126
  H  H55  1  0.475500  0.441200  0.977400  1.0  0.1264
  H  H56  1  0.070600  0.833300  0.975700  1.0  0.108
  H  H57  1  0.240700  0.213200  0.583900  1.0  0.1217
  H  H58  1  0.271800  0.475000  0.575400  1.0  0.1146
  H  H59  1  0.231200  0.726700  0.100000  1.0  0.1227
  H  H60  1  0.706300  0.189900  0.230300  1.0  0.1046
  H  H61  1  0.391300  0.121400  0.659100  1.0  0.1122
  H  H62  1  0.683100  0.610900  0.072600  1.0  0.1171
  H  H63  1  0.782700  0.990300  0.072300  1.0  0.1238
  H  H64  1  0.910800  0.848600  0.821400  1.0  0.1098
  H  H65  1  0.268600  0.048400  0.059100  1.0  0.1368
  H  H66  1  0.411600  0.316000  0.462300  1.0  0.1159
  H  H67  1  0.997000  0.912500  0.329600  1.0  0.1068
  H  H68  1  0.753000  0.943400  0.690600  1.0  0.1213
  H  H69  1  0.841900  0.030600  0.205500  1.0  0.1245
  H  H70  1  0.569700  0.242000  0.824100  1.0  0.1317
  H  H71  1  0.193200  0.984000  0.094800  1.0  0.1196
  H  H72  1  0.512500  0.415000  0.830500  1.0  0.113
  H  H73  1  0.251600  0.698300  0.725100  1.0  0.1095
  H  H74  1  0.226800  0.098000  0.227300  1.0  0.1101
  H  H75  1  0.733400  0.452700  0.220800  1.0  0.1207
  H  H76  1  0.853400  0.847000  0.888200  1.0  0.1027
  H  H77  1  0.871000  0.045300  0.618100  1.0  0.1083
  H  H78  1  0.004000  0.954300  0.475700  1.0  0.0909
  H  H79  1  0.368300  0.282600  0.384600  1.0  0.1148
  H  H80  1  0.277900  0.951800  0.695300  1.0  0.1114
  H  H81  1  0.571100  0.356300  0.335100  1.0  0.0981
  H  H82  1  0.801700  0.551400  0.575200  1.0  0.1217
  H  H83  1  0.006100  0.961200  0.401900  1.0  0.1159
  H  H84  1  0.971800  0.781700  0.471700  1.0  0.1236
  H  H85  1  0.859900  0.641400  0.573900  1.0  0.1133
  H  H86  1  0.275000  0.460200  0.208500  1.0  0.1218
  H  H87  1  0.758700  0.224300  0.605900  1.0  0.1122
  H  H88  1  0.313500  0.654900  0.095300  1.0  0.1052
  H  H89  1  0.618300  0.382500  0.412900  1.0  0.093
  H  H90  1  0.361000  0.025300  0.691600  1.0  0.127
  H  H91  1  0.723800  0.078800  0.064700  1.0  0.112
  H  H92  1  0.145800  0.023800  0.222800  1.0  0.1115
  H  H93  1  0.184400  0.530600  0.206500  1.0  0.1022
  H  H94  1  0.975000  0.726600  0.398700  1.0  0.1315
  H  H95  1  0.328900  0.622900  0.727600  1.0  0.1019
  H  H96  1  0.657600  0.157100  0.098500  1.0  0.1221
  H  H97  1  0.130400  0.046200  0.617800  1.0  0.1103
  H  H98  1  0.778600  0.110500  0.239400  1.0  0.132
  H  H99  1  0.860900  0.849100  0.966200  1.0  0.116
  H  H100  1  0.797500  0.683500  0.693300  1.0  0.1071
  H  H101  1  0.675100  0.019800  0.694700  1.0  0.1155
  H  H102  1  0.129300  0.831600  0.832300  1.0  0.0938
  H  H103  1  0.991400  0.733400  0.326300  1.0  0.0851
  H  H104  1  0.364200  0.528200  0.696600  1.0  0.1245
  H  H105  1  0.162000  0.852500  0.398100  1.0  0.1116
  H  H106  1  0.608700  0.878600  0.340900  1.0  0.1123
  H  H107  1  0.858500  0.367400  0.809900  1.0  0.1222
  H  H108  1  0.003000  0.087500  0.670400  1.0  0.1072
  H  H109  1  0.515300  0.547200  0.096600  1.0  0.0927
  H  H110  1  0.025000  0.273400  0.601300  1.0  0.1329
  H  H111  1  0.993900  0.038800  0.598100  1.0  0.1164
  H  H112  1  0.316900  0.389100  0.927400  1.0  0.117
  H  H113  1  0.728200  0.525000  0.424600  1.0  0.1154
  H  H114  1  0.671100  0.377100  0.272400  1.0  0.1016
  H  H115  1  0.588400  0.684000  0.537700  1.0  0.1163
  H  H116  1  0.131200  0.388400  0.808500  1.0  0.1021
  H  H117  1  0.198300  0.448600  0.424800  1.0  0.1208
  H  H118  1  0.158100  0.969400  0.794500  1.0  0.1244
  H  H119  1  0.382400  0.631900  0.513900  1.0  0.1202
  H  H120  1  0.768800  0.273300  0.900000  1.0  0.122
  H  H121  1  0.179500  0.477400  0.778600  1.0  0.1012
  H  H122  1  0.266600  0.547300  0.779200  1.0  0.1224
  H  H123  1  0.815600  0.469400  0.793500  1.0  0.1012
  H  H124  1  0.247000  0.056600  0.309400  1.0  0.1216
  H  H125  1  0.202500  0.316500  0.306700  1.0  0.1072
  H  H126  1  0.430300  0.758000  0.175900  1.0  0.1321
  H  H127  1  0.658300  0.869300  0.936600  1.0  0.1172
  H  H128  1  0.731400  0.951600  0.940900  1.0  0.1359
  H  H129  1  0.428900  0.643700  0.664900  1.0  0.0978
  H  H130  1  0.639000  0.974700  0.308400  1.0  0.1276
  H  H131  1  0.028200  0.218300  0.528300  1.0  0.1243
  H  H132  1  0.759300  0.786800  0.416100  1.0  0.1213
  H  H133  1  0.241300  0.775700  0.394100  1.0  0.1122
  H  H134  1  0.381700  0.617500  0.587100  1.0  0.0932
  H  H135  1  0.722100  0.048200  0.304700  1.0  0.1122
  H  H136  1  0.859400  0.362400  0.387100  1.0  0.1057
  H  H137  1  0.631700  0.717400  0.615400  1.0  0.1151
  H  H138  1  0.837300  0.859600  0.411500  1.0  0.098
  H  H139  1  0.293700  0.810100  0.769700  1.0  0.1047
  H  H140  1  0.929400  0.166700  0.024300  1.0  0.108
  H  H141  1  0.806800  0.016000  0.905200  1.0  0.1202
  H  H142  1  0.481500  0.729700  0.031300  1.0  0.1316
  H  H143  1  0.450600  0.768500  0.103800  1.0  0.1092
  H  H144  1  0.748400  0.301700  0.274900  1.0  0.1091
  H  H145  1  0.217300  0.009700  0.927700  1.0  0.124
  H  H146  1  0.361000  0.876600  0.325000  1.0  0.1066
  H  H147  1  0.854200  0.976200  0.777200  1.0  0.1108
  H  H148  1  0.487500  0.585000  0.169500  1.0  0.1135
  H  H149  1  0.089200  0.151400  0.178600  1.0  0.1095
  H  H150  1  0.146600  0.153000  0.111800  1.0  0.1014
  H  H151  1  0.870700  0.168400  0.167700  1.0  0.0941
  H  H152  1  0.279700  0.512800  0.392400  1.0  0.1251
  H  H153  1  0.687500  0.842600  0.808200  1.0  0.1262
  H  H154  1  0.869600  0.953800  0.382200  1.0  0.11
  H  H155  1  0.725000  0.539800  0.791500  1.0  0.1219
  H  H156  1  0.129000  0.954700  0.381900  1.0  0.1091
  H  H157  1  0.635800  0.471800  0.303400  1.0  0.1232
  H  H158  1  0.342400  0.842900  0.901500  1.0  0.1214
  H  H159  1  0.139100  0.150900  0.033800  1.0  0.116
  H  H160  1  0.524500  0.558800  0.022600  1.0  0.1267
  H  H161  1  0.140100  0.358600  0.426100  1.0  0.1134
  H  H162  1  0.324900  0.980200  0.305300  1.0  0.1144
  H  H163  1  0.865900  0.171500  0.091400  1.0  0.1191
  H  H164  1  0.221400  0.889500  0.760600  1.0  0.131
  H  H165  1  0.300500  0.375100  0.279100  1.0  0.1131
  H  H166  1  0.804100  0.445800  0.428800  1.0  0.1237
  H  H167  1  0.008600  0.266600  0.673700  1.0  0.0843
  H  H168  1  0.996000  0.045700  0.524300  1.0  0.0905
  H  H169  1  0.276200  0.921200  0.935300  1.0  0.1114
  H  H170  1  0.361900  0.481900  0.896800  1.0  0.0973
  H  H171  1  0.773200  0.902000  0.772700  1.0  0.11
  H  H172  1  0.223400  0.318800  0.925800  1.0  0.1245
  H  H173  1  0.640200  0.446800  0.884700  1.0  0.095
  H  H174  1  0.686500  0.345100  0.904700  1.0  0.1052
  H  H175  1  0.633500  0.691800  0.691000  1.0  0.111
  H  H176  1  0.367200  0.457800  0.284000  1.0  0.0977
  C  C177  1  0.478500  0.324100  0.265200  1.0  0.7349
  C  C178  1  0.208800  0.137000  0.604400  1.0  -0.1054
  C  C179  1  0.512600  0.307500  0.955100  1.0  -0.1233
  C  C180  1  0.274100  0.501700  0.599700  1.0  -0.0552
  C  C181  1  0.823700  0.005200  0.139500  1.0  -0.1465
  C  C182  1  0.902500  0.845900  0.952100  1.0  -0.0579
  C  C183  1  0.291300  0.625000  0.703800  1.0  -0.1342
  C  C184  1  0.324500  0.175900  0.623500  1.0  -0.1619
  C  C185  1  0.460600  0.322800  0.406600  1.0  -0.0546
  C  C186  1  0.679100  0.477900  0.159000  1.0  -0.1022
  C  C187  1  0.742200  0.065200  0.093600  1.0  -0.0769
  C  C188  1  0.252600  0.050700  0.126800  1.0  0.0715
  C  C189  1  0.960800  0.846100  0.883200  1.0  0.0277
  C  C190  1  0.680000  0.128200  0.660500  1.0  -0.0225
  C  C191  1  0.955800  0.845700  0.838700  1.0  -0.0576
  C  C192  1  0.797900  0.579800  0.597800  1.0  -0.1044
  C  C193  1  0.142000  0.946500  0.660700  1.0  0.7213
  C  C194  1  0.991100  0.817000  0.411700  1.0  -0.0405
  C  C195  1  0.691000  0.180700  0.642200  1.0  -0.1575
  C  C196  1  0.018400  0.841000  0.816300  1.0  -0.1436
  C  C197  1  0.314400  0.029900  0.676700  1.0  -0.0729
  C  C198  1  0.230300  0.692400  0.117400  1.0  -0.1091
  C  C199  1  0.578100  0.364800  0.422800  1.0  -0.0945
  C  C200  1  0.015100  0.841200  0.767800  1.0  0.7351
  C  C201  1  0.672200  0.178000  0.164100  1.0  -0.1263
  C  C202  1  0.372600  0.443100  0.640400  1.0  0.7372
  C  C203  1  0.303000  0.135700  0.164800  1.0  -0.1037
  C  C204  1  0.246000  0.669600  0.702200  1.0  -0.0458
  C  C205  1  0.227100  0.590800  0.170100  1.0  -0.0134
  C  C206  1  0.870400  0.940200  0.649800  1.0  0.7419
  C  C207  1  0.228500  0.548500  0.597500  1.0  -0.0369
  C  C208  1  0.407100  0.302500  0.374800  1.0  -0.0409
  C  C209  1  0.278400  0.649600  0.114700  1.0  -0.0675
  C  C210  1  0.225300  0.087100  0.630200  1.0  0.0513
  C  C211  1  0.002300  0.924000  0.415000  1.0  -0.1941
  C  C212  1  0.319700  0.119400  0.088600  1.0  -0.0548
  C  C213  1  0.189600  0.674300  0.666667  1.0  -0.0704
  C  C214  1  0.125400  0.731700  0.148000  1.0  0.7077
  C  C215  1  0.283900  0.580300  0.670000  1.0  0.0144
  C  C216  1  0.618900  0.224200  0.157800  1.0  0.6744
  C  C217  1  0.764800  0.086300  0.172400  1.0  -0.0802
  C  C218  1  0.982400  0.816700  0.457200  1.0  -0.0946
  C  C219  1  0.177600  0.636100  0.171300  1.0  -0.0629
  C  C220  1  0.623300  0.435300  0.157400  1.0  0.7467
  C  C221  1  0.168800  0.987000  0.159300  1.0  -0.103
  C  C222  1  0.327400  0.550600  0.136600  1.0  -0.067
  C  C223  1  0.670800  0.505700  0.662300  1.0  -0.1101
  C  C224  1  0.343600  0.125900  0.646400  1.0  -0.0621
  C  C225  1  0.676000  0.518900  0.127000  1.0  -0.0856
  C  C226  1  0.535000  0.330600  0.818400  1.0  -0.1407
  C  C227  1  0.754800  0.570700  0.630800  1.0  -0.0633
  C  C228  1  0.136300  0.723200  0.666100  1.0  0.715
  C  C229  1  0.090000  0.833900  0.890600  1.0  -0.1283
  C  C230  1  0.229500  0.586600  0.632400  1.0  0.018
  C  C231  1  0.176900  0.042900  0.633200  1.0  -0.1414
  C  C232  1  0.754800  0.120000  0.210700  1.0  -0.18
  C  C233  1  0.885100  0.700000  0.138800  1.0  0.706
  C  C234  1  0.830600  0.040500  0.633200  1.0  -0.0772
  C  C235  1  0.180600  0.634800  0.635000  1.0  -0.0687
  C  C236  1  0.681300  0.146300  0.127000  1.0  -0.158
  C  C237  1  0.728800  0.564000  0.127800  1.0  0.1067
  C  C238  1  0.329000  0.533200  0.671600  1.0  -0.1185
  C  C239  1  0.488600  0.347100  0.028300  1.0  0.7248
  C  C240  1  0.521300  0.315000  0.909900  1.0  0.0219
  C  C241  1  0.776300  0.652800  0.097100  1.0  -0.0632
  C  C242  1  0.528900  0.343200  0.345500  1.0  -0.1154
  C  C243  1  0.493000  0.415500  0.916400  1.0  -0.0687
  C  C244  1  0.542200  0.268700  0.882600  1.0  -0.0679
  C  C245  1  0.711000  0.165500  0.205300  1.0  -0.0406
  C  C246  1  0.835700  0.631600  0.598500  1.0  -0.0519
  C  C247  1  0.026700  0.837800  0.957400  1.0  -0.0615
  C  C248  1  0.275500  0.494300  0.190900  1.0  -0.1051
  C  C249  1  0.328800  0.152900  0.127100  1.0  -0.1372
  C  C250  1  0.264900  0.986500  0.679300  1.0  -0.0348
  C  C251  1  0.328900  0.504800  0.162300  1.0  -0.1559
  C  C252  1  0.715400  0.515600  0.629900  1.0  -0.0961
  C  C253  1  0.815300  0.038700  0.177300  1.0  -0.1167
  C  C254  1  0.999300  0.919700  0.458400  1.0  -0.0384
  C  C255  1  0.830600  0.651900  0.135500  1.0  -0.1429
  C  C256  1  0.987300  0.866600  0.532000  1.0  0.6776
  C  C257  1  0.322900  0.493800  0.637100  1.0  -0.1435
  C  C258  1  0.998700  0.876200  0.344700  1.0  -0.0539
  C  C259  1  0.511400  0.370700  0.889700  1.0  0.058
  C  C260  1  0.838400  0.670200  0.636200  1.0  -0.1375
  C  C261  1  0.261800  0.085100  0.163200  1.0  -0.0984
  C  C262  1  0.495300  0.354600  0.979430  1.0  -0.1156
  C  C263  1  0.722600  0.609500  0.095200  1.0  -0.0541
  C  C264  1  0.174500  0.029200  0.199600  1.0  -0.0756
  C  C265  1  0.455200  0.325900  0.452100  1.0  -0.0955
  C  C266  1  0.278900  0.069500  0.086300  1.0  -0.104
  C  C267  1  0.408700  0.310600  0.329400  1.0  -0.0993
  C  C268  1  0.832500  0.609700  0.166700  1.0  -0.1051
  C  C269  1  0.760600  0.979600  0.676800  1.0  -0.0896
  C  C270  1  0.783400  0.086800  0.634900  1.0  0.046
  C  C271  1  0.725500  0.080300  0.659500  1.0  0.0363
  C  C272  1  0.576400  0.360200  0.465800  1.0  -0.0629
  C  C273  1  0.087000  0.834900  0.845630  1.0  -0.0464
  C  C274  1  0.883200  0.722100  0.637800  1.0  0.6948
  C  C275  1  0.518700  0.377800  0.843900  1.0  -0.1296
  C  C276  1  0.278500  0.597000  0.139600  1.0  0.1202
  C  C277  1  0.626500  0.454800  0.659700  1.0  0.7053
  C  C278  1  0.750500  0.188000  0.619300  1.0  -0.0468
  C  C279  1  0.818900  0.987600  0.653400  1.0  -0.15
  C  C280  1  0.118700  0.943200  0.157580  1.0  0.7087
  C  C281  1  0.386000  0.201300  0.131200  1.0  0.6745
  C  C282  1  0.782200  0.016100  0.096900  1.0  -0.0311
  C  C283  1  0.525000  0.345400  0.390800  1.0  0.0232
  C  C284  1  0.223800  0.538100  0.191000  1.0  -0.0024
  C  C285  1  0.641200  0.229700  0.646100  1.0  0.7237
  C  C286  1  0.510100  0.341800  0.531500  1.0  0.7091
  C  C287  1  0.203100  0.003900  0.122600  1.0  -0.0687
  C  C288  1  0.989700  0.868300  0.480400  1.0  -0.0936
  C  C289  1  0.025700  0.841000  0.912000  1.0  -0.0123
  C  C290  1  0.966700  0.840800  0.977300  1.0  -0.1393
  C  C291  1  0.784000  0.562800  0.165200  1.0  -0.0367
  C  C292  1  0.380600  0.454200  0.158100  1.0  0.7156
  C  C293  1  0.797100  0.142100  0.616300  1.0  -0.0923
  C  C294  1  0.196000  0.993500  0.658500  1.0  -0.1402
  C  C295  1  0.705600  0.597200  0.698200  1.0  -0.1192
  C  C296  1  0.715000  0.025100  0.679300  1.0  -0.078
  C  C297  1  0.971600  0.838000  0.028100  1.0  0.7348
  C  C298  1  0.796800  0.656900  0.669100  1.0  -0.0826
  C  C299  1  0.753600  0.607600  0.670100  1.0  0.0517
  C  C300  1  0.486400  0.408800  0.960030  1.0  -0.0951
  C  C301  1  0.783400  0.522100  0.197100  1.0  -0.0603
  C  C302  1  0.727200  0.096100  0.131000  1.0  0.0138
  C  C303  1  0.732900  0.479700  0.196900  1.0  -0.082
  C  C304  1  0.552300  0.273400  0.840000  1.0  -0.0824
  C  C305  1  0.000100  0.818500  0.319800  1.0  -0.1543
  C  C306  1  0.984200  0.762900  0.385700  1.0  -0.138
  C  C307  1  0.001000  0.823200  0.269800  1.0  0.6683
  C  C308  1  0.376400  0.223900  0.622900  1.0  0.7038
  C  C309  1  0.898400  0.846400  0.905600  1.0  -0.1152
  C  C310  1  0.991800  0.768400  0.342970  1.0  -0.0392
  C  C311  1  0.254800  0.179800  0.601200  1.0  -0.0291
  C  C312  1  0.539200  0.338400  0.769300  1.0  0.6962
  C  C313  1  0.511200  0.342800  0.483000  1.0  -0.1089
  C  C314  1  0.665500  0.548000  0.695100  1.0  -0.0451
  C  C315  1  0.220500  0.073700  0.201500  1.0  -0.1233
  C  C316  1  0.296000  0.081000  0.651900  1.0  0.0374
  C  C317  1  0.181000  0.685100  0.145600  1.0  -0.1287
  C  C318  1  0.999900  0.872200  0.387100  1.0  0.0135
  C  C319  1  0.876800  0.958900  0.142200  1.0  0.6902
  C  C320  1  0.474200  0.322600  0.313600  1.0  -0.1076
  C  C321  1  0.289000  0.834500  0.794700  1.0  -0.0401
  C  C322  1  0.627400  0.556900  0.359600  1.0  0.7375
  C  C323  1  0.010300  0.131700  0.519600  1.0  -0.0947
  C  C324  1  0.539400  0.677200  0.593400  1.0  -0.0545
  C  C325  1  0.521500  0.675900  0.734800  1.0  0.7332
  C  C326  1  0.507000  0.584500  0.083600  1.0  -0.069
  C  C327  1  0.656400  0.874100  0.353600  1.0  -0.0631
  C  C328  1  0.294400  0.402800  0.301800  1.0  -0.1165
  C  C329  1  0.274500  0.919700  0.340500  1.0  0.035
  C  C330  1  0.202100  0.420200  0.402200  1.0  -0.0999
  C  C331  1  0.769700  0.307600  0.882600  1.0  -0.1083
  C  C332  1  0.223700  0.347200  0.902900  1.0  -0.0614
  C  C333  1  0.511400  0.652900  0.971700  1.0  0.7234
  C  C334  1  0.245200  0.880000  0.789300  1.0  -0.1773
  C  C335  1  0.381100  0.775800  0.842200  1.0  0.6741
  C  C336  1  0.881300  0.056800  0.842420  1.0  0.7104
  C  C337  1  0.447700  0.726600  0.160000  1.0  -0.0831
  C  C338  1  0.028400  0.162000  0.971900  1.0  0.7347
  C  C339  1  0.819400  0.365200  0.365000  1.0  -0.071
  C  C340  1  0.677100  0.506200  0.362900  1.0  -0.1448
  C  C341  1  0.101600  0.153600  0.094400  1.0  -0.1168
  C  C342  1  0.973300  0.162200  0.042600  1.0  -0.0639
  C  C343  1  0.671100  0.495200  0.837700  1.0  -0.1572
  C  C344  1  0.747400  0.949300  0.873200  1.0  0.0758
  C  C345  1  0.267100  0.520300  0.803100  1.0  -0.082
  C  C346  1  0.735100  0.013500  0.320700  1.0  -0.0345
  C  C347  1  0.672600  0.449400  0.863400  1.0  -0.0683
  C  C348  1  0.184700  0.961300  0.822700  1.0  -0.1168
  C  C349  1  0.039200  0.153900  0.116800  1.0  0.0273
  C  C350  1  0.863700  0.276800  0.333900  1.0  0.7132
  C  C351  1  0.716100  0.419700  0.330000  1.0  0.0146
  C  C352  1  0.257800  0.934800  0.906400  1.0  -0.0728
  C  C353  1  0.320000  0.871800  0.339500  1.0  -0.0209
  C  C354  1  0.044200  0.154300  0.161300  1.0  -0.0565
  C  C355  1  0.239400  0.020400  0.323200  1.0  -0.0892
  C  C356  1  0.874600  0.268300  0.852000  1.0  0.7076
  C  C357  1  0.779500  0.926300  0.798500  1.0  -0.1247
  C  C358  1  0.329200  0.494300  0.337700  1.0  -0.11
  C  C359  1  0.671200  0.847100  0.872900  1.0  -0.136
  C  C360  1  0.008900  0.183000  0.588300  1.0  -0.0423
  C  C361  1  0.910000  0.166100  0.109400  1.0  -0.1159
  C  C362  1  0.358800  0.770300  0.353900  1.0  0.7227
  C  C363  1  0.708700  0.375000  0.296200  1.0  -0.1321
  C  C364  1  0.164300  0.368400  0.401500  1.0  -0.0497
  C  C365  1  0.246400  0.392400  0.329900  1.0  0.0523
  C  C366  1  0.487400  0.692500  0.044900  1.0  -0.1267
  C  C367  1  0.169400  0.348100  0.864500  1.0  -0.1441
  C  C368  1  0.114900  0.300000  0.861200  1.0  0.7052
  C  C369  1  0.671000  0.466800  0.328400  1.0  -0.1185
  C  C370  1  0.017600  0.183300  0.542800  1.0  -0.0966
  C  C371  1  0.675500  0.824100  0.376500  1.0  -0.1626
  C  C372  1  0.169400  0.959500  0.366800  1.0  -0.0804
  C  C373  1  0.804000  0.006500  0.341500  1.0  -0.1399
  C  C374  1  0.513600  0.591200  0.039970  1.0  -0.0954
  C  C375  1  0.161600  0.329800  0.363800  1.0  -0.1369
  C  C376  1  0.167500  0.390300  0.833300  1.0  -0.1095
  C  C377  1  0.623600  0.776100  0.377100  1.0  0.7022
  C  C378  1  0.776200  0.461900  0.809000  1.0  -0.0028
  C  C379  1  0.724500  0.505700  0.809100  1.0  -0.1044
  C  C380  1  0.680300  0.880600  0.911400  1.0  -0.0515
  C  C381  1  0.685600  0.970100  0.323300  1.0  -0.0752
  C  C382  1  0.504700  0.645400  0.020570  1.0  -0.1167
  C  C383  1  0.373500  0.545200  0.340300  1.0  0.7054
  C  C384  1  0.771500  0.451500  0.402500  1.0  -0.0373
  C  C385  1  0.272800  0.903900  0.869000  1.0  0.0129
  C  C386  1  0.721500  0.403000  0.860400  1.0  0.1205
  C  C387  1  0.772900  0.409200  0.829900  1.0  -0.0123
  C  C388  1  0.271200  0.436000  0.872200  1.0  0.1081
  C  C389  1  0.318700  0.853700  0.873000  1.0  -0.1545
  C  C390  1  0.217800  0.983900  0.903100  1.0  -0.0299
  C  C391  1  0.725900  0.498300  0.400300  1.0  -0.0544
  C  C392  1  0.202900  0.857900  0.383700  1.0  -0.0929
  C  C393  1  0.825500  0.970800  0.800400  1.0  -0.0735
  C  C394  1  0.997700  0.076000  0.585000  1.0  -0.1999
  C  C395  1  0.285000  0.974900  0.320700  1.0  -0.0764
  C  C396  1  0.245200  0.429300  0.369200  1.0  -0.0621
  C  C397  1  0.544800  0.674100  0.547900  1.0  -0.095
  C  C398  1  0.460800  0.661600  0.230700  1.0  0.6977
  C  C399  1  0.478700  0.685000  0.090100  1.0  0.024
  C  C400  1  0.465000  0.669400  0.181600  1.0  -0.1413
  C  C401  1  0.324000  0.481100  0.873000  1.0  -0.0865
  C  C402  1  0.738200  0.914900  0.836800  1.0  -0.0975
  C  C403  1  0.327800  0.822000  0.835900  1.0  -0.1269
  C  C404  1  0.810400  0.325700  0.333400  1.0  -0.0751
  C  C405  1  0.320900  0.522100  0.841000  1.0  -0.1028
  C  C406  1  0.334500  0.452000  0.304900  1.0  -0.0445
  C  C407  1  0.754000  0.330400  0.297800  1.0  -0.0433
  C  C408  1  0.000100  0.127800  0.612900  1.0  0.0133
  C  C409  1  0.249500  0.812000  0.380700  1.0  -0.0441
  C  C410  1  0.525800  0.677400  0.686400  1.0  -0.1077
  C  C411  1  0.000700  0.080300  0.541600  1.0  -0.0425
  C  C412  1  0.791200  0.863000  0.395600  1.0  -0.1078
  C  C413  1  0.704000  0.919000  0.348100  1.0  0.0373
  C  C414  1  0.488600  0.629300  0.110300  1.0  0.0574
  C  C415  1  0.591300  0.689400  0.670600  1.0  -0.1022
  C  C416  1  0.770500  0.413400  0.367600  1.0  0.0146
  C  C417  1  0.913000  0.165100  0.154370  1.0  -0.0456
  C  C418  1  0.235200  0.913700  0.827600  1.0  -0.0799
  C  C419  1  0.116800  0.277900  0.362200  1.0  0.6933
  C  C420  1  0.774700  0.912900  0.369800  1.0  0.0522
  C  C421  1  0.284600  0.484400  0.370100  1.0  -0.0946
  C  C422  1  0.721600  0.350400  0.885300  1.0  -0.0658
  C  C423  1  0.999900  0.181500  0.680200  1.0  -0.153
  C  C424  1  0.823100  0.957100  0.366800  1.0  -0.138
  C  C425  1  0.999000  0.176800  0.730200  1.0  0.6684
  C  C426  1  0.181100  0.012400  0.346600  1.0  -0.1482
  C  C427  1  0.819000  0.314900  0.854400  1.0  -0.1291
  C  C428  1  0.033300  0.159200  0.022700  1.0  -0.1389
  C  C429  1  0.203200  0.343100  0.330900  1.0  -0.0847
  C  C430  1  0.619400  0.545800  0.841900  1.0  0.7177
  C  C431  1  0.831200  0.013000  0.840700  1.0  -0.1035
  C  C432  1  0.421900  0.635200  0.577200  1.0  -0.0987
  C  C433  1  0.012700  0.133400  0.468000  1.0  0.678
  C  C434  1  0.216600  0.477900  0.802900  1.0  -0.0638
  C  C435  1  0.129600  0.059800  0.350200  1.0  0.7392
  C  C436  1  0.984900  0.158800  0.232200  1.0  0.7349
  C  C437  1  0.216000  0.437200  0.834800  1.0  -0.0322
  C  C438  1  0.097500  0.154100  0.047900  1.0  -0.0572
  C  C439  1  0.216600  0.913200  0.365100  1.0  0.0465
  C  C440  1  0.001300  0.123800  0.655300  1.0  -0.0487
  C  C441  1  0.488800  0.657200  0.517000  1.0  -0.1098
  C  C442  1  0.614000  0.798700  0.868800  1.0  0.6745
  C  C443  1  0.008200  0.231600  0.657030  1.0  -0.0351
  C  C444  1  0.015800  0.237100  0.614300  1.0  -0.1355
  C  C445  1  0.475000  0.654600  0.609200  1.0  0.0231
  C  C446  1  0.457800  0.731300  0.117400  1.0  -0.0613
  C  C447  1  0.481300  0.622200  0.156100  1.0  -0.1288
  C  C448  1  0.822400  0.363900  0.828700  1.0  -0.0605
  C  C449  1  0.858000  0.053500  0.339300  1.0  0.7206
  C  C450  1  0.745200  0.820200  0.398800  1.0  -0.0311
  C  C451  1  0.423600  0.639800  0.534200  1.0  -0.064
  C  C452  1  0.376700  0.564700  0.842600  1.0  0.7438
  C  C453  1  0.721100  0.930500  0.913700  1.0  -0.1034
  C  C454  1  0.309000  0.819300  0.357800  1.0  -0.1574
  C  C455  1  0.974300  0.159000  0.088000  1.0  -0.0111
  C  C456  1  0.489900  0.658200  0.468500  1.0  0.7084
  C  C457  1  0.471100  0.656800  0.654500  1.0  -0.1152
  C  C458  1  0.123200  0.041100  0.857800  1.0  0.6899
  C  C459  1  0.176300  0.994800  0.860500  1.0  -0.1495
  C  C460  1  0.697000  0.864300  0.835200  1.0  -0.1041
  C  C461  1  0.277400  0.390500  0.904800  1.0  -0.0531
  C  C462  1  0.796900  0.996100  0.877400  1.0  -0.067
  C  C463  1  0.592900  0.697500  0.625200  1.0  -0.0425
  C  C464  1  0.981600  0.159000  0.183700  1.0  -0.1473
  O  O465  1  0.572500  0.455100  0.679600  1.0  -0.6303
  O  O466  1  0.962500  0.823600  0.547610  1.0  -0.6224
  O  O467  1  0.876600  0.758000  0.670410  1.0  -0.5894
  O  O468  1  0.655800  0.277400  0.627560  1.0  -0.5768
  O  O469  1  0.421100  0.207100  0.098840  1.0  -0.5602
  O  O470  1  0.073900  0.841700  0.751490  1.0  -0.6134
  O  O471  1  0.033300  0.837300  0.048490  1.0  -0.5988
  O  O472  1  0.156500  0.766700  0.690620  1.0  -0.5731
  O  O473  1  0.916100  0.954200  0.180310  1.0  -0.5976
  O  O474  1  0.077300  0.938500  0.188660  1.0  -0.6244
  O  O475  1  0.983100  0.831860  0.148040  1.0  -1.2325
  O  O476  1  0.448200  0.333333  0.544880  1.0  -0.6113
  O  O477  1  0.916600  0.836100  0.045590  1.0  -0.5945
  O  O478  1  0.352900  0.272500  0.605200  1.0  -0.5745
  O  O479  1  0.925800  0.701700  0.175990  1.0  -0.5831
  O  O480  1  0.379600  0.236900  0.161400  1.0  -0.651
  O  O481  1  0.010700  0.833420  0.648140  1.0  -1.2493
  O  O482  1  0.861500  0.893050  0.669130  1.0  -0.5921
  O  O483  1  0.159300  0.901200  0.681980  1.0  -0.5777
  O  O484  1  0.921700  0.728400  0.608360  1.0  -0.5923
  O  O485  1  0.426100  0.310400  0.239620  1.0  -0.6
  O  O486  1  0.515100  0.386300  0.754030  1.0  -0.5701
  O  O487  1  0.439800  0.215500  0.636190  1.0  -0.6128
  O  O488  1  0.082300  0.723600  0.176470  1.0  -0.6168
  O  O489  1  0.417600  0.463000  0.127460  1.0  -0.5842
  O  O490  1  0.415400  0.439200  0.675660  1.0  -0.6187
  O  O491  1  0.382200  0.414900  0.183300  1.0  -0.5834
  O  O492  1  0.540400  0.335900  0.253950  1.0  -0.5879
  O  O493  1  0.127200  0.773300  0.123070  1.0  -0.5674
  O  O494  1  0.628400  0.394500  0.187760  1.0  -0.5954
  O  O495  1  0.591500  0.221300  0.667850  1.0  -0.6165
  O  O496  1  0.480920  0.330530  0.147380  1.0  -1.2408
  O  O497  1  0.955700  0.836500  0.745120  1.0  -0.6004
  O  O498  1  0.577600  0.229200  0.120740  1.0  -0.6126
  O  O499  1  0.996800  0.871600  0.251910  1.0  -0.603
  O  O500  1  0.115800  0.908200  0.124230  1.0  -0.608
  O  O501  1  0.619200  0.261400  0.191480  1.0  -0.5828
  O  O502  1  0.497700  0.296800  0.045240  1.0  -0.609
  O  O503  1  0.642300  0.412300  0.636470  1.0  -0.6064
  O  O504  1  0.080200  0.956000  0.639980  1.0  -0.6124
  O  O505  1  0.505300  0.331550  0.650620  1.0  -1.2184
  O  O506  1  0.572600  0.439400  0.126420  1.0  -0.596
  O  O507  1  0.003900  0.774800  0.249240  1.0  -0.6062
  O  O508  1  0.078200  0.715600  0.644000  1.0  -0.5998
  O  O509  1  0.922100  0.950700  0.628390  1.0  -0.6177
  O  O510  1  0.475900  0.392100  0.049720  1.0  -0.6074
  O  O511  1  0.564300  0.348900  0.556950  1.0  -0.586
  O  O512  1  0.556300  0.295800  0.746600  1.0  -0.6379
  O  O513  1  0.368900  0.407300  0.608460  1.0  -0.5976
  O  O514  1  0.883000  0.736300  0.108840  1.0  -0.6175
  O  O515  1  0.875800  0.923000  0.111600  1.0  -0.6266
  O  O516  1  0.002400  0.913700  0.551600  1.0  -0.5816
  O  O517  1  0.872800  0.226700  0.876930  1.0  -0.5672
  O  O518  1  0.371600  0.605500  0.812240  1.0  -0.5977
  O  O519  1  0.843500  0.233300  0.309380  1.0  -0.5717
  O  O520  1  0.502300  0.703200  0.954760  1.0  -0.6092
  O  O521  1  0.380800  0.738600  0.808520  1.0  -0.5827
  O  O522  1  0.123400  0.242000  0.329590  1.0  -0.5902
  O  O523  1  0.966700  0.162700  0.951510  1.0  -0.5992
  O  O524  1  0.989300  0.166580  0.351860  1.0  -1.2495
  O  O525  1  0.617800  0.585100  0.816700  1.0  -0.5828
  O  O526  1  0.117000  0.263700  0.891160  1.0  -0.6179
  O  O527  1  0.083400  0.163900  0.954410  1.0  -0.5943
  O  O528  1  0.582400  0.537000  0.872540  1.0  -0.5844
  O  O529  1  0.494700  0.668450  0.349380  1.0  -1.2181
  O  O530  1  0.620400  0.763100  0.838600  1.0  -0.6491
  O  O531  1  0.484900  0.613700  0.245970  1.0  -0.5693
  O  O532  1  0.524100  0.607900  0.950280  1.0  -0.6053
  O  O533  1  0.124200  0.077000  0.888400  1.0  -0.6264
  O  O534  1  0.427400  0.560600  0.873580  1.0  -0.5982
  O  O535  1  0.919800  0.044000  0.360020  1.0  -0.6137
  O  O536  1  0.997600  0.086300  0.448400  1.0  -0.5824
  O  O537  1  0.584600  0.560800  0.324340  1.0  -0.6171
  O  O538  1  0.083900  0.045800  0.819690  1.0  -0.5967
  O  O539  1  0.357700  0.587700  0.363530  1.0  -0.6069
  O  O540  1  0.578900  0.792900  0.901160  1.0  -0.561
  O  O541  1  0.435700  0.651100  0.443050  1.0  -0.5855
  O  O542  1  0.459600  0.664100  0.746050  1.0  -0.5891
  O  O543  1  0.016900  0.168140  0.851960  1.0  -1.2329
  O  O544  1  0.551800  0.666667  0.455120  1.0  -0.6095
  O  O545  1  0.408500  0.778700  0.332150  1.0  -0.6168
  O  O546  1  0.427500  0.544900  0.320400  1.0  -0.6293
  O  O547  1  0.037500  0.176400  0.452390  1.0  -0.6218
  O  O548  1  0.996100  0.225200  0.750760  1.0  -0.6061
  O  O549  1  0.138500  0.106950  0.330870  1.0  -0.5936
  O  O550  1  0.922700  0.061500  0.811340  1.0  -0.6238
  O  O551  1  0.884200  0.091800  0.875770  1.0  -0.6081
  O  O552  1  0.044300  0.163500  0.254880  1.0  -0.6002
  O  O553  1  0.647100  0.727500  0.394800  1.0  -0.5733
  O  O554  1  0.840700  0.098800  0.318020  1.0  -0.5769
  O  O555  1  0.926100  0.158300  0.248510  1.0  -0.6136
  O  O556  1  0.631100  0.592700  0.391540  1.0  -0.5989
  O  O557  1  0.921800  0.284400  0.356000  1.0  -0.599
  O  O558  1  0.560200  0.784500  0.363810  1.0  -0.6126
  O  O559  1  0.344200  0.722600  0.372440  1.0  -0.5778
  O  O560  1  0.422400  0.770800  0.879260  1.0  -0.6119
  O  O561  1  0.573900  0.689600  0.760380  1.0  -0.6016
  O  O562  1  0.003200  0.128400  0.748090  1.0  -0.602
  O  O563  1  0.519080  0.669470  0.852620  1.0  -1.2418
  O  O564  1  0.917700  0.276400  0.823530  1.0  -0.616
  O  O565  1  0.074200  0.298300  0.824010  1.0  -0.5826
  O  O566  1  0.077900  0.049300  0.371610  1.0  -0.6175
  O  O567  1  0.443700  0.704200  0.253400  1.0  -0.6368
  O  O568  1  0.078300  0.271600  0.391640  1.0  -0.5926
