# generated using pymatgen
data_Zn4H18C36O13
_symmetry_space_group_name_H-M   'P 1'
_cell_length_a   19.27800000
_cell_length_b   19.59300000
_cell_length_c   20.04600000
_cell_angle_alpha   70.65000000
_cell_angle_beta   70.05000000
_cell_angle_gamma   69.86000000
_symmetry_Int_Tables_number   1
_chemical_formula_structural   Zn4H18C36O13
_chemical_formula_sum   'Zn16 H72 C144 O52'
_cell_volume   6482.92684114
_cell_formula_units_Z   4
loop_
 _symmetry_equiv_pos_site_id
 _symmetry_equiv_pos_as_xyz
  1  'x, y, z'
loop_
 _atom_site_type_symbol
 _atom_site_label
 _atom_site_symmetry_multiplicity
 _atom_site_fract_x
 _atom_site_fract_y
 _atom_site_fract_z
 _atom_site_occupancy
 _atom_site_charge
  Zn  Zn1  1  0.625420  0.962520  0.642270  1.0  1.1069
  Zn  Zn2  1  0.057950  0.530710  0.224750  1.0  1.0818
  Zn  Zn3  1  0.187550  0.541720  0.076520  1.0  1.1489
  Zn  Zn4  1  0.216620  0.546820  0.224070  1.0  1.0967
  Zn  Zn5  1  0.636170  0.117520  0.664580  1.0  1.1167
  Zn  Zn6  1  0.644380  0.965720  0.788820  1.0  1.0502
  Zn  Zn7  1  0.207000  0.394670  0.208030  1.0  1.0972
  Zn  Zn8  1  0.779500  0.972590  0.652190  1.0  1.0893
  Zn  Zn9  1  0.374580  0.037480  0.357730  1.0  1.1082
  Zn  Zn10  1  0.355620  0.034280  0.211180  1.0  1.0505
  Zn  Zn11  1  0.783380  0.453180  0.775930  1.0  1.096
  Zn  Zn12  1  0.942050  0.469290  0.775250  1.0  1.0813
  Zn  Zn13  1  0.793000  0.605330  0.791970  1.0  1.0966
  Zn  Zn14  1  0.220500  0.027410  0.347810  1.0  1.09
  Zn  Zn15  1  0.363830  0.882480  0.335420  1.0  1.117
  Zn  Zn16  1  0.812450  0.458280  0.923480  1.0  1.1488
  H  H17  1  0.930600  0.669100  0.351600  1.0  0.107
  H  H18  1  0.472200  0.740200  0.046200  1.0  0.1178
  H  H19  1  0.449600  0.133800  0.386400  1.0  0.1004
  H  H20  1  0.315300  0.241700  0.075300  1.0  0.1184
  H  H21  1  0.918900  0.829900  0.521500  1.0  0.0923
  H  H22  1  0.512100  0.065500  0.475100  1.0  0.1189
  H  H23  1  0.322900  0.430100  0.911500  1.0  0.1125
  H  H24  1  0.404100  0.372300  0.477700  1.0  0.1141
  H  H25  1  0.464300  0.238100  0.800300  1.0  0.1184
  H  H26  1  0.381900  0.116700  0.045600  1.0  0.1179
  H  H27  1  0.797400  0.730200  0.428000  1.0  0.1114
  H  H28  1  0.326500  0.677000  0.940900  1.0  0.1162
  H  H29  1  0.117800  0.696600  0.371100  1.0  0.13
  H  H30  1  0.921500  0.105600  0.466600  1.0  0.1234
  H  H31  1  0.791500  0.762600  0.064100  1.0  0.1176
  H  H32  1  0.045900  0.762800  0.456700  1.0  0.0881
  H  H33  1  0.095700  0.228200  0.295700  1.0  0.1147
  H  H34  1  0.400700  0.362500  0.828800  1.0  0.1339
  H  H35  1  0.464800  0.049500  0.962500  1.0  0.1049
  H  H36  1  0.798500  0.360400  0.448500  1.0  0.1243
  H  H37  1  0.032800  0.137600  0.376300  1.0  0.1203
  H  H38  1  0.333500  0.442700  0.393400  1.0  0.1281
  H  H39  1  0.482200  0.252000  0.535000  1.0  0.1257
  H  H40  1  0.957700  0.861500  0.765200  1.0  0.123
  H  H41  1  0.381400  0.752800  0.818600  1.0  0.1112
  H  H42  1  0.773000  0.837700  0.938800  1.0  0.0809
  H  H43  1  0.726200  0.811300  0.497900  1.0  0.1195
  H  H44  1  0.390300  0.665800  0.117100  1.0  0.1166
  H  H45  1  0.909800  0.392300  0.358100  1.0  0.1328
  H  H46  1  0.056300  0.708500  0.961500  1.0  0.124
  H  H47  1  0.037100  0.785800  0.838700  1.0  0.1228
  H  H48  1  0.873000  0.675900  0.128500  1.0  0.1112
  H  H49  1  0.528900  0.812500  0.921500  1.0  0.0988
  H  H50  1  0.462000  0.824800  0.746000  1.0  0.1267
  H  H51  1  0.366000  0.253800  0.331500  1.0  0.106
  H  H52  1  0.735600  0.269800  0.529000  1.0  0.1205
  H  H53  1  0.677100  0.569900  0.088500  1.0  0.1123
  H  H54  1  0.904300  0.771800  0.704300  1.0  0.1143
  H  H55  1  0.127000  0.324100  0.871500  1.0  0.1112
  H  H56  1  0.227000  0.162300  0.061200  1.0  0.0847
  H  H57  1  0.471100  0.187500  0.078500  1.0  0.0977
  H  H58  1  0.208500  0.237400  0.935900  1.0  0.1177
  H  H59  1  0.962900  0.214200  0.161300  1.0  0.1228
  H  H60  1  0.527800  0.259800  0.953800  1.0  0.1172
  H  H61  1  0.618100  0.883300  0.954400  1.0  0.117
  H  H62  1  0.595900  0.627700  0.522300  1.0  0.1137
  H  H63  1  0.666500  0.557300  0.606600  1.0  0.1277
  H  H64  1  0.618600  0.247200  0.181400  1.0  0.1119
  H  H65  1  0.882200  0.303400  0.628900  1.0  0.1306
  H  H66  1  0.535700  0.761900  0.199700  1.0  0.1175
  H  H67  1  0.673500  0.323000  0.059100  1.0  0.1162
  H  H68  1  0.599300  0.637500  0.171200  1.0  0.1342
  H  H69  1  0.201500  0.639600  0.551500  1.0  0.1237
  H  H70  1  0.943700  0.291500  0.038500  1.0  0.1228
  H  H71  1  0.535200  0.950500  0.037500  1.0  0.1066
  H  H72  1  0.609700  0.334200  0.882900  1.0  0.1171
  H  H73  1  0.273800  0.188700  0.502100  1.0  0.1196
  H  H74  1  0.684700  0.758300  0.924700  1.0  0.1188
  H  H75  1  0.078500  0.894400  0.533400  1.0  0.1249
  H  H76  1  0.487900  0.934500  0.524900  1.0  0.1187
  H  H77  1  0.550400  0.866200  0.613600  1.0  0.1007
  H  H78  1  0.069400  0.330900  0.648400  1.0  0.1072
  H  H79  1  0.517800  0.748000  0.465000  1.0  0.126
  H  H80  1  0.634000  0.746200  0.668500  1.0  0.106
  H  H81  1  0.967200  0.862400  0.623700  1.0  0.1203
  H  H82  1  0.090200  0.607700  0.641900  1.0  0.1341
  H  H83  1  0.042300  0.138500  0.234800  1.0  0.123
  H  H84  1  0.954100  0.237200  0.543300  1.0  0.0884
  H  H85  1  0.264400  0.730200  0.471000  1.0  0.1209
  H  H86  1  0.202600  0.269800  0.572000  1.0  0.112
  H  H87  1  0.081100  0.170100  0.478500  1.0  0.0928
  H  H88  1  0.538000  0.175200  0.254000  1.0  0.126
  C  C89  1  0.063900  0.704500  0.385900  1.0  -0.0634
  C  C90  1  0.458700  0.807000  0.796900  1.0  -0.0752
  C  C91  1  0.472600  0.228400  0.505800  1.0  -0.1345
  C  C92  1  0.822300  0.752100  0.445700  1.0  -0.0257
  C  C93  1  0.770700  0.877200  0.570900  1.0  0.7609
  C  C94  1  0.382100  0.337700  0.878200  1.0  -0.1391
  C  C95  1  0.311100  0.342000  0.002500  1.0  -0.1518
  C  C96  1  0.374400  0.278400  0.360600  1.0  -0.0849
  C  C97  1  0.822600  0.179200  0.505400  1.0  -0.1163
  C  C98  1  0.870600  0.783200  0.964700  1.0  0.0784
  C  C99  1  0.502200  0.152400  0.513400  1.0  -0.1309
  C  C100  1  0.331600  0.265200  0.025000  1.0  -0.1448
  C  C101  1  0.533800  0.093400  0.822000  1.0  0.7264
  C  C102  1  0.448700  0.102600  0.947100  1.0  -0.0372
  C  C103  1  0.953400  0.688800  0.373700  1.0  -0.0635
  C  C104  1  0.354700  0.390400  0.397600  1.0  -0.054
  C  C105  1  0.449800  0.214200  0.850700  1.0  -0.0908
  C  C106  1  0.817800  0.824300  0.522000  1.0  -0.1591
  C  C107  1  0.020700  0.745500  0.434700  1.0  -0.1031
  C  C108  1  0.337600  0.377000  0.927100  1.0  -0.0311
  C  C109  1  0.075300  0.624100  0.305000  1.0  0.7261
  C  C110  1  0.802800  0.902700  0.800100  1.0  0.7059
  C  C111  1  0.393500  0.685000  0.066200  1.0  -0.0274
  C  C112  1  0.897400  0.286800  0.409700  1.0  0.0415
  C  C113  1  0.844500  0.749600  0.040600  1.0  -0.1182
  C  C114  1  0.442700  0.728200  0.024300  1.0  -0.1282
  C  C115  1  0.854400  0.855800  0.847000  1.0  -0.1422
  C  C116  1  0.343200  0.354600  0.351800  1.0  -0.1266
  C  C117  1  0.402100  0.735700  0.916000  1.0  -0.0152
  C  C118  1  0.476400  0.138600  0.872900  1.0  -0.1239
  C  C119  1  0.895200  0.808600  0.501800  1.0  -0.0732
  C  C120  1  0.903600  0.734500  0.424100  1.0  0.0246
  C  C121  1  0.780300  0.796900  0.488700  1.0  -0.0883
  C  C122  1  0.933900  0.211100  0.415000  1.0  0.0502
  C  C123  1  0.558500  0.873300  0.781100  1.0  0.7333
  C  C124  1  0.453100  0.158500  0.418200  1.0  -0.0786
  C  C125  1  0.270000  0.387600  0.059300  1.0  0.671
  C  C126  1  0.396700  0.348100  0.447600  1.0  -0.0772
  C  C127  1  0.449700  0.755200  0.947300  1.0  -0.0194
  C  C128  1  0.002500  0.717400  0.980800  1.0  -0.0721
  C  C129  1  0.787200  0.118100  0.558700  1.0  0.6856
  C  C130  1  0.983300  0.797700  0.858700  1.0  -0.0748
  C  C131  1  0.375800  0.221400  0.975500  1.0  0.0473
  C  C132  1  0.491800  0.118100  0.469500  1.0  -0.0699
  C  C133  1  0.941400  0.764100  0.454900  1.0  0.0056
  C  C134  1  0.504400  0.825200  0.828500  1.0  -0.1477
  C  C135  1  0.400000  0.142300  0.996500  1.0  -0.1782
  C  C136  1  0.054500  0.372500  0.278300  1.0  0.6928
  C  C137  1  0.296100  0.398200  0.299100  1.0  0.7272
  C  C138  1  0.417200  0.236800  0.409700  1.0  0.013
  C  C139  1  0.401600  0.257600  0.900300  1.0  0.0109
  C  C140  1  0.786100  0.254800  0.500000  1.0  -0.05
  C  C141  1  0.411100  0.764400  0.840600  1.0  -0.0589
  C  C142  1  0.355000  0.691800  0.961500  1.0  -0.1027
  C  C143  1  0.937300  0.840800  0.815400  1.0  -0.0756
  C  C144  1  0.934800  0.340600  0.361800  1.0  -0.1155
  C  C145  1  0.027700  0.673000  0.356700  1.0  -0.0739
  C  C146  1  0.971600  0.680800  0.052900  1.0  -0.1498
  C  C147  1  0.045200  0.243100  0.324700  1.0  -0.0901
  C  C148  1  0.498600  0.799600  0.901200  1.0  -0.0906
  C  C149  1  0.826900  0.826500  0.919300  1.0  -0.0721
  C  C150  1  0.026800  0.628800  0.098600  1.0  0.7289
  C  C151  1  0.823500  0.308600  0.452100  1.0  -0.1211
  C  C152  1  0.428500  0.272000  0.455800  1.0  0.0154
  C  C153  1  0.008700  0.318700  0.319300  1.0  -0.1363
  C  C154  1  0.896500  0.157300  0.462900  1.0  -0.1145
  C  C155  1  0.951900  0.768600  0.936500  1.0  -0.0418
  C  C156  1  0.293400  0.622100  0.081500  1.0  0.7033
  C  C157  1  0.893800  0.699600  0.079400  1.0  -0.0203
  C  C158  1  0.548800  0.107500  0.568800  1.0  0.714
  C  C159  1  0.346600  0.668300  0.034700  1.0  -0.1509
  C  C160  1  0.007800  0.189300  0.372600  1.0  -0.159
  C  C161  1  0.991300  0.681300  0.680700  1.0  -0.1358
  C  C162  1  0.625600  0.721600  0.639400  1.0  -0.0843
  C  C163  1  0.197200  0.097300  0.199900  1.0  0.7044
  C  C164  1  0.177400  0.820800  0.494600  1.0  -0.1168
  C  C165  1  0.173100  0.173500  0.080700  1.0  -0.0718
  C  C166  1  0.212800  0.881900  0.441300  1.0  0.6836
  C  C167  1  0.527400  0.771600  0.494200  1.0  -0.1353
  C  C168  1  0.645300  0.609600  0.602400  1.0  -0.0549
  C  C169  1  0.662400  0.623000  0.072900  1.0  -0.036
  C  C170  1  0.551300  0.897400  0.052900  1.0  -0.0354
  C  C171  1  0.451200  0.892500  0.431200  1.0  0.7142
  C  C172  1  0.582800  0.763200  0.590300  1.0  0.0131
  C  C173  1  0.603300  0.651900  0.552400  1.0  -0.0749
  C  C174  1  0.466200  0.906600  0.178000  1.0  0.7256
  C  C175  1  0.102600  0.713200  0.590300  1.0  0.0421
  C  C176  1  0.954800  0.756900  0.675300  1.0  -0.0857
  C  C177  1  0.065200  0.659400  0.638200  1.0  -0.1166
  C  C178  1  0.571500  0.728000  0.544200  1.0  0.0148
  C  C179  1  0.972300  0.327000  0.643300  1.0  -0.0795
  C  C180  1  0.703900  0.601800  0.700900  1.0  0.7275
  C  C181  1  0.992200  0.810700  0.627400  1.0  -0.1586
  C  C182  1  0.653400  0.331700  0.965300  1.0  -0.15
  C  C183  1  0.550200  0.785800  0.149300  1.0  -0.0866
  C  C184  1  0.219700  0.203100  0.511300  1.0  -0.0885
  C  C185  1  0.048100  0.231400  0.063500  1.0  -0.0414
  C  C186  1  0.066100  0.788900  0.585000  1.0  0.0508
  C  C187  1  0.497800  0.847600  0.486600  1.0  -0.1316
  C  C188  1  0.501400  0.200400  0.098800  1.0  -0.0958
  C  C189  1  0.177700  0.247900  0.554300  1.0  -0.0243
  C  C190  1  0.645000  0.308200  0.038500  1.0  -0.1058
  C  C191  1  0.062700  0.159200  0.184600  1.0  -0.0759
  C  C192  1  0.103500  0.842700  0.537100  1.0  -0.1128
  C  C193  1  0.624200  0.778600  0.024500  1.0  0.0477
  C  C194  1  0.182200  0.175700  0.478000  1.0  -0.1586
  C  C195  1  0.096400  0.265500  0.575900  1.0  0.0246
  C  C196  1  0.104800  0.191400  0.498200  1.0  -0.0749
  C  C197  1  0.541300  0.193000  0.203100  1.0  -0.0755
  C  C198  1  0.997500  0.282600  0.019200  1.0  -0.0735
  C  C199  1  0.936100  0.295500  0.614100  1.0  -0.0635
  C  C200  1  0.924700  0.375900  0.695000  1.0  0.7257
  C  C201  1  0.668400  0.734800  0.975000  1.0  -0.1451
  C  C202  1  0.598400  0.742400  0.099700  1.0  0.0129
  C  C203  1  0.058600  0.235900  0.545100  1.0  0.0049
  C  C204  1  0.129400  0.216800  0.035300  1.0  0.0789
  C  C205  1  0.441500  0.126700  0.218900  1.0  0.7335
  C  C206  1  0.706600  0.377900  0.918500  1.0  0.7042
  C  C207  1  0.606500  0.315000  0.933800  1.0  -0.0282
  C  C208  1  0.495600  0.174800  0.171500  1.0  -0.1482
  C  C209  1  0.557300  0.271800  0.975700  1.0  -0.1236
  C  C210  1  0.945500  0.627500  0.721700  1.0  0.692
  C  C211  1  0.730000  0.612400  0.940700  1.0  0.6671
  C  C212  1  0.508200  0.881900  0.530500  1.0  -0.0722
  C  C213  1  0.979300  0.254500  0.565300  1.0  -0.1081
  C  C214  1  0.046600  0.311200  0.626300  1.0  -0.0627
  C  C215  1  0.523600  0.861400  0.127100  1.0  -0.1222
  C  C216  1  0.550300  0.244800  0.052700  1.0  -0.0198
  C  C217  1  0.229300  0.122800  0.429100  1.0  0.7624
  C  C218  1  0.145600  0.144200  0.153000  1.0  -0.144
  C  C219  1  0.155500  0.250400  0.959400  1.0  -0.1183
  C  C220  1  0.973200  0.371200  0.901400  1.0  0.7265
  C  C221  1  0.617900  0.662300  0.121800  1.0  -0.1396
  C  C222  1  0.588900  0.235600  0.159400  1.0  -0.0604
  C  C223  1  0.546900  0.841500  0.581800  1.0  -0.0781
  C  C224  1  0.213900  0.745200  0.500000  1.0  -0.048
  C  C225  1  0.597900  0.264300  0.084000  1.0  -0.0163
  C  C226  1  0.176500  0.691400  0.547900  1.0  -0.1181
  C  C227  1  0.106200  0.300400  0.920600  1.0  -0.0265
  C  C228  1  0.016700  0.202300  0.141300  1.0  -0.0683
  C  C229  1  0.600000  0.857700  0.003500  1.0  -0.1785
  C  C230  1  0.688900  0.658000  0.997500  1.0  -0.1529
  C  C231  1  0.656800  0.645400  0.648200  1.0  -0.1242
  C  C232  1  0.028400  0.319200  0.947100  1.0  -0.149
  O  O233  1  0.258100  0.353200  0.123900  1.0  -0.5736
  O  O234  1  0.144200  0.613100  0.286100  1.0  -0.5536
  O  O235  1  0.700000  0.896400  0.581800  1.0  -0.5917
  O  O236  1  0.718800  0.144100  0.581600  1.0  -0.6081
  O  O237  1  0.260300  0.600000  0.050600  1.0  -0.6067
  O  O238  1  0.729100  0.919100  0.831600  1.0  -0.608
  O  O239  1  0.807000  0.894500  0.601900  1.0  -0.5997
  O  O240  1  0.566400  0.026700  0.850100  1.0  -0.5847
  O  O241  1  0.246800  0.457700  0.034700  1.0  -0.6368
  O  O242  1  0.039600  0.588200  0.289000  1.0  -0.6385
  O  O243  1  0.095200  0.623600  0.069100  1.0  -0.5999
  O  O244  1  0.286500  0.603900  0.151800  1.0  -0.5899
  O  O245  1  0.168900  0.503700  0.183700  1.0  -1.2629
  O  O246  1  0.023500  0.441900  0.261700  1.0  -0.6371
  O  O247  1  0.827800  0.049500  0.578700  1.0  -0.5898
  O  O248  1  0.275000  0.469500  0.289000  1.0  -0.6245
  O  O249  1  0.126900  0.342900  0.262800  1.0  -0.6255
  O  O250  1  0.601600  0.881400  0.812200  1.0  -0.5999
  O  O251  1  0.670200  0.005200  0.685200  1.0  -1.2312
  O  O252  1  0.277800  0.362300  0.268400  1.0  -0.6295
  O  O253  1  0.830100  0.921100  0.730800  1.0  -0.598
  O  O254  1  0.558300  0.901300  0.716200  1.0  -0.5887
  O  O255  1  0.566300  0.140800  0.601000  1.0  -0.6137
  O  O256  1  0.547700  0.123700  0.754600  1.0  -0.6446
  O  O257  1  0.996300  0.596700  0.160700  1.0  -0.564
  O  O258  1  0.565500  0.035700  0.578600  1.0  -0.6067
  O  O259  1  0.753200  0.542300  0.965300  1.0  -0.6389
  O  O260  1  0.003700  0.403300  0.839300  1.0  -0.5653
  O  O261  1  0.193000  0.105500  0.398100  1.0  -0.5982
  O  O262  1  0.270900  0.080900  0.168400  1.0  -0.6079
  O  O263  1  0.722200  0.637700  0.731600  1.0  -0.6306
  O  O264  1  0.831100  0.496300  0.816300  1.0  -1.2634
  O  O265  1  0.434500  0.964300  0.421400  1.0  -0.6082
  O  O266  1  0.441700  0.098700  0.283800  1.0  -0.587
  O  O267  1  0.300000  0.103600  0.418200  1.0  -0.5914
  O  O268  1  0.169900  0.078900  0.269200  1.0  -0.5989
  O  O269  1  0.739700  0.400000  0.949400  1.0  -0.6063
  O  O270  1  0.433600  0.973300  0.149900  1.0  -0.5829
  O  O271  1  0.172200  0.950500  0.421300  1.0  -0.5896
  O  O272  1  0.976500  0.558100  0.738300  1.0  -0.637
  O  O273  1  0.741900  0.646800  0.876100  1.0  -0.5758
  O  O274  1  0.904800  0.376400  0.930900  1.0  -0.6021
  O  O275  1  0.433700  0.859200  0.399000  1.0  -0.6117
  O  O276  1  0.452300  0.876300  0.245400  1.0  -0.6441
  O  O277  1  0.329800  0.994800  0.314800  1.0  -1.2298
  O  O278  1  0.398400  0.118600  0.187800  1.0  -0.6
  O  O279  1  0.873100  0.657100  0.737200  1.0  -0.6254
  O  O280  1  0.713500  0.396100  0.848200  1.0  -0.5897
  O  O281  1  0.960400  0.411800  0.711000  1.0  -0.6375
  O  O282  1  0.855800  0.386900  0.713900  1.0  -0.5529
  O  O283  1  0.725000  0.530500  0.711000  1.0  -0.6249
  O  O284  1  0.281200  0.855900  0.418400  1.0  -0.6082
