# generated using pymatgen
data_Zn4H18C36O13
_symmetry_space_group_name_H-M   'P 1'
_cell_length_a   17.91280000
_cell_length_b   20.00020000
_cell_length_c   20.87250000
_cell_angle_alpha   71.64500000
_cell_angle_beta   70.30500000
_cell_angle_gamma   68.98100000
_symmetry_Int_Tables_number   1
_chemical_formula_structural   Zn4H18C36O13
_chemical_formula_sum   'Zn16 H72 C144 O52'
_cell_volume   6409.71567091
_cell_formula_units_Z   4
loop_
 _symmetry_equiv_pos_site_id
 _symmetry_equiv_pos_as_xyz
  1  'x, y, z'
loop_
 _atom_site_type_symbol
 _atom_site_label
 _atom_site_symmetry_multiplicity
 _atom_site_fract_x
 _atom_site_fract_y
 _atom_site_fract_z
 _atom_site_occupancy
 _atom_site_charge
  Zn  Zn1  1  0.866570  0.840520  0.881640  1.0  1.0456
  Zn  Zn2  1  0.457550  0.274990  0.458680  1.0  1.0793
  Zn  Zn3  1  0.719520  0.851650  0.022330  1.0  1.0503
  Zn  Zn4  1  0.869050  0.711520  0.017070  1.0  1.0593
  Zn  Zn5  1  0.891050  0.858600  0.023520  1.0  1.0833
  Zn  Zn6  1  0.309820  0.420720  0.459330  1.0  1.0853
  Zn  Zn7  1  0.276720  0.275880  0.453100  1.0  1.1029
  Zn  Zn8  1  0.306330  0.292360  0.589390  1.0  1.1039
  Zn  Zn9  1  0.108950  0.141400  0.976480  1.0  1.083
  Zn  Zn10  1  0.280480  0.148350  0.977670  1.0  1.0508
  Zn  Zn11  1  0.133430  0.159480  0.118360  1.0  1.0434
  Zn  Zn12  1  0.690180  0.579280  0.540670  1.0  1.0848
  Zn  Zn13  1  0.723280  0.724120  0.546900  1.0  1.1034
  Zn  Zn14  1  0.130950  0.288480  0.982930  1.0  1.0603
  Zn  Zn15  1  0.542450  0.725010  0.541320  1.0  1.079
  Zn  Zn16  1  0.693670  0.707640  0.410610  1.0  1.1036
  H  H17  1  0.739600  0.563100  0.158300  1.0  0.104
  H  H18  1  0.728200  0.445700  0.229700  1.0  0.1384
  H  H19  1  0.142800  0.388300  0.300100  1.0  0.1328
  H  H20  1  0.599400  0.147100  0.313700  1.0  0.1138
  H  H21  1  0.021700  0.527600  0.924400  1.0  0.1293
  H  H22  1  0.444000  0.186200  0.735800  1.0  0.1156
  H  H23  1  0.109100  0.671700  0.639700  1.0  0.1147
  H  H24  1  0.127600  0.996000  0.641400  1.0  0.1284
  H  H25  1  0.639100  0.142900  0.571600  1.0  0.1237
  H  H26  1  0.103600  0.446900  0.852900  1.0  0.1001
  H  H27  1  0.987200  0.043500  0.919300  1.0  0.1131
  H  H28  1  0.187900  0.421500  0.736900  1.0  0.1085
  H  H29  1  0.729600  0.086900  0.232400  1.0  0.122
  H  H30  1  0.645800  0.378500  0.314500  1.0  0.1059
  H  H31  1  0.448300  0.554700  0.325800  1.0  0.123
  H  H32  1  0.738000  0.004600  0.767900  1.0  0.127
  H  H33  1  0.052000  0.132400  0.848300  1.0  0.1282
  H  H34  1  0.533500  0.742900  0.157200  1.0  0.1236
  H  H35  1  0.013500  0.577000  0.148500  1.0  0.1092
  H  H36  1  0.132700  0.181500  0.730900  1.0  0.1122
  H  H37  1  0.070200  0.459000  0.217300  1.0  0.1092
  H  H38  1  0.459200  0.670700  0.239500  1.0  0.1133
  H  H39  1  0.723300  0.073900  0.643600  1.0  0.1297
  H  H40  1  0.160100  0.684700  0.215500  1.0  0.1138
  H  H41  1  0.198600  0.590700  0.570000  1.0  0.1224
  H  H42  1  0.073800  0.754600  0.143600  1.0  0.1228
  H  H43  1  0.795800  0.008300  0.157400  1.0  0.1129
  H  H44  1  0.579300  0.966800  0.179800  1.0  0.1193
  H  H45  1  0.041200  0.946600  0.760600  1.0  0.1303
  H  H46  1  0.389700  0.106200  0.341100  1.0  0.1104
  H  H47  1  0.198800  0.079400  0.571900  1.0  0.1151
  H  H48  1  0.536600  0.033800  0.929700  1.0  0.1025
  H  H49  1  0.033900  0.697700  0.756700  1.0  0.1166
  H  H50  1  0.215800  0.566500  0.290700  1.0  0.1266
  H  H51  1  0.458300  0.121600  0.859100  1.0  0.105
  H  H52  1  0.453800  0.025500  0.265100  1.0  0.1028
  H  H53  1  0.801200  0.920600  0.428100  1.0  0.1144
  H  H54  1  0.926200  0.245400  0.856400  1.0  0.123
  H  H55  1  0.929800  0.541000  0.782700  1.0  0.1084
  H  H56  1  0.896400  0.553100  0.147100  1.0  0.1011
  H  H57  1  0.857200  0.611700  0.699900  1.0  0.1336
  H  H58  1  0.360900  0.857100  0.428400  1.0  0.1228
  H  H59  1  0.204200  0.991700  0.842600  1.0  0.1127
  H  H60  1  0.400600  0.852900  0.686300  1.0  0.1117
  H  H61  1  0.986500  0.423000  0.851500  1.0  0.1095
  H  H62  1  0.466500  0.257100  0.842800  1.0  0.1243
  H  H63  1  0.610300  0.893800  0.658900  1.0  0.1097
  H  H64  1  0.541700  0.878400  0.140900  1.0  0.1053
  H  H65  1  0.354200  0.621500  0.685500  1.0  0.1052
  H  H66  1  0.463400  0.966200  0.070300  1.0  0.1024
  H  H67  1  0.978300  0.472400  0.075600  1.0  0.1289
  H  H68  1  0.271800  0.554300  0.770300  1.0  0.1394
  H  H69  1  0.546200  0.974500  0.734900  1.0  0.103
  H  H70  1  0.556000  0.813800  0.264200  1.0  0.1152
  H  H71  1  0.540800  0.329300  0.760500  1.0  0.1128
  H  H72  1  0.867300  0.818500  0.269100  1.0  0.1124
  H  H73  1  0.872400  0.004000  0.358600  1.0  0.129
  H  H74  1  0.890900  0.328300  0.360300  1.0  0.1143
  H  H75  1  0.966100  0.302300  0.243300  1.0  0.1164
  H  H76  1  0.551700  0.445300  0.674200  1.0  0.1237
  H  H77  1  0.801400  0.409300  0.430000  1.0  0.1227
  H  H78  1  0.420700  0.033200  0.820200  1.0  0.1198
  H  H79  1  0.784200  0.433500  0.709300  1.0  0.1265
  H  H80  1  0.270400  0.913100  0.767600  1.0  0.1224
  H  H81  1  0.958800  0.053400  0.239400  1.0  0.1318
  H  H82  1  0.839900  0.315300  0.784500  1.0  0.1136
  H  H83  1  0.276700  0.926100  0.356400  1.0  0.1302
  H  H84  1  0.812100  0.578500  0.263100  1.0  0.1088
  H  H85  1  0.260400  0.436900  0.841700  1.0  0.1035
  H  H86  1  0.948000  0.867600  0.151700  1.0  0.1279
  H  H87  1  0.012800  0.956500  0.080700  1.0  0.1133
  H  H88  1  0.262000  0.995400  0.232100  1.0  0.1253
  C  C89  1  0.446900  0.098500  0.318500  1.0  -0.0458
  C  C90  1  0.022900  0.622300  0.846100  1.0  -0.1297
  C  C91  1  0.703800  0.705500  0.093900  1.0  0.6757
  C  C92  1  0.130100  0.032400  0.660100  1.0  -0.1016
  C  C93  1  0.098800  0.480000  0.233000  1.0  -0.1664
  C  C94  1  0.565400  0.037500  0.242100  1.0  -0.0523
  C  C95  1  0.193500  0.471900  0.299300  1.0  -0.1337
  C  C96  1  0.090800  0.091800  0.758500  1.0  0.037
  C  C97  1  0.011900  0.987400  0.845700  1.0  -0.1023
  C  C98  1  0.171300  0.472700  0.717500  1.0  -0.1284
  C  C99  1  0.173800  0.138600  0.645300  1.0  -0.1354
  C  C100  1  0.977300  0.719000  0.095800  1.0  0.7194
  C  C101  1  0.608400  0.989500  0.193000  1.0  -0.1066
  C  C102  1  0.046300  0.983100  0.777600  1.0  -0.1038
  C  C103  1  0.645600  0.015500  0.855100  1.0  -0.1034
  C  C104  1  0.514100  0.097500  0.839400  1.0  -0.1267
  C  C105  1  0.051500  0.094700  0.830100  1.0  -0.1419
  C  C106  1  0.671300  0.468300  0.247800  1.0  -0.2161
  C  C107  1  0.171300  0.082200  0.619000  1.0  -0.0275
  C  C108  1  0.130400  0.661900  0.202900  1.0  -0.0887
  C  C109  1  0.693000  0.978000  0.166100  1.0  -0.1083
  C  C110  1  0.615200  0.072800  0.256800  1.0  -0.0186
  C  C111  1  0.242600  0.426400  0.354800  1.0  0.6622
  C  C112  1  0.559300  0.692400  0.173100  1.0  -0.0607
  C  C113  1  0.101600  0.597900  0.732600  1.0  0.0424
  C  C114  1  0.090100  0.034700  0.732300  1.0  0.0321
  C  C115  1  0.549600  0.574600  0.250100  1.0  0.06
  C  C116  1  0.700000  0.958000  0.899500  1.0  0.6749
  C  C117  1  0.561200  0.047600  0.881300  1.0  -0.0449
  C  C118  1  0.666000  0.094000  0.662600  1.0  -0.0647
  C  C119  1  0.043500  0.598100  0.162800  1.0  -0.1571
  C  C120  1  0.223400  0.190800  0.600600  1.0  0.7003
  C  C121  1  0.446200  0.185900  0.379700  1.0  0.7146
  C  C122  1  0.013300  0.042200  0.871700  1.0  -0.0167
  C  C123  1  0.699400  0.061600  0.223700  1.0  -0.0866
  C  C124  1  0.478700  0.215100  0.599000  1.0  0.6846
  C  C125  1  0.500300  0.161200  0.718400  1.0  -0.1263
  C  C126  1  0.485400  0.049800  0.273400  1.0  -0.086
  C  C127  1  0.570600  0.122300  0.302700  1.0  -0.0909
  C  C128  1  0.187400  0.544800  0.275400  1.0  -0.0881
  C  C129  1  0.139600  0.587400  0.228700  1.0  0.0492
  C  C130  1  0.516500  0.649400  0.222100  1.0  -0.0579
  C  C131  1  0.143100  0.438000  0.279800  1.0  -0.0616
  C  C132  1  0.646600  0.660100  0.144400  1.0  -0.1226
  C  C133  1  0.631500  0.078600  0.737500  1.0  0.0072
  C  C134  1  0.080000  0.703300  0.160100  1.0  -0.0927
  C  C135  1  0.617700  0.136000  0.620800  1.0  -0.0407
  C  C136  1  0.681800  0.584500  0.174000  1.0  -0.0704
  C  C137  1  0.738500  0.015500  0.179400  1.0  -0.0588
  C  C138  1  0.966400  0.674000  0.892700  1.0  0.7144
  C  C139  1  0.090500  0.498100  0.832900  1.0  -0.0588
  C  C140  1  0.548100  0.114900  0.764300  1.0  0.0449
  C  C141  1  0.177100  0.573100  0.618400  1.0  -0.113
  C  C142  1  0.635600  0.542400  0.223400  1.0  0.0238
  C  C143  1  0.504300  0.532400  0.304600  1.0  -0.1135
  C  C144  1  0.241400  0.444000  0.603000  1.0  0.6969
  C  C145  1  0.489500  0.134100  0.330100  1.0  -0.0919
  C  C146  1  0.196200  0.497300  0.648100  1.0  -0.134
  C  C147  1  0.622200  0.429500  0.298300  1.0  -0.0377
  C  C148  1  0.484300  0.416600  0.383600  1.0  0.698
  C  C149  1  0.050100  0.646500  0.776500  1.0  -0.086
  C  C150  1  0.736700  0.927300  0.115300  1.0  0.7088
  C  C151  1  0.681300  0.028300  0.785300  1.0  -0.0552
  C  C152  1  0.121300  0.521100  0.761900  1.0  0.0274
  C  C153  1  0.132600  0.142800  0.713800  1.0  -0.1242
  C  C154  1  0.538500  0.460400  0.327900  1.0  -0.1746
  C  C155  1  0.094900  0.554300  0.207500  1.0  0.031
  C  C156  1  0.534200  0.170400  0.649400  1.0  -0.1244
  C  C157  1  0.127100  0.621000  0.660400  1.0  -0.0916
  C  C158  1  0.042000  0.545600  0.875900  1.0  -0.0968
  C  C159  1  0.967300  0.932700  0.893300  1.0  0.6933
  C  C160  1  0.037200  0.669800  0.140700  1.0  -0.134
  C  C161  1  0.438800  0.952400  0.118700  1.0  -0.0459
  C  C162  1  0.828700  0.917800  0.381000  1.0  -0.0281
  C  C163  1  0.977100  0.377700  0.153900  1.0  -0.1308
  C  C164  1  0.757400  0.573600  0.645200  1.0  0.6601
  C  C165  1  0.803800  0.502700  0.351900  1.0  -0.1282
  C  C166  1  0.296200  0.294500  0.906100  1.0  0.6761
  C  C167  1  0.300000  0.042000  0.100500  1.0  0.6747
  C  C168  1  0.364400  0.457600  0.776600  1.0  0.0225
  C  C169  1  0.032700  0.067300  0.106700  1.0  0.6939
  C  C170  1  0.776600  0.809200  0.399400  1.0  0.6994
  C  C171  1  0.382300  0.864000  0.379200  1.0  -0.0416
  C  C172  1  0.353400  0.339900  0.855600  1.0  -0.1239
  C  C173  1  0.450400  0.425400  0.749900  1.0  0.0526
  C  C174  1  0.334000  0.906000  0.337400  1.0  -0.0672
  C  C175  1  0.869900  0.967600  0.339900  1.0  -0.0961
  C  C176  1  0.465800  0.829600  0.350600  1.0  -0.1259
  C  C177  1  0.758600  0.556000  0.397000  1.0  0.6964
  C  C178  1  0.905100  0.445700  0.792500  1.0  0.0332
  C  C179  1  0.949900  0.353500  0.223500  1.0  -0.0828
  C  C180  1  0.384800  0.927200  0.743200  1.0  -0.0213
  C  C181  1  0.878700  0.478900  0.238100  1.0  0.0271
  C  C182  1  0.318700  0.971700  0.214700  1.0  -0.0567
  C  C183  1  0.867400  0.857200  0.286200  1.0  -0.1245
  C  C184  1  0.377800  0.570500  0.701700  1.0  -0.0412
  C  C185  1  0.909500  0.501900  0.167100  1.0  -0.0573
  C  C186  1  0.962800  0.330200  0.859300  1.0  -0.1353
  C  C187  1  0.898400  0.402100  0.267400  1.0  0.0414
  C  C188  1  0.368500  0.921400  0.262500  1.0  0.0074
  C  C189  1  0.318200  0.415500  0.826000  1.0  -0.0688
  C  C190  1  0.434600  0.962500  0.757900  1.0  -0.0521
  C  C191  1  0.828700  0.527300  0.282500  1.0  -0.1278
  C  C192  1  0.485900  0.902500  0.160600  1.0  -0.1274
  C  C193  1  0.956500  0.401900  0.837200  1.0  -0.1536
  C  C194  1  0.812600  0.455200  0.724600  1.0  -0.0929
  C  C195  1  0.461500  0.539600  0.672100  1.0  -0.1738
  C  C196  1  0.483500  0.350600  0.777900  1.0  -0.0568
  C  C197  1  0.988100  0.012600  0.154300  1.0  -0.1029
  C  C198  1  0.263300  0.072700  0.884700  1.0  0.7107
  C  C199  1  0.826200  0.861400  0.354700  1.0  -0.1319
  C  C200  1  0.958000  0.454400  0.124100  1.0  -0.0956
  C  C201  1  0.514600  0.950200  0.726600  1.0  -0.0861
  C  C202  1  0.872900  0.379000  0.339600  1.0  -0.0975
  C  C203  1  0.328700  0.531700  0.752200  1.0  -0.2201
  C  C204  1  0.307000  0.022000  0.833900  1.0  -0.1038
  C  C205  1  0.856900  0.562000  0.720200  1.0  -0.063
  C  C206  1  0.822900  0.426900  0.381600  1.0  -0.1129
  C  C207  1  0.261500  0.984500  0.820600  1.0  -0.0581
  C  C208  1  0.033600  0.326000  0.107300  1.0  0.7134
  C  C209  1  0.860400  0.412600  0.771300  1.0  0.0481
  C  C210  1  0.953700  0.016900  0.222400  1.0  -0.1038
  C  C211  1  0.553100  0.901500  0.681500  1.0  -0.0431
  C  C212  1  0.300600  0.938400  0.776300  1.0  -0.0904
  C  C213  1  0.515700  0.583400  0.616400  1.0  0.6985
  C  C214  1  0.022700  0.281000  0.904200  1.0  0.7168
  C  C215  1  0.391600  0.010500  0.807000  1.0  -0.1046
  C  C216  1  0.869600  0.338100  0.797100  1.0  -0.0926
  C  C217  1  0.429400  0.877700  0.697300  1.0  -0.0877
  C  C218  1  0.920000  0.296700  0.839900  1.0  -0.0926
  C  C219  1  0.553800  0.814100  0.620300  1.0  0.7136
  C  C220  1  0.510500  0.865900  0.669900  1.0  -0.0931
  C  C221  1  0.909900  0.965300  0.267700  1.0  0.0334
  C  C222  1  0.354400  0.984500  0.144900  1.0  -0.1009
  C  C223  1  0.806500  0.528100  0.700700  1.0  -0.1323
  C  C224  1  0.499700  0.838800  0.281600  1.0  -0.1198
  C  C225  1  0.901200  0.520000  0.767000  1.0  -0.1611
  C  C226  1  0.948500  0.905300  0.169900  1.0  -0.139
  C  C227  1  0.909200  0.908200  0.241500  1.0  0.0394
  C  C228  1  0.521300  0.784900  0.401000  1.0  0.6844
  C  C229  1  0.495700  0.467600  0.695400  1.0  -0.1109
  C  C230  1  0.986700  0.957800  0.128300  1.0  -0.0156
  C  C231  1  0.440700  0.307600  0.826900  1.0  -0.0605
  C  C232  1  0.451900  0.885100  0.235700  1.0  0.0436
  O  O233  1  0.232800  0.231500  0.632600  1.0  -0.6056
  O  O234  1  0.257500  0.376400  0.631200  1.0  -0.6028
  O  O235  1  0.518300  0.345900  0.398400  1.0  -0.5909
  O  O236  1  0.367900  0.203300  0.397600  1.0  -0.5991
  O  O237  1  0.813700  0.917100  0.092000  1.0  -0.595
  O  O238  1  0.412500  0.448800  0.411400  1.0  -0.604
  O  O239  1  0.958000  0.888300  0.864800  1.0  -0.6256
  O  O240  1  0.340500  0.315000  0.488400  1.0  -1.2389
  O  O241  1  0.957600  0.740800  0.865800  1.0  -0.6411
  O  O242  1  0.946100  0.929100  0.958600  1.0  -0.5793
  O  O243  1  0.404700  0.241100  0.626300  1.0  -0.6051
  O  O244  1  0.257500  0.359100  0.366400  1.0  -0.5789
  O  O245  1  0.251400  0.192400  0.540300  1.0  -0.6066
  O  O246  1  0.971200  0.785600  0.072800  1.0  -0.5701
  O  O247  1  0.932700  0.646800  0.955600  1.0  -0.5763
  O  O248  1  0.490900  0.205300  0.401200  1.0  -0.59
  O  O249  1  0.773600  0.941200  0.878100  1.0  -0.5605
  O  O250  1  0.837900  0.816500  0.986500  1.0  -1.2265
  O  O251  1  0.777300  0.673300  0.074400  1.0  -0.5779
  O  O252  1  0.513700  0.223300  0.534500  1.0  -0.5844
  O  O253  1  0.262900  0.471500  0.536800  1.0  -0.6124
  O  O254  1  0.656900  0.927500  0.961500  1.0  -0.5639
  O  O255  1  0.254000  0.466000  0.388400  1.0  -0.5883
  O  O256  1  0.690700  0.902500  0.099500  1.0  -0.5908
  O  O257  1  0.666500  0.774100  0.073200  1.0  -0.6172
  O  O258  1  0.940100  0.683500  0.081000  1.0  -0.6052
  O  O259  1  0.509100  0.794700  0.598800  1.0  -0.5908
  O  O260  1  0.481700  0.654100  0.601600  1.0  -0.5898
  O  O261  1  0.742500  0.623600  0.368800  1.0  -0.6027
  O  O262  1  0.186300  0.082900  0.908000  1.0  -0.5943
  O  O263  1  0.343100  0.072500  0.038500  1.0  -0.5638
  O  O264  1  0.028800  0.214400  0.927200  1.0  -0.571
  O  O265  1  0.309300  0.097500  0.900500  1.0  -0.5899
  O  O266  1  0.067300  0.353200  0.044400  1.0  -0.5773
  O  O267  1  0.659500  0.685000  0.511600  1.0  -1.2394
  O  O268  1  0.595300  0.758900  0.373700  1.0  -0.6055
  O  O269  1  0.746000  0.534000  0.611600  1.0  -0.588
  O  O270  1  0.053900  0.070900  0.041400  1.0  -0.5784
  O  O271  1  0.767200  0.768500  0.367400  1.0  -0.6064
  O  O272  1  0.486300  0.776700  0.465500  1.0  -0.5841
  O  O273  1  0.748600  0.807600  0.459700  1.0  -0.6037
  O  O274  1  0.632100  0.796700  0.602400  1.0  -0.6009
  O  O275  1  0.226400  0.058800  0.121900  1.0  -0.5595
  O  O276  1  0.042000  0.111700  0.135200  1.0  -0.6271
  O  O277  1  0.162100  0.183500  0.013500  1.0  -1.2262
  O  O278  1  0.587500  0.551200  0.588600  1.0  -0.6041
  O  O279  1  0.222700  0.326700  0.925600  1.0  -0.576
  O  O280  1  0.737100  0.528500  0.463200  1.0  -0.6126
  O  O281  1  0.742500  0.640900  0.633600  1.0  -0.5775
  O  O282  1  0.042400  0.259200  0.134200  1.0  -0.6423
  O  O283  1  0.333500  0.225900  0.926800  1.0  -0.6197
  O  O284  1  0.059900  0.316500  0.919000  1.0  -0.607
