# generated using pymatgen
data_CuH5C9O4
_symmetry_space_group_name_H-M   'P 1'
_cell_length_a   10.00620000
_cell_length_b   15.38740000
_cell_length_c   15.38740000
_cell_angle_alpha   75.43030000
_cell_angle_beta   71.02590000
_cell_angle_gamma   71.02590000
_symmetry_Int_Tables_number   1
_chemical_formula_structural   CuH5C9O4
_chemical_formula_sum   'Cu4 H20 C36 O16'
_cell_volume   2090.36224415
_cell_formula_units_Z   4
loop_
 _symmetry_equiv_pos_site_id
 _symmetry_equiv_pos_as_xyz
  1  'x, y, z'
loop_
 _atom_site_type_symbol
 _atom_site_label
 _atom_site_symmetry_multiplicity
 _atom_site_fract_x
 _atom_site_fract_y
 _atom_site_fract_z
 _atom_site_occupancy
 _atom_site_charge
  Cu  Cu1  1  0.099870  0.454540  0.045460  1.0  0.8984
  Cu  Cu2  1  0.900130  0.545460  0.954540  1.0  0.8959
  Cu  Cu3  1  0.900130  0.954540  0.545460  1.0  0.8962
  Cu  Cu4  1  0.099870  0.045460  0.454540  1.0  0.8982
  H  H5  1  0.403500  0.439600  0.759000  1.0  0.1138
  H  H6  1  0.189700  0.676500  0.561300  1.0  0.1227
  H  H7  1  0.000000  0.121600  0.878400  1.0  0.1255
  H  H8  1  0.897900  0.939600  0.259000  1.0  0.118
  H  H9  1  0.810300  0.438700  0.323500  1.0  0.1198
  H  H10  1  0.189700  0.561300  0.676500  1.0  0.1195
  H  H11  1  0.403500  0.759000  0.439600  1.0  0.1137
  H  H12  1  0.596500  0.560400  0.241000  1.0  0.1138
  H  H13  1  0.810300  0.323500  0.438700  1.0  0.1218
  H  H14  1  0.072500  0.176500  0.061300  1.0  0.12
  H  H15  1  0.927500  0.823500  0.938700  1.0  0.1208
  H  H16  1  0.897900  0.259000  0.939600  1.0  0.1167
  H  H17  1  0.000000  0.878400  0.121600  1.0  0.1251
  H  H18  1  0.102100  0.741000  0.060400  1.0  0.1176
  H  H19  1  0.072500  0.061300  0.176500  1.0  0.12
  H  H20  1  0.596500  0.241000  0.560400  1.0  0.1146
  H  H21  1  0.500000  0.378400  0.621600  1.0  0.1251
  H  H22  1  0.102100  0.060400  0.741000  1.0  0.1167
  H  H23  1  0.500000  0.621600  0.378400  1.0  0.1255
  H  H24  1  0.927500  0.938700  0.823500  1.0  0.12
  C  C25  1  0.000000  0.927800  0.072200  1.0  -0.1177
  C  C26  1  0.953640  0.257760  0.978160  1.0  -0.1774
  C  C27  1  0.192470  0.847530  0.490530  1.0  0.7084
  C  C28  1  0.310440  0.757760  0.478160  1.0  -0.1785
  C  C29  1  0.282840  0.522060  0.676060  1.0  -0.1672
  C  C30  1  0.019040  0.022060  0.176060  1.0  -0.1662
  C  C31  1  0.030530  0.009470  0.652470  1.0  0.7114
  C  C32  1  0.011070  0.011430  0.084230  1.0  0.0733
  C  C33  1  0.689560  0.521840  0.242240  1.0  -0.1784
  C  C34  1  0.980960  0.977940  0.823940  1.0  -0.1666
  C  C35  1  0.282840  0.676060  0.522060  1.0  -0.1679
  C  C36  1  0.980960  0.823940  0.977940  1.0  -0.1654
  C  C37  1  0.807530  0.509470  0.152470  1.0  0.7081
  C  C38  1  0.606730  0.488570  0.415770  1.0  0.0719
  C  C39  1  0.310440  0.478160  0.757760  1.0  -0.1796
  C  C40  1  0.030530  0.652470  0.009470  1.0  0.7108
  C  C41  1  0.689560  0.242240  0.521840  1.0  -0.1785
  C  C42  1  0.046360  0.742240  0.021840  1.0  -0.1767
  C  C43  1  0.988930  0.988570  0.915770  1.0  0.0727
  C  C44  1  0.500000  0.572200  0.427800  1.0  -0.1157
  C  C45  1  0.717160  0.477940  0.323940  1.0  -0.1667
  C  C46  1  0.969470  0.347530  0.990530  1.0  0.7104
  C  C47  1  0.192470  0.490530  0.847530  1.0  0.7081
  C  C48  1  0.046360  0.021840  0.742240  1.0  -0.1788
  C  C49  1  0.393270  0.511430  0.584230  1.0  0.071
  C  C50  1  0.011070  0.084230  0.011430  1.0  0.0713
  C  C51  1  0.606730  0.415770  0.488570  1.0  0.0709
  C  C52  1  0.500000  0.427800  0.572200  1.0  -0.1178
  C  C53  1  0.988930  0.915770  0.988570  1.0  0.0703
  C  C54  1  0.953640  0.978160  0.257760  1.0  -0.1776
  C  C55  1  0.717160  0.323940  0.477940  1.0  -0.1651
  C  C56  1  0.807530  0.152470  0.509470  1.0  0.7077
  C  C57  1  0.000000  0.072200  0.927800  1.0  -0.1153
  C  C58  1  0.393270  0.584230  0.511430  1.0  0.0711
  C  C59  1  0.969470  0.990530  0.347530  1.0  0.7108
  C  C60  1  0.019040  0.176060  0.022060  1.0  -0.1649
  O  O61  1  0.764360  0.547060  0.078820  1.0  -0.5817
  O  O62  1  0.933640  0.468070  0.155650  1.0  -0.5439
  O  O63  1  0.942640  0.968070  0.655650  1.0  -0.549
  O  O64  1  0.764360  0.078820  0.547060  1.0  -0.5793
  O  O65  1  0.066360  0.844350  0.531930  1.0  -0.5437
  O  O66  1  0.890240  0.952940  0.421180  1.0  -0.5782
  O  O67  1  0.942640  0.655650  0.968070  1.0  -0.5483
  O  O68  1  0.057360  0.344350  0.031930  1.0  -0.5482
  O  O69  1  0.890240  0.421180  0.952940  1.0  -0.578
  O  O70  1  0.109760  0.047060  0.578820  1.0  -0.5781
  O  O71  1  0.235640  0.921180  0.452940  1.0  -0.5799
  O  O72  1  0.109760  0.578820  0.047060  1.0  -0.5786
  O  O73  1  0.066360  0.531930  0.844350  1.0  -0.5419
  O  O74  1  0.235640  0.452940  0.921180  1.0  -0.5833
  O  O75  1  0.933640  0.155650  0.468070  1.0  -0.545
  O  O76  1  0.057360  0.031930  0.344350  1.0  -0.5486
