# generated using pymatgen
data_Zn2B2H48C55N6(O2F)4
_symmetry_space_group_name_H-M   'P 1'
_cell_length_a   14.82300000
_cell_length_b   14.82300000
_cell_length_c   16.02860000
_cell_angle_alpha   83.25470000
_cell_angle_beta   83.25470000
_cell_angle_gamma   86.87580000
_symmetry_Int_Tables_number   1
_chemical_formula_structural   Zn2B2H48C55N6(O2F)4
_chemical_formula_sum   'Zn4 B4 H96 C110 N12 O16 F8'
_cell_volume   3470.27887836
_cell_formula_units_Z   2
loop_
 _symmetry_equiv_pos_site_id
 _symmetry_equiv_pos_as_xyz
  1  'x, y, z'
loop_
 _atom_site_type_symbol
 _atom_site_label
 _atom_site_symmetry_multiplicity
 _atom_site_fract_x
 _atom_site_fract_y
 _atom_site_fract_z
 _atom_site_occupancy
 _atom_site_charge
  Zn  Zn1  1  0.123280  0.896040  0.155970  1.0  0.906
  Zn  Zn2  1  0.103960  0.876720  0.344030  1.0  0.9061
  Zn  Zn3  1  0.876720  0.103960  0.844030  1.0  0.9052
  Zn  Zn4  1  0.896040  0.123280  0.655970  1.0  0.9054
  B  B5  1  0.080900  0.405100  0.141900  1.0  0.6898
  B  B6  1  0.594900  0.919100  0.358100  1.0  0.6901
  B  B7  1  0.919100  0.594900  0.858100  1.0  0.6934
  B  B8  1  0.405100  0.080900  0.641900  1.0  0.6919
  H  H9  1  0.126600  0.620600  0.057200  1.0  0.1403
  H  H10  1  0.131000  0.146000  0.417400  1.0  0.1201
  H  H11  1  0.432200  0.963600  0.429300  1.0  0.117
  H  H12  1  0.451100  0.797700  0.089700  1.0  0.1326
  H  H13  1  0.224100  0.693100  0.583500  1.0  0.1193
  H  H14  1  0.202300  0.548900  0.410300  1.0  0.1335
  H  H15  1  0.106000  0.772000  0.770000  1.0  0.0916
  H  H16  1  0.209800  0.751800  0.447100  1.0  0.0892
  H  H17  1  0.206300  0.096500  0.359900  1.0  0.1142
  H  H18  1  0.286400  0.742800  0.702000  1.0  0.0798
  H  H19  1  0.036400  0.567800  0.070700  1.0  0.1175
  H  H20  1  0.903500  0.793700  0.140100  1.0  0.1133
  H  H21  1  0.809000  0.775600  0.111800  1.0  0.1123
  H  H22  1  0.228900  0.295700  0.621800  1.0  0.1112
  H  H23  1  0.071900  0.976100  0.976300  1.0  0.0744
  H  H24  1  0.038200  0.321000  0.462700  1.0  0.1082
  H  H25  1  0.854000  0.869000  0.082600  1.0  0.1193
  H  H26  1  0.120900  0.621100  0.413100  1.0  0.1241
  H  H27  1  0.655700  0.663100  0.988500  1.0  0.1057
  H  H28  1  0.322200  0.861600  0.761000  1.0  0.1064
  H  H29  1  0.336900  0.344300  0.511500  1.0  0.1073
  H  H30  1  0.619300  0.703900  0.124000  1.0  0.1205
  H  H31  1  0.228000  0.894000  0.730000  1.0  0.0909
  H  H32  1  0.379400  0.873400  0.442800  1.0  0.1392
  H  H33  1  0.068600  0.160400  0.068300  1.0  0.1171
  H  H34  1  0.995800  0.239400  0.083100  1.0  0.1234
  H  H35  1  0.023900  0.928100  0.523700  1.0  0.075
  H  H36  1  0.103700  0.518300  0.443400  1.0  0.1408
  H  H37  1  0.120300  0.959300  0.837300  1.0  0.1117
  H  H38  1  0.257200  0.713600  0.798000  1.0  0.0808
  H  H39  1  0.248200  0.790200  0.052900  1.0  0.089
  H  H40  1  0.093200  0.261400  0.038300  1.0  0.113
  H  H41  1  0.138400  0.677800  0.739000  1.0  0.1067
  H  H42  1  0.296100  0.380700  0.376000  1.0  0.1199
  H  H43  1  0.334600  0.963000  0.401000  1.0  0.1336
  H  H44  1  0.224400  0.191000  0.388200  1.0  0.1137
  H  H45  1  0.481700  0.896300  0.056600  1.0  0.138
  H  H46  1  0.679000  0.961800  0.037300  1.0  0.1069
  H  H47  1  0.738600  0.906800  0.461700  1.0  0.1133
  H  H48  1  0.760600  0.004200  0.416900  1.0  0.1261
  H  H49  1  0.704300  0.771100  0.878200  1.0  0.1088
  H  H50  1  0.709800  0.921400  0.901900  1.0  0.098
  H  H51  1  0.037000  0.665400  0.099000  1.0  0.1339
  H  H52  1  0.378900  0.879100  0.086900  1.0  0.1234
  H  H53  1  0.040700  0.879700  0.662700  1.0  0.1107
  H  H54  1  0.078600  0.290200  0.598100  1.0  0.0967
  H  H55  1  0.839600  0.931400  0.431700  1.0  0.1164
  H  H56  1  0.306900  0.775900  0.916500  1.0  0.1193
  H  H57  1  0.239400  0.995800  0.583100  1.0  0.1258
  H  H58  1  0.004200  0.760600  0.916900  1.0  0.127
  H  H59  1  0.663100  0.655700  0.488500  1.0  0.1101
  H  H60  1  0.976100  0.071900  0.476300  1.0  0.0751
  H  H61  1  0.896300  0.481700  0.556600  1.0  0.1394
  H  H62  1  0.146000  0.131000  0.917400  1.0  0.12
  H  H63  1  0.380700  0.296100  0.876000  1.0  0.1202
  H  H64  1  0.096500  0.206300  0.859900  1.0  0.1116
  H  H65  1  0.518300  0.103700  0.943400  1.0  0.1395
  H  H66  1  0.931400  0.839600  0.931700  1.0  0.1174
  H  H67  1  0.963000  0.334600  0.901000  1.0  0.1342
  H  H68  1  0.961800  0.679000  0.537300  1.0  0.1079
  H  H69  1  0.751800  0.209800  0.947100  1.0  0.0895
  H  H70  1  0.959300  0.120300  0.337300  1.0  0.1115
  H  H71  1  0.797700  0.451100  0.589700  1.0  0.1345
  H  H72  1  0.261400  0.093200  0.538300  1.0  0.1125
  H  H73  1  0.771100  0.704300  0.378200  1.0  0.1098
  H  H74  1  0.321000  0.038200  0.962700  1.0  0.1067
  H  H75  1  0.775900  0.306900  0.416500  1.0  0.1184
  H  H76  1  0.677800  0.138400  0.239000  1.0  0.1059
  H  H77  1  0.703900  0.619300  0.624000  1.0  0.12
  H  H78  1  0.894000  0.228000  0.230000  1.0  0.0909
  H  H79  1  0.665400  0.037000  0.599000  1.0  0.1339
  H  H80  1  0.290200  0.078600  0.098100  1.0  0.0975
  H  H81  1  0.620600  0.126600  0.557200  1.0  0.1395
  H  H82  1  0.191000  0.224400  0.888200  1.0  0.1126
  H  H83  1  0.921400  0.709800  0.401900  1.0  0.0975
  H  H84  1  0.793700  0.903500  0.640100  1.0  0.1129
  H  H85  1  0.295700  0.228900  0.121800  1.0  0.1085
  H  H86  1  0.873400  0.379400  0.942800  1.0  0.1388
  H  H87  1  0.567800  0.036400  0.570700  1.0  0.1169
  H  H88  1  0.879700  0.040700  0.162700  1.0  0.1105
  H  H89  1  0.160400  0.068600  0.568300  1.0  0.1153
  H  H90  1  0.790200  0.248200  0.552900  1.0  0.0894
  H  H91  1  0.775600  0.809000  0.611800  1.0  0.1105
  H  H92  1  0.344300  0.336900  0.011500  1.0  0.1044
  H  H93  1  0.742800  0.286400  0.202000  1.0  0.081
  H  H94  1  0.928100  0.023900  0.023700  1.0  0.0745
  H  H95  1  0.906800  0.738600  0.961700  1.0  0.1132
  H  H96  1  0.772000  0.106000  0.270000  1.0  0.0899
  H  H97  1  0.693100  0.224100  0.083500  1.0  0.1191
  H  H98  1  0.869000  0.854000  0.582600  1.0  0.1206
  H  H99  1  0.713600  0.257200  0.298000  1.0  0.0795
  H  H100  1  0.879100  0.378900  0.586900  1.0  0.1231
  H  H101  1  0.621100  0.120900  0.913100  1.0  0.123
  H  H102  1  0.861600  0.322200  0.261000  1.0  0.1076
  H  H103  1  0.963600  0.432200  0.929300  1.0  0.1168
  H  H104  1  0.548900  0.202300  0.910300  1.0  0.1315
  C  C105  1  0.688600  0.788000  0.932300  1.0  -0.0754
  C  C106  1  0.770200  0.909000  0.335300  1.0  0.195
  C  C107  1  0.647100  0.836900  0.094800  1.0  1e-04
  C  C108  1  0.539600  0.879400  0.217600  1.0  0.0371
  C  C109  1  0.173600  0.776800  0.490700  1.0  0.1641
  C  C110  1  0.134400  0.780400  0.639600  1.0  0.124
  C  C111  1  0.108600  0.612000  0.249700  1.0  -0.1326
  C  C112  1  0.798300  0.858300  0.205000  1.0  -0.0569
  C  C113  1  0.390700  0.928500  0.406100  1.0  -0.4129
  C  C114  1  0.129300  0.296700  0.272200  1.0  0.0395
  C  C115  1  0.693400  0.877400  0.946700  1.0  -0.088
  C  C116  1  0.179200  0.154600  0.372100  1.0  -0.392
  C  C117  1  0.257700  0.816100  0.927200  1.0  -0.2056
  C  C118  1  0.845400  0.820800  0.127900  1.0  -0.3906
  C  C119  1  0.112120  0.712120  0.249600  1.0  0.6943
  C  C120  1  0.388000  0.891400  0.250300  1.0  -0.1328
  C  C121  1  0.639000  0.747400  0.079800  1.0  -0.1015
  C  C122  1  0.440400  0.861000  0.096500  1.0  -0.4137
  C  C123  1  0.212000  0.311400  0.567700  1.0  -0.0764
  C  C124  1  0.111300  0.060900  0.224700  1.0  0.6873
  C  C125  1  0.703300  0.870700  0.227800  1.0  0.0401
  C  C126  1  0.074900  0.851300  0.620000  1.0  -0.2036
  C  C127  1  0.098200  0.326000  0.472400  1.0  -0.1087
  C  C128  1  0.065900  0.880700  0.535600  1.0  0.1852
  C  C129  1  0.091000  0.229800  0.164700  1.0  0.1933
  C  C130  1  0.148700  0.925100  0.880000  1.0  -0.2031
  C  C131  1  0.839500  0.884300  0.272700  1.0  -0.0897
  C  C132  1  0.183900  0.742300  0.572800  1.0  -0.206
  C  C133  1  0.660300  0.723100  0.998600  1.0  -0.134
  C  C134  1  0.122600  0.306600  0.553300  1.0  -0.0889
  C  C135  1  0.219600  0.865600  0.860400  1.0  0.1245
  C  C136  1  0.141700  0.201700  0.295000  1.0  -0.0572
  C  C137  1  0.939100  0.888700  0.275300  1.0  0.6855
  C  C138  1  0.071500  0.609300  0.093900  1.0  -0.4128
  C  C139  1  0.163100  0.352900  0.405200  1.0  0.0015
  C  C140  1  0.149500  0.742300  0.730800  1.0  -0.1922
  C  C141  1  0.059400  0.222000  0.081200  1.0  -0.3887
  C  C142  1  0.276900  0.339700  0.501400  1.0  -0.1367
  C  C143  1  0.252600  0.361000  0.420200  1.0  -0.0963
  C  C144  1  0.119300  0.934100  0.964400  1.0  0.1859
  C  C145  1  0.257700  0.850500  0.769200  1.0  -0.1877
  C  C146  1  0.778000  0.940600  0.418800  1.0  -0.3912
  C  C147  1  0.137400  0.371600  0.317800  1.0  -0.0756
  C  C148  1  0.674000  0.901800  0.027600  1.0  -0.1073
  C  C149  1  0.123600  0.544800  0.315900  1.0  0.0107
  C  C150  1  0.243700  0.756300  0.750000  1.0  -0.123
  C  C151  1  0.120600  0.460400  0.282400  1.0  0.0369
  C  C152  1  0.115700  0.160500  0.227300  1.0  -0.0897
  C  C153  1  0.628400  0.862600  0.182200  1.0  -0.0764
  C  C154  1  0.093900  0.569100  0.178500  1.0  0.2403
  C  C155  1  0.455200  0.876400  0.184100  1.0  0.0093
  C  C156  1  0.287880  0.887880  0.250400  1.0  0.6917
  C  C157  1  0.223200  0.826400  0.009300  1.0  0.1655
  C  C158  1  0.139000  0.559600  0.403500  1.0  -0.4141
  C  C159  1  0.430900  0.906100  0.321500  1.0  0.2432
  C  C160  1  0.060900  0.111300  0.724700  1.0  0.6845
  C  C161  1  0.154600  0.179200  0.872100  1.0  -0.3901
  C  C162  1  0.901800  0.674000  0.527600  1.0  -0.1101
  C  C163  1  0.861000  0.440400  0.596500  1.0  -0.4127
  C  C164  1  0.712120  0.112120  0.749600  1.0  0.6924
  C  C165  1  0.906100  0.430900  0.821500  1.0  0.2368
  C  C166  1  0.776800  0.173600  0.990700  1.0  0.1652
  C  C167  1  0.723100  0.660300  0.498600  1.0  -0.1368
  C  C168  1  0.865600  0.219600  0.360400  1.0  0.1226
  C  C169  1  0.836900  0.647100  0.594800  1.0  0.0002
  C  C170  1  0.877400  0.693400  0.446700  1.0  -0.0892
  C  C171  1  0.870700  0.703300  0.727800  1.0  0.0397
  C  C172  1  0.940600  0.778000  0.918800  1.0  -0.3901
  C  C173  1  0.559600  0.139000  0.903500  1.0  -0.4149
  C  C174  1  0.311400  0.212000  0.067700  1.0  -0.0767
  C  C175  1  0.934100  0.119300  0.464400  1.0  0.1842
  C  C176  1  0.888700  0.939100  0.775300  1.0  0.6872
  C  C177  1  0.544800  0.123600  0.815900  1.0  0.0064
  C  C178  1  0.887880  0.287880  0.750400  1.0  0.6933
  C  C179  1  0.816100  0.257700  0.427200  1.0  -0.2072
  C  C180  1  0.747400  0.639000  0.579800  1.0  -0.0953
  C  C181  1  0.229800  0.091000  0.664700  1.0  0.1946
  C  C182  1  0.742300  0.183900  0.072800  1.0  -0.2082
  C  C183  1  0.876400  0.455200  0.684100  1.0  0.0052
  C  C184  1  0.780400  0.134400  0.139600  1.0  0.1241
  C  C185  1  0.361000  0.252600  0.920200  1.0  -0.0978
  C  C186  1  0.862600  0.628400  0.682200  1.0  -0.0767
  C  C187  1  0.339700  0.276900  0.001400  1.0  -0.1333
  C  C188  1  0.884300  0.839500  0.772700  1.0  -0.0901
  C  C189  1  0.609300  0.071500  0.593900  1.0  -0.4123
  C  C190  1  0.826400  0.223200  0.509300  1.0  0.1657
  C  C191  1  0.858300  0.798300  0.705000  1.0  -0.0509
  C  C192  1  0.201700  0.141700  0.795000  1.0  -0.0569
  C  C193  1  0.352900  0.163100  0.905200  1.0  0.0016
  C  C194  1  0.460400  0.120600  0.782400  1.0  0.0367
  C  C195  1  0.879400  0.539600  0.717600  1.0  0.0371
  C  C196  1  0.851300  0.074900  0.120000  1.0  -0.2076
  C  C197  1  0.880700  0.065900  0.035600  1.0  0.186
  C  C198  1  0.788000  0.688600  0.432300  1.0  -0.0752
  C  C199  1  0.925100  0.148700  0.380000  1.0  -0.2043
  C  C200  1  0.909000  0.770200  0.835300  1.0  0.1955
  C  C201  1  0.296700  0.129300  0.772200  1.0  0.04
  C  C202  1  0.306600  0.122600  0.053300  1.0  -0.0881
  C  C203  1  0.612000  0.108600  0.749700  1.0  -0.1327
  C  C204  1  0.222000  0.059400  0.581200  1.0  -0.3895
  C  C205  1  0.371600  0.137400  0.817800  1.0  -0.0752
  C  C206  1  0.742300  0.149500  0.230800  1.0  -0.1905
  C  C207  1  0.928500  0.390700  0.906100  1.0  -0.4139
  C  C208  1  0.326000  0.098200  0.972400  1.0  -0.107
  C  C209  1  0.756300  0.243700  0.250000  1.0  -0.124
  C  C210  1  0.820800  0.845400  0.627900  1.0  -0.3911
  C  C211  1  0.569100  0.093900  0.678500  1.0  0.2362
  C  C212  1  0.891400  0.388000  0.750300  1.0  -0.1325
  C  C213  1  0.160500  0.115700  0.727300  1.0  -0.0882
  C  C214  1  0.850500  0.257700  0.269200  1.0  -0.1932
  N  N215  1  0.154620  0.886520  0.029000  1.0  -0.3338
  N  N216  1  0.113480  0.845380  0.471000  1.0  -0.3345
  N  N217  1  0.688660  0.901100  0.308200  1.0  -0.2053
  N  N218  1  0.100210  0.477950  0.199300  1.0  -0.1725
  N  N219  1  0.098900  0.311340  0.191800  1.0  -0.2065
  N  N220  1  0.522050  0.899790  0.300700  1.0  -0.1725
  N  N221  1  0.901100  0.688660  0.808200  1.0  -0.207
  N  N222  1  0.311340  0.098900  0.691800  1.0  -0.2059
  N  N223  1  0.477950  0.100210  0.699300  1.0  -0.1733
  N  N224  1  0.886520  0.154620  0.529000  1.0  -0.3338
  N  N225  1  0.845380  0.113480  0.971000  1.0  -0.3352
  N  N226  1  0.899790  0.522050  0.800700  1.0  -0.1722
  O  O227  1  0.096590  0.744690  0.319900  1.0  -0.5864
  O  O228  1  0.988700  0.890060  0.205700  1.0  -0.6107
  O  O229  1  0.109940  0.011300  0.294300  1.0  -0.61
  O  O230  1  0.967340  0.891040  0.346900  1.0  -0.5556
  O  O231  1  0.130060  0.758280  0.178800  1.0  -0.5951
  O  O232  1  0.241720  0.869940  0.321200  1.0  -0.5944
  O  O233  1  0.108960  0.032660  0.153100  1.0  -0.5541
  O  O234  1  0.255310  0.903410  0.180100  1.0  -0.5867
  O  O235  1  0.744690  0.096590  0.819900  1.0  -0.5863
  O  O236  1  0.032660  0.108960  0.653100  1.0  -0.555
  O  O237  1  0.869940  0.241720  0.821200  1.0  -0.5944
  O  O238  1  0.758280  0.130060  0.678800  1.0  -0.5948
  O  O239  1  0.903410  0.255310  0.680100  1.0  -0.5858
  O  O240  1  0.011300  0.109940  0.794300  1.0  -0.609
  O  O241  1  0.891040  0.967340  0.846900  1.0  -0.5561
  O  O242  1  0.890060  0.988700  0.705700  1.0  -0.6097
  F  F243  1  0.990860  0.413540  0.125700  1.0  -0.2391
  F  F244  1  0.138150  0.414510  0.067000  1.0  -0.2387
  F  F245  1  0.585490  0.861850  0.433000  1.0  -0.2399
  F  F246  1  0.586460  0.009140  0.374300  1.0  -0.2421
  F  F247  1  0.413540  0.990860  0.625700  1.0  -0.2389
  F  F248  1  0.009140  0.586460  0.874300  1.0  -0.2414
  F  F249  1  0.414510  0.138150  0.567000  1.0  -0.2392
  F  F250  1  0.861850  0.585490  0.933000  1.0  -0.2387
