# generated using pymatgen
data_Cu5H21C39N19
_symmetry_space_group_name_H-M   'P 1'
_cell_length_a   11.44600000
_cell_length_b   13.43400000
_cell_length_c   15.35200000
_cell_angle_alpha   79.59000000
_cell_angle_beta   76.45000000
_cell_angle_gamma   79.82000000
_symmetry_Int_Tables_number   1
_chemical_formula_structural   Cu5H21C39N19
_chemical_formula_sum   'Cu10 H42 C78 N38'
_cell_volume   2234.71801870
_cell_formula_units_Z   2
loop_
 _symmetry_equiv_pos_site_id
 _symmetry_equiv_pos_as_xyz
  1  'x, y, z'
loop_
 _atom_site_type_symbol
 _atom_site_label
 _atom_site_symmetry_multiplicity
 _atom_site_fract_x
 _atom_site_fract_y
 _atom_site_fract_z
 _atom_site_occupancy
 _atom_site_charge
  Cu  Cu1  1  0.200210  0.637810  0.479230  1.0  0.4284
  Cu  Cu2  1  0.427460  0.334480  0.893800  1.0  0.4585
  Cu  Cu3  1  0.327640  0.628980  0.269460  1.0  0.4018
  Cu  Cu4  1  0.192010  0.514280  0.217430  1.0  0.411
  Cu  Cu5  1  0.698590  0.029490  0.684970  1.0  0.3443
  Cu  Cu6  1  0.799790  0.362190  0.520770  1.0  0.4279
  Cu  Cu7  1  0.572540  0.665520  0.106200  1.0  0.4585
  Cu  Cu8  1  0.672360  0.371020  0.730540  1.0  0.402
  Cu  Cu9  1  0.807990  0.485720  0.782570  1.0  0.4117
  Cu  Cu10  1  0.301410  0.970510  0.315030  1.0  0.3421
  H  H11  1  0.627300  0.308400  0.265600  1.0  0.1248
  H  H12  1  0.285400  0.482800  0.775000  1.0  0.0779
  H  H13  1  0.296600  0.534300  0.622100  1.0  0.1216
  H  H14  1  0.484000  0.260600  0.577300  1.0  0.1245
  H  H15  1  0.486100  0.224200  0.728500  1.0  0.0686
  H  H16  1  0.552400  0.334000  0.021600  1.0  0.1007
  H  H17  1  0.678700  0.268200  0.118600  1.0  0.1222
  H  H18  1  0.273000  0.096900  0.141000  1.0  0.0865
  H  H19  1  0.684200  0.018300  0.084000  1.0  0.1157
  H  H20  1  0.568800  0.953500  0.217100  1.0  0.0856
  H  H21  1  0.017000  0.637900  0.139200  1.0  0.112
  H  H22  1  0.380900  0.171900  0.008200  1.0  0.1035
  H  H23  1  0.148700  0.089600  0.690800  1.0  0.1037
  H  H24  1  0.751000  0.663200  0.645400  1.0  0.0858
  H  H25  1  0.169900  0.254300  0.617400  1.0  0.1139
  H  H26  1  0.062700  0.759500  0.625600  1.0  0.0995
  H  H27  1  0.065600  0.613600  0.875100  1.0  0.11
  H  H28  1  0.845900  0.747800  0.124900  1.0  0.0716
  H  H29  1  0.887400  0.719600  0.871300  1.0  0.0829
  H  H30  1  0.960500  0.921000  0.634900  1.0  0.0644
  H  H31  1  0.656900  0.824800  0.655100  1.0  0.0671
  H  H32  1  0.372700  0.691600  0.734400  1.0  0.1243
  H  H33  1  0.714600  0.517200  0.225000  1.0  0.0778
  H  H34  1  0.703400  0.465700  0.377900  1.0  0.1217
  H  H35  1  0.516000  0.739400  0.422700  1.0  0.1239
  H  H36  1  0.513900  0.775800  0.271500  1.0  0.069
  H  H37  1  0.447600  0.666000  0.978400  1.0  0.1002
  H  H38  1  0.321300  0.731800  0.881400  1.0  0.1219
  H  H39  1  0.727000  0.903100  0.859000  1.0  0.0863
  H  H40  1  0.315800  0.981700  0.916000  1.0  0.1155
  H  H41  1  0.431200  0.046500  0.782900  1.0  0.0857
  H  H42  1  0.983000  0.362100  0.860800  1.0  0.1121
  H  H43  1  0.619100  0.828100  0.991800  1.0  0.1034
  H  H44  1  0.851300  0.910400  0.309200  1.0  0.1038
  H  H45  1  0.249000  0.336800  0.354600  1.0  0.0852
  H  H46  1  0.830100  0.745700  0.382600  1.0  0.1134
  H  H47  1  0.937300  0.240500  0.374400  1.0  0.1008
  H  H48  1  0.934400  0.386400  0.124900  1.0  0.1091
  H  H49  1  0.154100  0.252200  0.875100  1.0  0.0729
  H  H50  1  0.112600  0.280400  0.128700  1.0  0.0821
  H  H51  1  0.039500  0.079000  0.365100  1.0  0.0649
  H  H52  1  0.343100  0.175200  0.344900  1.0  0.0675
  C  C53  1  0.620300  0.151200  0.946500  1.0  0.2858
  C  C54  1  0.978000  0.587800  0.620500  1.0  0.2703
  C  C55  1  0.000600  0.317000  0.679100  1.0  0.1863
  C  C56  1  0.546800  0.104900  0.028800  1.0  -0.0241
  C  C57  1  0.766100  0.194300  0.841000  1.0  0.3336
  C  C58  1  0.885900  0.203200  0.781700  1.0  0.2499
  C  C59  1  0.011600  0.425000  0.638800  1.0  0.294
  C  C60  1  0.394200  0.429800  0.483200  1.0  0.2825
  C  C61  1  0.420400  0.409900  0.110000  1.0  0.1101
  C  C62  1  0.575300  0.332800  0.225700  1.0  -0.0753
  C  C63  1  0.428200  0.425500  0.343400  1.0  0.3076
  C  C64  1  0.465500  0.393000  0.253000  1.0  0.1695
  C  C65  1  0.390200  0.399900  0.582400  1.0  -0.0655
  C  C66  1  0.329400  0.438700  0.734900  1.0  0.1703
  C  C67  1  0.332200  0.469300  0.643100  1.0  -0.1227
  C  C68  1  0.445500  0.308300  0.615600  1.0  -0.17
  C  C69  1  0.444200  0.286500  0.707700  1.0  0.1543
  C  C70  1  0.333000  0.452500  0.054400  1.0  0.2746
  C  C71  1  0.531200  0.348200  0.080800  1.0  -0.0737
  C  C72  1  0.606500  0.309800  0.137800  1.0  -0.1276
  C  C73  1  0.920600  0.691800  0.629700  1.0  0.0329
  C  C74  1  0.177000  0.541700  0.011800  1.0  0.2998
  C  C75  1  0.357200  0.082400  0.130100  1.0  0.1534
  C  C76  1  0.600400  0.036700  0.094900  1.0  -0.1101
  C  C77  1  0.530100  0.997200  0.175000  1.0  0.162
  C  C78  1  0.994100  0.653700  0.083500  1.0  -0.1598
  C  C79  1  0.065500  0.611200  0.009000  1.0  -0.0298
  C  C80  1  0.421400  0.127300  0.048800  1.0  -0.1696
  C  C81  1  0.085900  0.142800  0.702800  1.0  -0.0279
  C  C82  1  0.797200  0.714600  0.642200  1.0  -0.1943
  C  C83  1  0.099100  0.240000  0.658700  1.0  -0.1247
  C  C84  1  0.977000  0.122100  0.766600  1.0  0.0199
  C  C85  1  0.979000  0.770600  0.630500  1.0  -0.1543
  C  C86  1  0.021600  0.639100  0.927400  1.0  -0.1043
  C  C87  1  0.890000  0.719000  0.074300  1.0  0.1701
  C  C88  1  0.914700  0.703500  0.925400  1.0  0.161
  C  C89  1  0.915900  0.868300  0.638800  1.0  0.141
  C  C90  1  0.740600  0.812300  0.650300  1.0  0.1602
  C  C91  1  0.256700  0.847400  0.381900  1.0  0.0404
  C  C92  1  0.379700  0.848800  0.053500  1.0  0.287
  C  C93  1  0.022000  0.412200  0.379500  1.0  0.2706
  C  C94  1  0.999400  0.683000  0.320900  1.0  0.1859
  C  C95  1  0.453200  0.895100  0.971200  1.0  -0.0255
  C  C96  1  0.233900  0.805700  0.159000  1.0  0.3329
  C  C97  1  0.114100  0.796800  0.218300  1.0  0.2504
  C  C98  1  0.988400  0.575000  0.361200  1.0  0.2935
  C  C99  1  0.605800  0.570200  0.516800  1.0  0.2835
  C  C100  1  0.579600  0.590100  0.890000  1.0  0.1099
  C  C101  1  0.424700  0.667200  0.774300  1.0  -0.0768
  C  C102  1  0.571800  0.574500  0.656600  1.0  0.3068
  C  C103  1  0.534500  0.607000  0.747000  1.0  0.1688
  C  C104  1  0.609800  0.600100  0.417600  1.0  -0.0653
  C  C105  1  0.670600  0.561300  0.265100  1.0  0.1711
  C  C106  1  0.667800  0.530700  0.356900  1.0  -0.1225
  C  C107  1  0.554500  0.691700  0.384400  1.0  -0.1686
  C  C108  1  0.555800  0.713500  0.292300  1.0  0.1544
  C  C109  1  0.667000  0.547500  0.945600  1.0  0.2741
  C  C110  1  0.468800  0.651800  0.919200  1.0  -0.0737
  C  C111  1  0.393500  0.690200  0.862200  1.0  -0.1284
  C  C112  1  0.079400  0.308200  0.370300  1.0  0.0301
  C  C113  1  0.823000  0.458300  0.988200  1.0  0.3003
  C  C114  1  0.642800  0.917600  0.869900  1.0  0.1539
  C  C115  1  0.399600  0.963300  0.905100  1.0  -0.1065
  C  C116  1  0.469900  0.002800  0.825000  1.0  0.1619
  C  C117  1  0.005900  0.346300  0.916500  1.0  -0.1605
  C  C118  1  0.934500  0.388800  0.991000  1.0  -0.0297
  C  C119  1  0.578600  0.872700  0.951200  1.0  -0.1698
  C  C120  1  0.914100  0.857200  0.297200  1.0  -0.0294
  C  C121  1  0.202800  0.285400  0.357800  1.0  -0.1942
  C  C122  1  0.900900  0.760000  0.341300  1.0  -0.1241
  C  C123  1  0.023000  0.877900  0.233400  1.0  0.0162
  C  C124  1  0.021000  0.229400  0.369500  1.0  -0.1549
  C  C125  1  0.978400  0.360900  0.072600  1.0  -0.1029
  C  C126  1  0.110000  0.281000  0.925700  1.0  0.1702
  C  C127  1  0.085300  0.296500  0.074600  1.0  0.1609
  C  C128  1  0.084100  0.131700  0.361200  1.0  0.1413
  C  C129  1  0.259400  0.187700  0.349700  1.0  0.1614
  C  C130  1  0.743300  0.152600  0.618100  1.0  0.0467
  N  N131  1  0.931000  0.503400  0.673000  1.0  -0.5005
  N  N132  1  0.573900  0.232600  0.892700  1.0  -0.3513
  N  N133  1  0.896900  0.299700  0.737700  1.0  -0.4191
  N  N134  1  0.671700  0.258500  0.825700  1.0  -0.1997
  N  N135  1  0.741700  0.123100  0.917200  1.0  -0.4731
  N  N136  1  0.341400  0.520100  0.446600  1.0  -0.3403
  N  N137  1  0.079700  0.558000  0.562700  1.0  -0.1349
  N  N138  1  0.100800  0.455700  0.573100  1.0  -0.3238
  N  N139  1  0.364500  0.515400  0.356200  1.0  -0.2369
  N  N140  1  0.451100  0.366600  0.420800  1.0  -0.4788
  N  N141  1  0.389800  0.431600  0.196100  1.0  -0.3757
  N  N142  1  0.387100  0.348300  0.769300  1.0  -0.362
  N  N143  1  0.237300  0.493600  0.942300  1.0  -0.3363
  N  N144  1  0.337600  0.436100  0.969200  1.0  -0.3097
  N  N145  1  0.232400  0.515900  0.086600  1.0  -0.4733
  N  N146  1  0.407900  0.018400  0.195700  1.0  -0.3458
  N  N147  1  0.846900  0.744700  0.998900  1.0  -0.4091
  N  N148  1  0.796800  0.890600  0.651600  1.0  -0.3071
  N  N149  1  0.231400  0.768400  0.421800  1.0  -0.4043
  N  N150  1  0.069000  0.496600  0.327000  1.0  -0.5026
  N  N151  1  0.426100  0.767400  0.107300  1.0  -0.3518
  N  N152  1  0.103100  0.700300  0.262300  1.0  -0.4183
  N  N153  1  0.328300  0.741500  0.174300  1.0  -0.1997
  N  N154  1  0.258300  0.876900  0.082800  1.0  -0.473
  N  N155  1  0.658600  0.479900  0.553400  1.0  -0.3393
  N  N156  1  0.920300  0.442000  0.437300  1.0  -0.1353
  N  N157  1  0.899200  0.544300  0.426900  1.0  -0.3237
  N  N158  1  0.635500  0.484600  0.643800  1.0  -0.2353
  N  N159  1  0.548900  0.633400  0.579200  1.0  -0.4803
  N  N160  1  0.610200  0.568400  0.803900  1.0  -0.3761
  N  N161  1  0.612900  0.651700  0.230700  1.0  -0.3594
  N  N162  1  0.762700  0.506400  0.057700  1.0  -0.3372
  N  N163  1  0.662400  0.563900  0.030800  1.0  -0.3119
  N  N164  1  0.767600  0.484100  0.913400  1.0  -0.4728
  N  N165  1  0.592100  0.981600  0.804300  1.0  -0.3451
  N  N166  1  0.153100  0.255300  0.001100  1.0  -0.4093
  N  N167  1  0.203200  0.109400  0.348400  1.0  -0.3064
  N  N168  1  0.768600  0.231600  0.578200  1.0  -0.4059
