# generated using pymatgen
data_ZnH30C32N2O7
_symmetry_space_group_name_H-M   'P 1'
_cell_length_a   9.02690000
_cell_length_b   14.07970000
_cell_length_c   27.43190000
_cell_angle_alpha   91.18700000
_cell_angle_beta   90.00000000
_cell_angle_gamma   90.00000000
_symmetry_Int_Tables_number   1
_chemical_formula_structural   ZnH30C32N2O7
_chemical_formula_sum   'Zn4 H120 C128 N8 O28'
_cell_volume   3485.73780045
_cell_formula_units_Z   4
loop_
 _symmetry_equiv_pos_site_id
 _symmetry_equiv_pos_as_xyz
  1  'x, y, z'
loop_
 _atom_site_type_symbol
 _atom_site_label
 _atom_site_symmetry_multiplicity
 _atom_site_fract_x
 _atom_site_fract_y
 _atom_site_fract_z
 _atom_site_occupancy
 _atom_site_charge
  Zn  Zn1  1  0.778910  0.080550  0.838100  1.0  0.9626
  Zn  Zn2  1  0.721090  0.580550  0.338100  1.0  0.9604
  Zn  Zn3  1  0.278910  0.419450  0.661900  1.0  0.9626
  Zn  Zn4  1  0.221090  0.919450  0.161900  1.0  0.9609
  H  H5  1  0.669800  0.104700  0.691800  1.0  0.0829
  H  H6  1  0.566000  0.292100  0.370300  1.0  0.1057
  H  H7  1  0.225600  0.409500  0.055800  1.0  0.1018
  H  H8  1  0.067200  0.674500  0.058300  1.0  0.1089
  H  H9  1  0.285100  0.789000  0.493300  1.0  0.0961
  H  H10  1  0.197300  0.243600  0.724300  1.0  0.1124
  H  H11  1  0.891000  0.857000  0.392400  1.0  0.0917
  H  H12  1  0.093200  0.659100  0.294600  1.0  0.112
  H  H13  1  0.432800  0.174500  0.558300  1.0  0.1086
  H  H14  1  0.830200  0.604700  0.191800  1.0  0.083
  H  H15  1  0.231800  0.432800  0.138200  1.0  0.1097
  H  H16  1  0.142900  0.765500  0.299900  1.0  0.1129
  H  H17  1  0.019100  0.978100  0.430500  1.0  0.104
  H  H18  1  0.081500  0.952800  0.981400  1.0  0.0985
  H  H19  1  0.214900  0.289000  0.993300  1.0  0.096
  H  H20  1  0.336000  0.318400  0.520200  1.0  0.0988
  H  H21  1  0.422600  0.663100  0.224800  1.0  0.0969
  H  H22  1  0.343800  0.167700  0.954500  1.0  0.0957
  H  H23  1  0.245600  0.136800  0.720000  1.0  0.1006
  H  H24  1  0.254200  0.567800  0.936300  1.0  0.1158
  H  H25  1  0.418500  0.452800  0.481400  1.0  0.0984
  H  H26  1  0.091500  0.154900  0.848900  1.0  0.0836
  H  H27  1  0.144800  0.415100  0.216500  1.0  0.106
  H  H28  1  0.934000  0.792100  0.870300  1.0  0.1054
  H  H29  1  0.406800  0.159100  0.794600  1.0  0.1121
  H  H30  1  0.274400  0.909500  0.555800  1.0  0.1022
  H  H31  1  0.164000  0.818400  0.020200  1.0  0.0993
  H  H32  1  0.156200  0.667700  0.454500  1.0  0.0959
  H  H33  1  0.077400  0.163100  0.724800  1.0  0.0969
  H  H34  1  0.328800  0.195300  0.842500  1.0  0.1102
  H  H35  1  0.909800  0.619800  0.112700  1.0  0.11
  H  H36  1  0.268200  0.932800  0.638200  1.0  0.1094
  H  H37  1  0.357100  0.265500  0.799900  1.0  0.1137
  H  H38  1  0.245800  0.067800  0.436300  1.0  0.1163
  H  H39  1  0.590200  0.119800  0.612700  1.0  0.1108
  H  H40  1  0.408500  0.654900  0.348900  1.0  0.0827
  H  H41  1  0.302700  0.743600  0.224300  1.0  0.1119
  H  H42  1  0.254400  0.636800  0.220000  1.0  0.1004
  H  H43  1  0.034300  0.658900  0.905500  1.0  0.0885
  H  H44  1  0.609000  0.357000  0.892400  1.0  0.0913
  H  H45  1  0.465700  0.158900  0.405500  1.0  0.0882
  H  H46  1  0.355200  0.915100  0.716500  1.0  0.106
  H  H47  1  0.171200  0.695300  0.342500  1.0  0.1104
  H  H48  1  0.480900  0.478100  0.930500  1.0  0.1039
  H  H49  1  0.593200  0.840900  0.205400  1.0  0.1123
  H  H50  1  0.577400  0.336900  0.775200  1.0  0.0975
  H  H51  1  0.857100  0.234500  0.700100  1.0  0.1112
  H  H52  1  0.090200  0.380200  0.887300  1.0  0.1107
  H  H53  1  0.980900  0.021900  0.569500  1.0  0.1046
  H  H54  1  0.754400  0.863200  0.280000  1.0  0.1006
  H  H55  1  0.828800  0.304700  0.657500  1.0  0.1111
  H  H56  1  0.644800  0.084900  0.283500  1.0  0.1057
  H  H57  1  0.391000  0.643000  0.107600  1.0  0.092
  H  H58  1  0.330200  0.895300  0.308200  1.0  0.0837
  H  H59  1  0.836000  0.181600  0.979800  1.0  0.0992
  H  H60  1  0.519100  0.521900  0.069500  1.0  0.1046
  H  H61  1  0.714900  0.211000  0.506700  1.0  0.096
  H  H62  1  0.066000  0.207900  0.129700  1.0  0.1044
  H  H63  1  0.922600  0.836900  0.275200  1.0  0.0968
  H  H64  1  0.768200  0.567200  0.861800  1.0  0.1096
  H  H65  1  0.725600  0.090500  0.444200  1.0  0.1016
  H  H66  1  0.409800  0.880200  0.387300  1.0  0.1105
  H  H67  1  0.908500  0.845100  0.151100  1.0  0.0835
  H  H68  1  0.591500  0.345100  0.651100  1.0  0.084
  H  H69  1  0.109000  0.143000  0.607600  1.0  0.0921
  H  H70  1  0.656200  0.832300  0.045500  1.0  0.0963
  H  H71  1  0.802700  0.756400  0.275700  1.0  0.1099
  H  H72  1  0.434000  0.707900  0.629700  1.0  0.1042
  H  H73  1  0.906800  0.340900  0.705400  1.0  0.1124
  H  H74  1  0.642900  0.734500  0.200100  1.0  0.1118
  H  H75  1  0.697300  0.256400  0.775700  1.0  0.1104
  H  H76  1  0.567200  0.825500  0.441700  1.0  0.1092
  H  H77  1  0.671200  0.804700  0.157500  1.0  0.1111
  H  H78  1  0.843800  0.332300  0.545500  1.0  0.0962
  H  H79  1  0.169800  0.395300  0.808200  1.0  0.0838
  H  H80  1  0.785100  0.711000  0.006700  1.0  0.0961
  H  H81  1  0.534300  0.841100  0.594500  1.0  0.0888
  H  H82  1  0.745800  0.432200  0.063700  1.0  0.1167
  H  H83  1  0.745600  0.363200  0.780000  1.0  0.1
  H  H84  1  0.731800  0.067200  0.361800  1.0  0.1104
  H  H85  1  0.932800  0.325500  0.941700  1.0  0.109
  H  H86  1  0.855200  0.584900  0.783500  1.0  0.1062
  H  H87  1  0.581500  0.547200  0.518600  1.0  0.0983
  H  H88  1  0.774400  0.590500  0.944200  1.0  0.1022
  H  H89  1  0.965700  0.341100  0.094500  1.0  0.0884
  H  H90  1  0.918500  0.047200  0.018600  1.0  0.0982
  H  H91  1  0.664000  0.681600  0.479800  1.0  0.0996
  H  H92  1  0.754200  0.932200  0.563700  1.0  0.1161
  H  H93  1  0.664200  0.866700  0.942400  1.0  0.0955
  H  H94  1  0.550700  0.954800  0.887200  1.0  0.1834
  H  H95  1  0.338100  0.917200  0.850300  1.0  0.1033
  H  H96  1  0.515600  0.907100  0.963800  1.0  0.0915
  H  H97  1  0.310200  0.939400  0.905700  1.0  0.0974
  H  H98  1  0.318100  0.833800  0.886700  1.0  0.1103
  H  H99  1  0.523400  0.801700  0.944400  1.0  0.0897
  H  H100  1  0.558200  0.857200  0.869200  1.0  0.2356
  H  H101  1  0.189800  0.439400  0.405700  1.0  0.0981
  H  H102  1  0.941800  0.357200  0.369200  1.0  0.2362
  H  H103  1  0.976600  0.301700  0.444400  1.0  0.0899
  H  H104  1  0.984400  0.407100  0.463800  1.0  0.0917
  H  H105  1  0.161900  0.417200  0.350300  1.0  0.104
  H  H106  1  0.181900  0.333800  0.386700  1.0  0.1098
  H  H107  1  0.949300  0.454800  0.387200  1.0  0.1844
  H  H108  1  0.835800  0.366700  0.442400  1.0  0.0954
  H  H109  1  0.441800  0.142800  0.130800  1.0  0.2356
  H  H110  1  0.476600  0.198300  0.055600  1.0  0.0918
  H  H111  1  0.689800  0.060600  0.094300  1.0  0.0977
  H  H112  1  0.681900  0.166200  0.113300  1.0  0.11
  H  H113  1  0.484400  0.092900  0.036200  1.0  0.0917
  H  H114  1  0.335800  0.133300  0.057600  1.0  0.0954
  H  H115  1  0.449300  0.045200  0.112800  1.0  0.1839
  H  H116  1  0.661900  0.082800  0.149700  1.0  0.1036
  H  H117  1  0.164200  0.633300  0.557600  1.0  0.0954
  H  H118  1  0.810200  0.560600  0.594300  1.0  0.0976
  H  H119  1  0.058200  0.642800  0.630800  1.0  0.2345
  H  H120  1  0.015600  0.592900  0.536200  1.0  0.0918
  H  H121  1  0.818100  0.666200  0.613300  1.0  0.1106
  H  H122  1  0.838100  0.582800  0.649700  1.0  0.1048
  H  H123  1  0.050700  0.545200  0.612800  1.0  0.1837
  H  H124  1  0.023400  0.698300  0.555600  1.0  0.091
  C  C125  1  0.379900  0.312600  0.489590  1.0  -0.1092
  C  C126  1  0.150400  0.468200  0.148700  1.0  -0.1073
  C  C127  1  0.120100  0.812600  0.989590  1.0  -0.1085
  C  C128  1  0.401800  0.957400  0.695880  1.0  -0.0572
  C  C129  1  0.004400  0.749100  0.421170  1.0  -0.1373
  C  C130  1  0.373400  0.230300  0.950340  1.0  -0.0482
  C  C131  1  0.388100  0.124100  0.541430  1.0  -0.1096
  C  C132  1  0.581500  0.168500  0.897760  1.0  0.6656
  C  C133  1  0.208300  0.466500  0.040210  1.0  -0.0975
  C  C134  1  0.588800  0.069300  0.681020  1.0  -0.0138
  C  C135  1  0.911200  0.569300  0.181020  1.0  -0.0133
  C  C136  1  0.564000  0.473500  0.399150  1.0  0.6599
  C  C137  1  0.495600  0.249100  0.921170  1.0  -0.1381
  C  C138  1  0.254200  0.476400  0.992260  1.0  0.0219
  C  C139  1  0.453300  0.415500  0.935910  1.0  -0.103
  C  C140  1  0.415700  0.030300  0.616820  1.0  0.0536
  C  C141  1  0.968700  0.842700  0.413280  1.0  -0.0397
  C  C142  1  0.920600  0.499800  0.264390  1.0  0.742
  C  C143  1  0.098200  0.457400  0.195880  1.0  -0.0589
  C  C144  1  0.977900  0.509000  0.212350  1.0  -0.1751
  C  C145  1  0.137200  0.539800  0.065480  1.0  0.0116
  C  C146  1  0.205200  0.803300  0.473310  1.0  -0.1287
  C  C147  1  0.362800  0.039800  0.565480  1.0  0.0113
  C  C148  1  0.539800  0.079600  0.633510  1.0  -0.1557
  C  C149  1  0.165300  0.897500  0.466580  1.0  0.0426
  C  C150  1  0.332700  0.201200  0.807800  1.0  -0.1764
  C  C151  1  0.348900  0.135400  0.493030  1.0  -0.0124
  C  C152  1  0.918500  0.668500  0.397760  1.0  0.6658
  C  C153  1  0.522100  0.009000  0.712350  1.0  -0.1754
  C  C154  1  0.075600  0.154300  0.815400  1.0  0.1912
  C  C155  1  0.084300  0.530300  0.116820  1.0  0.0533
  C  C156  1  0.176100  0.180300  0.734600  1.0  -0.1436
  C  C157  1  0.067600  0.893200  0.966810  1.0  -0.1087
  C  C158  1  0.126600  0.730300  0.450340  1.0  -0.0475
  C  C159  1  0.291700  0.966500  0.540210  1.0  -0.0987
  C  C160  1  0.167300  0.701200  0.307800  1.0  -0.1764
  C  C161  1  0.517900  0.297800  0.400210  1.0  -0.0235
  C  C162  1  0.334700  0.397500  0.966580  1.0  0.0434
  C  C163  1  0.040400  0.717500  0.921730  1.0  -0.1186
  C  C164  1  0.392100  0.223800  0.467390  1.0  0.0413
  C  C165  1  0.531300  0.342700  0.913280  1.0  -0.0402
  C  C166  1  0.960200  0.579600  0.133510  1.0  -0.1547
  C  C167  1  0.349600  0.968200  0.648700  1.0  -0.1068
  C  C168  1  0.459600  0.217500  0.421730  1.0  -0.1179
  C  C169  1  0.245800  0.976400  0.492260  1.0  0.0207
  C  C170  1  0.994600  0.885300  0.922460  1.0  -0.1738
  C  C171  1  0.323900  0.680300  0.234600  1.0  -0.1446
  C  C172  1  0.432400  0.393200  0.466810  1.0  -0.109
  C  C173  1  0.275200  0.060800  0.468540  1.0  -0.0984
  C  C174  1  0.424400  0.654300  0.315400  1.0  0.1921
  C  C175  1  0.579400  0.999800  0.764390  1.0  0.7428
  C  C176  1  0.294800  0.303300  0.973310  1.0  -0.1287
  C  C177  1  0.505400  0.385300  0.422460  1.0  -0.1743
  C  C178  1  0.107900  0.723800  0.967390  1.0  0.0417
  C  C179  1  0.224800  0.560800  0.968540  1.0  -0.0974
  C  C180  1  0.936000  0.973500  0.899150  1.0  0.6602
  C  C181  1  0.151100  0.635400  0.993030  1.0  -0.0117
  C  C182  1  0.111900  0.624100  0.041430  1.0  -0.1084
  C  C183  1  0.046700  0.915500  0.435910  1.0  -0.1028
  C  C184  1  0.982100  0.797800  0.900210  1.0  -0.022
  C  C185  1  0.420600  0.000200  0.235610  1.0  0.744
  C  C186  1  0.039800  0.420400  0.866490  1.0  -0.1561
  C  C187  1  0.892100  0.276200  0.032610  1.0  0.0424
  C  C188  1  0.081500  0.331500  0.602240  1.0  0.6663
  C  C189  1  0.932400  0.106800  0.033190  1.0  -0.1084
  C  C190  1  0.823900  0.819700  0.265400  1.0  -0.1435
  C  C191  1  0.064000  0.026500  0.100850  1.0  0.66
  C  C192  1  0.959600  0.282500  0.078270  1.0  -0.1167
  C  C193  1  0.468700  0.657300  0.086720  1.0  -0.0391
  C  C194  1  0.031300  0.157300  0.586720  1.0  -0.0396
  C  C195  1  0.924400  0.845700  0.184600  1.0  0.1931
  C  C196  1  0.017900  0.202200  0.099790  1.0  -0.0243
  C  C197  1  0.834700  0.102500  0.533420  1.0  0.0434
  C  C198  1  0.849600  0.531800  0.851300  1.0  -0.1067
  C  C199  1  0.482100  0.702200  0.599790  1.0  -0.0243
  C  C200  1  0.667300  0.798800  0.192200  1.0  -0.1766
  C  C201  1  0.676100  0.319700  0.765400  1.0  -0.1458
  C  C202  1  0.598200  0.042600  0.304120  1.0  -0.0601
  C  C203  1  0.607900  0.776200  0.532610  1.0  0.0427
  C  C204  1  0.575600  0.345700  0.684600  1.0  0.1921
  C  C205  1  0.888100  0.375900  0.958570  1.0  -0.11
  C  C206  1  0.460200  0.920400  0.366490  1.0  -0.1556
  C  C207  1  0.637200  0.960200  0.434520  1.0  0.0104
  C  C208  1  0.477900  0.991000  0.287650  1.0  -0.1742
  C  C209  1  0.901800  0.542600  0.804120  1.0  -0.0582
  C  C210  1  0.022100  0.491000  0.787650  1.0  -0.1734
  C  C211  1  0.708300  0.033500  0.459790  1.0  -0.0973
  C  C212  1  0.794800  0.196700  0.526690  1.0  -0.129
  C  C213  1  0.411200  0.930700  0.318980  1.0  -0.0133
  C  C214  1  0.651100  0.864600  0.506970  1.0  -0.0122
  C  C215  1  0.879900  0.187400  0.010410  1.0  -0.108
  C  C216  1  0.724800  0.939200  0.531460  1.0  -0.0971
  C  C217  1  0.088800  0.430700  0.818980  1.0  -0.0128
  C  C218  1  0.848900  0.364600  0.006970  1.0  -0.0131
  C  C219  1  0.791700  0.533500  0.959790  1.0  -0.0984
  C  C220  1  0.584300  0.969700  0.383180  1.0  0.0523
  C  C221  1  0.494600  0.614700  0.577540  1.0  -0.1742
  C  C222  1  0.567600  0.606800  0.533190  1.0  -0.1095
  C  C223  1  0.626600  0.769700  0.049660  1.0  -0.0483
  C  C224  1  0.915700  0.469700  0.883180  1.0  0.0521
  C  C225  1  0.705200  0.696700  0.026690  1.0  -0.1289
  C  C226  1  0.546700  0.584500  0.064090  1.0  -0.1033
  C  C227  1  0.504400  0.750900  0.078830  1.0  -0.1365
  C  C228  1  0.005400  0.114700  0.077540  1.0  -0.1745
  C  C229  1  0.620100  0.687400  0.510410  1.0  -0.1081
  C  C230  1  0.995600  0.250900  0.578830  1.0  -0.138
  C  C231  1  0.862800  0.460200  0.934520  1.0  0.0103
  C  C232  1  0.665300  0.602500  0.033420  1.0  0.0429
  C  C233  1  0.611900  0.875900  0.458570  1.0  -0.1103
  C  C234  1  0.832700  0.298800  0.692200  1.0  -0.1768
  C  C235  1  0.873400  0.269700  0.549660  1.0  -0.0493
  C  C236  1  0.650400  0.031800  0.351300  1.0  -0.1073
  C  C237  1  0.079400  0.500200  0.735610  1.0  0.7437
  C  C238  1  0.754200  0.023600  0.507740  1.0  0.0214
  C  C239  1  0.775200  0.439200  0.031460  1.0  -0.0986
  C  C240  1  0.418500  0.831500  0.102240  1.0  0.6665
  C  C241  1  0.436000  0.526500  0.600850  1.0  0.6603
  C  C242  1  0.745800  0.523600  0.007740  1.0  0.0204
  C  C243  1  0.540400  0.782500  0.578270  1.0  -0.1161
  C  C244  1  0.953300  0.084500  0.564090  1.0  -0.1035
  C  C245  1  0.558200  0.865300  0.939600  1.0  -0.1664
  C  C246  1  0.357100  0.896600  0.882800  1.0  -0.1894
  C  C247  1  0.142900  0.396600  0.382800  1.0  -0.1898
  C  C248  1  0.941800  0.365300  0.439600  1.0  -0.1664
  C  C249  1  0.441800  0.134700  0.060400  1.0  -0.1657
  C  C250  1  0.642900  0.103400  0.117200  1.0  -0.1884
  C  C251  1  0.857100  0.603400  0.617200  1.0  -0.189
  C  C252  1  0.058200  0.634700  0.560400  1.0  -0.166
  N  N253  1  0.312400  0.676400  0.286680  1.0  -0.0302
  N  N254  1  0.187600  0.176400  0.786680  1.0  -0.0324
  N  N255  1  0.812400  0.823600  0.213320  1.0  -0.0308
  N  N256  1  0.687600  0.323600  0.713320  1.0  -0.0332
  N  N257  1  0.515300  0.895800  0.891560  1.0  -0.0448
  N  N258  1  0.984700  0.395800  0.391560  1.0  -0.0451
  N  N259  1  0.484700  0.104200  0.108440  1.0  -0.044
  N  N260  1  0.015300  0.604200  0.608440  1.0  -0.0431
  O  O261  1  0.546500  0.086500  0.905470  1.0  -0.5587
  O  O262  1  0.953500  0.586500  0.405470  1.0  -0.5594
  O  O263  1  0.982800  0.052900  0.910970  1.0  -0.556
  O  O264  1  0.672500  0.061600  0.776960  1.0  -0.6216
  O  O265  1  0.517200  0.552900  0.410970  1.0  -0.5574
  O  O266  1  0.546700  0.633300  0.300430  1.0  -0.5972
  O  O267  1  0.827500  0.561600  0.276960  1.0  -0.6217
  O  O268  1  0.811600  0.691400  0.370630  1.0  -0.5864
  O  O269  1  0.688400  0.191400  0.870630  1.0  -0.5863
  O  O270  1  0.532900  0.935400  0.789100  1.0  -0.5521
  O  O271  1  0.837000  0.959500  0.865980  1.0  -0.6014
  O  O272  1  0.967100  0.435400  0.289100  1.0  -0.5524
  O  O273  1  0.663000  0.459500  0.365980  1.0  -0.601
  O  O274  1  0.953300  0.133300  0.800430  1.0  -0.598
  O  O275  1  0.032900  0.564600  0.710900  1.0  -0.5533
  O  O276  1  0.172500  0.438400  0.723040  1.0  -0.6215
  O  O277  1  0.327500  0.938400  0.223040  1.0  -0.6217
  O  O278  1  0.311600  0.808600  0.129370  1.0  -0.5863
  O  O279  1  0.188400  0.308600  0.629370  1.0  -0.5861
  O  O280  1  0.163000  0.040500  0.134020  1.0  -0.6023
  O  O281  1  0.046500  0.413500  0.594530  1.0  -0.5588
  O  O282  1  0.467100  0.064600  0.210900  1.0  -0.5542
  O  O283  1  0.453300  0.366700  0.699570  1.0  -0.599
  O  O284  1  0.453500  0.913500  0.094530  1.0  -0.5595
  O  O285  1  0.337000  0.540500  0.634020  1.0  -0.6012
  O  O286  1  0.482800  0.447100  0.589030  1.0  -0.556
  O  O287  1  0.017200  0.947100  0.089030  1.0  -0.557
  O  O288  1  0.046700  0.866700  0.199570  1.0  -0.5977
