# generated using pymatgen
data_Cu3H60C60N30Cl
_symmetry_space_group_name_H-M   'P 1'
_cell_length_a   11.39450000
_cell_length_b   14.88430000
_cell_length_c   15.86900000
_cell_angle_alpha   64.69000000
_cell_angle_beta   89.74700000
_cell_angle_gamma   89.66100000
_symmetry_Int_Tables_number   1
_chemical_formula_structural   Cu3H60C60N30Cl
_chemical_formula_sum   'Cu3 H60 C60 N30 Cl1'
_cell_volume   2432.97109530
_cell_formula_units_Z   1
loop_
 _symmetry_equiv_pos_site_id
 _symmetry_equiv_pos_as_xyz
  1  'x, y, z'
loop_
 _atom_site_type_symbol
 _atom_site_label
 _atom_site_symmetry_multiplicity
 _atom_site_fract_x
 _atom_site_fract_y
 _atom_site_fract_z
 _atom_site_occupancy
 _atom_site_charge
  Cu  Cu1  1  0.893750  0.637590  0.357540  1.0  0.6576
  Cu  Cu2  1  0.106250  0.362410  0.642460  1.0  0.6611
  Cu  Cu3  1  0.500000  0.500000  0.000000  1.0  0.5959
  H  H4  1  0.365200  0.692100  0.870000  1.0  0.0884
  H  H5  1  0.313000  0.429800  0.882000  1.0  0.0548
  H  H6  1  0.157900  0.728200  0.685300  1.0  0.0965
  H  H7  1  0.211600  0.789700  0.735000  1.0  0.0803
  H  H8  1  0.259700  0.723100  0.555700  1.0  0.0672
  H  H9  1  0.406500  0.768900  0.451000  1.0  0.099
  H  H10  1  0.563100  0.900400  0.586100  1.0  0.0725
  H  H11  1  0.415200  0.850000  0.697100  1.0  0.1054
  H  H12  1  0.661000  0.766400  0.343000  1.0  0.0674
  H  H13  1  0.871800  0.655300  0.546800  1.0  0.0354
  H  H14  1  0.712900  0.645500  0.934100  1.0  0.0707
  H  H15  1  0.559400  0.521900  0.795500  1.0  0.066
  H  H16  1  0.799500  0.804000  0.740100  1.0  0.0958
  H  H17  1  0.872100  0.728100  0.715700  1.0  0.0982
  H  H18  1  0.870600  0.838200  0.867800  1.0  0.0804
  H  H19  1  0.995200  0.597300  0.847500  1.0  0.0879
  H  H20  1  0.120500  0.571400  0.967400  1.0  0.0645
  H  H21  1  0.002000  0.816600  0.983400  1.0  0.1079
  H  H22  1  0.223000  0.629700  0.062900  1.0  0.1046
  H  H23  1  0.194900  0.735600  0.057100  1.0  0.0881
  H  H24  1  0.053200  0.741000  0.184800  1.0  0.0772
  H  H25  1  0.986900  0.464200  0.308500  1.0  0.0486
  H  H26  1  0.906800  0.875700  0.280200  1.0  0.0725
  H  H27  1  0.212100  0.840600  0.403800  1.0  0.094
  H  H28  1  0.006300  0.034700  0.277100  1.0  0.0906
  H  H29  1  0.139100  0.020300  0.306300  1.0  0.0767
  H  H30  1  0.858400  0.026600  0.389700  1.0  0.0818
  H  H31  1  0.192000  0.982500  0.468000  1.0  0.0848
  H  H32  1  0.567500  0.900200  0.377400  1.0  0.0875
  H  H33  1  0.642000  0.926500  0.446500  1.0  0.0937
  H  H34  1  0.634800  0.307900  0.130000  1.0  0.0879
  H  H35  1  0.687000  0.570200  0.118000  1.0  0.0522
  H  H36  1  0.842100  0.271800  0.314700  1.0  0.0954
  H  H37  1  0.788400  0.210300  0.265000  1.0  0.0801
  H  H38  1  0.740300  0.276900  0.444300  1.0  0.0679
  H  H39  1  0.593500  0.231100  0.549000  1.0  0.0996
  H  H40  1  0.436900  0.099600  0.413900  1.0  0.0732
  H  H41  1  0.584800  0.150000  0.302900  1.0  0.1066
  H  H42  1  0.339000  0.233600  0.657000  1.0  0.0677
  H  H43  1  0.128200  0.344700  0.453200  1.0  0.0381
  H  H44  1  0.287100  0.354500  0.065900  1.0  0.0703
  H  H45  1  0.440600  0.478100  0.204500  1.0  0.0665
  H  H46  1  0.200500  0.196000  0.259900  1.0  0.0967
  H  H47  1  0.127900  0.271900  0.284300  1.0  0.0985
  H  H48  1  0.129400  0.161800  0.132200  1.0  0.0802
  H  H49  1  0.004800  0.402700  0.152500  1.0  0.0877
  H  H50  1  0.879500  0.428600  0.032600  1.0  0.0647
  H  H51  1  0.998000  0.183400  0.016600  1.0  0.1078
  H  H52  1  0.777000  0.370300  0.937100  1.0  0.1037
  H  H53  1  0.805100  0.264400  0.942900  1.0  0.0896
  H  H54  1  0.946800  0.259000  0.815200  1.0  0.0785
  H  H55  1  0.013100  0.535800  0.691500  1.0  0.0479
  H  H56  1  0.093200  0.124300  0.719800  1.0  0.0724
  H  H57  1  0.787900  0.159400  0.596200  1.0  0.0922
  H  H58  1  0.993700  0.965300  0.722900  1.0  0.0903
  H  H59  1  0.860900  0.979700  0.693700  1.0  0.0768
  H  H60  1  0.141600  0.973400  0.610300  1.0  0.082
  H  H61  1  0.808000  0.017500  0.532000  1.0  0.085
  H  H62  1  0.432500  0.099800  0.622600  1.0  0.0881
  H  H63  1  0.358000  0.073500  0.553500  1.0  0.0968
  C  C64  1  0.339400  0.639400  0.858300  1.0  0.1058
  C  C65  1  0.310300  0.498100  0.863300  1.0  0.2202
  C  C66  1  0.229100  0.740400  0.712000  1.0  -0.0777
  C  C67  1  0.321200  0.778200  0.639600  1.0  0.0315
  C  C68  1  0.322200  0.758200  0.564100  1.0  -0.1414
  C  C69  1  0.409100  0.786500  0.500600  1.0  -0.1986
  C  C70  1  0.501400  0.841100  0.508300  1.0  0.1361
  C  C71  1  0.501400  0.863100  0.579800  1.0  -0.1527
  C  C72  1  0.412100  0.832800  0.647300  1.0  -0.2312
  C  C73  1  0.701400  0.752000  0.398100  1.0  0.1324
  C  C74  1  0.813700  0.694600  0.506800  1.0  0.2452
  C  C75  1  0.691200  0.627700  0.886800  1.0  0.1213
  C  C76  1  0.610300  0.560700  0.811600  1.0  0.2232
  C  C77  1  0.832300  0.737400  0.765600  1.0  -0.1003
  C  C78  1  0.922900  0.785000  0.886200  1.0  -0.1262
  C  C79  1  0.919000  0.724600  0.842100  1.0  0.0788
  C  C80  1  0.996000  0.641500  0.874800  1.0  -0.1972
  C  C81  1  0.071000  0.626500  0.946300  1.0  -0.1423
  C  C82  1  0.075900  0.690900  0.988400  1.0  0.0243
  C  C83  1  0.000400  0.771600  0.956900  1.0  -0.2161
  C  C84  1  0.160300  0.673000  0.065300  1.0  -0.0556
  C  C85  1  0.050500  0.673200  0.201100  1.0  0.0744
  C  C86  1  0.016000  0.524800  0.265600  1.0  0.2365
  C  C87  1  0.974300  0.845400  0.313000  1.0  0.1039
  C  C88  1  0.142200  0.827600  0.381200  1.0  0.0788
  C  C89  1  0.060800  0.993900  0.325200  1.0  -0.089
  C  C90  1  0.029600  0.997900  0.415300  1.0  0.0941
  C  C91  1  0.916100  0.014100  0.434600  1.0  -0.1559
  C  C92  1  0.113400  0.988000  0.481300  1.0  -0.1453
  C  C93  1  0.599700  0.873600  0.439900  1.0  -0.1133
  C  C94  1  0.660600  0.360600  0.141700  1.0  0.1062
  C  C95  1  0.689700  0.501900  0.136700  1.0  0.2252
  C  C96  1  0.770900  0.259600  0.288000  1.0  -0.0776
  C  C97  1  0.678800  0.221800  0.360400  1.0  0.03
  C  C98  1  0.677800  0.241800  0.435900  1.0  -0.1417
  C  C99  1  0.590900  0.213500  0.499400  1.0  -0.1988
  C  C100  1  0.498600  0.158900  0.491700  1.0  0.1349
  C  C101  1  0.498600  0.136900  0.420200  1.0  -0.155
  C  C102  1  0.587900  0.167200  0.352700  1.0  -0.2204
  C  C103  1  0.298600  0.248000  0.601900  1.0  0.1344
  C  C104  1  0.186300  0.305400  0.493200  1.0  0.2476
  C  C105  1  0.308800  0.372300  0.113200  1.0  0.1201
  C  C106  1  0.389700  0.439300  0.188400  1.0  0.2189
  C  C107  1  0.167700  0.262600  0.234400  1.0  -0.0994
  C  C108  1  0.077100  0.215000  0.113800  1.0  -0.1263
  C  C109  1  0.081000  0.275400  0.157900  1.0  0.0788
  C  C110  1  0.004000  0.358500  0.125200  1.0  -0.1968
  C  C111  1  0.929000  0.373500  0.053700  1.0  -0.1418
  C  C112  1  0.924100  0.309100  0.011600  1.0  0.0241
  C  C113  1  0.999600  0.228400  0.043100  1.0  -0.215
  C  C114  1  0.839700  0.327000  0.934700  1.0  -0.0553
  C  C115  1  0.949500  0.326800  0.798900  1.0  0.0743
  C  C116  1  0.984000  0.475200  0.734400  1.0  0.2304
  C  C117  1  0.025700  0.154600  0.687000  1.0  0.1053
  C  C118  1  0.857800  0.172400  0.618800  1.0  0.0761
  C  C119  1  0.939200  0.006100  0.674800  1.0  -0.0905
  C  C120  1  0.970400  0.002100  0.584700  1.0  0.0941
  C  C121  1  0.083900  0.985900  0.565400  1.0  -0.1569
  C  C122  1  0.886600  0.012000  0.518700  1.0  -0.1448
  C  C123  1  0.400300  0.126400  0.560100  1.0  -0.1169
  N  N124  1  0.368200  0.543000  0.908300  1.0  -0.4322
  N  N125  1  0.250100  0.558000  0.791500  1.0  -0.4041
  N  N126  1  0.269000  0.646800  0.790200  1.0  0.1501
  N  N127  1  0.680200  0.794800  0.451200  1.0  0.1566
  N  N128  1  0.755900  0.760900  0.524300  1.0  -0.3955
  N  N129  1  0.785900  0.685800  0.429100  1.0  -0.3797
  N  N130  1  0.610200  0.563500  0.894400  1.0  -0.3807
  N  N131  1  0.737400  0.663500  0.804300  1.0  0.1429
  N  N132  1  0.689600  0.618300  0.755800  1.0  -0.3646
  N  N133  1  0.103000  0.627900  0.154700  1.0  0.1637
  N  N134  1  0.079300  0.531800  0.196000  1.0  -0.3804
  N  N135  1  0.994400  0.608000  0.273100  1.0  -0.3548
  N  N136  1  0.999000  0.750700  0.343200  1.0  -0.33
  N  N137  1  0.102600  0.740700  0.386800  1.0  -0.217
  N  N138  1  0.056700  0.890900  0.335200  1.0  0.0498
  N  N139  1  0.631800  0.457000  0.091700  1.0  -0.4334
  N  N140  1  0.749900  0.442000  0.208500  1.0  -0.4039
  N  N141  1  0.731000  0.353200  0.209800  1.0  0.1486
  N  N142  1  0.319800  0.205200  0.548800  1.0  0.157
  N  N143  1  0.244100  0.239100  0.475700  1.0  -0.3921
  N  N144  1  0.214100  0.314200  0.570900  1.0  -0.3815
  N  N145  1  0.389800  0.436500  0.105600  1.0  -0.3799
  N  N146  1  0.262600  0.336500  0.195700  1.0  0.1512
  N  N147  1  0.310400  0.381700  0.244200  1.0  -0.3698
  N  N148  1  0.897000  0.372100  0.845300  1.0  0.1651
  N  N149  1  0.920700  0.468200  0.804000  1.0  -0.3812
  N  N150  1  0.005600  0.392000  0.726900  1.0  -0.3563
  N  N151  1  0.001000  0.249300  0.656800  1.0  -0.3296
  N  N152  1  0.897400  0.259300  0.613200  1.0  -0.2158
  N  N153  1  0.943300  0.109100  0.664800  1.0  0.0492
  Cl  Cl154  1  0.000000  0.500000  0.500000  1.0  -0.3752
