# generated using pymatgen
data_CdH10C12N5O
_symmetry_space_group_name_H-M   'P 1'
_cell_length_a   10.42150000
_cell_length_b   10.53230000
_cell_length_c   22.24770000
_cell_angle_alpha   90.00000000
_cell_angle_beta   90.00000000
_cell_angle_gamma   90.00000000
_symmetry_Int_Tables_number   1
_chemical_formula_structural   CdH10C12N5O
_chemical_formula_sum   'Cd4 H40 C48 N20 O4'
_cell_volume   2441.96015557
_cell_formula_units_Z   4
loop_
 _symmetry_equiv_pos_site_id
 _symmetry_equiv_pos_as_xyz
  1  'x, y, z'
loop_
 _atom_site_type_symbol
 _atom_site_label
 _atom_site_symmetry_multiplicity
 _atom_site_fract_x
 _atom_site_fract_y
 _atom_site_fract_z
 _atom_site_occupancy
 _atom_site_charge
  Cd  Cd1  1  0.020590  0.580510  0.903260  1.0  0.8327
  Cd  Cd2  1  0.979410  0.080510  0.596740  1.0  0.8333
  Cd  Cd3  1  0.520590  0.919490  0.096740  1.0  0.8335
  Cd  Cd4  1  0.479410  0.419490  0.403260  1.0  0.8339
  H  H5  1  0.718900  0.914500  0.607200  1.0  0.0635
  H  H6  1  0.771900  0.455100  0.680400  1.0  0.1009
  H  H7  1  0.228100  0.955100  0.819600  1.0  0.0999
  H  H8  1  0.625500  0.412100  0.536700  1.0  0.0622
  H  H9  1  0.656500  0.447200  0.635300  1.0  0.1015
  H  H10  1  0.281100  0.414500  0.892800  1.0  0.063
  H  H11  1  0.782000  0.519700  0.617100  1.0  0.1092
  H  H12  1  0.727500  0.674000  0.744900  1.0  0.0917
  H  H13  1  0.005000  0.930800  0.719100  1.0  0.0515
  H  H14  1  0.633800  0.140900  0.418100  1.0  0.0676
  H  H15  1  0.626900  0.752400  0.659500  1.0  0.0969
  H  H16  1  0.995000  0.430800  0.780900  1.0  0.0518
  H  H17  1  0.218000  0.019700  0.882900  1.0  0.1086
  H  H18  1  0.374500  0.912100  0.963300  1.0  0.0617
  H  H19  1  0.222000  0.532900  0.024100  1.0  0.0677
  H  H20  1  0.778000  0.032900  0.475900  1.0  0.0693
  H  H21  1  0.343500  0.947200  0.864700  1.0  0.1046
  H  H22  1  0.272500  0.174000  0.755100  1.0  0.0916
  H  H23  1  0.373100  0.252400  0.840500  1.0  0.0964
  H  H24  1  0.366200  0.640900  0.081900  1.0  0.0676
  H  H25  1  0.156500  0.052800  0.364700  1.0  0.1015
  H  H26  1  0.495000  0.069200  0.219100  1.0  0.0517
  H  H27  1  0.843500  0.552800  0.135300  1.0  0.1026
  H  H28  1  0.126900  0.747600  0.340500  1.0  0.0963
  H  H29  1  0.278000  0.467100  0.524100  1.0  0.0684
  H  H30  1  0.227500  0.826000  0.255100  1.0  0.0916
  H  H31  1  0.728100  0.544900  0.180400  1.0  0.1008
  H  H32  1  0.125500  0.087900  0.463300  1.0  0.0619
  H  H33  1  0.874500  0.587900  0.036700  1.0  0.0617
  H  H34  1  0.781100  0.085500  0.107200  1.0  0.0637
  H  H35  1  0.271900  0.044900  0.319600  1.0  0.0996
  H  H36  1  0.282000  0.980300  0.382900  1.0  0.1086
  H  H37  1  0.718000  0.480300  0.117100  1.0  0.1078
  H  H38  1  0.218900  0.585500  0.392800  1.0  0.0636
  H  H39  1  0.722000  0.967100  0.975900  1.0  0.0682
  H  H40  1  0.866200  0.859100  0.918100  1.0  0.068
  H  H41  1  0.772500  0.326000  0.244900  1.0  0.0914
  H  H42  1  0.505000  0.569200  0.280900  1.0  0.0516
  H  H43  1  0.133800  0.359100  0.581900  1.0  0.0675
  H  H44  1  0.873100  0.247600  0.159500  1.0  0.097
  C  C45  1  0.295800  0.286900  0.827530  1.0  -0.1641
  C  C46  1  0.748900  0.111800  0.488760  1.0  0.1129
  C  C47  1  0.748300  0.448300  0.638810  1.0  -0.3916
  C  C48  1  0.749200  0.272300  0.557760  1.0  0.1452
  C  C49  1  0.657900  0.335000  0.523020  1.0  0.131
  C  C50  1  0.250800  0.772300  0.942240  1.0  0.1446
  C  C51  1  0.251700  0.948300  0.861190  1.0  -0.3934
  C  C52  1  0.071800  0.393400  0.792780  1.0  0.1949
  C  C53  1  0.661400  0.176500  0.454110  1.0  0.0998
  C  C54  1  0.121600  0.295600  0.758120  1.0  -0.2189
  C  C55  1  0.056200  0.249500  0.702510  1.0  0.5017
  C  C56  1  0.338600  0.676500  0.045890  1.0  0.1005
  C  C57  1  0.236500  0.240700  0.776690  1.0  -0.0066
  C  C58  1  0.943800  0.749500  0.797490  1.0  0.5023
  C  C59  1  0.704200  0.786900  0.672470  1.0  -0.165
  C  C60  1  0.342100  0.835000  0.976980  1.0  0.1315
  C  C61  1  0.802200  0.328100  0.613250  1.0  0.2036
  C  C62  1  0.928200  0.893400  0.707220  1.0  0.1908
  C  C63  1  0.878400  0.795600  0.741880  1.0  -0.2198
  C  C64  1  0.239900  0.383700  0.858690  1.0  0.1465
  C  C65  1  0.197800  0.828100  0.886750  1.0  0.2057
  C  C66  1  0.763500  0.740700  0.723310  1.0  -0.0043
  C  C67  1  0.760100  0.883700  0.641310  1.0  0.1469
  C  C68  1  0.251100  0.611800  0.011240  1.0  0.1122
  C  C69  1  0.751100  0.888200  0.988760  1.0  0.1126
  C  C70  1  0.739900  0.116300  0.141310  1.0  0.1469
  C  C71  1  0.428200  0.606600  0.292780  1.0  0.1956
  C  C72  1  0.795800  0.213100  0.172470  1.0  -0.17
  C  C73  1  0.248900  0.388200  0.511240  1.0  0.1129
  C  C74  1  0.838600  0.823500  0.954110  1.0  0.1012
  C  C75  1  0.204200  0.713100  0.327530  1.0  -0.1677
  C  C76  1  0.378400  0.704400  0.258120  1.0  -0.2181
  C  C77  1  0.157900  0.165000  0.476980  1.0  0.131
  C  C78  1  0.263500  0.759300  0.276690  1.0  -0.0058
  C  C79  1  0.249200  0.227700  0.442240  1.0  0.1447
  C  C80  1  0.260100  0.616300  0.358690  1.0  0.1467
  C  C81  1  0.751700  0.551700  0.138810  1.0  -0.3942
  C  C82  1  0.302200  0.171900  0.386750  1.0  0.2034
  C  C83  1  0.736500  0.259300  0.223310  1.0  -0.0065
  C  C84  1  0.697800  0.671900  0.113250  1.0  0.2057
  C  C85  1  0.750800  0.727700  0.057760  1.0  0.1453
  C  C86  1  0.443800  0.750500  0.202510  1.0  0.503
  C  C87  1  0.621600  0.204400  0.241880  1.0  -0.221
  C  C88  1  0.571800  0.106600  0.207220  1.0  0.1944
  C  C89  1  0.161400  0.323500  0.545890  1.0  0.0985
  C  C90  1  0.248300  0.051700  0.361190  1.0  -0.3933
  C  C91  1  0.556200  0.250500  0.297490  1.0  0.5021
  C  C92  1  0.842100  0.665000  0.023020  1.0  0.13
  N  N93  1  0.384900  0.788900  0.029080  1.0  -0.4091
  N  N94  1  0.615100  0.288900  0.470920  1.0  -0.4055
  N  N95  1  0.955000  0.318300  0.686490  1.0  -0.3565
  N  N96  1  0.101000  0.769300  0.863980  1.0  -0.2723
  N  N97  1  0.793100  0.159500  0.540290  1.0  -0.3943
  N  N98  1  0.206900  0.659500  0.959710  1.0  -0.3952
  N  N99  1  0.129000  0.436200  0.842460  1.0  -0.3612
  N  N100  1  0.045000  0.818300  0.813510  1.0  -0.3564
  N  N101  1  0.871000  0.936200  0.657540  1.0  -0.3607
  N  N102  1  0.899000  0.269300  0.636020  1.0  -0.2696
  N  N103  1  0.706900  0.840500  0.040290  1.0  -0.3922
  N  N104  1  0.293100  0.340500  0.459710  1.0  -0.3965
  N  N105  1  0.115100  0.211100  0.529080  1.0  -0.4056
  N  N106  1  0.884900  0.711100  0.970920  1.0  -0.4065
  N  N107  1  0.371000  0.563800  0.342460  1.0  -0.3591
  N  N108  1  0.399000  0.230700  0.363980  1.0  -0.2696
  N  N109  1  0.629000  0.063800  0.157540  1.0  -0.3609
  N  N110  1  0.545000  0.681700  0.186490  1.0  -0.3561
  N  N111  1  0.601000  0.730700  0.136020  1.0  -0.2718
  N  N112  1  0.455000  0.181700  0.313510  1.0  -0.357
  O  O113  1  0.102450  0.153100  0.676480  1.0  -0.6094
  O  O114  1  0.897550  0.653100  0.823520  1.0  -0.6072
  O  O115  1  0.397550  0.846900  0.176480  1.0  -0.6078
  O  O116  1  0.602450  0.346900  0.323520  1.0  -0.6073
