# generated using pymatgen
data_Ni2H54C66N12O11
_symmetry_space_group_name_H-M   'P 1'
_cell_length_a   10.04200000
_cell_length_b   15.90290000
_cell_length_c   24.75300000
_cell_angle_alpha   72.88580000
_cell_angle_beta   78.29670000
_cell_angle_gamma   71.59520000
_symmetry_Int_Tables_number   1
_chemical_formula_structural   Ni2H54C66N12O11
_chemical_formula_sum   'Ni4 H108 C132 N24 O22'
_cell_volume   3558.25977359
_cell_formula_units_Z   2
loop_
 _symmetry_equiv_pos_site_id
 _symmetry_equiv_pos_as_xyz
  1  'x, y, z'
loop_
 _atom_site_type_symbol
 _atom_site_label
 _atom_site_symmetry_multiplicity
 _atom_site_fract_x
 _atom_site_fract_y
 _atom_site_fract_z
 _atom_site_occupancy
 _atom_site_charge
  Ni  Ni1  1  0.972810  0.147570  0.728770  1.0  0.9074
  Ni  Ni2  1  0.150850  0.647570  0.228770  1.0  0.9108
  Ni  Ni3  1  0.849150  0.352430  0.771230  1.0  0.9094
  Ni  Ni4  1  0.027190  0.852430  0.271230  1.0  0.9103
  H  H5  1  0.537100  0.305100  0.638300  1.0  0.1011
  H  H6  1  0.992000  0.327900  0.436100  1.0  0.1303
  H  H7  1  0.755100  0.470200  0.546600  1.0  0.0927
  H  H8  1  0.731000  0.279100  0.901900  1.0  0.0988
  H  H9  1  0.500500  0.450200  0.787800  1.0  0.0843
  H  H10  1  0.983800  0.360300  0.057100  1.0  0.1113
  H  H11  1  0.540200  0.286200  0.991600  1.0  0.1082
  H  H12  1  0.945500  0.433500  0.594900  1.0  0.0907
  H  H13  1  0.944600  0.624100  0.037300  1.0  0.1021
  H  H14  1  0.912500  0.617000  0.170400  1.0  0.094
  H  H15  1  0.480500  0.194900  0.861700  1.0  0.1036
  H  H16  1  0.700300  0.162400  0.521800  1.0  0.1087
  H  H17  1  0.519400  0.240500  0.350300  1.0  0.0936
  H  H18  1  0.462800  0.977100  0.373700  1.0  0.119
  H  H19  1  0.699900  0.883000  0.329600  1.0  0.0938
  H  H20  1  0.103600  0.581300  0.861100  1.0  0.1181
  H  H21  1  0.016200  0.639700  0.942900  1.0  0.111
  H  H22  1  0.954100  0.213100  0.013100  1.0  0.0906
  H  H23  1  0.771900  0.029800  0.953400  1.0  0.0921
  H  H24  1  0.324200  0.310200  0.695000  1.0  0.1087
  H  H25  1  0.480600  0.759500  0.649700  1.0  0.0935
  H  H26  1  0.587300  0.820700  0.042100  1.0  0.0946
  H  H27  1  0.813600  0.522900  0.126300  1.0  0.1188
  H  H28  1  0.519500  0.805100  0.138300  1.0  0.1037
  H  H29  1  0.271600  0.447000  0.200200  1.0  0.0555
  H  H30  1  0.422000  0.995500  0.110500  1.0  0.1137
  H  H31  1  0.088000  0.779100  0.401900  1.0  0.0988
  H  H32  1  0.643100  0.021600  0.084000  1.0  0.0833
  H  H33  1  0.675100  0.232900  0.408100  1.0  0.135
  H  H34  1  0.912000  0.220900  0.598100  1.0  0.0978
  H  H35  1  0.615500  0.662400  0.021800  1.0  0.1122
  H  H36  1  0.394000  0.124100  0.537300  1.0  0.1019
  H  H37  1  0.675800  0.689800  0.305000  1.0  0.1089
  H  H38  1  0.499500  0.549800  0.212200  1.0  0.0829
  H  H39  1  0.186400  0.477100  0.873700  1.0  0.1191
  H  H40  1  0.454000  0.081300  0.361100  1.0  0.1218
  H  H41  1  0.918800  0.053000  0.299800  1.0  0.0545
  H  H42  1  0.546000  0.918700  0.638900  1.0  0.1198
  H  H43  1  0.818000  0.213800  0.508400  1.0  0.1086
  H  H44  1  0.366800  0.376000  0.311800  1.0  0.1156
  H  H45  1  0.244000  0.827900  0.936100  1.0  0.1294
  H  H46  1  0.087500  0.383000  0.829600  1.0  0.0935
  H  H47  1  0.644500  0.464300  0.472500  1.0  0.071
  H  H48  1  0.230300  0.963800  0.517200  1.0  0.0905
  H  H49  1  0.578000  0.004500  0.889500  1.0  0.1132
  H  H50  1  0.598800  0.860300  0.557100  1.0  0.1099
  H  H51  1  0.026100  0.933500  0.094900  1.0  0.091
  H  H52  1  0.196800  0.153600  0.998200  1.0  0.1007
  H  H53  1  0.528000  0.504500  0.389500  1.0  0.1129
  H  H54  1  0.651400  0.653600  0.498200  1.0  0.1003
  H  H55  1  0.472000  0.495500  0.610500  1.0  0.1138
  H  H56  1  0.699200  0.408600  0.960600  1.0  0.1053
  H  H57  1  0.401200  0.139700  0.442900  1.0  0.1103
  H  H58  1  0.803200  0.846400  0.001800  1.0  0.1008
  H  H59  1  0.896400  0.418700  0.138900  1.0  0.1214
  H  H60  1  0.537200  0.022900  0.626300  1.0  0.1181
  H  H61  1  0.228100  0.970200  0.046600  1.0  0.0925
  H  H62  1  0.889800  0.740500  0.850300  1.0  0.0941
  H  H63  1  0.462900  0.694900  0.361700  1.0  0.1009
  H  H64  1  0.772400  0.200200  0.771000  1.0  0.3405
  H  H65  1  0.418700  0.964300  0.972500  1.0  0.0706
  H  H66  1  0.300800  0.591400  0.039400  1.0  0.1054
  H  H67  1  0.743600  0.299800  0.729000  1.0  0.3407
  H  H68  1  0.670600  0.810200  0.195000  1.0  0.1094
  H  H69  1  0.973900  0.066500  0.905100  1.0  0.0909
  H  H70  1  0.244900  0.529800  0.453400  1.0  0.0925
  H  H71  1  0.711300  0.536200  0.982800  1.0  0.0916
  H  H72  1  0.180300  0.286900  0.486900  1.0  0.0896
  H  H73  1  0.769700  0.036200  0.482800  1.0  0.0896
  H  H74  1  0.728400  0.553000  0.799800  1.0  0.0539
  H  H75  1  0.945400  0.876000  0.811800  1.0  0.1158
  H  H76  1  0.068400  0.091400  0.539400  1.0  0.1046
  H  H77  1  0.081200  0.947000  0.700200  1.0  0.0548
  H  H78  1  0.054600  0.124000  0.188200  1.0  0.1162
  H  H79  1  0.300100  0.117000  0.670400  1.0  0.0943
  H  H80  1  0.738500  0.049800  0.712200  1.0  0.0849
  H  H81  1  0.182000  0.786200  0.491600  1.0  0.1087
  H  H82  1  0.348600  0.346400  0.501800  1.0  0.1006
  H  H83  1  0.683900  0.732900  0.908100  1.0  0.1354
  H  H84  1  0.356900  0.978400  0.916000  1.0  0.0831
  H  H85  1  0.412700  0.179300  0.957900  1.0  0.095
  H  H86  1  0.549900  0.320700  0.542100  1.0  0.0949
  H  H87  1  0.931600  0.908600  0.460600  1.0  0.1049
  H  H88  1  0.633200  0.624000  0.688200  1.0  0.1159
  H  H89  1  0.748700  0.478400  0.416000  1.0  0.0821
  H  H90  1  0.355500  0.535700  0.527500  1.0  0.0715
  H  H91  1  0.384500  0.337600  0.978200  1.0  0.1151
  H  H92  1  0.054500  0.566500  0.405100  1.0  0.091
  H  H93  1  0.269000  0.720900  0.098100  1.0  0.0985
  H  H94  1  0.251300  0.521600  0.584000  1.0  0.0831
  H  H95  1  0.819700  0.713100  0.513100  1.0  0.0905
  H  H96  1  0.299700  0.837600  0.478200  1.0  0.1081
  H  H97  1  0.256400  0.700200  0.271000  1.0  0.3409
  H  H98  1  0.261500  0.950200  0.287800  1.0  0.0829
  H  H99  1  0.227600  0.799800  0.229000  1.0  0.3413
  H  H100  1  0.581300  0.035700  0.027500  1.0  0.0713
  H  H101  1  0.756000  0.172100  0.063900  1.0  0.1288
  H  H102  1  0.045900  0.786900  0.986900  1.0  0.0899
  H  H103  1  0.110200  0.259500  0.149700  1.0  0.0941
  H  H104  1  0.459800  0.713800  0.008400  1.0  0.1077
  H  H105  1  0.450100  0.679300  0.457900  1.0  0.0947
  H  H106  1  0.316100  0.267100  0.091900  1.0  0.1351
  H  H107  1  0.606000  0.875900  0.462700  1.0  0.1016
  H  H108  1  0.288700  0.463800  0.017200  1.0  0.092
  H  H109  1  0.055400  0.375900  0.962700  1.0  0.1017
  H  H110  1  0.324900  0.767100  0.591900  1.0  0.1345
  H  H111  1  0.008000  0.672100  0.563900  1.0  0.13
  H  H112  1  0.329400  0.189800  0.805000  1.0  0.1093
  C  C113  1  0.344100  0.679100  0.116500  1.0  0.1452
  C  C114  1  0.032600  0.426700  0.977700  1.0  -0.1224
  C  C115  1  0.904800  0.674200  0.501600  1.0  -0.1351
  C  C116  1  0.388900  0.131300  0.095300  1.0  0.25
  C  C117  1  0.799700  0.150600  0.031800  1.0  -0.1109
  C  C118  1  0.543700  0.686800  0.377600  1.0  -0.0893
  C  C119  1  0.490600  0.423200  0.986000  1.0  0.0476
  C  C120  1  0.608100  0.813200  0.122400  1.0  -0.0879
  C  C121  1  0.295100  0.211300  0.107300  1.0  -0.2368
  C  C122  1  0.860600  0.874500  0.835100  1.0  -0.1051
  C  C123  1  0.899800  0.076800  0.514000  1.0  0.0456
  C  C124  1  0.358600  0.048600  0.118400  1.0  -0.2145
  C  C125  1  0.648100  0.823400  0.065000  1.0  -0.0874
  C  C126  1  0.190400  0.934500  0.033500  1.0  -0.1069
  C  C127  1  0.165940  0.174720  0.867000  1.0  -0.0592
  C  C128  1  0.494600  0.989900  0.558500  1.0  0.1026
  C  C129  1  0.456300  0.313200  0.622400  1.0  -0.0856
  C  C130  1  0.919400  0.174200  0.001600  1.0  -0.1337
  C  C131  1  0.792600  0.158300  0.530300  1.0  -0.0614
  C  C132  1  0.990800  0.566500  0.172100  1.0  0.1608
  C  C133  1  0.536500  0.676600  0.435000  1.0  -0.0887
  C  C134  1  0.081810  0.307380  0.674800  1.0  0.6648
  C  C135  1  0.655900  0.320900  0.883500  1.0  0.145
  C  C136  1  0.615500  0.368700  0.404700  1.0  0.2468
  C  C137  1  0.641400  0.951400  0.881600  1.0  -0.2178
  C  C138  1  0.183100  0.474000  0.187600  1.0  0.2713
  C  C139  1  0.069400  0.912100  0.062700  1.0  -0.1276
  C  C140  1  0.270600  0.066500  0.672100  1.0  0.1608
  C  C141  1  0.797600  0.046000  0.817600  1.0  0.6424
  C  C142  1  0.918190  0.692620  0.325200  1.0  0.6654
  C  C143  1  0.618000  0.445600  0.976400  1.0  -0.0729
  C  C144  1  0.765700  0.086400  0.677400  1.0  0.2653
  C  C145  1  0.563000  0.926700  0.477700  1.0  -0.1231
  C  C146  1  0.816900  0.526000  0.812400  1.0  0.2691
  C  C147  1  0.914630  0.641940  0.454800  1.0  0.0141
  C  C148  1  0.874070  0.838360  0.074300  1.0  0.0104
  C  C149  1  0.507700  0.020000  0.378400  1.0  -0.106
  C  C150  1  0.786730  0.661640  0.425700  1.0  0.0105
  C  C151  1  0.382900  0.935100  0.951500  1.0  0.0591
  C  C152  1  0.906100  0.480000  0.121600  1.0  -0.1039
  C  C153  1  0.827000  0.793700  0.858300  1.0  -0.1332
  C  C154  1  0.374600  0.478100  0.009900  1.0  -0.1039
  C  C155  1  0.844700  0.026000  0.312400  1.0  0.2705
  C  C156  1  0.730500  0.435100  0.451500  1.0  0.0588
  C  C157  1  0.479000  0.706300  0.641700  1.0  -0.1307
  C  C158  1  0.955800  0.412100  0.562700  1.0  -0.1241
  C  C159  1  0.386300  0.711300  0.607300  1.0  -0.238
  C  C160  1  0.862600  0.021900  0.490100  1.0  -0.1075
  C  C161  1  0.699000  0.815300  0.156300  1.0  -0.0685
  C  C162  1  0.139400  0.125500  0.164900  1.0  -0.1076
  C  C163  1  0.625400  0.521900  0.990100  1.0  -0.1075
  C  C164  1  0.967400  0.573300  0.022300  1.0  -0.1242
  C  C165  1  0.213270  0.338360  0.574300  1.0  0.0096
  C  C166  1  0.011370  0.858060  0.045200  1.0  0.0139
  C  C167  1  0.095200  0.325800  0.498400  1.0  -0.1357
  C  C168  1  0.809600  0.065500  0.966500  1.0  -0.1163
  C  C169  1  0.431200  0.454900  0.346500  1.0  -0.1522
  C  C170  1  0.518800  0.658300  0.030300  1.0  -0.0597
  C  C171  1  0.391900  0.186800  0.877600  1.0  -0.0844
  C  C172  1  0.474400  0.548600  0.618400  1.0  -0.2179
  C  C173  1  0.147300  0.594400  0.514000  1.0  0.0707
  C  C174  1  0.329400  0.315300  0.656300  1.0  -0.0678
  C  C175  1  0.936010  0.807380  0.174800  1.0  0.6664
  C  C176  1  0.382000  0.554400  0.023600  1.0  -0.0719
  C  C177  1  0.009200  0.433500  0.827900  1.0  0.1596
  C  C178  1  0.960000  0.945600  0.476400  1.0  -0.0723
  C  C179  1  0.988630  0.141940  0.954800  1.0  0.0138
  C  C180  1  0.207660  0.325280  0.633000  1.0  -0.0595
  C  C181  1  0.613700  0.288700  0.392700  1.0  -0.2344
  C  C182  1  0.525600  0.451400  0.381600  1.0  -0.217
  C  C183  1  0.990400  0.417100  0.034300  1.0  -0.1764
  C  C184  1  0.670600  0.684700  0.343700  1.0  -0.0669
  C  C185  1  0.158400  0.565500  0.466500  1.0  -0.1121
  C  C186  1  0.269500  0.564900  0.548500  1.0  0.0559
  C  C187  1  0.509400  0.576800  0.014000  1.0  0.0473
  C  C188  1  0.301000  0.184700  0.843700  1.0  -0.0699
  C  C189  1  0.017900  0.650600  0.531800  1.0  -0.1118
  C  C190  1  0.492300  0.980000  0.621600  1.0  -0.1065
  C  C191  1  0.139700  0.820900  0.383500  1.0  0.145
  C  C192  1  0.342900  0.337400  0.541000  1.0  -0.1125
  C  C193  1  0.044200  0.587900  0.437300  1.0  -0.1229
  C  C194  1  0.767400  0.954900  0.846500  1.0  -0.1505
  C  C195  1  0.063990  0.192620  0.825200  1.0  0.6668
  C  C196  1  0.255700  0.905600  0.986000  1.0  0.0707
  C  C197  1  0.505400  0.010100  0.441500  1.0  0.1029
  C  C198  1  0.429800  0.374500  0.335100  1.0  -0.1027
  C  C199  1  0.617100  0.064900  0.048500  1.0  0.0574
  C  C200  1  0.207400  0.841700  0.469700  1.0  -0.0611
  C  C201  1  0.521000  0.293700  0.358300  1.0  -0.1322
  C  C202  1  0.834060  0.825280  0.133000  1.0  -0.0595
  C  C203  1  0.841600  0.434500  0.533500  1.0  -0.113
  C  C204  1  0.792340  0.674720  0.367000  1.0  -0.0586
  C  C205  1  0.155300  0.974000  0.687600  1.0  0.2713
  C  C206  1  0.957000  0.489900  0.058500  1.0  0.1014
  C  C207  1  0.704900  0.788700  0.892700  1.0  -0.2353
  C  C208  1  0.657100  0.662600  0.459000  1.0  -0.1165
  C  C209  1  0.470500  0.586400  0.177400  1.0  0.2655
  C  C210  1  0.137400  0.978100  0.509900  1.0  -0.1068
  C  C211  1  0.437000  0.073300  0.522300  1.0  -0.1267
  C  C212  1  0.611100  0.868700  0.904700  1.0  0.2497
  C  C213  1  0.043000  0.510100  0.941500  1.0  0.1007
  C  C214  1  0.234300  0.913600  0.322600  1.0  0.2665
  C  C215  1  0.860300  0.179100  0.616500  1.0  0.1453
  C  C216  1  0.200300  0.849400  0.968200  1.0  -0.1088
  C  C217  1  0.338800  0.546000  0.317600  1.0  0.641
  C  C218  1  0.529500  0.413600  0.822600  1.0  0.2665
  C  C219  1  0.558200  0.917100  0.534300  1.0  -0.1755
  C  C220  1  0.463500  0.323400  0.565000  1.0  -0.0866
  C  C221  1  0.982100  0.349400  0.468200  1.0  -0.1124
  C  C222  1  0.729400  0.933500  0.327900  1.0  0.1592
  C  C223  1  0.441800  0.082900  0.465700  1.0  -0.1776
  C  C224  1  0.570200  0.625500  0.664900  1.0  -0.1052
  C  C225  1  0.568800  0.545100  0.653500  1.0  -0.1523
  C  C226  1  0.202400  0.954000  0.182400  1.0  0.6417
  C  C227  1  0.778700  0.837400  0.041000  1.0  -0.1167
  C  C228  1  0.661200  0.454000  0.682400  1.0  0.6404
  C  C229  1  0.100200  0.923200  0.486000  1.0  0.0471
  C  C230  1  0.384500  0.631300  0.595300  1.0  0.2483
  C  C231  1  0.080600  0.825800  0.998400  1.0  -0.1328
  C  C232  1  0.125930  0.161640  0.925700  1.0  0.0094
  C  C233  1  0.351900  0.176600  0.935000  1.0  -0.0863
  C  C234  1  0.085370  0.358060  0.545200  1.0  0.0137
  C  C235  1  0.009600  0.582900  0.965700  1.0  -0.179
  C  C236  1  0.093900  0.520000  0.878400  1.0  -0.1059
  C  C237  1  0.930600  0.087900  0.937300  1.0  -0.1252
  C  C238  1  0.173000  0.206300  0.141700  1.0  -0.1335
  C  C239  1  0.232600  0.045100  0.153500  1.0  -0.151
  C  C240  1  0.040000  0.054400  0.523600  1.0  -0.0721
  C  C241  1  0.221300  0.162600  0.959000  1.0  -0.1188
  C  C242  1  0.852700  0.405600  0.486000  1.0  0.0718
  C  C243  1  0.481200  0.341700  0.969700  1.0  -0.0596
  C  C244  1  0.744300  0.094400  0.014000  1.0  0.0691
  N  N245  1  0.897870  0.445530  0.803730  1.0  -0.3962
  N  N246  1  0.786580  0.150040  0.591600  1.0  0.1691
  N  N247  1  0.652890  0.002520  0.349100  1.0  0.178
  N  N248  1  0.147130  0.054470  0.696270  1.0  -0.3967
  N  N249  1  0.347110  0.997480  0.650900  1.0  0.1807
  N  N250  1  0.852870  0.945530  0.303730  1.0  -0.3983
  N  N251  1  0.149340  0.859790  0.327930  1.0  -0.3674
  N  N252  1  0.337060  0.640210  0.172070  1.0  -0.3666
  N  N253  1  0.868680  0.564040  0.839600  1.0  -0.3623
  N  N254  1  0.274810  0.910380  0.370200  1.0  -0.3829
  N  N255  1  0.102130  0.554470  0.196270  1.0  -0.3967
  N  N256  1  0.004510  0.497480  0.150900  1.0  0.1798
  N  N257  1  0.471780  0.650040  0.091600  1.0  0.1689
  N  N258  1  0.850660  0.140210  0.672070  1.0  -0.3668
  N  N259  1  0.995490  0.502520  0.849100  1.0  0.1782
  N  N260  1  0.213420  0.849960  0.408400  1.0  0.1689
  N  N261  1  0.727680  0.064040  0.339600  1.0  -0.3636
  N  N262  1  0.725190  0.089620  0.629800  1.0  -0.3826
  N  N263  1  0.528220  0.349960  0.908400  1.0  0.169
  N  N264  1  0.131320  0.435960  0.160400  1.0  -0.3598
  N  N265  1  0.444610  0.410380  0.870200  1.0  -0.3806
  N  N266  1  0.272320  0.935960  0.660400  1.0  -0.3615
  N  N267  1  0.555390  0.589620  0.129800  1.0  -0.381
  N  N268  1  0.662940  0.359790  0.827930  1.0  -0.3664
  O  O269  1  0.902070  0.849680  0.213180  1.0  -0.6055
  O  O270  1  0.964930  0.650320  0.286820  1.0  -0.6058
  O  O271  1  0.036820  0.246840  0.667520  1.0  -0.6099
  O  O272  1  0.951180  0.253160  0.832480  1.0  -0.6096
  O  O273  1  0.204900  0.750000  0.250000  1.0  -0.7075
  O  O274  1  0.915340  0.042280  0.787240  1.0  -0.5765
  O  O275  1  0.795100  0.250000  0.750000  1.0  -0.7046
  O  O276  1  0.709480  0.117040  0.823800  1.0  -0.5914
  O  O277  1  0.650320  0.382960  0.676200  1.0  -0.5886
  O  O278  1  0.488450  0.855880  0.940420  1.0  -0.2879
  O  O279  1  0.048820  0.746840  0.167520  1.0  -0.6102
  O  O280  1  0.284750  0.644120  0.559580  1.0  -0.2874
  O  O281  1  0.097930  0.150320  0.786820  1.0  -0.6043
  O  O282  1  0.963180  0.753160  0.332480  1.0  -0.6102
  O  O283  1  0.035070  0.349680  0.713180  1.0  -0.6055
  O  O284  1  0.715250  0.355880  0.440420  1.0  -0.2871
  O  O285  1  0.290520  0.882960  0.176200  1.0  -0.5906
  O  O286  1  0.349680  0.617040  0.323800  1.0  -0.589
  O  O287  1  0.255140  0.542280  0.287240  1.0  -0.5772
  O  O288  1  0.744860  0.457720  0.712760  1.0  -0.5758
  O  O289  1  0.511550  0.144120  0.059580  1.0  -0.2854
  O  O290  1  0.084660  0.957720  0.212760  1.0  -0.5762
