# generated using pymatgen
data_CdH5C11O4
_symmetry_space_group_name_H-M   'P 1'
_cell_length_a   14.41600000
_cell_length_b   14.72490000
_cell_length_c   14.72490000
_cell_angle_alpha   76.13580000
_cell_angle_beta   60.69150000
_cell_angle_gamma   60.69160000
_symmetry_Int_Tables_number   1
_chemical_formula_structural   CdH5C11O4
_chemical_formula_sum   'Cd8 H40 C88 O32'
_cell_volume   2376.72837829
_cell_formula_units_Z   8
loop_
 _symmetry_equiv_pos_site_id
 _symmetry_equiv_pos_as_xyz
  1  'x, y, z'
loop_
 _atom_site_type_symbol
 _atom_site_label
 _atom_site_symmetry_multiplicity
 _atom_site_fract_x
 _atom_site_fract_y
 _atom_site_fract_z
 _atom_site_occupancy
 _atom_site_charge
  Cd  Cd1  1  0.967480  0.780290  0.189390  1.0  1.1011
  Cd  Cd2  1  0.562840  0.280290  0.689390  1.0  1.1029
  Cd  Cd3  1  0.747770  0.689390  0.219710  1.0  1.1019
  Cd  Cd4  1  0.843130  0.189390  0.719710  1.0  1.0998
  Cd  Cd5  1  0.156870  0.810610  0.280290  1.0  1.1011
  Cd  Cd6  1  0.032520  0.219710  0.810610  1.0  1.1029
  Cd  Cd7  1  0.252230  0.310610  0.780290  1.0  1.1002
  Cd  Cd8  1  0.437160  0.719710  0.310610  1.0  1.1005
  H  H9  1  0.345400  0.920900  0.412300  1.0  0.1341
  H  H10  1  0.729900  0.193300  0.151500  1.0  0.1291
  H  H11  1  0.500000  0.367900  0.227300  1.0  0.1165
  H  H12  1  0.881400  0.848500  0.693300  1.0  0.1299
  H  H13  1  0.461900  0.858500  0.075100  1.0  0.1165
  H  H14  1  0.104500  0.358500  0.575100  1.0  0.1158
  H  H15  1  0.296900  0.438900  0.281500  1.0  0.1197
  H  H16  1  0.500000  0.632100  0.772700  1.0  0.1171
  H  H17  1  0.320400  0.575100  0.141500  1.0  0.1159
  H  H18  1  0.425300  0.693300  0.651500  1.0  0.1293
  H  H19  1  0.270100  0.806700  0.848500  1.0  0.1292
  H  H20  1  0.118600  0.151500  0.306700  1.0  0.1301
  H  H21  1  0.482700  0.938900  0.781500  1.0  0.1199
  H  H22  1  0.654600  0.079100  0.587700  1.0  0.135
  H  H23  1  0.703100  0.561100  0.718500  1.0  0.1195
  H  H24  1  0.595200  0.132100  0.272700  1.0  0.1179
  H  H25  1  0.272700  0.227300  0.132100  1.0  0.1204
  H  H26  1  0.735800  0.781500  0.561100  1.0  0.1184
  H  H27  1  0.727300  0.772700  0.867900  1.0  0.1196
  H  H28  1  0.264200  0.218500  0.438900  1.0  0.1182
  H  H29  1  0.679600  0.424900  0.858500  1.0  0.1155
  H  H30  1  0.578400  0.718500  0.938900  1.0  0.1187
  H  H31  1  0.895500  0.641500  0.424900  1.0  0.1164
  H  H32  1  0.266300  0.912300  0.079100  1.0  0.1333
  H  H33  1  0.404800  0.867900  0.727300  1.0  0.1171
  H  H34  1  0.421600  0.281500  0.061100  1.0  0.1184
  H  H35  1  0.537000  0.924900  0.358500  1.0  0.1161
  H  H36  1  0.574700  0.306700  0.348500  1.0  0.1292
  H  H37  1  0.538100  0.141500  0.924900  1.0  0.1163
  H  H38  1  0.242300  0.412300  0.579100  1.0  0.134
  H  H39  1  0.178600  0.579100  0.087700  1.0  0.1359
  H  H40  1  0.132100  0.272700  0.367900  1.0  0.1201
  H  H41  1  0.517300  0.061100  0.218500  1.0  0.1191
  H  H42  1  0.821400  0.420900  0.912300  1.0  0.1357
  H  H43  1  0.867900  0.727300  0.632100  1.0  0.1206
  H  H44  1  0.923200  0.651500  0.806700  1.0  0.1287
  H  H45  1  0.463000  0.075100  0.641500  1.0  0.1159
  H  H46  1  0.076800  0.348500  0.193300  1.0  0.1297
  H  H47  1  0.757700  0.587700  0.420900  1.0  0.1345
  H  H48  1  0.733700  0.087700  0.920900  1.0  0.134
  C  C49  1  0.393200  0.544300  0.084500  1.0  -0.1278
  C  C50  1  0.682900  0.934400  0.568200  1.0  0.057
  C  C51  1  0.822700  0.798100  0.625900  1.0  -0.0863
  C  C52  1  0.863600  0.629600  0.839400  1.0  -0.0337
  C  C53  1  0.535800  0.679600  0.445000  1.0  0.7063
  C  C54  1  0.620800  0.125900  0.201900  1.0  -0.0855
  C  C55  1  0.107500  0.476200  0.146800  1.0  -0.1217
  C  C56  1  0.405100  0.138300  0.857700  1.0  0.7037
  C  C57  1  0.594900  0.861700  0.142300  1.0  0.7031
  C  C58  1  0.167400  0.129600  0.339400  1.0  -0.0321
  C  C59  1  0.832600  0.870400  0.660600  1.0  -0.0314
  C  C60  1  0.506800  0.660600  0.629600  1.0  -0.0279
  C  C61  1  0.980800  0.555000  0.179600  1.0  0.7027
  C  C62  1  0.657100  0.669600  0.918400  1.0  -0.0784
  C  C63  1  0.617300  0.068200  0.065600  1.0  0.0555
  C  C64  1  0.937500  0.584500  0.455700  1.0  -0.1283
  C  C65  1  0.098900  0.638300  0.357700  1.0  0.7025
  C  C66  1  0.407100  0.029600  0.473000  1.0  0.0105
  C  C67  1  0.704000  0.098900  0.991300  1.0  -0.0487
  C  C68  1  0.416300  0.353200  0.476200  1.0  -0.1283
  C  C69  1  0.745700  0.146800  0.023800  1.0  -0.1263
  C  C70  1  0.251100  0.431800  0.434400  1.0  0.0571
  C  C71  1  0.055100  0.560100  0.425900  1.0  -0.0659
  C  C72  1  0.543400  0.357700  0.861700  1.0  0.7073
  C  C73  1  0.481000  0.574100  0.060100  1.0  -0.0638
  C  C74  1  0.464200  0.320400  0.555000  1.0  0.7077
  C  C75  1  0.119900  0.473000  0.470400  1.0  0.0131
  C  C76  1  0.748900  0.568200  0.565600  1.0  0.0543
  C  C77  1  0.215400  0.945000  0.320400  1.0  0.7043
  C  C78  1  0.262800  0.142300  0.638300  1.0  0.7016
  C  C79  1  0.892500  0.523800  0.853200  1.0  -0.1251
  C  C80  1  0.563300  0.027000  0.029600  1.0  0.0115
  C  C81  1  0.901100  0.361700  0.642300  1.0  0.7009
  C  C82  1  0.615200  0.925900  0.439900  1.0  -0.0649
  C  C83  1  0.606800  0.455700  0.915500  1.0  -0.1273
  C  C84  1  0.745100  0.830400  0.581600  1.0  -0.0803
  C  C85  1  0.575500  0.081600  0.169600  1.0  -0.0818
  C  C86  1  0.769500  0.976200  0.646800  1.0  -0.1271
  C  C87  1  0.384800  0.074100  0.560100  1.0  -0.065
  C  C88  1  0.382700  0.931800  0.934400  1.0  0.0566
  C  C89  1  0.551400  0.625900  0.701900  1.0  -0.0889
  C  C90  1  0.136400  0.370400  0.160600  1.0  -0.0319
  C  C91  1  0.254900  0.169600  0.418400  1.0  -0.0795
  C  C92  1  0.522000  0.955700  0.415500  1.0  -0.1255
  C  C93  1  0.493200  0.339400  0.370400  1.0  -0.0346
  C  C94  1  0.705800  0.598900  0.491300  1.0  -0.0509
  C  C95  1  0.784600  0.055000  0.679600  1.0  0.7044
  C  C96  1  0.342900  0.330400  0.081600  1.0  -0.0792
  C  C97  1  0.062500  0.415500  0.544300  1.0  -0.1269
  C  C98  1  0.522300  0.084500  0.955700  1.0  -0.1273
  C  C99  1  0.297000  0.839400  0.870400  1.0  -0.0314
  C  C100  1  0.379200  0.874100  0.798100  1.0  -0.0856
  C  C101  1  0.409700  0.470400  0.027000  1.0  0.0161
  C  C102  1  0.695300  0.008700  0.598900  1.0  -0.0473
  C  C103  1  0.583700  0.646800  0.523800  1.0  -0.1259
  C  C104  1  0.197100  0.508700  0.098900  1.0  -0.0469
  C  C105  1  0.314500  0.434400  0.068200  1.0  0.0557
  C  C106  1  0.424500  0.918400  0.830400  1.0  -0.0836
  C  C107  1  0.458900  0.060100  0.925900  1.0  -0.0634
  C  C108  1  0.230500  0.023800  0.353200  1.0  -0.127
  C  C109  1  0.590300  0.529600  0.973000  1.0  0.0163
  C  C110  1  0.673300  0.581600  0.669600  1.0  -0.0865
  C  C111  1  0.019200  0.445000  0.820400  1.0  0.7046
  C  C112  1  0.254300  0.853200  0.976200  1.0  -0.1252
  C  C113  1  0.880100  0.527000  0.529600  1.0  0.0112
  C  C114  1  0.448600  0.374100  0.298100  1.0  -0.0891
  C  C115  1  0.456600  0.642300  0.138300  1.0  0.7095
  C  C116  1  0.703000  0.160600  0.129600  1.0  -0.0377
  C  C117  1  0.177300  0.201900  0.374100  1.0  -0.0859
  C  C118  1  0.317100  0.065600  0.431800  1.0  0.0585
  C  C119  1  0.839600  0.179600  0.945000  1.0  0.7036
  C  C120  1  0.802900  0.491300  0.901100  1.0  -0.0478
  C  C121  1  0.944900  0.439900  0.574100  1.0  -0.0662
  C  C122  1  0.160400  0.820400  0.055000  1.0  0.7027
  C  C123  1  0.478000  0.044300  0.584500  1.0  -0.125
  C  C124  1  0.436700  0.973000  0.970400  1.0  0.0117
  C  C125  1  0.326700  0.418400  0.330400  1.0  -0.0793
  C  C126  1  0.541100  0.939900  0.074100  1.0  -0.0632
  C  C127  1  0.296000  0.901100  0.008700  1.0  -0.0459
  C  C128  1  0.294200  0.401100  0.508700  1.0  -0.05
  C  C129  1  0.746700  0.701900  0.874100  1.0  -0.0877
  C  C130  1  0.253300  0.298100  0.125900  1.0  -0.0902
  C  C131  1  0.592900  0.970400  0.527000  1.0  0.012
  C  C132  1  0.519000  0.425900  0.939900  1.0  -0.0639
  C  C133  1  0.685500  0.565600  0.931800  1.0  0.0565
  C  C134  1  0.477700  0.915500  0.044300  1.0  -0.1269
  C  C135  1  0.304700  0.991300  0.401100  1.0  -0.0449
  C  C136  1  0.737200  0.857700  0.361700  1.0  0.7035
  O  O137  1  0.842800  0.336020  0.621580  1.0  -0.587
  O  O138  1  0.355120  0.715580  0.179180  1.0  -0.7152
  O  O139  1  0.833290  0.029870  0.738150  1.0  -0.603
  O  O140  1  0.300400  0.163980  0.878420  1.0  -0.5857
  O  O141  1  0.101190  0.856580  0.147840  1.0  -0.7283
  O  O142  1  0.394390  0.356580  0.647840  1.0  -0.7296
  O  O143  1  0.042230  0.352160  0.856580  1.0  -0.7231
  O  O144  1  0.929300  0.320820  0.715580  1.0  -0.714
  O  O145  1  0.157200  0.663980  0.378420  1.0  -0.5867
  O  O146  1  0.101310  0.470130  0.761850  1.0  -0.6076
  O  O147  1  0.644880  0.284420  0.820820  1.0  -0.715
  O  O148  1  0.250120  0.215580  0.679180  1.0  -0.7172
  O  O149  1  0.750970  0.147840  0.643420  1.0  -0.7228
  O  O150  1  0.136840  0.761850  0.029870  1.0  -0.6065
  O  O151  1  0.070700  0.679180  0.284420  1.0  -0.7122
  O  O152  1  0.898810  0.143420  0.852160  1.0  -0.7269
  O  O153  1  0.465700  0.179180  0.784420  1.0  -0.7117
  O  O154  1  0.178820  0.121580  0.663980  1.0  -0.5861
  O  O155  1  0.957770  0.647840  0.143420  1.0  -0.7232
  O  O156  1  0.535620  0.621580  0.163980  1.0  -0.5876
  O  O157  1  0.166710  0.970130  0.261850  1.0  -0.6056
  O  O158  1  0.863160  0.238150  0.970130  1.0  -0.6076
  O  O159  1  0.464380  0.378420  0.836020  1.0  -0.5868
  O  O160  1  0.749880  0.784420  0.320820  1.0  -0.717
  O  O161  1  0.534300  0.820820  0.215580  1.0  -0.7132
  O  O162  1  0.821180  0.878420  0.336020  1.0  -0.5839
  O  O163  1  0.249030  0.852160  0.356580  1.0  -0.7229
  O  O164  1  0.605610  0.643420  0.352160  1.0  -0.7294
  O  O165  1  0.428560  0.738150  0.470130  1.0  -0.603
  O  O166  1  0.571440  0.261850  0.529870  1.0  -0.5983
  O  O167  1  0.898690  0.529870  0.238150  1.0  -0.6031
  O  O168  1  0.699600  0.836020  0.121580  1.0  -0.5846
