# generated using pymatgen
data_Cd3H12(C11O5)2
_symmetry_space_group_name_H-M   'P 1'
_cell_length_a   6.68200000
_cell_length_b   11.04830000
_cell_length_c   17.63800000
_cell_angle_alpha   107.83300000
_cell_angle_beta   90.00000000
_cell_angle_gamma   90.00000000
_symmetry_Int_Tables_number   1
_chemical_formula_structural   Cd3H12(C11O5)2
_chemical_formula_sum   'Cd6 H24 C44 O20'
_cell_volume   1239.55799526
_cell_formula_units_Z   2
loop_
 _symmetry_equiv_pos_site_id
 _symmetry_equiv_pos_as_xyz
  1  'x, y, z'
loop_
 _atom_site_type_symbol
 _atom_site_label
 _atom_site_symmetry_multiplicity
 _atom_site_fract_x
 _atom_site_fract_y
 _atom_site_fract_z
 _atom_site_occupancy
 _atom_site_charge
  Cd  Cd1  1  0.996470  0.534680  0.409730  1.0  1.0996
  Cd  Cd2  1  0.503530  0.534680  0.909730  1.0  1.0997
  Cd  Cd3  1  0.496470  0.465320  0.090270  1.0  1.0992
  Cd  Cd4  1  0.500000  0.500000  0.500000  1.0  1.1247
  Cd  Cd5  1  0.000000  0.500000  0.000000  1.0  1.1269
  Cd  Cd6  1  0.003530  0.465320  0.590270  1.0  1.0994
  H  H7  1  0.693000  0.358000  0.952000  1.0  0.4872
  H  H8  1  0.655100  0.169800  0.294800  1.0  0.0973
  H  H9  1  0.616100  0.149800  0.443300  1.0  0.1077
  H  H10  1  0.807000  0.358000  0.452000  1.0  0.4871
  H  H11  1  0.266200  0.997300  0.816600  1.0  0.0935
  H  H12  1  0.009800  0.061600  0.422200  1.0  0.1029
  H  H13  1  0.490200  0.061600  0.922200  1.0  0.1029
  H  H14  1  0.990200  0.938400  0.577800  1.0  0.1028
  H  H15  1  0.883900  0.149800  0.943300  1.0  0.1077
  H  H16  1  0.383900  0.850200  0.556700  1.0  0.108
  H  H17  1  0.233800  0.997300  0.316600  1.0  0.0936
  H  H18  1  0.509800  0.938400  0.077800  1.0  0.1031
  H  H19  1  0.871900  0.789300  0.803200  1.0  0.1142
  H  H20  1  0.344900  0.830200  0.705200  1.0  0.0972
  H  H21  1  0.628100  0.789300  0.303200  1.0  0.1145
  H  H22  1  0.116100  0.850200  0.056700  1.0  0.108
  H  H23  1  0.128100  0.210700  0.196800  1.0  0.1132
  H  H24  1  0.733800  0.002700  0.183400  1.0  0.0941
  H  H25  1  0.766200  0.002700  0.683400  1.0  0.0941
  H  H26  1  0.844900  0.169800  0.794800  1.0  0.0971
  H  H27  1  0.307000  0.642000  0.048000  1.0  0.4872
  H  H28  1  0.193000  0.642000  0.548000  1.0  0.4872
  H  H29  1  0.371900  0.210700  0.696800  1.0  0.1133
  H  H30  1  0.155100  0.830200  0.205200  1.0  0.0974
  C  C31  1  0.382300  0.207500  0.257300  1.0  -0.1701
  C  C32  1  0.478100  0.006200  0.122400  1.0  -0.1002
  C  C33  1  0.667600  0.744800  0.455800  1.0  0.7027
  C  C34  1  0.435100  0.855500  0.747200  1.0  -0.0139
  C  C35  1  0.297000  0.070000  0.126100  1.0  0.015
  C  C36  1  0.418900  0.122500  0.523700  1.0  -0.0913
  C  C37  1  0.674500  0.684700  0.669900  1.0  0.7202
  C  C38  1  0.978100  0.993800  0.377600  1.0  -0.0997
  C  C39  1  0.112100  0.955400  0.314000  1.0  -0.0996
  C  C40  1  0.117700  0.207500  0.757300  1.0  -0.1703
  C  C41  1  0.081100  0.122500  0.023700  1.0  -0.0918
  C  C42  1  0.174500  0.315300  0.830100  1.0  0.7225
  C  C43  1  0.703000  0.930000  0.873900  1.0  0.0145
  C  C44  1  0.332400  0.255200  0.544200  1.0  0.7006
  C  C45  1  0.203000  0.070000  0.626100  1.0  0.0143
  C  C46  1  0.249700  0.169200  0.693900  1.0  -0.0489
  C  C47  1  0.887900  0.044600  0.686000  1.0  -0.0983
  C  C48  1  0.069100  0.910900  0.034300  1.0  -0.0649
  C  C49  1  0.935100  0.144500  0.752800  1.0  -0.0144
  C  C50  1  0.612100  0.044600  0.186000  1.0  -0.099
  C  C51  1  0.325500  0.315300  0.330100  1.0  0.722
  C  C52  1  0.521900  0.993800  0.877600  1.0  -0.1004
  C  C53  1  0.825500  0.684700  0.169900  1.0  0.7202
  C  C54  1  0.021900  0.006200  0.622400  1.0  -0.1006
  C  C55  1  0.832400  0.744800  0.955800  1.0  0.7013
  C  C56  1  0.930900  0.089100  0.965700  1.0  -0.0683
  C  C57  1  0.167600  0.255200  0.044200  1.0  0.7018
  C  C58  1  0.750300  0.830800  0.306100  1.0  -0.0473
  C  C59  1  0.564900  0.144500  0.252800  1.0  -0.0145
  C  C60  1  0.581100  0.877500  0.476300  1.0  -0.0927
  C  C61  1  0.430900  0.910900  0.534300  1.0  -0.0668
  C  C62  1  0.250300  0.169200  0.193900  1.0  -0.0484
  C  C63  1  0.569100  0.089100  0.465700  1.0  -0.0671
  C  C64  1  0.918900  0.877500  0.976300  1.0  -0.0924
  C  C65  1  0.882300  0.792500  0.242700  1.0  -0.1726
  C  C66  1  0.797000  0.930000  0.373900  1.0  0.0148
  C  C67  1  0.649600  0.966900  0.440700  1.0  0.0174
  C  C68  1  0.350400  0.033100  0.559300  1.0  0.018
  C  C69  1  0.850400  0.966900  0.940700  1.0  0.0178
  C  C70  1  0.387900  0.955400  0.814000  1.0  -0.0968
  C  C71  1  0.749700  0.830800  0.806100  1.0  -0.0475
  C  C72  1  0.617700  0.792500  0.742700  1.0  -0.173
  C  C73  1  0.064900  0.855500  0.247200  1.0  -0.0147
  C  C74  1  0.149600  0.033100  0.059300  1.0  0.0177
  O  O75  1  0.814100  0.431600  0.478230  1.0  -0.9513
  O  O76  1  0.444800  0.341500  0.387200  1.0  -0.6313
  O  O77  1  0.148700  0.267300  0.538560  1.0  -0.6269
  O  O78  1  0.555200  0.658500  0.612800  1.0  -0.6321
  O  O79  1  0.055200  0.341500  0.887200  1.0  -0.6313
  O  O80  1  0.456300  0.345100  0.565300  1.0  -0.6646
  O  O81  1  0.351300  0.267300  0.038560  1.0  -0.6264
  O  O82  1  0.163700  0.367300  0.329700  1.0  -0.6522
  O  O83  1  0.185900  0.568400  0.521770  1.0  -0.9549
  O  O84  1  0.956300  0.654900  0.934700  1.0  -0.6638
  O  O85  1  0.043700  0.345100  0.065300  1.0  -0.6648
  O  O86  1  0.336300  0.367300  0.829700  1.0  -0.6531
  O  O87  1  0.944800  0.658500  0.112800  1.0  -0.6321
  O  O88  1  0.663700  0.632700  0.170300  1.0  -0.6528
  O  O89  1  0.685900  0.431600  0.978230  1.0  -0.9523
  O  O90  1  0.851300  0.732700  0.461440  1.0  -0.6268
  O  O91  1  0.543700  0.654900  0.434700  1.0  -0.6647
  O  O92  1  0.314100  0.568400  0.021770  1.0  -0.9544
  O  O93  1  0.836300  0.632700  0.670300  1.0  -0.6535
  O  O94  1  0.648700  0.732700  0.961440  1.0  -0.6264
