# generated using pymatgen
data_AlPCO3F
_symmetry_space_group_name_H-M   'P 1'
_cell_length_a   4.97550000
_cell_length_b   11.98970000
_cell_length_c   8.18050000
_cell_angle_alpha   90.00000000
_cell_angle_beta   92.41600000
_cell_angle_gamma   90.00000000
_symmetry_Int_Tables_number   1
_chemical_formula_structural   AlPCO3F
_chemical_formula_sum   'Al4 P4 C4 O12 F4'
_cell_volume   487.57191199
_cell_formula_units_Z   4
loop_
 _symmetry_equiv_pos_site_id
 _symmetry_equiv_pos_as_xyz
  1  'x, y, z'
loop_
 _atom_site_type_symbol
 _atom_site_label
 _atom_site_symmetry_multiplicity
 _atom_site_fract_x
 _atom_site_fract_y
 _atom_site_fract_z
 _atom_site_occupancy
 _atom_site_charge
  Al  Al1  1  0.753200  0.750000  0.856200  1.0  1.9568
  Al  Al2  1  0.246800  0.250000  0.143800  1.0  1.9565
  Al  Al3  1  0.500000  0.500000  0.000000  1.0  1.8633
  Al  Al4  1  0.500000  0.000000  0.000000  1.0  1.8633
  P  P5  1  0.008800  0.485000  0.233000  1.0  1.5034
  P  P6  1  0.991200  0.985000  0.767000  1.0  1.5024
  P  P7  1  0.991200  0.515000  0.767000  1.0  1.5018
  P  P8  1  0.008800  0.015000  0.233000  1.0  1.5034
  C  C9  1  0.089000  0.533200  0.442800  1.0  -0.1484
  C  C10  1  0.911000  0.033200  0.557200  1.0  -0.1477
  C  C11  1  0.911000  0.466800  0.557200  1.0  -0.1485
  C  C12  1  0.089000  0.966800  0.442800  1.0  -0.1493
  O  O13  1  0.720600  0.520600  0.191300  1.0  -0.8378
  O  O14  1  0.041000  0.356600  0.233700  1.0  -0.9286
  O  O15  1  0.206500  0.545100  0.122200  1.0  -0.906
  O  O16  1  0.279400  0.020600  0.808700  1.0  -0.838
  O  O17  1  0.959000  0.856600  0.766300  1.0  -0.9279
  O  O18  1  0.793500  0.045100  0.877800  1.0  -0.9059
  O  O19  1  0.279400  0.479400  0.808700  1.0  -0.8402
  O  O20  1  0.959000  0.643400  0.766300  1.0  -0.9302
  O  O21  1  0.793500  0.454900  0.877800  1.0  -0.9065
  O  O22  1  0.720600  0.979400  0.191300  1.0  -0.8385
  O  O23  1  0.041000  0.143400  0.233700  1.0  -0.9307
  O  O24  1  0.206500  0.954900  0.122200  1.0  -0.9054
  F  F25  1  0.546000  0.851600  0.951300  1.0  -0.5892
  F  F26  1  0.454000  0.351600  0.048700  1.0  -0.5893
  F  F27  1  0.454000  0.148400  0.048700  1.0  -0.5916
  F  F28  1  0.546000  0.648400  0.951300  1.0  -0.5914
