# generated using pymatgen
data_Zn2P2H9C3NO8
_symmetry_space_group_name_H-M   'P 1'
_cell_length_a   5.20160000
_cell_length_b   13.60240000
_cell_length_c   17.23940000
_cell_angle_alpha   97.86900000
_cell_angle_beta   93.30200000
_cell_angle_gamma   91.82800000
_symmetry_Int_Tables_number   1
_chemical_formula_structural   Zn2P2H9C3NO8
_chemical_formula_sum   'Zn8 P8 H36 C12 N4 O32'
_cell_volume   1205.29254887
_cell_formula_units_Z   4
loop_
 _symmetry_equiv_pos_site_id
 _symmetry_equiv_pos_as_xyz
  1  'x, y, z'
loop_
 _atom_site_type_symbol
 _atom_site_label
 _atom_site_symmetry_multiplicity
 _atom_site_fract_x
 _atom_site_fract_y
 _atom_site_fract_z
 _atom_site_occupancy
 _atom_site_charge
  Zn  Zn1  1  0.163600  0.783260  0.653290  1.0  1.0698
  Zn  Zn2  1  0.795400  0.946540  0.573090  1.0  1.1118
  Zn  Zn3  1  0.275900  0.625610  0.499540  1.0  1.0291
  Zn  Zn4  1  0.780000  0.996500  0.903520  1.0  1.014
  Zn  Zn5  1  0.836400  0.216740  0.346710  1.0  1.0699
  Zn  Zn6  1  0.204600  0.053460  0.426910  1.0  1.1091
  Zn  Zn7  1  0.724100  0.374390  0.500460  1.0  1.0291
  Zn  Zn8  1  0.220000  0.003500  0.096480  1.0  1.0175
  P  P9  1  0.690900  0.870070  0.733090  1.0  1.8348
  P  P10  1  0.249000  0.852790  0.489660  1.0  1.7861
  P  P11  1  0.812800  0.587690  0.593110  1.0  1.7718
  P  P12  1  0.723300  0.884300  0.051050  1.0  1.7265
  P  P13  1  0.309100  0.129930  0.266910  1.0  1.8348
  P  P14  1  0.751000  0.147210  0.510340  1.0  1.7863
  P  P15  1  0.187200  0.412310  0.406890  1.0  1.7711
  P  P16  1  0.276700  0.115700  0.948950  1.0  1.7249
  H  H17  1  0.609500  0.152400  0.115500  1.0  0.1327
  H  H18  1  0.874100  0.190900  0.168000  1.0  0.143
  H  H19  1  0.870500  0.176900  0.072300  1.0  0.1226
  H  H20  1  0.641000  0.762400  0.411900  1.0  0.1253
  H  H21  1  0.922000  0.749800  0.374600  1.0  0.1225
  H  H22  1  0.685000  0.794500  0.325600  1.0  0.1365
  H  H23  1  0.592000  0.321900  0.165900  1.0  0.0926
  H  H24  1  0.588000  0.307900  0.070300  1.0  0.0983
  H  H25  1  0.044000  0.355500  0.168300  1.0  0.096
  H  H26  1  0.018000  0.354000  0.073300  1.0  0.1084
  H  H27  1  0.020000  0.523000  0.135000  1.0  0.122
  H  H28  1  0.731000  0.492000  0.095000  1.0  0.1077
  H  H29  1  0.831000  0.470700  0.255000  1.0  0.0998
  H  H30  1  0.557000  0.492600  0.211000  1.0  0.1022
  H  H31  1  0.973000  0.633500  0.258900  1.0  0.0918
  H  H32  1  0.713000  0.656900  0.208100  1.0  0.0985
  H  H33  1  0.696000  0.594400  0.360400  1.0  0.1019
  H  H34  1  0.459000  0.639100  0.311500  1.0  0.0916
  H  H35  1  0.390500  0.847600  0.884500  1.0  0.1339
  H  H36  1  0.125900  0.809100  0.832000  1.0  0.1434
  H  H37  1  0.129500  0.823100  0.927700  1.0  0.1222
  H  H38  1  0.359000  0.237600  0.588100  1.0  0.1276
  H  H39  1  0.078000  0.250200  0.625400  1.0  0.1232
  H  H40  1  0.315000  0.205500  0.674400  1.0  0.1372
  H  H41  1  0.408000  0.678100  0.834100  1.0  0.0939
  H  H42  1  0.412000  0.692100  0.929700  1.0  0.0992
  H  H43  1  0.956000  0.644500  0.831700  1.0  0.0952
  H  H44  1  0.982000  0.646000  0.926700  1.0  0.1086
  H  H45  1  0.980000  0.477000  0.865000  1.0  0.1201
  H  H46  1  0.269000  0.508000  0.905000  1.0  0.1081
  H  H47  1  0.169000  0.529300  0.745000  1.0  0.1013
  H  H48  1  0.443000  0.507400  0.789000  1.0  0.1025
  H  H49  1  0.027000  0.366500  0.741100  1.0  0.0947
  H  H50  1  0.287000  0.343100  0.791900  1.0  0.0981
  H  H51  1  0.304000  0.405600  0.639600  1.0  0.1012
  H  H52  1  0.541000  0.360900  0.688500  1.0  0.0921
  C  C53  1  0.694000  0.301800  0.119500  1.0  0.0274
  C  C54  1  0.928000  0.368700  0.123000  1.0  -0.1027
  C  C55  1  0.861000  0.480000  0.137000  1.0  -0.0818
  C  C56  1  0.746000  0.509800  0.217000  1.0  -0.0955
  C  C57  1  0.784000  0.617000  0.248400  1.0  -0.0858
  C  C58  1  0.650000  0.642900  0.323700  1.0  0.0453
  C  C59  1  0.306000  0.698200  0.880500  1.0  0.0279
  C  C60  1  0.072000  0.631300  0.877000  1.0  -0.1032
  C  C61  1  0.139000  0.520000  0.863000  1.0  -0.0803
  C  C62  1  0.254000  0.490200  0.783000  1.0  -0.0944
  C  C63  1  0.216000  0.383000  0.751600  1.0  -0.085
  C  C64  1  0.350000  0.357100  0.676300  1.0  0.0451
  N  N65  1  0.767700  0.196800  0.118700  1.0  -0.2921
  N  N66  1  0.731000  0.746000  0.362300  1.0  -0.3178
  N  N67  1  0.232300  0.803200  0.881300  1.0  -0.2909
  N  N68  1  0.269000  0.254000  0.637700  1.0  -0.3178
  O  O69  1  0.504000  0.780400  0.701200  1.0  -0.7861
  O  O70  1  0.961900  0.826900  0.739300  1.0  -0.7944
  O  O71  1  0.077700  0.647400  0.597200  1.0  -0.8617
  O  O72  1  0.118900  0.867400  0.569800  1.0  -0.8756
  O  O73  1  0.535100  0.875800  0.500800  1.0  -0.8445
  O  O74  1  0.110800  0.918600  0.437700  1.0  -0.8115
  O  O75  1  0.679700  0.948500  0.678500  1.0  -0.7876
  O  O76  1  0.633500  0.623800  0.531800  1.0  -0.8426
  O  O77  1  0.204900  0.743800  0.451600  1.0  -0.7413
  O  O78  1  0.862600  0.479400  0.578400  1.0  -0.7721
  O  O79  1  0.829900  0.891700  0.971500  1.0  -0.7715
  O  O80  1  0.612000  0.914100  0.814000  1.0  -0.808
  O  O81  1  0.437700  0.901600  0.050900  1.0  -0.8259
  O  O82  1  0.881900  0.950700  0.115700  1.0  -0.7771
  O  O83  1  0.705200  0.608500  0.676400  1.0  -0.5958
  O  O84  1  0.744800  0.772300  0.066600  1.0  -0.5435
  O  O85  1  0.496000  0.219600  0.298800  1.0  -0.7872
  O  O86  1  0.038100  0.173100  0.260700  1.0  -0.7965
  O  O87  1  0.922300  0.352600  0.402800  1.0  -0.8628
  O  O88  1  0.881100  0.132600  0.430200  1.0  -0.8753
  O  O89  1  0.464900  0.124200  0.499200  1.0  -0.8443
  O  O90  1  0.889200  0.081400  0.562300  1.0  -0.8122
  O  O91  1  0.320300  0.051500  0.321500  1.0  -0.7865
  O  O92  1  0.366500  0.376200  0.468200  1.0  -0.8434
  O  O93  1  0.795100  0.256200  0.548400  1.0  -0.7411
  O  O94  1  0.137400  0.520600  0.421600  1.0  -0.7715
  O  O95  1  0.170100  0.108300  0.028500  1.0  -0.7707
  O  O96  1  0.388000  0.085900  0.186000  1.0  -0.8083
  O  O97  1  0.562300  0.098400  0.949100  1.0  -0.8268
  O  O98  1  0.118100  0.049300  0.884300  1.0  -0.7759
  O  O99  1  0.294800  0.391500  0.323600  1.0  -0.5941
  O  O100  1  0.255200  0.227700  0.933400  1.0  -0.5453
