# generated using pymatgen
data_V5Co4H12C20(NO3)8
_symmetry_space_group_name_H-M   'P 1'
_cell_length_a   12.41220000
_cell_length_b   13.93700000
_cell_length_c   24.94900000
_cell_angle_alpha   89.95460000
_cell_angle_beta   89.89800000
_cell_angle_gamma   63.55780000
_symmetry_Int_Tables_number   1
_chemical_formula_structural   V5Co4H12C20(NO3)8
_chemical_formula_sum   'V20 Co16 H48 C80 N32 O96'
_cell_volume   3864.38034099
_cell_formula_units_Z   4
loop_
 _symmetry_equiv_pos_site_id
 _symmetry_equiv_pos_as_xyz
  1  'x, y, z'
loop_
 _atom_site_type_symbol
 _atom_site_label
 _atom_site_symmetry_multiplicity
 _atom_site_fract_x
 _atom_site_fract_y
 _atom_site_fract_z
 _atom_site_occupancy
 _atom_site_charge
  V  V1  1  0.884380  0.908640  0.172710  1.0  2.0917
  V  V2  1  0.947780  0.801040  0.296910  1.0  2.06
  V  V3  1  0.667810  0.795980  0.305540  1.0  2.0487
  V  V4  1  0.516690  0.735820  0.213180  1.0  2.0411
  V  V5  1  0.597150  0.502300  0.155380  1.0  2.0338
  V  V6  1  0.313370  0.504460  0.161360  1.0  2.077
  V  V7  1  0.198880  0.336240  0.132680  1.0  2.0362
  V  V8  1  0.241080  0.199840  0.019650  1.0  1.9076
  V  V9  1  0.963630  0.196940  0.016340  1.0  2.0133
  V  V10  1  0.938300  0.108800  0.149800  1.0  1.7737
  V  V11  1  0.793020  0.091360  0.672710  1.0  2.0923
  V  V12  1  0.748820  0.198960  0.796910  1.0  2.0603
  V  V13  1  0.463790  0.204020  0.805540  1.0  2.0486
  V  V14  1  0.252510  0.264180  0.713180  1.0  2.0411
  V  V15  1  0.099450  0.497700  0.655380  1.0  2.0343
  V  V16  1  0.817830  0.495540  0.661360  1.0  2.0771
  V  V17  1  0.535120  0.663760  0.632680  1.0  2.0365
  V  V18  1  0.440920  0.800160  0.519650  1.0  1.9077
  V  V19  1  0.160570  0.803060  0.516340  1.0  2.0124
  V  V20  1  0.047100  0.891200  0.649800  1.0  1.7737
  Co  Co21  1  0.189470  0.534100  0.294700  1.0  1.0167
  Co  Co22  1  0.422800  0.066000  0.300950  1.0  1.0475
  Co  Co23  1  0.482340  0.939260  0.033490  1.0  1.0453
  Co  Co24  1  0.188500  0.533720  0.526300  1.0  1.0534
  Co  Co25  1  0.794670  0.308260  0.249040  1.0  1.0371
  Co  Co26  1  0.926570  0.042660  0.909500  1.0  1.0769
  Co  Co27  1  0.094090  0.709220  0.076980  1.0  1.0757
  Co  Co28  1  0.630280  0.644640  0.415650  1.0  1.1252
  Co  Co29  1  0.723570  0.465900  0.794700  1.0  1.0166
  Co  Co30  1  0.488800  0.934000  0.800950  1.0  1.0476
  Co  Co31  1  0.421600  0.060740  0.533490  1.0  1.0454
  Co  Co32  1  0.722220  0.466280  0.026300  1.0  1.0521
  Co  Co33  1  0.102930  0.691740  0.749040  1.0  1.0369
  Co  Co34  1  0.969230  0.957340  0.409500  1.0  1.0769
  Co  Co35  1  0.803310  0.290780  0.576980  1.0  1.076
  Co  Co36  1  0.274920  0.355360  0.915650  1.0  1.1253
  H  H37  1  0.923200  0.603200  0.244200  1.0  0.0674
  H  H38  1  0.798300  0.526000  0.236200  1.0  0.0593
  H  H39  1  0.056500  0.251000  0.282100  1.0  0.1043
  H  H40  1  0.241500  0.963200  0.262000  1.0  0.0521
  H  H41  1  0.077300  0.956400  0.297100  1.0  0.0984
  H  H42  1  0.178600  0.006000  0.439200  1.0  0.0748
  H  H43  1  0.212900  0.009800  0.080100  1.0  0.0949
  H  H44  1  0.087100  0.930000  0.079300  1.0  0.0756
  H  H45  1  0.354700  0.652400  0.052900  1.0  0.0608
  H  H46  1  0.909500  0.635600  0.565400  1.0  0.0602
  H  H47  1  0.731500  0.656200  0.528200  1.0  0.0957
  H  H48  1  0.885500  0.601400  0.385700  1.0  0.0758
  H  H49  1  0.556900  0.299600  0.195000  1.0  0.0855
  H  H50  1  0.430100  0.231400  0.224400  1.0  0.0579
  H  H51  1  0.665400  0.058000  0.329400  1.0  0.0803
  H  H52  1  0.635600  0.150600  0.914300  1.0  0.0657
  H  H53  1  0.494200  0.108200  0.957000  1.0  0.0696
  H  H54  1  0.751100  0.873400  0.030200  1.0  0.0621
  H  H55  1  0.564800  0.295600  0.628300  1.0  0.0719
  H  H56  1  0.363000  0.378400  0.609200  1.0  0.0873
  H  H57  1  0.424600  0.538200  0.494500  1.0  0.0632
  H  H58  1  0.336800  0.760200  0.403200  1.0  0.0914
  H  H59  1  0.200700  0.705400  0.367300  1.0  0.0784
  H  H60  1  0.464800  0.461000  0.298800  1.0  0.066
  H  H61  1  0.526400  0.396800  0.744200  1.0  0.0673
  H  H62  1  0.324300  0.474000  0.736200  1.0  0.0592
  H  H63  1  0.307500  0.749000  0.782100  1.0  0.1041
  H  H64  1  0.204700  0.036800  0.762000  1.0  0.052
  H  H65  1  0.033700  0.043600  0.797100  1.0  0.0986
  H  H66  1  0.184600  0.994000  0.939200  1.0  0.0753
  H  H67  1  0.222700  0.990200  0.580100  1.0  0.0951
  H  H68  1  0.017100  0.070000  0.579300  1.0  0.0753
  H  H69  1  0.007100  0.347600  0.552900  1.0  0.0617
  H  H70  1  0.545100  0.364400  0.065400  1.0  0.0605
  H  H71  1  0.387700  0.343800  0.028200  1.0  0.0962
  H  H72  1  0.486900  0.398600  0.885700  1.0  0.0761
  H  H73  1  0.856500  0.700400  0.695000  1.0  0.0857
  H  H74  1  0.661500  0.768600  0.724400  1.0  0.0578
  H  H75  1  0.723400  0.942000  0.829400  1.0  0.0798
  H  H76  1  0.786200  0.849400  0.414300  1.0  0.0655
  H  H77  1  0.602400  0.891800  0.457000  1.0  0.07
  H  H78  1  0.624500  0.126600  0.530200  1.0  0.0621
  H  H79  1  0.860400  0.704400  0.128300  1.0  0.0713
  H  H80  1  0.741400  0.621600  0.109200  1.0  0.0872
  H  H81  1  0.962800  0.461800  0.994500  1.0  0.0634
  H  H82  1  0.097000  0.239800  0.903200  1.0  0.0915
  H  H83  1  0.906100  0.294600  0.867300  1.0  0.0784
  H  H84  1  0.925800  0.539000  0.798800  1.0  0.0662
  C  C85  1  0.952500  0.530600  0.252000  1.0  0.1596
  C  C86  1  0.877500  0.483400  0.246400  1.0  0.173
  C  C87  1  0.028500  0.323000  0.273100  1.0  0.1586
  C  C88  1  0.103200  0.373600  0.278100  1.0  0.0652
  C  C89  1  0.231900  0.309000  0.297200  1.0  0.6245
  C  C90  1  0.226300  0.976800  0.298500  1.0  0.1736
  C  C91  1  0.130600  0.967800  0.319300  1.0  0.0712
  C  C92  1  0.189500  0.998600  0.402300  1.0  0.1057
  C  C93  1  0.284200  0.012000  0.378400  1.0  0.1142
  C  C94  1  0.359500  0.052000  0.410200  1.0  0.6417
  C  C95  1  0.242800  0.937200  0.072000  1.0  0.1081
  C  C96  1  0.169100  0.888800  0.073700  1.0  0.1068
  C  C97  1  0.323300  0.726400  0.056100  1.0  0.1614
  C  C98  1  0.400600  0.775600  0.048100  1.0  0.1196
  C  C99  1  0.526400  0.719200  0.029900  1.0  0.6476
  C  C100  1  0.907200  0.625600  0.528700  1.0  0.1673
  C  C101  1  0.797800  0.641000  0.506300  1.0  0.0936
  C  C102  1  0.888200  0.607400  0.422700  1.0  0.1259
  C  C103  1  0.999200  0.588200  0.448100  1.0  0.0815
  C  C104  1  0.113100  0.549000  0.416300  1.0  0.6652
  C  C105  1  0.578400  0.254200  0.224500  1.0  0.1117
  C  C106  1  0.504400  0.209200  0.241000  1.0  0.1577
  C  C107  1  0.639700  0.110600  0.302900  1.0  0.1274
  C  C108  1  0.711400  0.160800  0.289100  1.0  0.1113
  C  C109  1  0.830000  0.132000  0.319200  1.0  0.639
  C  C110  1  0.661800  0.093200  0.938000  1.0  0.1371
  C  C111  1  0.575600  0.067000  0.964100  1.0  0.1266
  C  C112  1  0.724400  0.930800  0.006500  1.0  0.163
  C  C113  1  0.809000  0.955600  0.981200  1.0  0.1076
  C  C114  1  0.943500  0.889600  0.989400  1.0  0.6545
  C  C115  1  0.537500  0.345600  0.600700  1.0  0.139
  C  C116  1  0.415900  0.393400  0.588400  1.0  0.1209
  C  C117  1  0.451600  0.486800  0.521400  1.0  0.1307
  C  C118  1  0.571800  0.438800  0.534700  1.0  0.1081
  C  C119  1  0.663100  0.461800  0.502800  1.0  0.6447
  C  C120  1  0.364100  0.697400  0.383400  1.0  0.1118
  C  C121  1  0.282600  0.665400  0.360600  1.0  0.134
  C  C122  1  0.437600  0.520200  0.321300  1.0  0.155
  C  C123  1  0.520400  0.547200  0.346200  1.0  0.1024
  C  C124  1  0.657000  0.479600  0.340700  1.0  0.6716
  C  C125  1  0.483100  0.469400  0.752000  1.0  0.1601
  C  C126  1  0.360900  0.516600  0.746400  1.0  0.1726
  C  C127  1  0.351500  0.677000  0.773100  1.0  0.1566
  C  C128  1  0.476800  0.626400  0.778100  1.0  0.0646
  C  C129  1  0.540900  0.691000  0.797200  1.0  0.6249
  C  C130  1  0.203100  0.023200  0.798500  1.0  0.1732
  C  C131  1  0.098400  0.032200  0.819300  1.0  0.0713
  C  C132  1  0.188100  0.001400  0.902300  1.0  0.1054
  C  C133  1  0.296200  0.988000  0.878400  1.0  0.114
  C  C134  1  0.411500  0.948000  0.910200  1.0  0.6409
  C  C135  1  0.180000  0.062800  0.572000  1.0  0.1083
  C  C136  1  0.057900  0.111200  0.573700  1.0  0.1066
  C  C137  1  0.049700  0.273600  0.556100  1.0  0.1619
  C  C138  1  0.176200  0.224400  0.548100  1.0  0.1199
  C  C139  1  0.245600  0.280800  0.529900  1.0  0.6486
  C  C140  1  0.532800  0.374400  0.028700  1.0  0.1671
  C  C141  1  0.438800  0.359000  0.006300  1.0  0.0939
  C  C142  1  0.495600  0.392600  0.922700  1.0  0.1259
  C  C143  1  0.587400  0.411800  0.948100  1.0  0.0819
  C  C144  1  0.662100  0.451000  0.916300  1.0  0.666
  C  C145  1  0.832600  0.745800  0.724500  1.0  0.1109
  C  C146  1  0.713600  0.790800  0.741000  1.0  0.1576
  C  C147  1  0.750300  0.889400  0.802900  1.0  0.1274
  C  C148  1  0.872200  0.839200  0.789100  1.0  0.111
  C  C149  1  0.962000  0.868000  0.819200  1.0  0.6396
  C  C150  1  0.755000  0.906800  0.438000  1.0  0.1364
  C  C151  1  0.642600  0.933000  0.464100  1.0  0.1265
  C  C152  1  0.655200  0.069200  0.506500  1.0  0.1626
  C  C153  1  0.764600  0.044400  0.481200  1.0  0.1076
  C  C154  1  0.833100  0.110400  0.489400  1.0  0.6536
  C  C155  1  0.883100  0.654400  0.100700  1.0  0.1392
  C  C156  1  0.809300  0.606600  0.088400  1.0  0.1202
  C  C157  1  0.938400  0.513200  0.021400  1.0  0.13
  C  C158  1  0.010600  0.561200  0.034700  1.0  0.1086
  C  C159  1  0.124900  0.538200  0.002800  1.0  0.6445
  C  C160  1  0.061500  0.302600  0.883400  1.0  0.1123
  C  C161  1  0.948000  0.334600  0.860600  1.0  0.1344
  C  C162  1  0.957800  0.479800  0.821300  1.0  0.1547
  C  C163  1  0.067600  0.452800  0.846200  1.0  0.1018
  C  C164  1  0.136600  0.520400  0.840700  1.0  0.6728
  N  N165  1  0.063400  0.477600  0.267800  1.0  -0.3464
  N  N166  1  0.911200  0.382200  0.254500  1.0  -0.3518
  N  N167  1  0.300300  0.003800  0.326000  1.0  -0.3092
  N  N168  1  0.114000  0.975200  0.372400  1.0  -0.3578
  N  N169  1  0.362800  0.878200  0.058200  1.0  -0.3641
  N  N170  1  0.213900  0.779400  0.067400  1.0  -0.3292
  N  N171  1  0.009500  0.597200  0.500900  1.0  -0.3348
  N  N172  1  0.788400  0.633600  0.451800  1.0  -0.3564
  N  N173  1  0.682200  0.232800  0.251000  1.0  -0.3254
  N  N174  1  0.533900  0.137600  0.278300  1.0  -0.3318
  N  N175  1  0.776500  0.037800  0.947200  1.0  -0.3041
  N  N176  1  0.608000  0.986000  0.998100  1.0  -0.3292
  N  N177  1  0.614500  0.368400  0.575100  1.0  -0.346
  N  N178  1  0.373700  0.461000  0.546500  1.0  -0.3355
  N  N179  1  0.486300  0.634000  0.376000  1.0  -0.3445
  N  N180  1  0.320000  0.577600  0.329000  1.0  -0.3347
  N  N181  1  0.541000  0.522400  0.767800  1.0  -0.3459
  N  N182  1  0.293400  0.617800  0.754500  1.0  -0.3505
  N  N183  1  0.304100  0.996200  0.826000  1.0  -0.3092
  N  N184  1  0.089200  0.024800  0.872400  1.0  -0.3577
  N  N185  1  0.241000  0.121800  0.558200  1.0  -0.3639
  N  N186  1  0.993300  0.220600  0.567400  1.0  -0.3297
  N  N187  1  0.606700  0.402800  0.000900  1.0  -0.335
  N  N188  1  0.422000  0.366400  0.951800  1.0  -0.3568
  N  N189  1  0.915000  0.767200  0.751000  1.0  -0.3254
  N  N190  1  0.671500  0.862400  0.778300  1.0  -0.3314
  N  N191  1  0.814300  0.962200  0.447200  1.0  -0.3037
  N  N192  1  0.594000  0.014000  0.498100  1.0  -0.3293
  N  N193  1  0.982900  0.631600  0.075100  1.0  -0.3459
  N  N194  1  0.834700  0.539000  0.046500  1.0  -0.3361
  N  N195  1  0.120300  0.366000  0.876000  1.0  -0.3449
  N  N196  1  0.897600  0.422400  0.829000  1.0  -0.334
  O  O197  1  0.286300  0.366600  0.307600  1.0  -0.5977
  O  O198  1  0.560000  0.922200  0.108600  1.0  -0.3159
  O  O199  1  0.266700  0.214200  0.301600  1.0  -0.6215
  O  O200  1  0.387900  0.054200  0.219800  1.0  -0.3292
  O  O201  1  0.429000  0.077200  0.384200  1.0  -0.5744
  O  O202  1  0.349800  0.048400  0.460300  1.0  -0.6389
  O  O203  1  0.584000  0.771600  0.020300  1.0  -0.5644
  O  O204  1  0.570700  0.616400  0.025200  1.0  -0.6964
  O  O205  1  0.208800  0.518000  0.442000  1.0  -0.5712
  O  O206  1  0.101700  0.551800  0.365900  1.0  -0.6517
  O  O207  1  0.888300  0.180800  0.302400  1.0  -0.5777
  O  O208  1  0.855000  0.068000  0.355800  1.0  -0.6264
  O  O209  1  0.012800  0.918800  0.964700  1.0  -0.586
  O  O210  1  0.973700  0.811800  0.018800  1.0  -0.652
  O  O211  1  0.771700  0.407200  0.516300  1.0  -0.5773
  O  O212  1  0.623600  0.528600  0.466600  1.0  -0.634
  O  O213  1  0.719600  0.518400  0.360100  1.0  -0.5718
  O  O214  1  0.693400  0.390800  0.318500  1.0  -0.6445
  O  O215  1  0.996600  0.816400  0.138800  1.0  -0.8132
  O  O216  1  0.764100  0.894400  0.163300  1.0  -0.6045
  O  O217  1  0.919500  0.896600  0.242000  1.0  -0.8284
  O  O218  1  0.847400  0.041800  0.152300  1.0  -0.8227
  O  O219  1  0.824900  0.154000  0.852300  1.0  -0.7966
  O  O220  1  0.066600  0.689600  0.278200  1.0  -0.7929
  O  O221  1  0.820800  0.774200  0.304200  1.0  -0.8992
  O  O222  1  0.641900  0.753800  0.363500  1.0  -0.8248
  O  O223  1  0.571300  0.925200  0.300900  1.0  -0.8174
  O  O224  1  0.640500  0.723800  0.253900  1.0  -0.9211
  O  O225  1  0.447700  0.855400  0.184600  1.0  -0.6072
  O  O226  1  0.419400  0.718400  0.251700  1.0  -0.6094
  O  O227  1  0.571900  0.638400  0.159100  1.0  -0.8738
  O  O228  1  0.665100  0.438600  0.209300  1.0  -0.8297
  O  O229  1  0.684400  0.450000  0.103600  1.0  -0.8438
  O  O230  1  0.459900  0.491400  0.147000  1.0  -0.8426
  O  O231  1  0.286100  0.514800  0.226200  1.0  -0.8536
  O  O232  1  0.208800  0.615600  0.130400  1.0  -0.8372
  O  O233  1  0.308500  0.387600  0.136900  1.0  -0.8474
  O  O234  1  0.244300  0.226800  0.168100  1.0  -0.6548
  O  O235  1  0.066300  0.422600  0.150300  1.0  -0.6431
  O  O236  1  0.197800  0.307000  0.061800  1.0  -0.9084
  O  O237  1  0.287100  0.231200  0.962100  1.0  -0.8068
  O  O238  1  0.353900  0.095400  0.047100  1.0  -0.8028
  O  O239  1  0.117500  0.171200  0.008600  1.0  -0.8994
  O  O240  1  0.874600  0.326000  0.022900  1.0  -0.799
  O  O241  1  0.922900  0.151000  0.961900  1.0  -0.7906
  O  O242  1  0.950400  0.127000  0.074800  1.0  -0.8119
  O  O243  1  0.878000  0.221400  0.181800  1.0  -0.8082
  O  O244  1  0.067500  0.018800  0.178900  1.0  -0.5541
  O  O245  1  0.652900  0.633400  0.807600  1.0  -0.598
  O  O246  1  0.482200  0.077800  0.608600  1.0  -0.3154
  O  O247  1  0.480900  0.785800  0.801600  1.0  -0.6218
  O  O248  1  0.442100  0.945800  0.719800  1.0  -0.3286
  O  O249  1  0.506200  0.922800  0.884200  1.0  -0.5741
  O  O250  1  0.398200  0.951600  0.960300  1.0  -0.6394
  O  O251  1  0.355600  0.228400  0.520300  1.0  -0.5646
  O  O252  1  0.187100  0.383600  0.525200  1.0  -0.696
  O  O253  1  0.726800  0.482000  0.942000  1.0  -0.5711
  O  O254  1  0.653500  0.448200  0.865900  1.0  -0.6511
  O  O255  1  0.069100  0.819200  0.802400  1.0  -0.5779
  O  O256  1  0.923000  0.932000  0.855800  1.0  -0.6258
  O  O257  1  0.931600  0.081200  0.464700  1.0  -0.5852
  O  O258  1  0.785500  0.188200  0.518800  1.0  -0.6517
  O  O259  1  0.178900  0.592800  0.016300  1.0  -0.577
  O  O260  1  0.152200  0.471400  0.966600  1.0  -0.6332
  O  O261  1  0.238000  0.481600  0.860100  1.0  -0.5723
  O  O262  1  0.084200  0.609200  0.818500  1.0  -0.6453
  O  O263  1  0.813000  0.183600  0.638800  1.0  -0.8138
  O  O264  1  0.658500  0.105600  0.663300  1.0  -0.6044
  O  O265  1  0.816100  0.103400  0.742000  1.0  -0.8286
  O  O266  1  0.889200  0.958200  0.652300  1.0  -0.8237
  O  O267  1  0.978900  0.846000  0.352300  1.0  -0.7968
  O  O268  1  0.756200  0.310400  0.778200  1.0  -0.7926
  O  O269  1  0.595000  0.225800  0.804200  1.0  -0.8994
  O  O270  1  0.395700  0.246200  0.863500  1.0  -0.8254
  O  O271  1  0.496500  0.074800  0.800900  1.0  -0.8176
  O  O272  1  0.364300  0.276200  0.753900  1.0  -0.9201
  O  O273  1  0.303100  0.144600  0.684600  1.0  -0.6076
  O  O274  1  0.137800  0.281600  0.751700  1.0  -0.6097
  O  O275  1  0.210300  0.361600  0.659100  1.0  -0.8736
  O  O276  1  0.103700  0.561400  0.709300  1.0  -0.8298
  O  O277  1  0.134400  0.550000  0.603600  1.0  -0.8445
  O  O278  1  0.951300  0.508600  0.647000  1.0  -0.8429
  O  O279  1  0.800900  0.485200  0.726200  1.0  -0.8536
  O  O280  1  0.824400  0.384400  0.630400  1.0  -0.8371
  O  O281  1  0.696100  0.612400  0.636900  1.0  -0.8473
  O  O282  1  0.471100  0.773200  0.668100  1.0  -0.6543
  O  O283  1  0.488900  0.577400  0.650300  1.0  -0.6427
  O  O284  1  0.504800  0.693000  0.561800  1.0  -0.9087
  O  O285  1  0.518300  0.768800  0.462100  1.0  -0.8069
  O  O286  1  0.449300  0.904600  0.547100  1.0  -0.8034
  O  O287  1  0.288700  0.828800  0.508600  1.0  -0.8995
  O  O288  1  0.200600  0.674000  0.522900  1.0  -0.7993
  O  O289  1  0.073900  0.849000  0.461900  1.0  -0.7914
  O  O290  1  0.077400  0.873000  0.574800  1.0  -0.8125
  O  O291  1  0.099400  0.778600  0.681800  1.0  -0.808
  O  O292  1  0.086300  0.981200  0.678900  1.0  -0.5535
