# generated using pymatgen
data_V6Ni4H12C20N8O23
_symmetry_space_group_name_H-M   'P 1'
_cell_length_a   12.26790000
_cell_length_b   13.91990000
_cell_length_c   13.91990000
_cell_angle_alpha   78.80320000
_cell_angle_beta   63.85410000
_cell_angle_gamma   63.85410000
_symmetry_Int_Tables_number   1
_chemical_formula_structural   V6Ni4H12C20N8O23
_chemical_formula_sum   'V12 Ni8 H24 C40 N16 O46'
_cell_volume   1915.49301743
_cell_formula_units_Z   2
loop_
 _symmetry_equiv_pos_site_id
 _symmetry_equiv_pos_as_xyz
  1  'x, y, z'
loop_
 _atom_site_type_symbol
 _atom_site_label
 _atom_site_symmetry_multiplicity
 _atom_site_fract_x
 _atom_site_fract_y
 _atom_site_fract_z
 _atom_site_occupancy
 _atom_site_charge
  V  V1  1  0.662590  0.503530  0.206910  1.0  2.0933
  V  V2  1  0.087280  0.499040  0.797660  1.0  2.0802
  V  V3  1  0.653540  0.377360  0.433560  1.0  1.2094
  V  V4  1  0.373030  0.496470  0.793090  1.0  2.0923
  V  V5  1  0.383980  0.500960  0.202340  1.0  2.0823
  V  V6  1  0.464460  0.622640  0.566440  1.0  1.2133
  V  V7  1  0.869500  0.793090  0.503530  1.0  2.0938
  V  V8  1  0.884940  0.202340  0.499040  1.0  2.0806
  V  V9  1  0.087100  0.566440  0.377360  1.0  1.2173
  V  V10  1  0.166120  0.206910  0.496470  1.0  2.0946
  V  V11  1  0.586320  0.797660  0.500960  1.0  2.082
  V  V12  1  0.030900  0.433560  0.622640  1.0  1.2217
  Ni  Ni13  1  0.954330  0.332430  0.002270  1.0  0.9344
  Ni  Ni14  1  0.626620  0.228770  0.768670  1.0  0.9384
  Ni  Ni15  1  0.289030  0.667570  0.997730  1.0  0.9337
  Ni  Ni16  1  0.624060  0.771230  0.231330  1.0  0.938
  Ni  Ni17  1  0.956600  0.997730  0.332430  1.0  0.9337
  Ni  Ni18  1  0.395290  0.231330  0.228770  1.0  0.9382
  Ni  Ni19  1  0.286760  0.002270  0.667570  1.0  0.9335
  Ni  Ni20  1  0.855390  0.768670  0.771230  1.0  0.9384
  H  H21  1  0.667100  0.444800  0.990600  1.0  0.0968
  H  H22  1  0.565200  0.399500  0.914100  1.0  0.0755
  H  H23  1  0.897400  0.160100  0.768300  1.0  0.0702
  H  H24  1  0.075700  0.320000  0.307200  1.0  0.093
  H  H25  1  0.938900  0.348000  0.223400  1.0  0.0738
  H  H26  1  0.239900  0.286600  0.945800  1.0  0.0747
  H  H27  1  0.102500  0.555200  0.009400  1.0  0.0972
  H  H28  1  0.878800  0.600500  0.085900  1.0  0.0753
  H  H29  1  0.825800  0.839900  0.231700  1.0  0.0686
  H  H30  1  0.702900  0.680000  0.692800  1.0  0.0931
  H  H31  1  0.510300  0.652000  0.776600  1.0  0.0739
  H  H32  1  0.472300  0.713400  0.054200  1.0  0.073
  H  H33  1  0.657700  0.009400  0.444800  1.0  0.0964
  H  H34  1  0.479300  0.085900  0.399500  1.0  0.0773
  H  H35  1  0.665700  0.231700  0.160100  1.0  0.0708
  H  H36  1  0.382900  0.692800  0.320000  1.0  0.091
  H  H37  1  0.162300  0.776600  0.348000  1.0  0.0728
  H  H38  1  0.185700  0.054200  0.286600  1.0  0.0733
  H  H39  1  0.111900  0.990600  0.555200  1.0  0.0969
  H  H40  1  0.964700  0.914100  0.600500  1.0  0.0756
  H  H41  1  0.057500  0.768300  0.839900  1.0  0.0712
  H  H42  1  0.395700  0.307200  0.680000  1.0  0.0908
  H  H43  1  0.286900  0.223400  0.652000  1.0  0.073
  H  H44  1  0.526500  0.945800  0.713400  1.0  0.0744
  C  C45  1  0.715200  0.385000  0.946400  1.0  0.1334
  C  C46  1  0.654300  0.358000  0.899800  1.0  0.1316
  C  C47  1  0.847500  0.218100  0.814900  1.0  0.1337
  C  C48  1  0.906900  0.245300  0.861900  1.0  0.1111
  C  C49  1  0.054100  0.182800  0.840600  1.0  0.6153
  C  C50  1  0.111200  0.312700  0.233300  1.0  0.1321
  C  C51  1  0.029100  0.329300  0.182300  1.0  0.1424
  C  C52  1  0.204800  0.293000  0.019800  1.0  0.1393
  C  C53  1  0.289700  0.274900  0.070100  1.0  0.1004
  C  C54  1  0.434200  0.241200  0.011400  1.0  0.6351
  C  C55  1  0.046600  0.615000  0.053600  1.0  0.1315
  C  C56  1  0.912100  0.642000  0.100200  1.0  0.1298
  C  C57  1  0.880500  0.781900  0.185100  1.0  0.1322
  C  C58  1  0.014100  0.754700  0.138100  1.0  0.1103
  C  C59  1  0.077500  0.817200  0.159400  1.0  0.6323
  C  C60  1  0.657200  0.687300  0.766700  1.0  0.1317
  C  C61  1  0.540700  0.670700  0.817700  1.0  0.1436
  C  C62  1  0.517600  0.707000  0.980200  1.0  0.139
  C  C63  1  0.634700  0.725100  0.929900  1.0  0.1006
  C  C64  1  0.686800  0.758800  0.988600  1.0  0.635
  C  C65  1  0.661600  0.053600  0.385000  1.0  0.1342
  C  C66  1  0.554100  0.100200  0.358000  1.0  0.1284
  C  C67  1  0.662400  0.185100  0.218100  1.0  0.1327
  C  C68  1  0.768800  0.138100  0.245300  1.0  0.1129
  C  C69  1  0.894700  0.159400  0.182800  1.0  0.6199
  C  C70  1  0.344500  0.766700  0.312700  1.0  0.1306
  C  C71  1  0.211400  0.817700  0.329300  1.0  0.1435
  C  C72  1  0.224600  0.980200  0.293000  1.0  0.1353
  C  C73  1  0.359800  0.929900  0.274900  1.0  0.1011
  C  C74  1  0.445600  0.988600  0.241200  1.0  0.6297
  C  C75  1  0.100200  0.946400  0.615000  1.0  0.1329
  C  C76  1  0.012300  0.899800  0.642000  1.0  0.1304
  C  C77  1  0.065600  0.814900  0.781900  1.0  0.1293
  C  C78  1  0.152200  0.861900  0.754700  1.0  0.1102
  C  C79  1  0.236900  0.840600  0.817200  1.0  0.6223
  C  C80  1  0.423900  0.233300  0.687300  1.0  0.1295
  C  C81  1  0.358400  0.182300  0.670700  1.0  0.1447
  C  C82  1  0.497800  0.019800  0.707000  1.0  0.1372
  C  C83  1  0.564600  0.070100  0.725100  1.0  0.0901
  C  C84  1  0.675400  0.011400  0.758800  1.0  0.6339
  N  N85  1  0.844000  0.325900  0.928700  1.0  -0.2965
  N  N86  1  0.719800  0.273000  0.834200  1.0  -0.3225
  N  N87  1  0.239800  0.286600  0.176800  1.0  -0.3332
  N  N88  1  0.074900  0.319200  0.076000  1.0  -0.3166
  N  N89  1  0.098600  0.674100  0.071300  1.0  -0.2942
  N  N90  1  0.827000  0.727000  0.165800  1.0  -0.3204
  N  N91  1  0.703200  0.713400  0.823200  1.0  -0.3313
  N  N92  1  0.470100  0.680800  0.924000  1.0  -0.3137
  N  N93  1  0.772700  0.071300  0.325900  1.0  -0.2951
  N  N94  1  0.554000  0.165800  0.273000  1.0  -0.3202
  N  N95  1  0.416600  0.823200  0.286600  1.0  -0.331
  N  N96  1  0.150900  0.924000  0.319200  1.0  -0.3155
  N  N97  1  0.169900  0.928700  0.674100  1.0  -0.2942
  N  N98  1  0.992800  0.834200  0.727000  1.0  -0.3198
  N  N99  1  0.526400  0.176800  0.713400  1.0  -0.3328
  N  N100  1  0.394100  0.076000  0.680800  1.0  -0.3176
  O  O101  1  0.097800  0.211500  0.891700  1.0  -0.5458
  O  O102  1  0.116400  0.109500  0.772900  1.0  -0.6654
  O  O103  1  0.504500  0.215700  0.064700  1.0  -0.5547
  O  O104  1  0.472200  0.242300  0.911300  1.0  -0.6712
  O  O105  1  0.798000  0.461300  0.098500  1.0  -0.8385
  O  O106  1  0.511500  0.388000  0.745600  1.0  -0.8456
  O  O107  1  0.675400  0.396600  0.300400  1.0  -0.8591
  O  O108  1  0.521700  0.528900  0.183300  1.0  -0.881
  O  O109  1  0.999200  0.448100  0.899700  1.0  -0.8431
  O  O110  1  0.783100  0.214800  0.626600  1.0  -0.8024
  O  O111  1  0.136300  0.432400  0.676600  1.0  -0.8092
  O  O112  1  0.201000  0.788500  0.108300  1.0  -0.5637
  O  O113  1  0.998800  0.890500  0.227100  1.0  -0.6676
  O  O114  1  0.784900  0.784300  0.935300  1.0  -0.5565
  O  O115  1  0.625800  0.757700  0.088700  1.0  -0.6702
  O  O116  1  0.357800  0.538700  0.901500  1.0  -0.8388
  O  O117  1  0.645100  0.612000  0.254400  1.0  -0.8472
  O  O118  1  0.372400  0.603400  0.699600  1.0  -0.8603
  O  O119  1  0.233900  0.471100  0.816700  1.0  -0.8813
  O  O120  1  0.347000  0.551900  0.100300  1.0  -0.843
  O  O121  1  0.624500  0.785200  0.373400  1.0  -0.8036
  O  O122  1  0.245300  0.567600  0.323400  1.0  -0.8101
  O  O123  1  0.989500  0.108300  0.211500  1.0  -0.5451
  O  O124  1  0.889300  0.227100  0.109500  1.0  -0.6675
  O  O125  1  0.569200  0.935300  0.215700  1.0  -0.5666
  O  O126  1  0.383500  0.088700  0.242300  1.0  -0.6692
  O  O127  1  0.896500  0.901500  0.461300  1.0  -0.8378
  O  O128  1  0.257100  0.254400  0.388000  1.0  -0.848
  O  O129  1  0.975800  0.699600  0.396600  1.0  -0.8584
  O  O130  1  0.705000  0.816700  0.528900  1.0  -0.8808
  O  O131  1  0.898900  0.100300  0.448100  1.0  -0.8421
  O  O132  1  0.409700  0.373400  0.214800  1.0  -0.8021
  O  O133  1  0.812900  0.323400  0.432400  1.0  -0.8092
  O  O134  1  0.309300  0.891700  0.788500  1.0  -0.5441
  O  O135  1  0.225900  0.772900  0.890500  1.0  -0.6693
  O  O136  1  0.720200  0.064700  0.784300  1.0  -0.5577
  O  O137  1  0.714500  0.911300  0.757700  1.0  -0.6704
  O  O138  1  0.259300  0.098500  0.538700  1.0  -0.838
  O  O139  1  0.899500  0.745600  0.612000  1.0  -0.8474
  O  O140  1  0.072000  0.300400  0.603400  1.0  -0.8591
  O  O141  1  0.050600  0.183300  0.471100  1.0  -0.879
  O  O142  1  0.447300  0.899700  0.551900  1.0  -0.8438
  O  O143  1  0.997900  0.626600  0.785200  1.0  -0.8018
  O  O144  1  0.568700  0.676600  0.567600  1.0  -0.8085
  O  O145  1  0.549600  0.500000  0.500000  1.0  -0.8536
  O  O146  1  0.049600  0.500000  0.500000  1.0  -0.8543
