# generated using pymatgen
data_V6Co4H12C20N8O23
_symmetry_space_group_name_H-M   'P 1'
_cell_length_a   12.46160000
_cell_length_b   13.97030000
_cell_length_c   13.97030000
_cell_angle_alpha   78.52620000
_cell_angle_beta   63.51240000
_cell_angle_gamma   63.51240000
_symmetry_Int_Tables_number   1
_chemical_formula_structural   V6Co4H12C20N8O23
_chemical_formula_sum   'V12 Co8 H24 C40 N16 O46'
_cell_volume   1948.32470161
_cell_formula_units_Z   2
loop_
 _symmetry_equiv_pos_site_id
 _symmetry_equiv_pos_as_xyz
  1  'x, y, z'
loop_
 _atom_site_type_symbol
 _atom_site_label
 _atom_site_symmetry_multiplicity
 _atom_site_fract_x
 _atom_site_fract_y
 _atom_site_fract_z
 _atom_site_occupancy
 _atom_site_charge
  V  V1  1  0.247760  0.502310  0.791790  1.0  2.0172
  V  V2  1  0.026430  0.796520  0.498860  1.0  2.0349
  V  V3  1  0.378590  0.376450  0.566250  1.0  1.1796
  V  V4  1  0.541860  0.497690  0.208210  1.0  2.0202
  V  V5  1  0.321810  0.203480  0.501140  1.0  2.0351
  V  V6  1  0.321290  0.623550  0.433750  1.0  1.1714
  V  V7  1  0.039550  0.208210  0.502310  1.0  2.0205
  V  V8  1  0.525290  0.501140  0.796520  1.0  2.0352
  V  V9  1  0.944840  0.433750  0.376450  1.0  1.1797
  V  V10  1  0.750070  0.791790  0.497690  1.0  2.0202
  V  V11  1  0.822950  0.498860  0.203480  1.0  2.0338
  V  V12  1  0.755040  0.566250  0.623550  1.0  1.1738
  Co  Co13  1  0.021400  0.770180  0.767300  1.0  1.032
  Co  Co14  1  0.460330  0.998760  0.667400  1.0  1.0594
  Co  Co15  1  0.558880  0.229820  0.232700  1.0  1.0324
  Co  Co16  1  0.126490  0.001240  0.332600  1.0  1.0592
  Co  Co17  1  0.788700  0.232700  0.770180  1.0  1.0321
  Co  Co18  1  0.127730  0.332600  0.998760  1.0  1.0598
  Co  Co19  1  0.791580  0.767300  0.229820  1.0  1.0321
  Co  Co20  1  0.459090  0.667400  0.001240  1.0  1.0593
  H  H21  1  0.340900  0.693300  0.676500  1.0  0.0563
  H  H22  1  0.481400  0.784400  0.645600  1.0  0.0578
  H  H23  1  0.177200  0.065100  0.713100  1.0  0.087
  H  H24  1  0.732800  0.556900  0.012300  1.0  0.0755
  H  H25  1  0.931100  0.599800  0.916400  1.0  0.0807
  H  H26  1  0.746700  0.834800  0.774000  1.0  0.1511
  H  H27  1  0.710700  0.306700  0.323500  1.0  0.0556
  H  H28  1  0.911400  0.215600  0.354400  1.0  0.0585
  H  H29  1  0.955400  0.934900  0.286900  1.0  0.0864
  H  H30  1  0.302000  0.443100  0.987700  1.0  0.0749
  H  H31  1  0.447300  0.400200  0.083600  1.0  0.0802
  H  H32  1  0.355500  0.165200  0.226000  1.0  0.1493
  H  H33  1  0.017400  0.323500  0.693300  1.0  0.0562
  H  H34  1  0.127000  0.354400  0.784400  1.0  0.059
  H  H35  1  0.890300  0.286900  0.065100  1.0  0.0818
  H  H36  1  0.745100  0.987700  0.556900  1.0  0.0756
  H  H37  1  0.847500  0.083600  0.599800  1.0  0.0812
  H  H38  1  0.520700  0.226000  0.834800  1.0  0.1526
  H  H39  1  0.034200  0.676500  0.306700  1.0  0.0563
  H  H40  1  0.265800  0.645600  0.215600  1.0  0.0596
  H  H41  1  0.242300  0.713100  0.934900  1.0  0.0789
  H  H42  1  0.289700  0.012300  0.443100  1.0  0.0754
  H  H43  1  0.530900  0.916400  0.400200  1.0  0.08
  H  H44  1  0.581500  0.774000  0.165200  1.0  0.159
  C  C45  1  0.305700  0.767700  0.685100  1.0  0.107
  C  C46  1  0.386400  0.817000  0.670200  1.0  0.0612
  C  C47  1  0.209500  0.979900  0.706500  1.0  0.2185
  C  C48  1  0.129300  0.929800  0.722800  1.0  0.0957
  C  C49  1  0.982800  0.990300  0.756700  1.0  0.6212
  C  C50  1  0.753200  0.612900  0.944700  1.0  0.1523
  C  C51  1  0.861500  0.639000  0.899400  1.0  0.1242
  C  C52  1  0.754600  0.780500  0.813700  1.0  0.1759
  C  C53  1  0.648100  0.754700  0.858900  1.0  0.0848
  C  C54  1  0.524200  0.817600  0.837800  1.0  0.6551
  C  C55  1  0.758500  0.232300  0.314900  1.0  0.1071
  C  C56  1  0.873600  0.183000  0.329800  1.0  0.0606
  C  C57  1  0.895900  0.020100  0.293500  1.0  0.2191
  C  C58  1  0.781900  0.070200  0.277200  1.0  0.0958
  C  C59  1  0.729800  0.009700  0.243300  1.0  0.6244
  C  C60  1  0.310800  0.387100  0.055300  1.0  0.1531
  C  C61  1  0.399900  0.361000  0.100600  1.0  0.1227
  C  C62  1  0.348800  0.219500  0.186300  1.0  0.1765
  C  C63  1  0.261700  0.245300  0.141100  1.0  0.0836
  C  C64  1  0.179600  0.182400  0.162200  1.0  0.6528
  C  C65  1  0.990800  0.314900  0.767700  1.0  0.1103
  C  C66  1  0.056600  0.329800  0.817000  1.0  0.0605
  C  C67  1  0.916000  0.293500  0.979900  1.0  0.2229
  C  C68  1  0.852100  0.277200  0.929800  1.0  0.0889
  C  C69  1  0.739500  0.243300  0.990300  1.0  0.623
  C  C70  1  0.697900  0.055300  0.612900  1.0  0.1536
  C  C71  1  0.760900  0.100600  0.639000  1.0  0.1227
  C  C72  1  0.568300  0.186300  0.780500  1.0  0.1781
  C  C73  1  0.507000  0.141100  0.754700  1.0  0.0833
  C  C74  1  0.362000  0.162200  0.817600  1.0  0.6598
  C  C75  1  0.073400  0.685100  0.232300  1.0  0.1088
  C  C76  1  0.203400  0.670200  0.183000  1.0  0.0608
  C  C77  1  0.189400  0.706500  0.020100  1.0  0.2215
  C  C78  1  0.059100  0.722800  0.070200  1.0  0.0912
  C  C79  1  0.973100  0.756700  0.009700  1.0  0.6243
  C  C80  1  0.366100  0.944700  0.387100  1.0  0.1529
  C  C81  1  0.500500  0.899400  0.361000  1.0  0.1256
  C  C82  1  0.535100  0.813700  0.219500  1.0  0.1754
  C  C83  1  0.402800  0.858900  0.245300  1.0  0.0836
  C  C84  1  0.341800  0.837800  0.182400  1.0  0.6435
  N  N85  1  0.177000  0.822300  0.711900  1.0  -0.3518
  N  N86  1  0.339100  0.923600  0.681000  1.0  -0.3269
  N  N87  1  0.646800  0.670900  0.925100  1.0  -0.3647
  N  N88  1  0.861700  0.724500  0.833700  1.0  -0.3611
  N  N89  1  0.711200  0.177700  0.288100  1.0  -0.3516
  N  N90  1  0.943700  0.076400  0.319000  1.0  -0.3272
  N  N91  1  0.242800  0.329100  0.074900  1.0  -0.3651
  N  N92  1  0.419900  0.275500  0.166300  1.0  -0.3601
  N  N93  1  0.888900  0.288100  0.822300  1.0  -0.3508
  N  N94  1  0.020100  0.319000  0.923600  1.0  -0.3262
  N  N95  1  0.571900  0.074900  0.670900  1.0  -0.3658
  N  N96  1  0.695400  0.166300  0.724500  1.0  -0.3605
  N  N97  1  0.999300  0.711900  0.177700  1.0  -0.352
  N  N98  1  0.262700  0.681000  0.076400  1.0  -0.3247
  N  N99  1  0.317700  0.925100  0.329100  1.0  -0.3646
  N  N100  1  0.586200  0.833700  0.275500  1.0  -0.3594
  O  O101  1  0.916000  0.936300  0.781900  1.0  -0.5798
  O  O102  1  0.944500  0.089500  0.755300  1.0  -0.6458
  O  O103  1  0.431500  0.789700  0.888300  1.0  -0.5722
  O  O104  1  0.531400  0.890000  0.770000  1.0  -0.665
  O  O105  1  0.159000  0.609100  0.742700  1.0  -0.787
  O  O106  1  0.616400  0.902400  0.536000  1.0  -0.8199
  O  O107  1  0.340200  0.392600  0.700000  1.0  -0.8585
  O  O108  1  0.363900  0.526700  0.813500  1.0  -0.8634
  O  O109  1  0.407400  0.102100  0.554500  1.0  -0.8357
  O  O110  1  0.998400  0.787200  0.626200  1.0  -0.8798
  O  O111  1  0.165000  0.674000  0.434200  1.0  -0.7959
  O  O112  1  0.634200  0.063700  0.218100  1.0  -0.5829
  O  O113  1  0.789300  0.910500  0.244700  1.0  -0.6436
  O  O114  1  0.109500  0.210300  0.111700  1.0  -0.5734
  O  O115  1  0.191400  0.110000  0.230000  1.0  -0.6641
  O  O116  1  0.510800  0.390900  0.257300  1.0  -0.785
  O  O117  1  0.054800  0.097600  0.464000  1.0  -0.8202
  O  O118  1  0.432800  0.607400  0.300000  1.0  -0.8625
  O  O119  1  0.704100  0.473300  0.186500  1.0  -0.8621
  O  O120  1  0.064000  0.897900  0.445500  1.0  -0.8382
  O  O121  1  0.411800  0.212800  0.373800  1.0  -0.8799
  O  O122  1  0.273200  0.326000  0.565800  1.0  -0.7957
  O  O123  1  0.697900  0.218100  0.936300  1.0  -0.5848
  O  O124  1  0.699800  0.244700  0.089500  1.0  -0.6441
  O  O125  1  0.319800  0.111700  0.789700  1.0  -0.5771
  O  O126  1  0.301400  0.230000  0.890000  1.0  -0.6672
  O  O127  1  0.901700  0.257300  0.609100  1.0  -0.7855
  O  O128  1  0.152400  0.464000  0.902400  1.0  -0.8212
  O  O129  1  0.040200  0.300000  0.392600  1.0  -0.8599
  O  O130  1  0.177400  0.186500  0.526700  1.0  -0.862
  O  O131  1  0.961900  0.445500  0.102100  1.0  -0.8386
  O  O132  1  0.624600  0.373800  0.787200  1.0  -0.8791
  O  O133  1  0.599200  0.565800  0.674000  1.0  -0.7951
  O  O134  1  0.852300  0.781900  0.063700  1.0  -0.5667
  O  O135  1  0.034000  0.755300  0.910500  1.0  -0.6421
  O  O136  1  0.221200  0.888300  0.210300  1.0  -0.5701
  O  O137  1  0.421400  0.770000  0.110000  1.0  -0.6653
  O  O138  1  0.768100  0.742700  0.390900  1.0  -0.7862
  O  O139  1  0.518800  0.536000  0.097600  1.0  -0.821
  O  O140  1  0.732800  0.700000  0.607400  1.0  -0.8602
  O  O141  1  0.890600  0.813500  0.473300  1.0  -0.8616
  O  O142  1  0.509500  0.554500  0.897900  1.0  -0.8378
  O  O143  1  0.785600  0.626200  0.212800  1.0  -0.8792
  O  O144  1  0.839000  0.434200  0.326000  1.0  -0.7944
  O  O145  1  0.361700  0.500000  0.500000  1.0  -0.8382
  O  O146  1  0.861700  0.500000  0.500000  1.0  -0.8382
