# generated using pymatgen
data_NiH8C13(NO2)2
_symmetry_space_group_name_H-M   'P 1'
_cell_length_a   10.81400000
_cell_length_b   11.52300000
_cell_length_c   12.61590000
_cell_angle_alpha   110.51700000
_cell_angle_beta   115.37800000
_cell_angle_gamma   90.00000000
_symmetry_Int_Tables_number   1
_chemical_formula_structural   NiH8C13(NO2)2
_chemical_formula_sum   'Ni4 H32 C52 N8 O16'
_cell_volume   1309.13576392
_cell_formula_units_Z   4
loop_
 _symmetry_equiv_pos_site_id
 _symmetry_equiv_pos_as_xyz
  1  'x, y, z'
loop_
 _atom_site_type_symbol
 _atom_site_label
 _atom_site_symmetry_multiplicity
 _atom_site_fract_x
 _atom_site_fract_y
 _atom_site_fract_z
 _atom_site_occupancy
 _atom_site_charge
  Ni  Ni1  1  0.902940  0.062730  0.643440  1.0  0.7583
  Ni  Ni2  1  0.740500  0.562730  0.643440  1.0  0.7578
  Ni  Ni3  1  0.259500  0.437270  0.356560  1.0  0.7572
  Ni  Ni4  1  0.097060  0.937270  0.356560  1.0  0.7573
  H  H5  1  0.596800  0.785700  0.210200  1.0  0.1103
  H  H6  1  0.960700  0.674600  0.135200  1.0  0.0921
  H  H7  1  0.268900  0.188300  0.431400  1.0  0.0872
  H  H8  1  0.213300  0.432500  0.575600  1.0  0.0937
  H  H9  1  0.362300  0.932500  0.575600  1.0  0.094
  H  H10  1  0.381500  0.912600  0.933000  1.0  0.1079
  H  H11  1  0.731800  0.967600  0.973000  1.0  0.1318
  H  H12  1  0.825500  0.825400  0.864800  1.0  0.0939
  H  H13  1  0.618500  0.087400  0.067000  1.0  0.1078
  H  H14  1  0.837500  0.311700  0.568600  1.0  0.0884
  H  H15  1  0.804400  0.917500  0.318000  1.0  0.0789
  H  H16  1  0.637700  0.067500  0.424400  1.0  0.0934
  H  H17  1  0.162500  0.688300  0.431400  1.0  0.0887
  H  H18  1  0.414000  0.959500  0.288600  1.0  0.1383
  H  H19  1  0.403200  0.214300  0.789800  1.0  0.1105
  H  H20  1  0.125400  0.540500  0.711400  1.0  0.1375
  H  H21  1  0.386600  0.714300  0.789800  1.0  0.1105
  H  H22  1  0.551500  0.412600  0.933000  1.0  0.107
  H  H23  1  0.786700  0.567500  0.424400  1.0  0.094
  H  H24  1  0.513600  0.417500  0.318000  1.0  0.0805
  H  H25  1  0.874600  0.459500  0.288600  1.0  0.1381
  H  H26  1  0.174500  0.174600  0.135200  1.0  0.0931
  H  H27  1  0.268200  0.032400  0.027000  1.0  0.132
  H  H28  1  0.758800  0.532400  0.027000  1.0  0.1321
  H  H29  1  0.586000  0.040500  0.711400  1.0  0.1377
  H  H30  1  0.613400  0.285700  0.210200  1.0  0.1102
  H  H31  1  0.448500  0.587400  0.067000  1.0  0.1081
  H  H32  1  0.731100  0.811700  0.568600  1.0  0.0878
  H  H33  1  0.241200  0.467600  0.973000  1.0  0.1321
  H  H34  1  0.195600  0.082500  0.682000  1.0  0.0811
  H  H35  1  0.039300  0.325400  0.864800  1.0  0.0927
  H  H36  1  0.486400  0.582500  0.682000  1.0  0.0803
  C  C37  1  0.846860  0.342210  0.512720  1.0  0.2204
  C  C38  1  0.321020  0.111200  0.085640  1.0  -0.1977
  C  C39  1  0.020670  0.750660  0.736420  1.0  0.7298
  C  C40  1  0.473040  0.943000  0.956720  1.0  -0.0783
  C  C41  1  0.235380  0.388800  0.914360  1.0  -0.1985
  C  C42  1  0.183120  0.507340  0.572180  1.0  0.1782
  C  C43  1  0.348910  0.358400  0.893580  1.0  0.1012
  C  C44  1  0.500380  0.648690  0.442940  1.0  0.6979
  C  C45  1  0.979330  0.249340  0.263580  1.0  0.731
  C  C46  1  0.523410  0.259000  0.193480  1.0  -0.2035
  C  C47  1  0.665860  0.842210  0.512720  1.0  0.2176
  C  C48  1  0.651090  0.641600  0.106420  1.0  0.1012
  C  C49  1  0.329930  0.241000  0.806520  1.0  -0.2087
  C  C50  1  0.265380  0.197510  0.151820  1.0  0.1904
  C  C51  1  0.467940  0.228590  0.565900  1.0  -0.1293
  C  C52  1  0.532060  0.771410  0.434100  1.0  -0.1283
  C  C53  1  0.544670  0.858400  0.893580  1.0  0.0994
  C  C54  1  0.389060  0.007340  0.572180  1.0  0.1784
  C  C55  1  0.902040  0.271410  0.434100  1.0  -0.1277
  C  C56  1  0.715750  0.250660  0.736420  1.0  0.7232
  C  C57  1  0.153140  0.657790  0.487280  1.0  0.2202
  C  C58  1  0.476590  0.741000  0.806520  1.0  -0.2005
  C  C59  1  0.097960  0.728590  0.565900  1.0  -0.1265
  C  C60  1  0.499620  0.351310  0.557060  1.0  0.6997
  C  C61  1  0.284250  0.749340  0.263580  1.0  0.7253
  C  C62  1  0.942560  0.148690  0.442940  1.0  0.7002
  C  C63  1  0.129920  0.571650  0.654120  1.0  -0.1356
  C  C64  1  0.526960  0.057000  0.043280  1.0  -0.079
  C  C65  1  0.870080  0.428350  0.345880  1.0  -0.1342
  C  C66  1  0.795560  0.839000  0.257320  1.0  0.1751
  C  C67  1  0.678980  0.888800  0.914360  1.0  -0.198
  C  C68  1  0.433430  0.816450  0.350080  1.0  -0.0648
  C  C69  1  0.113560  0.302490  0.848180  1.0  0.1897
  C  C70  1  0.916650  0.316450  0.350080  1.0  -0.0645
  C  C71  1  0.566570  0.183550  0.649920  1.0  -0.062
  C  C72  1  0.764620  0.611200  0.085640  1.0  -0.1964
  C  C73  1  0.334140  0.157790  0.487280  1.0  0.2182
  C  C74  1  0.461760  0.339000  0.257320  1.0  0.1733
  C  C75  1  0.204440  0.161000  0.742680  1.0  0.1754
  C  C76  1  0.524200  0.071650  0.654120  1.0  -0.1379
  C  C77  1  0.475800  0.928350  0.345880  1.0  -0.137
  C  C78  1  0.816880  0.492660  0.427820  1.0  0.1789
  C  C79  1  0.483680  0.443000  0.956720  1.0  -0.0787
  C  C80  1  0.455330  0.141600  0.106420  1.0  0.0989
  C  C81  1  0.734620  0.802490  0.848180  1.0  0.1859
  C  C82  1  0.516320  0.557000  0.043280  1.0  -0.078
  C  C83  1  0.057440  0.851310  0.557060  1.0  0.7008
  C  C84  1  0.886440  0.697510  0.151820  1.0  0.1895
  C  C85  1  0.083350  0.683550  0.649920  1.0  -0.0642
  C  C86  1  0.538240  0.661000  0.742680  1.0  0.1731
  C  C87  1  0.610940  0.992660  0.427820  1.0  0.1786
  C  C88  1  0.670070  0.759000  0.193480  1.0  -0.2099
  N  N89  1  0.705000  0.951850  0.511820  1.0  -0.3102
  N  N90  1  0.095710  0.188370  0.761880  1.0  -0.3212
  N  N91  1  0.333830  0.311630  0.238120  1.0  -0.3209
  N  N92  1  0.904290  0.811630  0.238120  1.0  -0.3205
  N  N93  1  0.193180  0.548150  0.488180  1.0  -0.3112
  N  N94  1  0.806820  0.451850  0.511820  1.0  -0.3107
  N  N95  1  0.666170  0.688370  0.761880  1.0  -0.3184
  N  N96  1  0.295000  0.048150  0.488180  1.0  -0.3102
  O  O97  1  0.374730  0.599280  0.389980  1.0  -0.5868
  O  O98  1  0.895230  0.712910  0.699940  1.0  -0.6273
  O  O99  1  0.397720  0.395790  0.502440  1.0  -0.6019
  O  O100  1  0.984750  0.900720  0.610020  1.0  -0.5877
  O  O101  1  0.015250  0.099280  0.389980  1.0  -0.5854
  O  O102  1  0.602280  0.604210  0.497560  1.0  -0.6031
  O  O103  1  0.740470  0.336830  0.840200  1.0  -0.6355
  O  O104  1  0.625270  0.400720  0.610020  1.0  -0.5864
  O  O105  1  0.099730  0.836830  0.840200  1.0  -0.6289
  O  O106  1  0.195290  0.787090  0.300060  1.0  -0.6236
  O  O107  1  0.259530  0.663170  0.159800  1.0  -0.6352
  O  O108  1  0.104720  0.895790  0.502440  1.0  -0.6029
  O  O109  1  0.895280  0.104210  0.497560  1.0  -0.6018
  O  O110  1  0.104770  0.287090  0.300060  1.0  -0.6296
  O  O111  1  0.804710  0.212910  0.699940  1.0  -0.6256
  O  O112  1  0.900270  0.163170  0.159800  1.0  -0.6295
