# generated using pymatgen
data_Ni2H8C14N2O9
_symmetry_space_group_name_H-M   'P 1'
_cell_length_a   11.04600000
_cell_length_b   11.10460000
_cell_length_c   11.10460000
_cell_angle_alpha   106.76600000
_cell_angle_beta   117.98100000
_cell_angle_gamma   62.01890000
_symmetry_Int_Tables_number   1
_chemical_formula_structural   Ni2H8C14N2O9
_chemical_formula_sum   'Ni4 H16 C28 N4 O18'
_cell_volume   1058.18059138
_cell_formula_units_Z   2
loop_
 _symmetry_equiv_pos_site_id
 _symmetry_equiv_pos_as_xyz
  1  'x, y, z'
loop_
 _atom_site_type_symbol
 _atom_site_label
 _atom_site_symmetry_multiplicity
 _atom_site_fract_x
 _atom_site_fract_y
 _atom_site_fract_z
 _atom_site_occupancy
 _atom_site_charge
  Ni  Ni1  1  0.551480  0.796970  0.655510  1.0  0.8809
  Ni  Ni2  1  0.948520  0.655510  0.796970  1.0  0.8792
  Ni  Ni3  1  0.051480  0.344490  0.203030  1.0  0.8773
  Ni  Ni4  1  0.448520  0.203030  0.344490  1.0  0.885
  H  H5  1  0.598800  0.400800  0.492600  1.0  0.08
  H  H6  1  0.280900  0.967000  0.426400  1.0  0.0823
  H  H7  1  0.098800  0.507400  0.599200  1.0  0.0783
  H  H8  1  0.087700  0.945300  0.226300  1.0  0.1231
  H  H9  1  0.231000  0.190000  0.104600  1.0  0.4459
  H  H10  1  0.769000  0.810000  0.895400  1.0  0.4436
  H  H11  1  0.269000  0.104600  0.190000  1.0  0.4435
  H  H12  1  0.780900  0.573600  0.033000  1.0  0.082
  H  H13  1  0.412300  0.226300  0.945300  1.0  0.1227
  H  H14  1  0.719100  0.033000  0.573600  1.0  0.0814
  H  H15  1  0.219100  0.426400  0.967000  1.0  0.0809
  H  H16  1  0.731000  0.895400  0.810000  1.0  0.4459
  H  H17  1  0.912300  0.054700  0.773700  1.0  0.1228
  H  H18  1  0.587700  0.773700  0.054700  1.0  0.1231
  H  H19  1  0.401200  0.599200  0.507400  1.0  0.0808
  H  H20  1  0.901200  0.492600  0.400800  1.0  0.0787
  C  C21  1  0.232690  0.642570  0.323690  1.0  -0.1449
  C  C22  1  0.847510  0.127890  0.719710  1.0  -0.112
  C  C23  1  0.347510  0.280290  0.872110  1.0  -0.1129
  C  C24  1  0.015810  0.736010  0.098430  1.0  0.7034
  C  C25  1  0.160430  0.448020  0.668180  1.0  0.1925
  C  C26  1  0.732690  0.676310  0.357430  1.0  -0.1443
  C  C27  1  0.733500  0.712470  0.499690  1.0  0.7163
  C  C28  1  0.267090  0.885630  0.402370  1.0  0.1719
  C  C29  1  0.634420  0.761560  0.251340  1.0  -0.0208
  C  C30  1  0.233500  0.500310  0.287530  1.0  0.7179
  C  C31  1  0.266500  0.287530  0.500310  1.0  0.7159
  C  C32  1  0.134420  0.748660  0.238440  1.0  -0.0201
  C  C33  1  0.766500  0.499690  0.712470  1.0  0.7177
  C  C34  1  0.767090  0.597630  0.114370  1.0  0.175
  C  C35  1  0.732910  0.114370  0.597630  1.0  0.1719
  C  C36  1  0.515810  0.901570  0.263990  1.0  0.6976
  C  C37  1  0.865580  0.251340  0.761560  1.0  -0.0198
  C  C38  1  0.267310  0.323690  0.642570  1.0  -0.1424
  C  C39  1  0.152490  0.872110  0.280290  1.0  -0.1118
  C  C40  1  0.839570  0.551980  0.331820  1.0  0.1936
  C  C41  1  0.652490  0.719710  0.127890  1.0  -0.1102
  C  C42  1  0.365580  0.238440  0.748660  1.0  -0.0198
  C  C43  1  0.232910  0.402370  0.885630  1.0  0.1749
  C  C44  1  0.484190  0.098430  0.736010  1.0  0.7053
  C  C45  1  0.660430  0.331820  0.551980  1.0  0.1921
  C  C46  1  0.339570  0.668180  0.448020  1.0  0.193
  C  C47  1  0.984190  0.263990  0.901570  1.0  0.7035
  C  C48  1  0.767310  0.357430  0.676310  1.0  -0.1416
  N  N49  1  0.359030  0.785830  0.487410  1.0  -0.3468
  N  N50  1  0.640970  0.214170  0.512590  1.0  -0.3479
  N  N51  1  0.859030  0.512590  0.214170  1.0  -0.3435
  N  N52  1  0.140970  0.487410  0.785830  1.0  -0.3457
  O  O53  1  0.063700  0.673530  0.005130  1.0  -0.6234
  O  O54  1  0.117590  0.204180  0.916460  1.0  -0.5847
  O  O55  1  0.354040  0.409210  0.353090  1.0  -0.6021
  O  O56  1  0.382600  0.197680  0.485980  1.0  -0.5699
  O  O57  1  0.617590  0.083540  0.795820  1.0  -0.5883
  O  O58  1  0.145960  0.353090  0.409210  1.0  -0.6008
  O  O59  1  0.936300  0.326470  0.994870  1.0  -0.622
  O  O60  1  0.436300  0.005130  0.673530  1.0  -0.622
  O  O61  1  0.382410  0.916460  0.204180  1.0  -0.5863
  O  O62  1  0.250000  0.184980  0.184980  1.0  -0.7881
  O  O63  1  0.617400  0.802320  0.514020  1.0  -0.57
  O  O64  1  0.854040  0.646910  0.590790  1.0  -0.6016
  O  O65  1  0.645960  0.590790  0.646910  1.0  -0.6009
  O  O66  1  0.882600  0.514020  0.802320  1.0  -0.5698
  O  O67  1  0.882410  0.795820  0.083540  1.0  -0.5837
  O  O68  1  0.750000  0.815020  0.815020  1.0  -0.791
  O  O69  1  0.117400  0.485980  0.197680  1.0  -0.5691
  O  O70  1  0.563700  0.994870  0.326470  1.0  -0.6216
