# generated using pymatgen
data_MnH14C23(NO2)2
_symmetry_space_group_name_H-M   'P 1'
_cell_length_a   7.75650000
_cell_length_b   9.56430000
_cell_length_c   15.18950000
_cell_angle_alpha   96.78100000
_cell_angle_beta   94.86800000
_cell_angle_gamma   110.50900000
_symmetry_Int_Tables_number   1
_chemical_formula_structural   MnH14C23(NO2)2
_chemical_formula_sum   'Mn2 H28 C46 N4 O8'
_cell_volume   1038.33802849
_cell_formula_units_Z   2
loop_
 _symmetry_equiv_pos_site_id
 _symmetry_equiv_pos_as_xyz
  1  'x, y, z'
loop_
 _atom_site_type_symbol
 _atom_site_label
 _atom_site_symmetry_multiplicity
 _atom_site_fract_x
 _atom_site_fract_y
 _atom_site_fract_z
 _atom_site_occupancy
 _atom_site_charge
  Mn  Mn1  1  0.293790  0.877350  0.583730  1.0  1.1309
  Mn  Mn2  1  0.706210  0.122650  0.416270  1.0  1.1294
  H  H3  1  0.894600  0.650900  0.926700  1.0  0.1113
  H  H4  1  0.700200  0.872500  0.792100  1.0  0.1108
  H  H5  1  0.605700  0.468900  0.578300  1.0  0.1093
  H  H6  1  0.648400  0.237700  0.975700  1.0  0.1113
  H  H7  1  0.323300  0.936700  0.109700  1.0  0.1047
  H  H8  1  0.676700  0.063300  0.890300  1.0  0.1094
  H  H9  1  0.627100  0.429800  0.074200  1.0  0.1008
  H  H10  1  0.819800  0.221000  0.220900  1.0  0.1132
  H  H11  1  0.837700  0.841300  0.011500  1.0  0.0985
  H  H12  1  0.989300  0.282800  0.764900  1.0  0.1251
  H  H13  1  0.449500  0.771100  0.219800  1.0  0.109
  H  H14  1  0.550500  0.228900  0.780200  1.0  0.1094
  H  H15  1  0.892100  0.073700  0.096500  1.0  0.1239
  H  H16  1  0.105400  0.349100  0.073300  1.0  0.1116
  H  H17  1  0.394300  0.531100  0.421700  1.0  0.1087
  H  H18  1  0.054600  0.519700  0.149400  1.0  0.1223
  H  H19  1  0.858300  0.862100  0.306400  1.0  0.1049
  H  H20  1  0.469800  0.570800  0.126900  1.0  0.1059
  H  H21  1  0.107900  0.926300  0.903500  1.0  0.1237
  H  H22  1  0.351600  0.762300  0.024300  1.0  0.1106
  H  H23  1  0.141700  0.137900  0.693600  1.0  0.1044
  H  H24  1  0.162300  0.158700  0.988500  1.0  0.0979
  H  H25  1  0.372900  0.570200  0.925800  1.0  0.1005
  H  H26  1  0.299800  0.127500  0.207900  1.0  0.111
  H  H27  1  0.530200  0.429200  0.873100  1.0  0.1048
  H  H28  1  0.010700  0.717200  0.235100  1.0  0.1251
  H  H29  1  0.945400  0.480300  0.850600  1.0  0.1236
  H  H30  1  0.180200  0.779000  0.779100  1.0  0.1127
  C  C31  1  0.489900  0.062000  0.031400  1.0  -0.0053
  C  C32  1  0.983500  0.562500  0.027900  1.0  -0.0018
  C  C33  1  0.413100  0.540700  0.362700  1.0  -0.0345
  C  C34  1  0.884300  0.778000  0.039500  1.0  -0.1833
  C  C35  1  0.394400  0.798700  0.393000  1.0  0.7229
  C  C36  1  0.016500  0.437500  0.972100  1.0  -0.0013
  C  C37  1  0.586900  0.459300  0.637300  1.0  -0.0353
  C  C38  1  0.985800  0.703400  0.173000  1.0  -0.1584
  C  C39  1  0.164100  0.870600  0.777400  1.0  0.0433
  C  C40  1  0.420900  0.785700  0.977400  1.0  -0.1241
  C  C41  1  0.856700  0.933000  0.269700  1.0  0.1775
  C  C42  1  0.986100  0.414300  0.879100  1.0  -0.1171
  C  C43  1  0.123700  0.951500  0.846700  1.0  -0.1382
  C  C44  1  0.013900  0.585700  0.120900  1.0  -0.1147
  C  C45  1  0.371900  0.151100  0.162000  1.0  -0.1552
  C  C46  1  0.920300  0.799600  0.131500  1.0  0.1113
  C  C47  1  0.417400  0.673000  0.331100  1.0  -0.1362
  C  C48  1  0.579100  0.214300  0.022600  1.0  -0.1263
  C  C49  1  0.143300  0.067000  0.730300  1.0  0.1774
  C  C50  1  0.628100  0.848900  0.838000  1.0  -0.1558
  C  C51  1  0.079700  0.200400  0.868500  1.0  0.1115
  C  C52  1  0.876300  0.048500  0.153300  1.0  -0.1365
  C  C53  1  0.115700  0.222000  0.960500  1.0  -0.1852
  C  C54  1  0.510100  0.938000  0.968600  1.0  -0.005
  C  C55  1  0.564000  0.576500  0.691400  1.0  -0.0543
  C  C56  1  0.542400  0.436800  0.813300  1.0  -0.1087
  C  C57  1  0.917200  0.662500  0.988700  1.0  -0.1138
  C  C58  1  0.566300  0.330500  0.082300  1.0  -0.1417
  C  C59  1  0.544800  0.703100  0.643700  1.0  0.6671
  C  C60  1  0.082800  0.337500  0.011300  1.0  -0.1141
  C  C61  1  0.442600  0.683200  0.242200  1.0  -0.0596
  C  C62  1  0.605600  0.201300  0.607000  1.0  0.7212
  C  C63  1  0.455200  0.296900  0.356300  1.0  0.6661
  C  C64  1  0.534600  0.696600  0.846000  1.0  0.0503
  C  C65  1  0.582600  0.327000  0.668900  1.0  -0.1362
  C  C66  1  0.014200  0.296600  0.827000  1.0  -0.1574
  C  C67  1  0.545000  0.568500  0.781700  1.0  -0.0
  C  C68  1  0.557400  0.316800  0.757800  1.0  -0.0586
  C  C69  1  0.455000  0.431500  0.218300  1.0  0.0016
  C  C70  1  0.613900  0.963900  0.897800  1.0  -0.1163
  C  C71  1  0.433700  0.669500  0.917700  1.0  -0.142
  C  C72  1  0.386100  0.036100  0.102200  1.0  -0.1185
  C  C73  1  0.465400  0.303400  0.154000  1.0  0.0488
  C  C74  1  0.835900  0.129400  0.222600  1.0  0.0453
  C  C75  1  0.436000  0.423500  0.308600  1.0  -0.0529
  C  C76  1  0.457600  0.563200  0.186700  1.0  -0.1156
  N  N77  1  0.110700  0.078900  0.816300  1.0  0.0434
  N  N78  1  0.822300  0.056200  0.296100  1.0  -0.374
  N  N79  1  0.177700  0.943800  0.703900  1.0  -0.3781
  N  N80  1  0.889300  0.921100  0.183700  1.0  0.044
  O  O81  1  0.394400  0.727500  0.648960  1.0  -0.6233
  O  O82  1  0.672500  0.767500  0.602000  1.0  -0.5513
  O  O83  1  0.327500  0.232500  0.398000  1.0  -0.5508
  O  O84  1  0.319000  0.760700  0.460820  1.0  -0.6427
  O  O85  1  0.681000  0.239300  0.539180  1.0  -0.6436
  O  O86  1  0.451400  0.930200  0.374690  1.0  -0.6558
  O  O87  1  0.548600  0.069800  0.625310  1.0  -0.6495
  O  O88  1  0.605600  0.272500  0.351040  1.0  -0.6231
