# generated using pymatgen
data_Ti2P3O12F
_symmetry_space_group_name_H-M   'P 1'
_cell_length_a   16.65490000
_cell_length_b   6.33780000
_cell_length_c   22.20800000
_cell_angle_alpha   90.00000000
_cell_angle_beta   94.86200000
_cell_angle_gamma   90.00000000
_symmetry_Int_Tables_number   1
_chemical_formula_structural   Ti2P3O12F
_chemical_formula_sum   'Ti16 P24 O96 F8'
_cell_volume   2335.73990375
_cell_formula_units_Z   8
loop_
 _symmetry_equiv_pos_site_id
 _symmetry_equiv_pos_as_xyz
  1  'x, y, z'
loop_
 _atom_site_type_symbol
 _atom_site_label
 _atom_site_symmetry_multiplicity
 _atom_site_fract_x
 _atom_site_fract_y
 _atom_site_fract_z
 _atom_site_occupancy
 _atom_site_charge
  Ti  Ti1  1  0.282700  0.007000  0.575300  1.0  2.063
  Ti  Ti2  1  0.359500  0.997800  0.801100  1.0  2.0788
  Ti  Ti3  1  0.782700  0.507000  0.575300  1.0  2.063
  Ti  Ti4  1  0.859500  0.497800  0.801100  1.0  2.0788
  Ti  Ti5  1  0.717300  0.007000  0.924700  1.0  2.0639
  Ti  Ti6  1  0.640500  0.997800  0.698900  1.0  2.0801
  Ti  Ti7  1  0.217300  0.507000  0.924700  1.0  2.0639
  Ti  Ti8  1  0.140500  0.497800  0.698900  1.0  2.0801
  Ti  Ti9  1  0.717300  0.993000  0.424700  1.0  2.0641
  Ti  Ti10  1  0.640500  0.002200  0.198900  1.0  2.0805
  Ti  Ti11  1  0.217300  0.493000  0.424700  1.0  2.0641
  Ti  Ti12  1  0.140500  0.502200  0.198900  1.0  2.0805
  Ti  Ti13  1  0.282700  0.993000  0.075300  1.0  2.0633
  Ti  Ti14  1  0.359500  0.002200  0.301100  1.0  2.0791
  Ti  Ti15  1  0.782700  0.493000  0.075300  1.0  2.0633
  Ti  Ti16  1  0.859500  0.502200  0.301100  1.0  2.0791
  P  P17  1  0.230600  0.501600  0.569100  1.0  1.8932
  P  P18  1  0.442400  0.927600  0.666900  1.0  1.8421
  P  P19  1  0.195600  0.000700  0.706400  1.0  1.8523
  P  P20  1  0.730600  0.001600  0.569100  1.0  1.8932
  P  P21  1  0.942400  0.427600  0.666900  1.0  1.8421
  P  P22  1  0.695600  0.500700  0.706400  1.0  1.8523
  P  P23  1  0.769400  0.501600  0.930900  1.0  1.8933
  P  P24  1  0.557600  0.927600  0.833100  1.0  1.8435
  P  P25  1  0.804400  0.000700  0.793600  1.0  1.8544
  P  P26  1  0.269400  0.001600  0.930900  1.0  1.8933
  P  P27  1  0.057600  0.427600  0.833100  1.0  1.8435
  P  P28  1  0.304400  0.500700  0.793600  1.0  1.8544
  P  P29  1  0.769400  0.498400  0.430900  1.0  1.8897
  P  P30  1  0.557600  0.072400  0.333100  1.0  1.8437
  P  P31  1  0.804400  0.999300  0.293600  1.0  1.8543
  P  P32  1  0.269400  0.998400  0.430900  1.0  1.8897
  P  P33  1  0.057600  0.572400  0.333100  1.0  1.8437
  P  P34  1  0.304400  0.499300  0.293600  1.0  1.8543
  P  P35  1  0.230600  0.498400  0.069100  1.0  1.8925
  P  P36  1  0.442400  0.072400  0.166900  1.0  1.8421
  P  P37  1  0.195600  0.999300  0.206400  1.0  1.8523
  P  P38  1  0.730600  0.998400  0.069100  1.0  1.8925
  P  P39  1  0.942400  0.572400  0.166900  1.0  1.8421
  P  P40  1  0.695600  0.499300  0.206400  1.0  1.8523
  O  O41  1  0.287600  0.312100  0.577200  1.0  -0.7802
  O  O42  1  0.248500  0.998300  0.653800  1.0  -0.898
  O  O43  1  0.282600  0.700200  0.572500  1.0  -0.7833
  O  O44  1  0.182100  0.489800  0.507200  1.0  -0.6975
  O  O45  1  0.394800  0.995400  0.608000  1.0  -0.7532
  O  O46  1  0.405000  0.006000  0.722700  1.0  -0.8343
  O  O47  1  0.440700  0.681800  0.663800  1.0  -0.4446
  O  O48  1  0.528800  0.006200  0.665000  1.0  -0.8106
  O  O49  1  0.139600  0.807800  0.703500  1.0  -0.7858
  O  O50  1  0.140400  0.195500  0.703000  1.0  -0.8488
  O  O51  1  0.171600  0.503300  0.618600  1.0  -0.8385
  O  O52  1  0.250100  0.001900  0.765600  1.0  -0.8733
  O  O53  1  0.787600  0.812100  0.577200  1.0  -0.7802
  O  O54  1  0.748500  0.498300  0.653800  1.0  -0.898
  O  O55  1  0.782600  0.200200  0.572500  1.0  -0.7833
  O  O56  1  0.682100  0.989800  0.507200  1.0  -0.6975
  O  O57  1  0.894800  0.495400  0.608000  1.0  -0.7532
  O  O58  1  0.905000  0.506000  0.722700  1.0  -0.8343
  O  O59  1  0.940700  0.181800  0.663800  1.0  -0.4446
  O  O60  1  0.028800  0.506200  0.665000  1.0  -0.8106
  O  O61  1  0.639600  0.307800  0.703500  1.0  -0.7858
  O  O62  1  0.640400  0.695500  0.703000  1.0  -0.8488
  O  O63  1  0.671600  0.003300  0.618600  1.0  -0.8385
  O  O64  1  0.750100  0.501900  0.765600  1.0  -0.8733
  O  O65  1  0.712400  0.312100  0.922800  1.0  -0.7805
  O  O66  1  0.751500  0.998300  0.846200  1.0  -0.8977
  O  O67  1  0.717400  0.700200  0.927500  1.0  -0.7822
  O  O68  1  0.817900  0.489800  0.992800  1.0  -0.6992
  O  O69  1  0.605200  0.995400  0.892000  1.0  -0.7542
  O  O70  1  0.595000  0.006000  0.777300  1.0  -0.8362
  O  O71  1  0.559300  0.681800  0.836200  1.0  -0.4458
  O  O72  1  0.471200  0.006200  0.835000  1.0  -0.8098
  O  O73  1  0.860400  0.807800  0.796500  1.0  -0.7853
  O  O74  1  0.859600  0.195500  0.797000  1.0  -0.8476
  O  O75  1  0.828400  0.503300  0.881400  1.0  -0.8393
  O  O76  1  0.749900  0.001900  0.734400  1.0  -0.875
  O  O77  1  0.212400  0.812100  0.922800  1.0  -0.7805
  O  O78  1  0.251500  0.498300  0.846200  1.0  -0.8977
  O  O79  1  0.217400  0.200200  0.927500  1.0  -0.7822
  O  O80  1  0.317900  0.989800  0.992800  1.0  -0.6992
  O  O81  1  0.105200  0.495400  0.892000  1.0  -0.7542
  O  O82  1  0.095000  0.506000  0.777300  1.0  -0.8362
  O  O83  1  0.059300  0.181800  0.836200  1.0  -0.4458
  O  O84  1  0.971200  0.506200  0.835000  1.0  -0.8098
  O  O85  1  0.360400  0.307800  0.796500  1.0  -0.7853
  O  O86  1  0.359600  0.695500  0.797000  1.0  -0.8476
  O  O87  1  0.328400  0.003300  0.881400  1.0  -0.8393
  O  O88  1  0.249900  0.501900  0.734400  1.0  -0.875
  O  O89  1  0.712400  0.687900  0.422800  1.0  -0.7803
  O  O90  1  0.751500  0.001700  0.346200  1.0  -0.8976
  O  O91  1  0.717400  0.299800  0.427500  1.0  -0.7825
  O  O92  1  0.817900  0.510200  0.492800  1.0  -0.6993
  O  O93  1  0.605200  0.004600  0.392000  1.0  -0.7544
  O  O94  1  0.595000  0.994000  0.277300  1.0  -0.8348
  O  O95  1  0.559300  0.318200  0.336200  1.0  -0.4445
  O  O96  1  0.471200  0.993800  0.335000  1.0  -0.8099
  O  O97  1  0.860400  0.192200  0.296500  1.0  -0.7847
  O  O98  1  0.859600  0.804500  0.297000  1.0  -0.848
  O  O99  1  0.828400  0.496700  0.381400  1.0  -0.8393
  O  O100  1  0.749900  0.998100  0.234400  1.0  -0.875
  O  O101  1  0.212400  0.187900  0.422800  1.0  -0.7803
  O  O102  1  0.251500  0.501700  0.346200  1.0  -0.8976
  O  O103  1  0.217400  0.799800  0.427500  1.0  -0.7825
  O  O104  1  0.317900  0.010200  0.492800  1.0  -0.6993
  O  O105  1  0.105200  0.504600  0.392000  1.0  -0.7544
  O  O106  1  0.095000  0.494000  0.277300  1.0  -0.8348
  O  O107  1  0.059300  0.818200  0.336200  1.0  -0.4445
  O  O108  1  0.971200  0.493800  0.335000  1.0  -0.8099
  O  O109  1  0.360400  0.692200  0.296500  1.0  -0.7847
  O  O110  1  0.359600  0.304500  0.297000  1.0  -0.848
  O  O111  1  0.328400  0.996700  0.381400  1.0  -0.8393
  O  O112  1  0.249900  0.498100  0.234400  1.0  -0.875
  O  O113  1  0.287600  0.687900  0.077200  1.0  -0.7795
  O  O114  1  0.248500  0.001700  0.153800  1.0  -0.8979
  O  O115  1  0.282600  0.299800  0.072500  1.0  -0.784
  O  O116  1  0.182100  0.510200  0.007200  1.0  -0.6976
  O  O117  1  0.394800  0.004600  0.108000  1.0  -0.7536
  O  O118  1  0.405000  0.994000  0.222700  1.0  -0.8343
  O  O119  1  0.440700  0.318200  0.163800  1.0  -0.4431
  O  O120  1  0.528800  0.993800  0.165000  1.0  -0.8105
  O  O121  1  0.139600  0.192200  0.203500  1.0  -0.7859
  O  O122  1  0.140400  0.804500  0.203000  1.0  -0.8489
  O  O123  1  0.171600  0.496700  0.118600  1.0  -0.8385
  O  O124  1  0.250100  0.998100  0.265600  1.0  -0.8733
  O  O125  1  0.787600  0.187900  0.077200  1.0  -0.7795
  O  O126  1  0.748500  0.501700  0.153800  1.0  -0.8979
  O  O127  1  0.782600  0.799800  0.072500  1.0  -0.784
  O  O128  1  0.682100  0.010200  0.007200  1.0  -0.6976
  O  O129  1  0.894800  0.504600  0.108000  1.0  -0.7536
  O  O130  1  0.905000  0.494000  0.222700  1.0  -0.8343
  O  O131  1  0.940700  0.818200  0.163800  1.0  -0.4431
  O  O132  1  0.028800  0.493800  0.165000  1.0  -0.8105
  O  O133  1  0.639600  0.692200  0.203500  1.0  -0.7859
  O  O134  1  0.640400  0.304500  0.203000  1.0  -0.8489
  O  O135  1  0.671600  0.996700  0.118600  1.0  -0.8385
  O  O136  1  0.750100  0.498100  0.265600  1.0  -0.8733
  F  F137  1  0.175900  0.015800  0.544600  1.0  -0.3818
  F  F138  1  0.675900  0.515800  0.544600  1.0  -0.3818
  F  F139  1  0.824100  0.015800  0.955400  1.0  -0.3822
  F  F140  1  0.324100  0.515800  0.955400  1.0  -0.3822
  F  F141  1  0.824100  0.984200  0.455400  1.0  -0.3822
  F  F142  1  0.324100  0.484200  0.455400  1.0  -0.3822
  F  F143  1  0.175900  0.984200  0.044600  1.0  -0.3818
  F  F144  1  0.675900  0.484200  0.044600  1.0  -0.3818
