# generated using pymatgen
data_Zn2H9C19(NO4)2
_symmetry_space_group_name_H-M   'P 1'
_cell_length_a   17.73490000
_cell_length_b   17.73490000
_cell_length_c   28.17320000
_cell_angle_alpha   90.00000000
_cell_angle_beta   90.00000000
_cell_angle_gamma   90.00000000
_symmetry_Int_Tables_number   1
_chemical_formula_structural   Zn2H9C19(NO4)2
_chemical_formula_sum   'Zn16 H72 C152 N16 O64'
_cell_volume   8861.22300491
_cell_formula_units_Z   8
loop_
 _symmetry_equiv_pos_site_id
 _symmetry_equiv_pos_as_xyz
  1  'x, y, z'
loop_
 _atom_site_type_symbol
 _atom_site_label
 _atom_site_symmetry_multiplicity
 _atom_site_fract_x
 _atom_site_fract_y
 _atom_site_fract_z
 _atom_site_occupancy
 _atom_site_charge
  Zn  Zn1  1  0.545540  0.045540  0.964970  1.0  1.1453
  Zn  Zn2  1  0.954460  0.454460  0.964970  1.0  1.146
  Zn  Zn3  1  0.454460  0.545540  0.464970  1.0  1.1455
  Zn  Zn4  1  0.045540  0.954460  0.464970  1.0  1.1455
  Zn  Zn5  1  0.954460  0.045540  0.535030  1.0  1.1454
  Zn  Zn6  1  0.545540  0.454460  0.535030  1.0  1.1455
  Zn  Zn7  1  0.045540  0.545540  0.035030  1.0  1.1466
  Zn  Zn8  1  0.454460  0.954460  0.035030  1.0  1.1448
  Zn  Zn9  1  0.250000  0.165450  0.250000  1.0  1.124
  Zn  Zn10  1  0.250000  0.334550  0.250000  1.0  1.1258
  Zn  Zn11  1  0.334550  0.250000  0.750000  1.0  1.1212
  Zn  Zn12  1  0.165450  0.250000  0.750000  1.0  1.1163
  Zn  Zn13  1  0.750000  0.834550  0.750000  1.0  1.1256
  Zn  Zn14  1  0.750000  0.665450  0.750000  1.0  1.1241
  Zn  Zn15  1  0.665450  0.750000  0.250000  1.0  1.1163
  Zn  Zn16  1  0.834550  0.750000  0.250000  1.0  1.1212
  H  H17  1  0.387600  0.141800  0.126000  1.0  0.0956
  H  H18  1  0.438300  0.360900  0.151200  1.0  0.1112
  H  H19  1  0.536000  0.250800  0.042300  1.0  0.1078
  H  H20  1  0.503900  0.399300  0.013300  1.0  0.0991
  H  H21  1  0.112400  0.358200  0.126000  1.0  0.0954
  H  H22  1  0.061700  0.139100  0.151200  1.0  0.1108
  H  H23  1  0.964000  0.249200  0.042300  1.0  0.1078
  H  H24  1  0.996100  0.100700  0.013300  1.0  0.0993
  H  H25  1  0.358200  0.387600  0.626000  1.0  0.0953
  H  H26  1  0.139100  0.438300  0.651200  1.0  0.1105
  H  H27  1  0.249200  0.536000  0.542300  1.0  0.1082
  H  H28  1  0.100700  0.503900  0.513300  1.0  0.0992
  H  H29  1  0.141800  0.112400  0.626000  1.0  0.0952
  H  H30  1  0.360900  0.061700  0.651200  1.0  0.11
  H  H31  1  0.250800  0.964000  0.542300  1.0  0.1081
  H  H32  1  0.399300  0.996100  0.513300  1.0  0.0993
  H  H33  1  0.112400  0.141800  0.374000  1.0  0.0958
  H  H34  1  0.061700  0.360900  0.348800  1.0  0.1108
  H  H35  1  0.964000  0.250800  0.457700  1.0  0.1085
  H  H36  1  0.996100  0.399300  0.486700  1.0  0.0991
  H  H37  1  0.387600  0.358200  0.374000  1.0  0.0957
  H  H38  1  0.438300  0.139100  0.348800  1.0  0.111
  H  H39  1  0.536000  0.249200  0.457700  1.0  0.1078
  H  H40  1  0.503900  0.100700  0.486700  1.0  0.0992
  H  H41  1  0.141800  0.387600  0.874000  1.0  0.0954
  H  H42  1  0.360900  0.438300  0.848800  1.0  0.1103
  H  H43  1  0.250800  0.536000  0.957700  1.0  0.1088
  H  H44  1  0.399300  0.503900  0.986700  1.0  0.0991
  H  H45  1  0.358200  0.112400  0.874000  1.0  0.0957
  H  H46  1  0.139100  0.061700  0.848800  1.0  0.1104
  H  H47  1  0.249200  0.964000  0.957700  1.0  0.1084
  H  H48  1  0.100700  0.996100  0.986700  1.0  0.099
  H  H49  1  0.612400  0.858200  0.874000  1.0  0.0958
  H  H50  1  0.561700  0.639100  0.848800  1.0  0.1105
  H  H51  1  0.464000  0.749200  0.957700  1.0  0.1084
  H  H52  1  0.496100  0.600700  0.986700  1.0  0.0993
  H  H53  1  0.887600  0.641800  0.874000  1.0  0.0954
  H  H54  1  0.938300  0.860900  0.848800  1.0  0.1111
  H  H55  1  0.036000  0.750800  0.957700  1.0  0.1081
  H  H56  1  0.003900  0.899300  0.986700  1.0  0.0992
  H  H57  1  0.641800  0.612400  0.374000  1.0  0.0955
  H  H58  1  0.860900  0.561700  0.348800  1.0  0.1103
  H  H59  1  0.750800  0.464000  0.457700  1.0  0.1086
  H  H60  1  0.899300  0.496100  0.486700  1.0  0.0997
  H  H61  1  0.858200  0.887600  0.374000  1.0  0.0954
  H  H62  1  0.639100  0.938300  0.348800  1.0  0.1102
  H  H63  1  0.749200  0.036000  0.457700  1.0  0.1087
  H  H64  1  0.600700  0.003900  0.486700  1.0  0.0991
  H  H65  1  0.887600  0.858200  0.626000  1.0  0.0955
  H  H66  1  0.938300  0.639100  0.651200  1.0  0.1114
  H  H67  1  0.036000  0.749200  0.542300  1.0  0.1076
  H  H68  1  0.003900  0.600700  0.513300  1.0  0.0993
  H  H69  1  0.612400  0.641800  0.626000  1.0  0.0958
  H  H70  1  0.561700  0.860900  0.651200  1.0  0.1108
  H  H71  1  0.464000  0.750800  0.542300  1.0  0.1078
  H  H72  1  0.496100  0.899300  0.513300  1.0  0.0999
  H  H73  1  0.858200  0.612400  0.126000  1.0  0.0952
  H  H74  1  0.639100  0.561700  0.151200  1.0  0.1104
  H  H75  1  0.749200  0.464000  0.042300  1.0  0.1081
  H  H76  1  0.600700  0.496100  0.013300  1.0  0.0993
  H  H77  1  0.641800  0.887600  0.126000  1.0  0.0955
  H  H78  1  0.860900  0.938300  0.151200  1.0  0.1102
  H  H79  1  0.750800  0.036000  0.042300  1.0  0.1082
  H  H80  1  0.899300  0.003900  0.013300  1.0  0.0992
  H  H81  1  0.612000  0.388000  0.132000  1.0  0.0844
  H  H82  1  0.888000  0.112000  0.132000  1.0  0.0844
  H  H83  1  0.112000  0.612000  0.632000  1.0  0.0843
  H  H84  1  0.388000  0.888000  0.632000  1.0  0.0844
  H  H85  1  0.888000  0.388000  0.368000  1.0  0.0836
  H  H86  1  0.612000  0.112000  0.368000  1.0  0.0838
  H  H87  1  0.388000  0.612000  0.868000  1.0  0.0834
  H  H88  1  0.112000  0.888000  0.868000  1.0  0.0839
  C  C89  1  0.463600  0.185100  0.079810  1.0  -0.1809
  C  C90  1  0.414800  0.186200  0.118090  1.0  -0.0148
  C  C91  1  0.444500  0.316000  0.133240  1.0  -0.1258
  C  C92  1  0.491800  0.313800  0.095610  1.0  0.1622
  C  C93  1  0.502300  0.250000  0.068500  1.0  -0.14
  C  C94  1  0.535500  0.412400  0.039200  1.0  -0.1071
  C  C95  1  0.350300  0.250800  0.185470  1.0  0.6901
  C  C96  1  0.474700  0.115600  0.050550  1.0  0.7026
  C  C97  1  0.404800  0.250300  0.145100  1.0  -0.1565
  C  C98  1  0.036400  0.314900  0.079810  1.0  -0.18
  C  C99  1  0.085200  0.313800  0.118090  1.0  -0.0166
  C  C100  1  0.055500  0.184000  0.133240  1.0  -0.1259
  C  C101  1  0.008200  0.186200  0.095610  1.0  0.1623
  C  C102  1  0.997700  0.250000  0.068500  1.0  -0.1409
  C  C103  1  0.964500  0.087600  0.039200  1.0  -0.1063
  C  C104  1  0.149700  0.249200  0.185470  1.0  0.6886
  C  C105  1  0.025300  0.384400  0.050550  1.0  0.7025
  C  C106  1  0.095200  0.249700  0.145100  1.0  -0.1569
  C  C107  1  0.314900  0.463600  0.579810  1.0  -0.1811
  C  C108  1  0.313800  0.414800  0.618090  1.0  -0.0162
  C  C109  1  0.184000  0.444500  0.633240  1.0  -0.1268
  C  C110  1  0.186200  0.491800  0.595610  1.0  0.1617
  C  C111  1  0.250000  0.502300  0.568500  1.0  -0.1393
  C  C112  1  0.087600  0.535500  0.539200  1.0  -0.1071
  C  C113  1  0.249200  0.350300  0.685470  1.0  0.6915
  C  C114  1  0.384400  0.474700  0.550550  1.0  0.7024
  C  C115  1  0.249700  0.404800  0.645100  1.0  -0.1559
  C  C116  1  0.185100  0.036400  0.579810  1.0  -0.1814
  C  C117  1  0.186200  0.085200  0.618090  1.0  -0.0159
  C  C118  1  0.316000  0.055500  0.633240  1.0  -0.1264
  C  C119  1  0.313800  0.008200  0.595610  1.0  0.162
  C  C120  1  0.250000  0.997700  0.568500  1.0  -0.1399
  C  C121  1  0.412400  0.964500  0.539200  1.0  -0.1057
  C  C122  1  0.250800  0.149700  0.685470  1.0  0.692
  C  C123  1  0.115600  0.025300  0.550550  1.0  0.7025
  C  C124  1  0.250300  0.095200  0.645100  1.0  -0.156
  C  C125  1  0.036400  0.185100  0.420190  1.0  -0.1808
  C  C126  1  0.085200  0.186200  0.381910  1.0  -0.0153
  C  C127  1  0.055500  0.316000  0.366760  1.0  -0.1269
  C  C128  1  0.008200  0.313800  0.404390  1.0  0.1625
  C  C129  1  0.997700  0.250000  0.431500  1.0  -0.141
  C  C130  1  0.964500  0.412400  0.460800  1.0  -0.1046
  C  C131  1  0.149700  0.250800  0.314530  1.0  0.6892
  C  C132  1  0.025300  0.115600  0.449450  1.0  0.7024
  C  C133  1  0.095200  0.250300  0.354900  1.0  -0.1557
  C  C134  1  0.463600  0.314900  0.420190  1.0  -0.1801
  C  C135  1  0.414800  0.313800  0.381910  1.0  -0.0154
  C  C136  1  0.444500  0.184000  0.366760  1.0  -0.1255
  C  C137  1  0.491800  0.186200  0.404390  1.0  0.1625
  C  C138  1  0.502300  0.250000  0.431500  1.0  -0.1396
  C  C139  1  0.535500  0.087600  0.460800  1.0  -0.1055
  C  C140  1  0.350300  0.249200  0.314530  1.0  0.6907
  C  C141  1  0.474700  0.384400  0.449450  1.0  0.7028
  C  C142  1  0.404800  0.249700  0.354900  1.0  -0.1562
  C  C143  1  0.185100  0.463600  0.920190  1.0  -0.1813
  C  C144  1  0.186200  0.414800  0.881910  1.0  -0.0162
  C  C145  1  0.316000  0.444500  0.866760  1.0  -0.127
  C  C146  1  0.313800  0.491800  0.904390  1.0  0.1624
  C  C147  1  0.250000  0.502300  0.931500  1.0  -0.1405
  C  C148  1  0.412400  0.535500  0.960800  1.0  -0.1047
  C  C149  1  0.250800  0.350300  0.814530  1.0  0.6921
  C  C150  1  0.115600  0.474700  0.949450  1.0  0.7027
  C  C151  1  0.250300  0.404800  0.854900  1.0  -0.1555
  C  C152  1  0.314900  0.036400  0.920190  1.0  -0.1815
  C  C153  1  0.313800  0.085200  0.881910  1.0  -0.0157
  C  C154  1  0.184000  0.055500  0.866760  1.0  -0.1278
  C  C155  1  0.186200  0.008200  0.904390  1.0  0.1619
  C  C156  1  0.250000  0.997700  0.931500  1.0  -0.139
  C  C157  1  0.087600  0.964500  0.960800  1.0  -0.1044
  C  C158  1  0.249200  0.149700  0.814530  1.0  0.6927
  C  C159  1  0.384400  0.025300  0.949450  1.0  0.7022
  C  C160  1  0.249700  0.095200  0.854900  1.0  -0.1554
  C  C161  1  0.536400  0.814900  0.920190  1.0  -0.1801
  C  C162  1  0.585200  0.813800  0.881910  1.0  -0.0161
  C  C163  1  0.555500  0.684000  0.866760  1.0  -0.1266
  C  C164  1  0.508200  0.686200  0.904390  1.0  0.1626
  C  C165  1  0.497700  0.750000  0.931500  1.0  -0.1411
  C  C166  1  0.464500  0.587600  0.960800  1.0  -0.1043
  C  C167  1  0.649700  0.749200  0.814530  1.0  0.6892
  C  C168  1  0.525300  0.884400  0.949450  1.0  0.7025
  C  C169  1  0.595200  0.749700  0.854900  1.0  -0.1559
  C  C170  1  0.963600  0.685100  0.920190  1.0  -0.1808
  C  C171  1  0.914800  0.686200  0.881910  1.0  -0.0148
  C  C172  1  0.944500  0.816000  0.866760  1.0  -0.1262
  C  C173  1  0.991800  0.813800  0.904390  1.0  0.1624
  C  C174  1  0.002300  0.750000  0.931500  1.0  -0.1397
  C  C175  1  0.035500  0.912400  0.960800  1.0  -0.1057
  C  C176  1  0.850300  0.750800  0.814530  1.0  0.6907
  C  C177  1  0.974700  0.615600  0.949450  1.0  0.7027
  C  C178  1  0.904800  0.750300  0.854900  1.0  -0.156
  C  C179  1  0.685100  0.536400  0.420190  1.0  -0.1812
  C  C180  1  0.686200  0.585200  0.381910  1.0  -0.0157
  C  C181  1  0.816000  0.555500  0.366760  1.0  -0.1271
  C  C182  1  0.813800  0.508200  0.404390  1.0  0.1623
  C  C183  1  0.750000  0.497700  0.431500  1.0  -0.1399
  C  C184  1  0.912400  0.464500  0.460800  1.0  -0.1047
  C  C185  1  0.750800  0.649700  0.314530  1.0  0.6927
  C  C186  1  0.615600  0.525300  0.449450  1.0  0.7025
  C  C187  1  0.750300  0.595200  0.354900  1.0  -0.1554
  C  C188  1  0.814900  0.963600  0.420190  1.0  -0.1815
  C  C189  1  0.813800  0.914800  0.381910  1.0  -0.016
  C  C190  1  0.684000  0.944500  0.366760  1.0  -0.1275
  C  C191  1  0.686200  0.991800  0.404390  1.0  0.162
  C  C192  1  0.750000  0.002300  0.431500  1.0  -0.1396
  C  C193  1  0.587600  0.035500  0.460800  1.0  -0.1047
  C  C194  1  0.749200  0.850300  0.314530  1.0  0.6921
  C  C195  1  0.884400  0.974700  0.449450  1.0  0.7025
  C  C196  1  0.749700  0.904800  0.354900  1.0  -0.1556
  C  C197  1  0.963600  0.814900  0.579810  1.0  -0.18
  C  C198  1  0.914800  0.813800  0.618090  1.0  -0.0159
  C  C199  1  0.944500  0.684000  0.633240  1.0  -0.1253
  C  C200  1  0.991800  0.686200  0.595610  1.0  0.1622
  C  C201  1  0.002300  0.750000  0.568500  1.0  -0.1396
  C  C202  1  0.035500  0.587600  0.539200  1.0  -0.1065
  C  C203  1  0.850300  0.749200  0.685470  1.0  0.6901
  C  C204  1  0.974700  0.884400  0.550550  1.0  0.7029
  C  C205  1  0.904800  0.749700  0.645100  1.0  -0.1566
  C  C206  1  0.536400  0.685100  0.579810  1.0  -0.1809
  C  C207  1  0.585200  0.686200  0.618090  1.0  -0.0152
  C  C208  1  0.555500  0.816000  0.633240  1.0  -0.1262
  C  C209  1  0.508200  0.813800  0.595610  1.0  0.1623
  C  C210  1  0.497700  0.750000  0.568500  1.0  -0.1411
  C  C211  1  0.464500  0.912400  0.539200  1.0  -0.1068
  C  C212  1  0.649700  0.750800  0.685470  1.0  0.6886
  C  C213  1  0.525300  0.615600  0.550550  1.0  0.7022
  C  C214  1  0.595200  0.750300  0.645100  1.0  -0.1567
  C  C215  1  0.814900  0.536400  0.079810  1.0  -0.1811
  C  C216  1  0.813800  0.585200  0.118090  1.0  -0.016
  C  C217  1  0.684000  0.555500  0.133240  1.0  -0.1271
  C  C218  1  0.686200  0.508200  0.095610  1.0  0.1616
  C  C219  1  0.750000  0.497700  0.068500  1.0  -0.1392
  C  C220  1  0.587600  0.464500  0.039200  1.0  -0.1063
  C  C221  1  0.749200  0.649700  0.185470  1.0  0.692
  C  C222  1  0.884400  0.525300  0.050550  1.0  0.7021
  C  C223  1  0.749700  0.595200  0.145100  1.0  -0.156
  C  C224  1  0.685100  0.963600  0.079810  1.0  -0.1814
  C  C225  1  0.686200  0.914800  0.118090  1.0  -0.0163
  C  C226  1  0.816000  0.944500  0.133240  1.0  -0.1261
  C  C227  1  0.813800  0.991800  0.095610  1.0  0.1621
  C  C228  1  0.750000  0.002300  0.068500  1.0  -0.14
  C  C229  1  0.912400  0.035500  0.039200  1.0  -0.1065
  C  C230  1  0.750800  0.850300  0.185470  1.0  0.6915
  C  C231  1  0.615600  0.974700  0.050550  1.0  0.7027
  C  C232  1  0.750300  0.904800  0.145100  1.0  -0.1559
  C  C233  1  0.591800  0.408200  0.103500  1.0  0.153
  C  C234  1  0.908200  0.091800  0.103500  1.0  0.1507
  C  C235  1  0.091800  0.591800  0.603500  1.0  0.1532
  C  C236  1  0.408200  0.908200  0.603500  1.0  0.1506
  C  C237  1  0.908200  0.408200  0.396500  1.0  0.1492
  C  C238  1  0.591800  0.091800  0.396500  1.0  0.151
  C  C239  1  0.408200  0.591800  0.896500  1.0  0.1498
  C  C240  1  0.091800  0.908200  0.896500  1.0  0.1504
  N  N241  1  0.534800  0.380600  0.082870  1.0  -0.0085
  N  N242  1  0.965200  0.119400  0.082870  1.0  -0.0107
  N  N243  1  0.119400  0.534800  0.582870  1.0  -0.0068
  N  N244  1  0.380600  0.965200  0.582870  1.0  -0.0079
  N  N245  1  0.965200  0.380600  0.417130  1.0  -0.0104
  N  N246  1  0.534800  0.119400  0.417130  1.0  -0.0081
  N  N247  1  0.380600  0.534800  0.917130  1.0  -0.0059
  N  N248  1  0.119400  0.965200  0.917130  1.0  -0.0072
  N  N249  1  0.465200  0.619400  0.917130  1.0  -0.0101
  N  N250  1  0.034800  0.880600  0.917130  1.0  -0.0081
  N  N251  1  0.880600  0.465200  0.417130  1.0  -0.007
  N  N252  1  0.619400  0.034800  0.417130  1.0  -0.0061
  N  N253  1  0.034800  0.619400  0.582870  1.0  -0.0087
  N  N254  1  0.465200  0.880600  0.582870  1.0  -0.0108
  N  N255  1  0.619400  0.465200  0.082870  1.0  -0.0082
  N  N256  1  0.880600  0.034800  0.082870  1.0  -0.0066
  O  O257  1  0.512000  0.122380  0.013540  1.0  -0.6422
  O  O258  1  0.444960  0.055940  0.066260  1.0  -0.6115
  O  O259  1  0.317360  0.189750  0.194270  1.0  -0.6243
  O  O260  1  0.339250  0.312380  0.206670  1.0  -0.609
  O  O261  1  0.988000  0.377620  0.013540  1.0  -0.6414
  O  O262  1  0.055040  0.444060  0.066260  1.0  -0.6121
  O  O263  1  0.182640  0.310250  0.194270  1.0  -0.6243
  O  O264  1  0.160750  0.187620  0.206670  1.0  -0.6091
  O  O265  1  0.377620  0.512000  0.513540  1.0  -0.6411
  O  O266  1  0.444060  0.444960  0.566260  1.0  -0.6122
  O  O267  1  0.310250  0.317360  0.694270  1.0  -0.6259
  O  O268  1  0.187620  0.339250  0.706670  1.0  -0.6097
  O  O269  1  0.122380  0.988000  0.513540  1.0  -0.6421
  O  O270  1  0.055940  0.055040  0.566260  1.0  -0.611
  O  O271  1  0.189750  0.182640  0.694270  1.0  -0.6265
  O  O272  1  0.312380  0.160750  0.706670  1.0  -0.6091
  O  O273  1  0.988000  0.122380  0.486460  1.0  -0.6415
  O  O274  1  0.055040  0.055940  0.433740  1.0  -0.6115
  O  O275  1  0.182640  0.189750  0.305730  1.0  -0.6248
  O  O276  1  0.160750  0.312380  0.293330  1.0  -0.6097
  O  O277  1  0.512000  0.377620  0.486460  1.0  -0.6401
  O  O278  1  0.444960  0.444060  0.433740  1.0  -0.6113
  O  O279  1  0.317360  0.310250  0.305730  1.0  -0.6239
  O  O280  1  0.339250  0.187620  0.293330  1.0  -0.6093
  O  O281  1  0.122380  0.512000  0.986460  1.0  -0.6411
  O  O282  1  0.055940  0.444960  0.933740  1.0  -0.6104
  O  O283  1  0.189750  0.317360  0.805730  1.0  -0.6265
  O  O284  1  0.312380  0.339250  0.793330  1.0  -0.609
  O  O285  1  0.377620  0.988000  0.986460  1.0  -0.6407
  O  O286  1  0.444060  0.055040  0.933740  1.0  -0.6116
  O  O287  1  0.310250  0.182640  0.805730  1.0  -0.6258
  O  O288  1  0.187620  0.160750  0.793330  1.0  -0.6097
  O  O289  1  0.488000  0.877620  0.986460  1.0  -0.6404
  O  O290  1  0.555040  0.944060  0.933740  1.0  -0.6119
  O  O291  1  0.682640  0.810250  0.805730  1.0  -0.6246
  O  O292  1  0.660750  0.687620  0.793330  1.0  -0.6091
  O  O293  1  0.012000  0.622380  0.986460  1.0  -0.6411
  O  O294  1  0.944960  0.555940  0.933740  1.0  -0.6107
  O  O295  1  0.817360  0.689750  0.805730  1.0  -0.6244
  O  O296  1  0.839250  0.812380  0.793330  1.0  -0.6093
  O  O297  1  0.622380  0.488000  0.486460  1.0  -0.6408
  O  O298  1  0.555940  0.555040  0.433740  1.0  -0.6107
  O  O299  1  0.689750  0.682640  0.305730  1.0  -0.6266
  O  O300  1  0.812380  0.660750  0.293330  1.0  -0.6091
  O  O301  1  0.877620  0.012000  0.486460  1.0  -0.6412
  O  O302  1  0.944060  0.944960  0.433740  1.0  -0.6112
  O  O303  1  0.810250  0.817360  0.305730  1.0  -0.6258
  O  O304  1  0.687620  0.839250  0.293330  1.0  -0.6095
  O  O305  1  0.012000  0.877620  0.513540  1.0  -0.6417
  O  O306  1  0.944960  0.944060  0.566260  1.0  -0.6117
  O  O307  1  0.817360  0.810250  0.694270  1.0  -0.6238
  O  O308  1  0.839250  0.687620  0.706670  1.0  -0.609
  O  O309  1  0.488000  0.622380  0.513540  1.0  -0.6414
  O  O310  1  0.555040  0.555940  0.566260  1.0  -0.6124
  O  O311  1  0.682640  0.689750  0.694270  1.0  -0.6245
  O  O312  1  0.660750  0.812380  0.706670  1.0  -0.6099
  O  O313  1  0.877620  0.488000  0.013540  1.0  -0.6411
  O  O314  1  0.944060  0.555040  0.066260  1.0  -0.6118
  O  O315  1  0.810250  0.682640  0.194270  1.0  -0.6258
  O  O316  1  0.687620  0.660750  0.206670  1.0  -0.6095
  O  O317  1  0.622380  0.012000  0.013540  1.0  -0.6417
  O  O318  1  0.555940  0.944960  0.066260  1.0  -0.6114
  O  O319  1  0.689750  0.817360  0.194270  1.0  -0.6265
  O  O320  1  0.812380  0.839250  0.206670  1.0  -0.6095
