# generated using pymatgen
data_Ti3P7(H2O9)3
_symmetry_space_group_name_H-M   'P 1'
_cell_length_a   10.31830000
_cell_length_b   10.75010000
_cell_length_c   10.83150000
_cell_angle_alpha   73.43600000
_cell_angle_beta   79.64800000
_cell_angle_gamma   83.26000000
_symmetry_Int_Tables_number   1
_chemical_formula_structural   Ti3P7(H2O9)3
_chemical_formula_sum   'Ti6 P14 H12 O54'
_cell_volume   1130.06607917
_cell_formula_units_Z   2
loop_
 _symmetry_equiv_pos_site_id
 _symmetry_equiv_pos_as_xyz
  1  'x, y, z'
loop_
 _atom_site_type_symbol
 _atom_site_label
 _atom_site_symmetry_multiplicity
 _atom_site_fract_x
 _atom_site_fract_y
 _atom_site_fract_z
 _atom_site_occupancy
 _atom_site_charge
  Ti  Ti1  1  0.088100  0.183500  0.294500  1.0  1.9948
  Ti  Ti2  1  0.487300  0.416800  0.306200  1.0  1.8868
  Ti  Ti3  1  0.890300  0.640900  0.320700  1.0  2.0049
  Ti  Ti4  1  0.911900  0.816500  0.705500  1.0  1.9972
  Ti  Ti5  1  0.512700  0.583200  0.693800  1.0  1.8864
  Ti  Ti6  1  0.109700  0.359100  0.679300  1.0  2.0115
  P  P7  1  0.930200  0.916200  0.372300  1.0  1.7813
  P  P8  1  0.158200  0.319400  0.981000  1.0  1.7066
  P  P9  1  0.401400  0.116000  0.319200  1.0  1.8124
  P  P10  1  0.162300  0.453400  0.349600  1.0  1.7849
  P  P11  1  0.794200  0.337000  0.356200  1.0  1.6974
  P  P12  1  0.566100  0.686800  0.362800  1.0  1.9323
  P  P13  1  0.450900  0.567700  0.009400  1.0  1.5753
  P  P14  1  0.069800  0.083800  0.627700  1.0  1.784
  P  P15  1  0.841800  0.680600  0.019000  1.0  1.7056
  P  P16  1  0.598600  0.884000  0.680800  1.0  1.8113
  P  P17  1  0.837700  0.546600  0.650400  1.0  1.7848
  P  P18  1  0.205800  0.663000  0.643800  1.0  1.6985
  P  P19  1  0.433900  0.313200  0.637200  1.0  1.9344
  P  P20  1  0.549100  0.432300  0.990600  1.0  1.5758
  H  H21  1  0.779900  0.048300  0.380100  1.0  0.4614
  H  H22  1  0.343300  0.343600  0.895000  1.0  0.4018
  H  H23  1  0.049200  0.480000  0.007800  1.0  0.4087
  H  H24  1  0.497800  0.971400  0.252600  1.0  0.4486
  H  H25  1  0.828700  0.269100  0.540900  1.0  0.4528
  H  H26  1  0.274300  0.643000  0.974700  1.0  0.4309
  H  H27  1  0.220100  0.951700  0.619900  1.0  0.4588
  H  H28  1  0.656700  0.656400  0.105000  1.0  0.4027
  H  H29  1  0.950800  0.520000  0.992200  1.0  0.4137
  H  H30  1  0.502200  0.028600  0.747400  1.0  0.447
  H  H31  1  0.171300  0.730900  0.459100  1.0  0.452
  H  H32  1  0.725700  0.357000  0.025300  1.0  0.4339
  O  O33  1  0.034800  0.012600  0.303900  1.0  -0.8207
  O  O34  1  0.931700  0.863500  0.517900  1.0  -0.8541
  O  O35  1  0.793900  0.987700  0.346500  1.0  -0.6422
  O  O36  1  0.959300  0.806400  0.304400  1.0  -0.7946
  O  O37  1  0.098700  0.224800  0.103700  1.0  -0.8134
  O  O38  1  0.310400  0.292500  0.962000  1.0  -0.6181
  O  O39  1  0.129200  0.463700  0.993200  1.0  -0.5971
  O  O40  1  0.096300  0.304800  0.871100  1.0  -0.8238
  O  O41  1  0.269600  0.110500  0.277900  1.0  -0.8355
  O  O42  1  0.437300  0.253500  0.292600  1.0  -0.8402
  O  O43  1  0.394600  0.040800  0.463200  1.0  -0.682
  O  O44  1  0.513900  0.047200  0.240600  1.0  -0.6576
  O  O45  1  0.143500  0.349600  0.282000  1.0  -0.9023
  O  O46  1  0.306700  0.488500  0.316000  1.0  -0.8621
  O  O47  1  0.077100  0.577600  0.298600  1.0  -0.799
  O  O48  1  0.122000  0.399100  0.496600  1.0  -0.9123
  O  O49  1  0.671300  0.340200  0.294500  1.0  -0.8107
  O  O50  1  0.762300  0.273300  0.507800  1.0  -0.6665
  O  O51  1  0.903600  0.253300  0.298200  1.0  -0.7988
  O  O52  1  0.837400  0.473000  0.334600  1.0  -0.9009
  O  O53  1  0.547100  0.579000  0.301900  1.0  -0.8083
  O  O54  1  0.530000  0.638000  0.510400  1.0  -0.9193
  O  O55  1  0.711200  0.717300  0.328700  1.0  -0.8562
  O  O56  1  0.476500  0.804100  0.312200  1.0  -0.7777
  O  O57  1  0.507700  0.474600  0.116700  1.0  -0.5683
  O  O58  1  0.300800  0.590300  0.037800  1.0  -0.6046
  O  O59  1  0.492000  0.702000  0.999000  1.0  -0.6122
  O  O60  1  0.965200  0.987400  0.696100  1.0  -0.8234
  O  O61  1  0.068300  0.136500  0.482100  1.0  -0.856
  O  O62  1  0.206100  0.012300  0.653500  1.0  -0.6425
  O  O63  1  0.040700  0.193600  0.695600  1.0  -0.7956
  O  O64  1  0.901300  0.775200  0.896300  1.0  -0.8139
  O  O65  1  0.689600  0.707500  0.038000  1.0  -0.6196
  O  O66  1  0.870800  0.536300  0.006800  1.0  -0.6014
  O  O67  1  0.903700  0.695200  0.128900  1.0  -0.8228
  O  O68  1  0.730400  0.889500  0.722100  1.0  -0.8391
  O  O69  1  0.562700  0.746500  0.707400  1.0  -0.8415
  O  O70  1  0.605400  0.959200  0.536800  1.0  -0.6812
  O  O71  1  0.486100  0.952800  0.759400  1.0  -0.6602
  O  O72  1  0.856500  0.650400  0.718000  1.0  -0.9032
  O  O73  1  0.693300  0.511500  0.684000  1.0  -0.8623
  O  O74  1  0.922900  0.422400  0.701400  1.0  -0.7986
  O  O75  1  0.878000  0.600900  0.503400  1.0  -0.9124
  O  O76  1  0.328700  0.659800  0.705500  1.0  -0.81
  O  O77  1  0.237700  0.726700  0.492200  1.0  -0.6636
  O  O78  1  0.096400  0.746700  0.701800  1.0  -0.799
  O  O79  1  0.162600  0.527000  0.665400  1.0  -0.8998
  O  O80  1  0.452900  0.421000  0.698100  1.0  -0.8089
  O  O81  1  0.470000  0.362000  0.489600  1.0  -0.9192
  O  O82  1  0.288800  0.282700  0.671300  1.0  -0.8549
  O  O83  1  0.523500  0.195900  0.687800  1.0  -0.7789
  O  O84  1  0.492300  0.525400  0.883300  1.0  -0.5691
  O  O85  1  0.699200  0.409700  0.962200  1.0  -0.606
  O  O86  1  0.508000  0.298000  0.001000  1.0  -0.6172
