# generated using pymatgen
data_Cu2H9C19(NO4)2
_symmetry_space_group_name_H-M   'P 1'
_cell_length_a   17.71790000
_cell_length_b   17.71790000
_cell_length_c   27.55660000
_cell_angle_alpha   90.00000000
_cell_angle_beta   90.00000000
_cell_angle_gamma   90.00000000
_symmetry_Int_Tables_number   1
_chemical_formula_structural   Cu2H9C19(NO4)2
_chemical_formula_sum   'Cu16 H72 C152 N16 O64'
_cell_volume   8650.67755857
_cell_formula_units_Z   8
loop_
 _symmetry_equiv_pos_site_id
 _symmetry_equiv_pos_as_xyz
  1  'x, y, z'
loop_
 _atom_site_type_symbol
 _atom_site_label
 _atom_site_symmetry_multiplicity
 _atom_site_fract_x
 _atom_site_fract_y
 _atom_site_fract_z
 _atom_site_occupancy
 _atom_site_charge
  Cu  Cu1  1  0.039720  0.539720  0.532150  1.0  0.8891
  Cu  Cu2  1  0.460280  0.960280  0.532150  1.0  0.8876
  Cu  Cu3  1  0.960280  0.039720  0.032150  1.0  0.8876
  Cu  Cu4  1  0.539720  0.460280  0.032150  1.0  0.8884
  Cu  Cu5  1  0.460280  0.539720  0.967850  1.0  0.8876
  Cu  Cu6  1  0.039720  0.960280  0.967850  1.0  0.8871
  Cu  Cu7  1  0.539720  0.039720  0.467850  1.0  0.8873
  Cu  Cu8  1  0.960280  0.460280  0.467850  1.0  0.8876
  Cu  Cu9  1  0.250000  0.324830  0.750000  1.0  0.8886
  Cu  Cu10  1  0.250000  0.175170  0.750000  1.0  0.8912
  Cu  Cu11  1  0.175170  0.250000  0.250000  1.0  0.8864
  Cu  Cu12  1  0.324830  0.250000  0.250000  1.0  0.8866
  Cu  Cu13  1  0.750000  0.675170  0.250000  1.0  0.8912
  Cu  Cu14  1  0.750000  0.824830  0.250000  1.0  0.8886
  Cu  Cu15  1  0.824830  0.750000  0.750000  1.0  0.8866
  Cu  Cu16  1  0.675170  0.750000  0.750000  1.0  0.8864
  H  H17  1  0.110400  0.358100  0.625700  1.0  0.0955
  H  H18  1  0.967600  0.241800  0.538900  1.0  0.0858
  H  H19  1  0.064300  0.136100  0.649000  1.0  0.1078
  H  H20  1  0.996000  0.112600  0.504700  1.0  0.167
  H  H21  1  0.389600  0.141900  0.625700  1.0  0.0953
  H  H22  1  0.532400  0.258200  0.538900  1.0  0.0864
  H  H23  1  0.435700  0.363900  0.649000  1.0  0.1084
  H  H24  1  0.504000  0.387400  0.504700  1.0  0.1672
  H  H25  1  0.141900  0.110400  0.125700  1.0  0.0953
  H  H26  1  0.258200  0.967600  0.038900  1.0  0.086
  H  H27  1  0.363900  0.064300  0.149000  1.0  0.1074
  H  H28  1  0.387400  0.996000  0.004700  1.0  0.1673
  H  H29  1  0.358100  0.389600  0.125700  1.0  0.0952
  H  H30  1  0.241800  0.532400  0.038900  1.0  0.0864
  H  H31  1  0.136100  0.435700  0.149000  1.0  0.1077
  H  H32  1  0.112600  0.504000  0.004700  1.0  0.1669
  H  H33  1  0.389600  0.358100  0.874300  1.0  0.0959
  H  H34  1  0.532400  0.241800  0.961100  1.0  0.0873
  H  H35  1  0.435700  0.136100  0.851000  1.0  0.108
  H  H36  1  0.504000  0.112600  0.995300  1.0  0.1708
  H  H37  1  0.110400  0.141900  0.874300  1.0  0.0953
  H  H38  1  0.967600  0.258200  0.961100  1.0  0.0876
  H  H39  1  0.064300  0.363900  0.851000  1.0  0.1082
  H  H40  1  0.996000  0.387400  0.995300  1.0  0.1702
  H  H41  1  0.358100  0.110400  0.374300  1.0  0.0956
  H  H42  1  0.241800  0.967600  0.461100  1.0  0.0876
  H  H43  1  0.136100  0.064300  0.351000  1.0  0.1077
  H  H44  1  0.112600  0.996000  0.495300  1.0  0.1701
  H  H45  1  0.141900  0.389600  0.374300  1.0  0.0954
  H  H46  1  0.258200  0.532400  0.461100  1.0  0.0876
  H  H47  1  0.363900  0.435700  0.351000  1.0  0.1078
  H  H48  1  0.387400  0.504000  0.495300  1.0  0.1708
  H  H49  1  0.889600  0.641900  0.374300  1.0  0.0953
  H  H50  1  0.032400  0.758200  0.461100  1.0  0.0876
  H  H51  1  0.935700  0.863900  0.351000  1.0  0.1082
  H  H52  1  0.004000  0.887400  0.495300  1.0  0.1668
  H  H53  1  0.610400  0.858100  0.374300  1.0  0.0955
  H  H54  1  0.467600  0.741800  0.461100  1.0  0.0876
  H  H55  1  0.564300  0.636100  0.351000  1.0  0.1078
  H  H56  1  0.496000  0.612600  0.495300  1.0  0.1665
  H  H57  1  0.858100  0.889600  0.874300  1.0  0.0952
  H  H58  1  0.741800  0.032400  0.961100  1.0  0.0877
  H  H59  1  0.636100  0.935700  0.851000  1.0  0.1077
  H  H60  1  0.612600  0.004000  0.995300  1.0  0.1666
  H  H61  1  0.641900  0.610400  0.874300  1.0  0.0954
  H  H62  1  0.758200  0.467600  0.961100  1.0  0.0875
  H  H63  1  0.863900  0.564300  0.851000  1.0  0.1078
  H  H64  1  0.887400  0.496000  0.995300  1.0  0.1668
  H  H65  1  0.610400  0.641900  0.125700  1.0  0.0954
  H  H66  1  0.467600  0.758200  0.038900  1.0  0.0857
  H  H67  1  0.564300  0.863900  0.149000  1.0  0.1081
  H  H68  1  0.496000  0.887400  0.004700  1.0  0.1715
  H  H69  1  0.889600  0.858100  0.125700  1.0  0.0957
  H  H70  1  0.032400  0.741800  0.038900  1.0  0.0863
  H  H71  1  0.935700  0.636100  0.149000  1.0  0.1083
  H  H72  1  0.004000  0.612600  0.004700  1.0  0.1719
  H  H73  1  0.641900  0.889600  0.625700  1.0  0.0955
  H  H74  1  0.758200  0.032400  0.538900  1.0  0.0859
  H  H75  1  0.863900  0.935700  0.649000  1.0  0.1077
  H  H76  1  0.887400  0.004000  0.504700  1.0  0.1718
  H  H77  1  0.858100  0.610400  0.625700  1.0  0.0952
  H  H78  1  0.741800  0.467600  0.538900  1.0  0.0863
  H  H79  1  0.636100  0.564300  0.649000  1.0  0.1076
  H  H80  1  0.612600  0.496000  0.504700  1.0  0.1715
  H  H81  1  0.890700  0.109300  0.627600  1.0  0.0584
  H  H82  1  0.609300  0.390700  0.627600  1.0  0.0581
  H  H83  1  0.390700  0.890700  0.127600  1.0  0.0587
  H  H84  1  0.109300  0.609300  0.127600  1.0  0.0578
  H  H85  1  0.609300  0.109300  0.872400  1.0  0.0577
  H  H86  1  0.890700  0.390700  0.872400  1.0  0.0577
  H  H87  1  0.109300  0.890700  0.372400  1.0  0.0578
  H  H88  1  0.390700  0.609300  0.372400  1.0  0.0575
  C  C89  1  0.154200  0.247600  0.684980  1.0  0.6477
  C  C90  1  0.036800  0.313900  0.577300  1.0  -0.1268
  C  C91  1  0.085300  0.312800  0.616680  1.0  0.0162
  C  C92  1  0.098600  0.247300  0.643600  1.0  -0.1656
  C  C93  1  0.010900  0.182100  0.592600  1.0  0.2102
  C  C94  1  0.000400  0.244100  0.566100  1.0  -0.144
  C  C95  1  0.058000  0.181100  0.630700  1.0  -0.1184
  C  C96  1  0.024500  0.384000  0.547600  1.0  0.6955
  C  C97  1  0.967100  0.094200  0.531200  1.0  -0.0245
  C  C98  1  0.345800  0.252400  0.684980  1.0  0.6492
  C  C99  1  0.463200  0.186100  0.577300  1.0  -0.1279
  C  C100  1  0.414700  0.187200  0.616680  1.0  0.0172
  C  C101  1  0.401400  0.252700  0.643600  1.0  -0.1655
  C  C102  1  0.489100  0.317900  0.592600  1.0  0.2097
  C  C103  1  0.499600  0.255900  0.566100  1.0  -0.1449
  C  C104  1  0.442000  0.318900  0.630700  1.0  -0.1192
  C  C105  1  0.475500  0.116000  0.547600  1.0  0.6956
  C  C106  1  0.532900  0.405800  0.531200  1.0  -0.0243
  C  C107  1  0.252400  0.154200  0.184980  1.0  0.6509
  C  C108  1  0.186100  0.036800  0.077300  1.0  -0.1303
  C  C109  1  0.187200  0.085300  0.116680  1.0  0.0177
  C  C110  1  0.252700  0.098600  0.143600  1.0  -0.1655
  C  C111  1  0.317900  0.010900  0.092600  1.0  0.21
  C  C112  1  0.255900  0.000400  0.066100  1.0  -0.1437
  C  C113  1  0.318900  0.058000  0.130700  1.0  -0.1184
  C  C114  1  0.116000  0.024500  0.047600  1.0  0.695
  C  C115  1  0.405800  0.967100  0.031200  1.0  -0.0267
  C  C116  1  0.247600  0.345800  0.184980  1.0  0.6501
  C  C117  1  0.313900  0.463200  0.077300  1.0  -0.1292
  C  C118  1  0.312800  0.414700  0.116680  1.0  0.0167
  C  C119  1  0.247300  0.401400  0.143600  1.0  -0.1651
  C  C120  1  0.182100  0.489100  0.092600  1.0  0.2092
  C  C121  1  0.244100  0.499600  0.066100  1.0  -0.1434
  C  C122  1  0.181100  0.442000  0.130700  1.0  -0.1191
  C  C123  1  0.384000  0.475500  0.047600  1.0  0.6944
  C  C124  1  0.094200  0.532900  0.031200  1.0  -0.0243
  C  C125  1  0.345800  0.247600  0.815020  1.0  0.6494
  C  C126  1  0.463200  0.313900  0.922700  1.0  -0.1273
  C  C127  1  0.414700  0.312800  0.883320  1.0  0.0167
  C  C128  1  0.401400  0.247300  0.856400  1.0  -0.1663
  C  C129  1  0.489100  0.182100  0.907400  1.0  0.2098
  C  C130  1  0.499600  0.244100  0.933900  1.0  -0.1456
  C  C131  1  0.442000  0.181100  0.869300  1.0  -0.1177
  C  C132  1  0.475500  0.384000  0.952400  1.0  0.6959
  C  C133  1  0.532900  0.094200  0.968800  1.0  -0.0283
  C  C134  1  0.154200  0.252400  0.815020  1.0  0.648
  C  C135  1  0.036800  0.186100  0.922700  1.0  -0.1275
  C  C136  1  0.085300  0.187200  0.883320  1.0  0.0165
  C  C137  1  0.098600  0.252700  0.856400  1.0  -0.1659
  C  C138  1  0.010900  0.317900  0.907400  1.0  0.2097
  C  C139  1  0.000400  0.255900  0.933900  1.0  -0.1445
  C  C140  1  0.058000  0.318900  0.869300  1.0  -0.1192
  C  C141  1  0.024500  0.116000  0.952400  1.0  0.6961
  C  C142  1  0.967100  0.405800  0.968800  1.0  -0.0258
  C  C143  1  0.247600  0.154200  0.315020  1.0  0.6511
  C  C144  1  0.313900  0.036800  0.422700  1.0  -0.1296
  C  C145  1  0.312800  0.085300  0.383320  1.0  0.0169
  C  C146  1  0.247300  0.098600  0.356400  1.0  -0.1658
  C  C147  1  0.182100  0.010900  0.407400  1.0  0.2094
  C  C148  1  0.244100  0.000400  0.433900  1.0  -0.1443
  C  C149  1  0.181100  0.058000  0.369300  1.0  -0.1192
  C  C150  1  0.384000  0.024500  0.452400  1.0  0.6947
  C  C151  1  0.094200  0.967100  0.468800  1.0  -0.0275
  C  C152  1  0.252400  0.345800  0.315020  1.0  0.6502
  C  C153  1  0.186100  0.463200  0.422700  1.0  -0.13
  C  C154  1  0.187200  0.414700  0.383320  1.0  0.0171
  C  C155  1  0.252700  0.401400  0.356400  1.0  -0.166
  C  C156  1  0.317900  0.489100  0.407400  1.0  0.2102
  C  C157  1  0.255900  0.499600  0.433900  1.0  -0.1441
  C  C158  1  0.318900  0.442000  0.369300  1.0  -0.1191
  C  C159  1  0.116000  0.475500  0.452400  1.0  0.6956
  C  C160  1  0.405800  0.532900  0.468800  1.0  -0.0294
  C  C161  1  0.845800  0.752400  0.315020  1.0  0.6494
  C  C162  1  0.963200  0.686100  0.422700  1.0  -0.1279
  C  C163  1  0.914700  0.687200  0.383320  1.0  0.0168
  C  C164  1  0.901400  0.752700  0.356400  1.0  -0.1661
  C  C165  1  0.989100  0.817900  0.407400  1.0  0.2095
  C  C166  1  0.999600  0.755900  0.433900  1.0  -0.1451
  C  C167  1  0.942000  0.818900  0.369300  1.0  -0.1191
  C  C168  1  0.975500  0.616000  0.452400  1.0  0.696
  C  C169  1  0.032900  0.905800  0.468800  1.0  -0.0257
  C  C170  1  0.654200  0.747600  0.315020  1.0  0.648
  C  C171  1  0.536800  0.813900  0.422700  1.0  -0.1269
  C  C172  1  0.585300  0.812800  0.383320  1.0  0.0164
  C  C173  1  0.598600  0.747300  0.356400  1.0  -0.166
  C  C174  1  0.510900  0.682100  0.407400  1.0  0.21
  C  C175  1  0.500400  0.744100  0.433900  1.0  -0.1451
  C  C176  1  0.558000  0.681100  0.369300  1.0  -0.1185
  C  C177  1  0.524500  0.884000  0.452400  1.0  0.6959
  C  C178  1  0.467100  0.594200  0.468800  1.0  -0.0251
  C  C179  1  0.747600  0.845800  0.815020  1.0  0.6502
  C  C180  1  0.813900  0.963200  0.922700  1.0  -0.1298
  C  C181  1  0.812800  0.914700  0.883320  1.0  0.0166
  C  C182  1  0.747300  0.901400  0.856400  1.0  -0.1662
  C  C183  1  0.682100  0.989100  0.907400  1.0  0.2096
  C  C184  1  0.744100  0.999600  0.933900  1.0  -0.1444
  C  C185  1  0.681100  0.942000  0.869300  1.0  -0.1191
  C  C186  1  0.884000  0.975500  0.952400  1.0  0.6948
  C  C187  1  0.594200  0.032900  0.968800  1.0  -0.0252
  C  C188  1  0.752400  0.654200  0.815020  1.0  0.651
  C  C189  1  0.686100  0.536800  0.922700  1.0  -0.1299
  C  C190  1  0.687200  0.585300  0.883320  1.0  0.0175
  C  C191  1  0.752700  0.598600  0.856400  1.0  -0.1657
  C  C192  1  0.817900  0.510900  0.907400  1.0  0.21
  C  C193  1  0.755900  0.500400  0.933900  1.0  -0.144
  C  C194  1  0.818900  0.558000  0.869300  1.0  -0.1189
  C  C195  1  0.616000  0.524500  0.952400  1.0  0.6955
  C  C196  1  0.905800  0.467100  0.968800  1.0  -0.0281
  C  C197  1  0.654200  0.752400  0.184980  1.0  0.6477
  C  C198  1  0.536800  0.686100  0.077300  1.0  -0.1278
  C  C199  1  0.585300  0.687200  0.116680  1.0  0.0168
  C  C200  1  0.598600  0.752700  0.143600  1.0  -0.1655
  C  C201  1  0.510900  0.817900  0.092600  1.0  0.2099
  C  C202  1  0.500400  0.755900  0.066100  1.0  -0.1441
  C  C203  1  0.558000  0.818900  0.130700  1.0  -0.1188
  C  C204  1  0.524500  0.616000  0.047600  1.0  0.6956
  C  C205  1  0.467100  0.905800  0.031200  1.0  -0.0218
  C  C206  1  0.845800  0.747600  0.184980  1.0  0.6492
  C  C207  1  0.963200  0.813900  0.077300  1.0  -0.127
  C  C208  1  0.914700  0.812800  0.116680  1.0  0.0167
  C  C209  1  0.901400  0.747300  0.143600  1.0  -0.1655
  C  C210  1  0.989100  0.682100  0.092600  1.0  0.21
  C  C211  1  0.999600  0.744100  0.066100  1.0  -0.1448
  C  C212  1  0.942000  0.681100  0.130700  1.0  -0.1181
  C  C213  1  0.975500  0.884000  0.047600  1.0  0.6955
  C  C214  1  0.032900  0.594200  0.031200  1.0  -0.0226
  C  C215  1  0.752400  0.845800  0.684980  1.0  0.65
  C  C216  1  0.686100  0.963200  0.577300  1.0  -0.1304
  C  C217  1  0.687200  0.914700  0.616680  1.0  0.0175
  C  C218  1  0.752700  0.901400  0.643600  1.0  -0.1648
  C  C219  1  0.817900  0.989100  0.592600  1.0  0.2102
  C  C220  1  0.755900  0.999600  0.566100  1.0  -0.1434
  C  C221  1  0.818900  0.942000  0.630700  1.0  -0.1185
  C  C222  1  0.616000  0.975500  0.547600  1.0  0.6951
  C  C223  1  0.905800  0.032900  0.531200  1.0  -0.0234
  C  C224  1  0.747600  0.654200  0.684980  1.0  0.6509
  C  C225  1  0.813900  0.536800  0.577300  1.0  -0.1291
  C  C226  1  0.812800  0.585300  0.616680  1.0  0.017
  C  C227  1  0.747300  0.598600  0.643600  1.0  -0.1658
  C  C228  1  0.682100  0.510900  0.592600  1.0  0.209
  C  C229  1  0.744100  0.500400  0.566100  1.0  -0.1435
  C  C230  1  0.681100  0.558000  0.630700  1.0  -0.1195
  C  C231  1  0.884000  0.524500  0.547600  1.0  0.6943
  C  C232  1  0.594200  0.467100  0.531200  1.0  -0.0233
  C  C233  1  0.912400  0.087600  0.599300  1.0  0.1534
  C  C234  1  0.587600  0.412400  0.599300  1.0  0.1532
  C  C235  1  0.412400  0.912400  0.099300  1.0  0.1533
  C  C236  1  0.087600  0.587600  0.099300  1.0  0.1535
  C  C237  1  0.587600  0.087600  0.900700  1.0  0.1524
  C  C238  1  0.912400  0.412400  0.900700  1.0  0.1527
  C  C239  1  0.087600  0.912400  0.400700  1.0  0.1519
  C  C240  1  0.412400  0.587600  0.400700  1.0  0.1534
  N  N241  1  0.969800  0.116500  0.580700  1.0  -0.1106
  N  N242  1  0.530200  0.383500  0.580700  1.0  -0.1108
  N  N243  1  0.383500  0.969800  0.080700  1.0  -0.108
  N  N244  1  0.116500  0.530200  0.080700  1.0  -0.1066
  N  N245  1  0.530200  0.116500  0.919300  1.0  -0.1132
  N  N246  1  0.969800  0.383500  0.919300  1.0  -0.1127
  N  N247  1  0.116500  0.969800  0.419300  1.0  -0.1101
  N  N248  1  0.383500  0.530200  0.419300  1.0  -0.1086
  N  N249  1  0.030200  0.883500  0.419300  1.0  -0.113
  N  N250  1  0.469800  0.616500  0.419300  1.0  -0.1127
  N  N251  1  0.616500  0.030200  0.919300  1.0  -0.109
  N  N252  1  0.883500  0.469800  0.919300  1.0  -0.1098
  N  N253  1  0.469800  0.883500  0.080700  1.0  -0.1103
  N  N254  1  0.030200  0.616500  0.080700  1.0  -0.1112
  N  N255  1  0.883500  0.030200  0.580700  1.0  -0.1061
  N  N256  1  0.616500  0.469800  0.580700  1.0  -0.1084
  O  O257  1  0.182200  0.310600  0.694640  1.0  -0.5779
  O  O258  1  0.164800  0.186200  0.705390  1.0  -0.5776
  O  O259  1  0.053900  0.441930  0.564280  1.0  -0.5888
  O  O260  1  0.985100  0.375600  0.510460  1.0  -0.5875
  O  O261  1  0.317800  0.189400  0.694640  1.0  -0.5808
  O  O262  1  0.335200  0.313800  0.705390  1.0  -0.5756
  O  O263  1  0.446100  0.058070  0.564280  1.0  -0.5878
  O  O264  1  0.514900  0.124400  0.510460  1.0  -0.5869
  O  O265  1  0.189400  0.182200  0.194640  1.0  -0.58
  O  O266  1  0.313800  0.164800  0.205390  1.0  -0.5747
  O  O267  1  0.058070  0.053900  0.064280  1.0  -0.5886
  O  O268  1  0.124400  0.985100  0.010460  1.0  -0.587
  O  O269  1  0.310600  0.317800  0.194640  1.0  -0.5799
  O  O270  1  0.186200  0.335200  0.205390  1.0  -0.5759
  O  O271  1  0.441930  0.446100  0.064280  1.0  -0.5882
  O  O272  1  0.375600  0.514900  0.010460  1.0  -0.5867
  O  O273  1  0.317800  0.310600  0.805360  1.0  -0.5785
  O  O274  1  0.335200  0.186200  0.794610  1.0  -0.5771
  O  O275  1  0.446100  0.441930  0.935720  1.0  -0.5888
  O  O276  1  0.514900  0.375600  0.989540  1.0  -0.5869
  O  O277  1  0.182200  0.189400  0.805360  1.0  -0.5801
  O  O278  1  0.164800  0.313800  0.794610  1.0  -0.5767
  O  O279  1  0.053900  0.058070  0.935720  1.0  -0.5883
  O  O280  1  0.985100  0.124400  0.989540  1.0  -0.5873
  O  O281  1  0.310600  0.182200  0.305360  1.0  -0.5797
  O  O282  1  0.186200  0.164800  0.294610  1.0  -0.5759
  O  O283  1  0.441930  0.053900  0.435720  1.0  -0.5897
  O  O284  1  0.375600  0.985100  0.489540  1.0  -0.5871
  O  O285  1  0.189400  0.317800  0.305360  1.0  -0.5799
  O  O286  1  0.313800  0.335200  0.294610  1.0  -0.5748
  O  O287  1  0.058070  0.446100  0.435720  1.0  -0.5882
  O  O288  1  0.124400  0.514900  0.489540  1.0  -0.5874
  O  O289  1  0.817800  0.689400  0.305360  1.0  -0.5808
  O  O290  1  0.835200  0.813800  0.294610  1.0  -0.5756
  O  O291  1  0.946100  0.558070  0.435720  1.0  -0.5882
  O  O292  1  0.014900  0.624400  0.489540  1.0  -0.5876
  O  O293  1  0.682200  0.810600  0.305360  1.0  -0.5779
  O  O294  1  0.664800  0.686200  0.294610  1.0  -0.5776
  O  O295  1  0.553900  0.941930  0.435720  1.0  -0.5894
  O  O296  1  0.485100  0.875600  0.489540  1.0  -0.587
  O  O297  1  0.810600  0.817800  0.805360  1.0  -0.5796
  O  O298  1  0.686200  0.835200  0.794610  1.0  -0.5756
  O  O299  1  0.941930  0.946100  0.935720  1.0  -0.5889
  O  O300  1  0.875600  0.014900  0.989540  1.0  -0.5873
  O  O301  1  0.689400  0.682200  0.805360  1.0  -0.5802
  O  O302  1  0.813800  0.664800  0.794610  1.0  -0.5748
  O  O303  1  0.558070  0.553900  0.935720  1.0  -0.5887
  O  O304  1  0.624400  0.485100  0.989540  1.0  -0.5871
  O  O305  1  0.682200  0.689400  0.194640  1.0  -0.5803
  O  O306  1  0.664800  0.813800  0.205390  1.0  -0.5768
  O  O307  1  0.553900  0.558070  0.064280  1.0  -0.588
  O  O308  1  0.485100  0.624400  0.010460  1.0  -0.5867
  O  O309  1  0.817800  0.810600  0.194640  1.0  -0.5783
  O  O310  1  0.835200  0.686200  0.205390  1.0  -0.577
  O  O311  1  0.946100  0.941930  0.064280  1.0  -0.5886
  O  O312  1  0.014900  0.875600  0.010460  1.0  -0.587
  O  O313  1  0.689400  0.817800  0.694640  1.0  -0.5798
  O  O314  1  0.813800  0.835200  0.705390  1.0  -0.5747
  O  O315  1  0.558070  0.946100  0.564280  1.0  -0.5881
  O  O316  1  0.624400  0.014900  0.510460  1.0  -0.5865
  O  O317  1  0.810600  0.682200  0.694640  1.0  -0.5798
  O  O318  1  0.686200  0.664800  0.705390  1.0  -0.5759
  O  O319  1  0.941930  0.553900  0.564280  1.0  -0.5888
  O  O320  1  0.875600  0.485100  0.510460  1.0  -0.5871
