# generated using pymatgen
data_CoH48(C3N)18
_symmetry_space_group_name_H-M   'P 1'
_cell_length_a   20.42900000
_cell_length_b   22.74400000
_cell_length_c   21.79200000
_cell_angle_alpha   90.00000000
_cell_angle_beta   108.78300000
_cell_angle_gamma   90.00000000
_symmetry_Int_Tables_number   1
_chemical_formula_structural   CoH48(C3N)18
_chemical_formula_sum   'Co4 H192 C216 N72'
_cell_volume   9586.14492774
_cell_formula_units_Z   4
loop_
 _symmetry_equiv_pos_site_id
 _symmetry_equiv_pos_as_xyz
  1  'x, y, z'
loop_
 _atom_site_type_symbol
 _atom_site_label
 _atom_site_symmetry_multiplicity
 _atom_site_fract_x
 _atom_site_fract_y
 _atom_site_fract_z
 _atom_site_occupancy
 _atom_site_charge
  Co  Co1  1  0.750000  0.250000  0.000000  1.0  0.6054
  Co  Co2  1  0.250000  0.250000  0.500000  1.0  0.6054
  Co  Co3  1  0.250000  0.750000  0.000000  1.0  0.6054
  Co  Co4  1  0.750000  0.750000  0.500000  1.0  0.6054
  H  H5  1  0.718300  0.285100  0.842700  1.0  0.096
  H  H6  1  0.837000  0.367800  0.999900  1.0  0.1099
  H  H7  1  0.748800  0.424600  0.783500  1.0  0.0839
  H  H8  1  0.737400  0.359600  0.753500  1.0  0.0922
  H  H9  1  0.838200  0.300600  0.754000  1.0  0.099
  H  H10  1  0.945300  0.301500  0.736600  1.0  0.1011
  H  H11  1  0.966100  0.474700  0.781300  1.0  0.1009
  H  H12  1  0.859000  0.473900  0.798800  1.0  0.1019
  H  H13  1  0.610000  0.278300  0.035800  1.0  0.0977
  H  H14  1  0.612900  0.247400  0.856100  1.0  0.1201
  H  H15  1  0.436000  0.312900  0.928400  1.0  0.108
  H  H16  1  0.481400  0.318400  0.003100  1.0  0.096
  H  H17  1  0.339900  0.252100  0.909700  1.0  0.0979
  H  H18  1  0.279400  0.175200  0.938800  1.0  0.0957
  H  H19  1  0.451700  0.131600  0.087100  1.0  0.0932
  H  H20  1  0.512200  0.208500  0.058000  1.0  0.0872
  H  H21  1  0.185800  0.879900  0.999000  1.0  0.0971
  H  H22  1  0.312500  0.801100  0.157000  1.0  0.1111
  H  H23  1  0.150600  0.968900  0.059400  1.0  0.0782
  H  H24  1  0.194900  0.978200  0.134100  1.0  0.085
  H  H25  1  0.283300  0.049300  0.161400  1.0  0.0836
  H  H26  1  0.349300  0.121000  0.131500  1.0  0.0814
  H  H27  1  0.279300  0.062800  0.946200  1.0  0.0962
  H  H28  1  0.213300  0.991100  0.976100  1.0  0.0974
  H  H29  1  0.218300  0.785100  0.842700  1.0  0.096
  H  H30  1  0.337000  0.867800  0.999900  1.0  0.1099
  H  H31  1  0.248800  0.924600  0.783500  1.0  0.0839
  H  H32  1  0.237400  0.859600  0.753500  1.0  0.0922
  H  H33  1  0.338200  0.800600  0.754000  1.0  0.099
  H  H34  1  0.445300  0.801500  0.736600  1.0  0.1011
  H  H35  1  0.466100  0.974700  0.781300  1.0  0.1009
  H  H36  1  0.359000  0.973900  0.798800  1.0  0.1019
  H  H37  1  0.110000  0.778300  0.035800  1.0  0.0977
  H  H38  1  0.112900  0.747400  0.856100  1.0  0.1201
  H  H39  1  0.936000  0.812900  0.928400  1.0  0.108
  H  H40  1  0.981400  0.818400  0.003100  1.0  0.096
  H  H41  1  0.839900  0.752100  0.909700  1.0  0.0979
  H  H42  1  0.779400  0.675200  0.938800  1.0  0.0957
  H  H43  1  0.951700  0.631600  0.087100  1.0  0.0932
  H  H44  1  0.012200  0.708500  0.058000  1.0  0.0872
  H  H45  1  0.685800  0.379900  0.999000  1.0  0.0971
  H  H46  1  0.812500  0.301100  0.157000  1.0  0.1111
  H  H47  1  0.650600  0.468900  0.059400  1.0  0.0782
  H  H48  1  0.694900  0.478200  0.134100  1.0  0.085
  H  H49  1  0.783300  0.549300  0.161400  1.0  0.0836
  H  H50  1  0.849300  0.621000  0.131500  1.0  0.0814
  H  H51  1  0.779300  0.562800  0.946200  1.0  0.0962
  H  H52  1  0.713300  0.491100  0.976100  1.0  0.0974
  H  H53  1  0.281700  0.285100  0.657300  1.0  0.0963
  H  H54  1  0.163000  0.367800  0.500100  1.0  0.1114
  H  H55  1  0.251200  0.424600  0.716500  1.0  0.0843
  H  H56  1  0.262600  0.359600  0.746500  1.0  0.0931
  H  H57  1  0.161800  0.300600  0.746000  1.0  0.0994
  H  H58  1  0.054700  0.301500  0.763400  1.0  0.1012
  H  H59  1  0.033900  0.474700  0.718700  1.0  0.1013
  H  H60  1  0.141000  0.473900  0.701200  1.0  0.1025
  H  H61  1  0.390000  0.278300  0.464200  1.0  0.0988
  H  H62  1  0.387100  0.247400  0.643900  1.0  0.12
  H  H63  1  0.564000  0.312900  0.571600  1.0  0.1081
  H  H64  1  0.518600  0.318400  0.496900  1.0  0.0958
  H  H65  1  0.660100  0.252100  0.590300  1.0  0.0984
  H  H66  1  0.720600  0.175200  0.561200  1.0  0.0948
  H  H67  1  0.548300  0.131600  0.412900  1.0  0.0935
  H  H68  1  0.487800  0.208500  0.442000  1.0  0.0877
  H  H69  1  0.814200  0.879900  0.501000  1.0  0.0972
  H  H70  1  0.687500  0.801100  0.343000  1.0  0.1095
  H  H71  1  0.849400  0.968900  0.440600  1.0  0.077
  H  H72  1  0.805100  0.978200  0.365900  1.0  0.0848
  H  H73  1  0.716700  0.049300  0.338600  1.0  0.0835
  H  H74  1  0.650700  0.121000  0.368500  1.0  0.0814
  H  H75  1  0.720700  0.062800  0.553800  1.0  0.0958
  H  H76  1  0.786700  0.991100  0.523900  1.0  0.0972
  H  H77  1  0.781700  0.785100  0.657300  1.0  0.0963
  H  H78  1  0.663000  0.867800  0.500100  1.0  0.1114
  H  H79  1  0.751200  0.924600  0.716500  1.0  0.0843
  H  H80  1  0.762600  0.859600  0.746500  1.0  0.0931
  H  H81  1  0.661800  0.800600  0.746000  1.0  0.0994
  H  H82  1  0.554700  0.801500  0.763400  1.0  0.1012
  H  H83  1  0.533900  0.974700  0.718700  1.0  0.1013
  H  H84  1  0.641000  0.973900  0.701200  1.0  0.1025
  H  H85  1  0.890000  0.778300  0.464200  1.0  0.0988
  H  H86  1  0.887100  0.747400  0.643900  1.0  0.12
  H  H87  1  0.064000  0.812900  0.571600  1.0  0.1081
  H  H88  1  0.018600  0.818400  0.496900  1.0  0.0958
  H  H89  1  0.160100  0.752100  0.590300  1.0  0.0984
  H  H90  1  0.220600  0.675200  0.561200  1.0  0.0948
  H  H91  1  0.048300  0.631600  0.412900  1.0  0.0935
  H  H92  1  0.987800  0.708500  0.442000  1.0  0.0877
  H  H93  1  0.314200  0.379900  0.501000  1.0  0.0972
  H  H94  1  0.187500  0.301100  0.343000  1.0  0.1095
  H  H95  1  0.349400  0.468900  0.440600  1.0  0.077
  H  H96  1  0.305100  0.478200  0.365900  1.0  0.0848
  H  H97  1  0.216700  0.549300  0.338600  1.0  0.0835
  H  H98  1  0.150700  0.621000  0.368500  1.0  0.0814
  H  H99  1  0.220700  0.562800  0.553800  1.0  0.0958
  H  H100  1  0.286700  0.491100  0.523900  1.0  0.0972
  H  H101  1  0.281700  0.714900  0.157300  1.0  0.0957
  H  H102  1  0.163000  0.632200  0.000100  1.0  0.1107
  H  H103  1  0.251200  0.575400  0.216500  1.0  0.0848
  H  H104  1  0.262600  0.640400  0.246500  1.0  0.093
  H  H105  1  0.161800  0.699400  0.246000  1.0  0.099
  H  H106  1  0.054700  0.698500  0.263400  1.0  0.0994
  H  H107  1  0.033900  0.525300  0.218700  1.0  0.1012
  H  H108  1  0.141000  0.526100  0.201200  1.0  0.102
  H  H109  1  0.390000  0.721700  0.964200  1.0  0.0988
  H  H110  1  0.387100  0.752600  0.143900  1.0  0.1201
  H  H111  1  0.564000  0.687100  0.071600  1.0  0.108
  H  H112  1  0.518600  0.681600  0.996900  1.0  0.0956
  H  H113  1  0.660100  0.747900  0.090300  1.0  0.0986
  H  H114  1  0.720600  0.824800  0.061200  1.0  0.0949
  H  H115  1  0.548300  0.868400  0.912900  1.0  0.0934
  H  H116  1  0.487800  0.791500  0.942000  1.0  0.087
  H  H117  1  0.814200  0.120100  0.001000  1.0  0.0972
  H  H118  1  0.687500  0.198900  0.843000  1.0  0.1095
  H  H119  1  0.849400  0.031100  0.940600  1.0  0.0764
  H  H120  1  0.805100  0.021800  0.865900  1.0  0.0846
  H  H121  1  0.716700  0.950700  0.838600  1.0  0.0837
  H  H122  1  0.650700  0.879000  0.868500  1.0  0.0813
  H  H123  1  0.720700  0.937200  0.053800  1.0  0.0957
  H  H124  1  0.786700  0.008900  0.023900  1.0  0.0969
  H  H125  1  0.781700  0.214900  0.157300  1.0  0.0957
  H  H126  1  0.663000  0.132200  0.000100  1.0  0.1107
  H  H127  1  0.751200  0.075400  0.216500  1.0  0.0848
  H  H128  1  0.762600  0.140400  0.246500  1.0  0.093
  H  H129  1  0.661800  0.199400  0.246000  1.0  0.099
  H  H130  1  0.554700  0.198500  0.263400  1.0  0.0994
  H  H131  1  0.533900  0.025300  0.218700  1.0  0.1012
  H  H132  1  0.641000  0.026100  0.201200  1.0  0.102
  H  H133  1  0.890000  0.221700  0.964200  1.0  0.0988
  H  H134  1  0.887100  0.252600  0.143900  1.0  0.1201
  H  H135  1  0.064000  0.187100  0.071600  1.0  0.108
  H  H136  1  0.018600  0.181600  0.996900  1.0  0.0956
  H  H137  1  0.160100  0.247900  0.090300  1.0  0.0986
  H  H138  1  0.220600  0.324800  0.061200  1.0  0.0949
  H  H139  1  0.048300  0.368400  0.912900  1.0  0.0934
  H  H140  1  0.987800  0.291500  0.942000  1.0  0.087
  H  H141  1  0.314200  0.620100  0.001000  1.0  0.0972
  H  H142  1  0.187500  0.698900  0.843000  1.0  0.1095
  H  H143  1  0.349400  0.531100  0.940600  1.0  0.0764
  H  H144  1  0.305100  0.521800  0.865900  1.0  0.0846
  H  H145  1  0.216700  0.450700  0.838600  1.0  0.0837
  H  H146  1  0.150700  0.379000  0.868500  1.0  0.0813
  H  H147  1  0.220700  0.437200  0.053800  1.0  0.0957
  H  H148  1  0.286700  0.508900  0.023900  1.0  0.0969
  H  H149  1  0.718300  0.714900  0.342700  1.0  0.0954
  H  H150  1  0.837000  0.632200  0.499900  1.0  0.1093
  H  H151  1  0.748800  0.575400  0.283500  1.0  0.0838
  H  H152  1  0.737400  0.640400  0.253500  1.0  0.0929
  H  H153  1  0.838200  0.699400  0.254000  1.0  0.0992
  H  H154  1  0.945300  0.698500  0.236600  1.0  0.1011
  H  H155  1  0.966100  0.525300  0.281300  1.0  0.1019
  H  H156  1  0.859000  0.526100  0.298800  1.0  0.1016
  H  H157  1  0.610000  0.721700  0.535800  1.0  0.098
  H  H158  1  0.612900  0.752600  0.356100  1.0  0.1197
  H  H159  1  0.436000  0.687100  0.428400  1.0  0.1074
  H  H160  1  0.481400  0.681600  0.503100  1.0  0.0966
  H  H161  1  0.339900  0.747900  0.409700  1.0  0.0975
  H  H162  1  0.279400  0.824800  0.438800  1.0  0.0955
  H  H163  1  0.451700  0.868400  0.587100  1.0  0.0926
  H  H164  1  0.512200  0.791500  0.558000  1.0  0.087
  H  H165  1  0.185800  0.120100  0.499000  1.0  0.0971
  H  H166  1  0.312500  0.198900  0.657000  1.0  0.111
  H  H167  1  0.150600  0.031100  0.559400  1.0  0.0783
  H  H168  1  0.194900  0.021800  0.634100  1.0  0.0852
  H  H169  1  0.283300  0.950700  0.661400  1.0  0.083
  H  H170  1  0.349300  0.879000  0.631500  1.0  0.0818
  H  H171  1  0.279300  0.937200  0.446200  1.0  0.0963
  H  H172  1  0.213300  0.008900  0.476100  1.0  0.0974
  H  H173  1  0.218300  0.214900  0.342700  1.0  0.0954
  H  H174  1  0.337000  0.132200  0.499900  1.0  0.1093
  H  H175  1  0.248800  0.075400  0.283500  1.0  0.0838
  H  H176  1  0.237400  0.140400  0.253500  1.0  0.0929
  H  H177  1  0.338200  0.199400  0.254000  1.0  0.0992
  H  H178  1  0.445300  0.198500  0.236600  1.0  0.1011
  H  H179  1  0.466100  0.025300  0.281300  1.0  0.1019
  H  H180  1  0.359000  0.026100  0.298800  1.0  0.1016
  H  H181  1  0.110000  0.221700  0.535800  1.0  0.098
  H  H182  1  0.112900  0.252600  0.356100  1.0  0.1197
  H  H183  1  0.936000  0.187100  0.428400  1.0  0.1074
  H  H184  1  0.981400  0.181600  0.503100  1.0  0.0966
  H  H185  1  0.839900  0.247900  0.409700  1.0  0.0975
  H  H186  1  0.779400  0.324800  0.438800  1.0  0.0955
  H  H187  1  0.951700  0.368400  0.587100  1.0  0.0926
  H  H188  1  0.012200  0.291500  0.558000  1.0  0.087
  H  H189  1  0.685800  0.620100  0.499000  1.0  0.0971
  H  H190  1  0.812500  0.698900  0.657000  1.0  0.111
  H  H191  1  0.650600  0.531100  0.559400  1.0  0.0783
  H  H192  1  0.694900  0.521800  0.634100  1.0  0.0852
  H  H193  1  0.783300  0.450700  0.661400  1.0  0.083
  H  H194  1  0.849300  0.379000  0.631500  1.0  0.0818
  H  H195  1  0.779300  0.437200  0.446200  1.0  0.0963
  H  H196  1  0.713300  0.508900  0.476100  1.0  0.0974
  C  C197  1  0.748500  0.312900  0.870200  1.0  0.0769
  C  C198  1  0.813200  0.358100  0.955900  1.0  0.1788
  C  C199  1  0.768900  0.384600  0.787600  1.0  -0.12
  C  C200  1  0.838600  0.387200  0.778000  1.0  0.1113
  C  C201  1  0.864200  0.336000  0.759600  1.0  -0.0976
  C  C202  1  0.927800  0.336500  0.749200  1.0  -0.1356
  C  C203  1  0.965700  0.388200  0.757300  1.0  0.0074
  C  C204  1  0.940100  0.439400  0.775800  1.0  -0.1625
  C  C205  1  0.876600  0.438900  0.786100  1.0  -0.1419
  C  C206  1  0.595600  0.273100  0.990100  1.0  0.0921
  C  C207  1  0.597200  0.256200  0.891600  1.0  0.1275
  C  C208  1  0.468700  0.291600  0.965300  1.0  -0.2026
  C  C209  1  0.431800  0.237600  0.981100  1.0  0.0528
  C  C210  1  0.362600  0.227700  0.945600  1.0  -0.1283
  C  C211  1  0.326600  0.181900  0.963000  1.0  -0.1372
  C  C212  1  0.359800  0.146100  0.015700  1.0  0.0108
  C  C213  1  0.429000  0.156000  0.051200  1.0  -0.1525
  C  C214  1  0.465000  0.201800  0.033800  1.0  -0.1002
  C  C215  1  0.214000  0.872600  0.042400  1.0  0.0783
  C  C216  1  0.283500  0.829400  0.129100  1.0  0.1466
  C  C217  1  0.197900  0.968000  0.090900  1.0  -0.1117
  C  C218  1  0.242200  0.013500  0.071500  1.0  0.0543
  C  C219  1  0.282500  0.052100  0.117700  1.0  -0.1035
  C  C220  1  0.321700  0.094600  0.099900  1.0  -0.1567
  C  C221  1  0.320500  0.098600  0.036100  1.0  0.014
  C  C222  1  0.280100  0.060100  0.989900  1.0  -0.1847
  C  C223  1  0.241000  0.017500  0.007700  1.0  -0.1309
  C  C224  1  0.248500  0.812900  0.870200  1.0  0.0769
  C  C225  1  0.313200  0.858100  0.955900  1.0  0.1788
  C  C226  1  0.268900  0.884600  0.787600  1.0  -0.12
  C  C227  1  0.338600  0.887200  0.778000  1.0  0.1113
  C  C228  1  0.364200  0.836000  0.759600  1.0  -0.0976
  C  C229  1  0.427800  0.836500  0.749200  1.0  -0.1356
  C  C230  1  0.465700  0.888200  0.757300  1.0  0.0074
  C  C231  1  0.440100  0.939400  0.775800  1.0  -0.1625
  C  C232  1  0.376600  0.938900  0.786100  1.0  -0.1419
  C  C233  1  0.095600  0.773100  0.990100  1.0  0.0921
  C  C234  1  0.097200  0.756200  0.891600  1.0  0.1275
  C  C235  1  0.968700  0.791600  0.965300  1.0  -0.2026
  C  C236  1  0.931800  0.737600  0.981100  1.0  0.0528
  C  C237  1  0.862600  0.727700  0.945600  1.0  -0.1283
  C  C238  1  0.826600  0.681900  0.963000  1.0  -0.1372
  C  C239  1  0.859800  0.646100  0.015700  1.0  0.0108
  C  C240  1  0.929000  0.656000  0.051200  1.0  -0.1525
  C  C241  1  0.965000  0.701800  0.033800  1.0  -0.1002
  C  C242  1  0.714000  0.372600  0.042400  1.0  0.0783
  C  C243  1  0.783500  0.329400  0.129100  1.0  0.1466
  C  C244  1  0.697900  0.468000  0.090900  1.0  -0.1117
  C  C245  1  0.742200  0.513500  0.071500  1.0  0.0543
  C  C246  1  0.782500  0.552100  0.117700  1.0  -0.1035
  C  C247  1  0.821700  0.594600  0.099900  1.0  -0.1567
  C  C248  1  0.820500  0.598600  0.036100  1.0  0.014
  C  C249  1  0.780100  0.560100  0.989900  1.0  -0.1847
  C  C250  1  0.741000  0.517500  0.007700  1.0  -0.1309
  C  C251  1  0.251500  0.312900  0.629800  1.0  0.0777
  C  C252  1  0.186800  0.358100  0.544100  1.0  0.1796
  C  C253  1  0.231100  0.384600  0.712400  1.0  -0.1204
  C  C254  1  0.161400  0.387200  0.722000  1.0  0.1107
  C  C255  1  0.135800  0.336000  0.740400  1.0  -0.0988
  C  C256  1  0.072200  0.336500  0.750800  1.0  -0.1356
  C  C257  1  0.034300  0.388200  0.742700  1.0  0.0077
  C  C258  1  0.059900  0.439400  0.724200  1.0  -0.1629
  C  C259  1  0.123400  0.438900  0.713900  1.0  -0.1428
  C  C260  1  0.404400  0.273100  0.509900  1.0  0.0923
  C  C261  1  0.402800  0.256200  0.608400  1.0  0.1285
  C  C262  1  0.531300  0.291600  0.534700  1.0  -0.2043
  C  C263  1  0.568200  0.237600  0.518900  1.0  0.0539
  C  C264  1  0.637400  0.227700  0.554400  1.0  -0.1272
  C  C265  1  0.673400  0.181900  0.537000  1.0  -0.134
  C  C266  1  0.640200  0.146100  0.484300  1.0  0.0106
  C  C267  1  0.571000  0.156000  0.448800  1.0  -0.1536
  C  C268  1  0.535000  0.201800  0.466200  1.0  -0.1007
  C  C269  1  0.786000  0.872600  0.457600  1.0  0.0787
  C  C270  1  0.716500  0.829400  0.370900  1.0  0.1476
  C  C271  1  0.802100  0.968000  0.409100  1.0  -0.1129
  C  C272  1  0.757800  0.013500  0.428500  1.0  0.0541
  C  C273  1  0.717500  0.052100  0.382300  1.0  -0.1014
  C  C274  1  0.678300  0.094600  0.400100  1.0  -0.1576
  C  C275  1  0.679500  0.098600  0.463900  1.0  0.0137
  C  C276  1  0.719900  0.060100  0.510100  1.0  -0.187
  C  C277  1  0.759000  0.017500  0.492300  1.0  -0.1326
  C  C278  1  0.751500  0.812900  0.629800  1.0  0.0777
  C  C279  1  0.686800  0.858100  0.544100  1.0  0.1796
  C  C280  1  0.731100  0.884600  0.712400  1.0  -0.1204
  C  C281  1  0.661400  0.887200  0.722000  1.0  0.1107
  C  C282  1  0.635800  0.836000  0.740400  1.0  -0.0988
  C  C283  1  0.572200  0.836500  0.750800  1.0  -0.1356
  C  C284  1  0.534300  0.888200  0.742700  1.0  0.0077
  C  C285  1  0.559900  0.939400  0.724200  1.0  -0.1629
  C  C286  1  0.623400  0.938900  0.713900  1.0  -0.1428
  C  C287  1  0.904400  0.773100  0.509900  1.0  0.0923
  C  C288  1  0.902800  0.756200  0.608400  1.0  0.1285
  C  C289  1  0.031300  0.791600  0.534700  1.0  -0.2043
  C  C290  1  0.068200  0.737600  0.518900  1.0  0.0539
  C  C291  1  0.137400  0.727700  0.554400  1.0  -0.1272
  C  C292  1  0.173400  0.681900  0.537000  1.0  -0.134
  C  C293  1  0.140200  0.646100  0.484300  1.0  0.0106
  C  C294  1  0.071000  0.656000  0.448800  1.0  -0.1536
  C  C295  1  0.035000  0.701800  0.466200  1.0  -0.1007
  C  C296  1  0.286000  0.372600  0.457600  1.0  0.0787
  C  C297  1  0.216500  0.329400  0.370900  1.0  0.1476
  C  C298  1  0.302100  0.468000  0.409100  1.0  -0.1129
  C  C299  1  0.257800  0.513500  0.428500  1.0  0.0541
  C  C300  1  0.217500  0.552100  0.382300  1.0  -0.1014
  C  C301  1  0.178300  0.594600  0.400100  1.0  -0.1576
  C  C302  1  0.179500  0.598600  0.463900  1.0  0.0137
  C  C303  1  0.219900  0.560100  0.510100  1.0  -0.187
  C  C304  1  0.259000  0.517500  0.492300  1.0  -0.1326
  C  C305  1  0.251500  0.687100  0.129800  1.0  0.0771
  C  C306  1  0.186800  0.641900  0.044100  1.0  0.1786
  C  C307  1  0.231100  0.615400  0.212400  1.0  -0.1202
  C  C308  1  0.161400  0.612800  0.222000  1.0  0.1106
  C  C309  1  0.135800  0.664000  0.240400  1.0  -0.096
  C  C310  1  0.072200  0.663500  0.250800  1.0  -0.1355
  C  C311  1  0.034300  0.611800  0.242700  1.0  0.0076
  C  C312  1  0.059900  0.560600  0.224200  1.0  -0.1608
  C  C313  1  0.123400  0.561100  0.213900  1.0  -0.1434
  C  C314  1  0.404400  0.726900  0.009900  1.0  0.0922
  C  C315  1  0.402800  0.743800  0.108400  1.0  0.1305
  C  C316  1  0.531300  0.708400  0.034700  1.0  -0.2029
  C  C317  1  0.568200  0.762400  0.018900  1.0  0.0542
  C  C318  1  0.637400  0.772300  0.054400  1.0  -0.1276
  C  C319  1  0.673400  0.818100  0.037000  1.0  -0.1343
  C  C320  1  0.640200  0.853900  0.984300  1.0  0.0104
  C  C321  1  0.571000  0.844000  0.948800  1.0  -0.1533
  C  C322  1  0.535000  0.798200  0.966200  1.0  -0.101
  C  C323  1  0.786000  0.127400  0.957600  1.0  0.0792
  C  C324  1  0.716500  0.170600  0.870900  1.0  0.1468
  C  C325  1  0.802100  0.032000  0.909100  1.0  -0.1131
  C  C326  1  0.757800  0.986500  0.928500  1.0  0.0536
  C  C327  1  0.717500  0.947900  0.882300  1.0  -0.1013
  C  C328  1  0.678300  0.905400  0.900100  1.0  -0.1586
  C  C329  1  0.679500  0.901400  0.963900  1.0  0.0137
  C  C330  1  0.719900  0.939900  0.010100  1.0  -0.187
  C  C331  1  0.759000  0.982500  0.992300  1.0  -0.1318
  C  C332  1  0.751500  0.187100  0.129800  1.0  0.0771
  C  C333  1  0.686800  0.141900  0.044100  1.0  0.1786
  C  C334  1  0.731100  0.115400  0.212400  1.0  -0.1202
  C  C335  1  0.661400  0.112800  0.222000  1.0  0.1106
  C  C336  1  0.635800  0.164000  0.240400  1.0  -0.096
  C  C337  1  0.572200  0.163500  0.250800  1.0  -0.1355
  C  C338  1  0.534300  0.111800  0.242700  1.0  0.0076
  C  C339  1  0.559900  0.060600  0.224200  1.0  -0.1608
  C  C340  1  0.623400  0.061100  0.213900  1.0  -0.1434
  C  C341  1  0.904400  0.226900  0.009900  1.0  0.0922
  C  C342  1  0.902800  0.243800  0.108400  1.0  0.1305
  C  C343  1  0.031300  0.208400  0.034700  1.0  -0.2029
  C  C344  1  0.068200  0.262400  0.018900  1.0  0.0542
  C  C345  1  0.137400  0.272300  0.054400  1.0  -0.1276
  C  C346  1  0.173400  0.318100  0.037000  1.0  -0.1343
  C  C347  1  0.140200  0.353900  0.984300  1.0  0.0104
  C  C348  1  0.071000  0.344000  0.948800  1.0  -0.1533
  C  C349  1  0.035000  0.298200  0.966200  1.0  -0.101
  C  C350  1  0.286000  0.627400  0.957600  1.0  0.0792
  C  C351  1  0.216500  0.670600  0.870900  1.0  0.1468
  C  C352  1  0.302100  0.532000  0.909100  1.0  -0.1131
  C  C353  1  0.257800  0.486500  0.928500  1.0  0.0536
  C  C354  1  0.217500  0.447900  0.882300  1.0  -0.1013
  C  C355  1  0.178300  0.405400  0.900100  1.0  -0.1586
  C  C356  1  0.179500  0.401400  0.963900  1.0  0.0137
  C  C357  1  0.219900  0.439900  0.010100  1.0  -0.187
  C  C358  1  0.259000  0.482500  0.992300  1.0  -0.1318
  C  C359  1  0.748500  0.687100  0.370200  1.0  0.0766
  C  C360  1  0.813200  0.641900  0.455900  1.0  0.178
  C  C361  1  0.768900  0.615400  0.287600  1.0  -0.1204
  C  C362  1  0.838600  0.612800  0.278000  1.0  0.1114
  C  C363  1  0.864200  0.664000  0.259600  1.0  -0.0961
  C  C364  1  0.927800  0.663500  0.249200  1.0  -0.1348
  C  C365  1  0.965700  0.611800  0.257300  1.0  0.0074
  C  C366  1  0.940100  0.560600  0.275800  1.0  -0.1629
  C  C367  1  0.876600  0.561100  0.286100  1.0  -0.1434
  C  C368  1  0.595600  0.726900  0.490100  1.0  0.0919
  C  C369  1  0.597200  0.743800  0.391600  1.0  0.1292
  C  C370  1  0.468700  0.708400  0.465300  1.0  -0.2023
  C  C371  1  0.431800  0.762400  0.481100  1.0  0.0531
  C  C372  1  0.362600  0.772300  0.445600  1.0  -0.1282
  C  C373  1  0.326600  0.818100  0.463000  1.0  -0.1374
  C  C374  1  0.359800  0.853900  0.515700  1.0  0.0109
  C  C375  1  0.429000  0.844000  0.551200  1.0  -0.1527
  C  C376  1  0.465000  0.798200  0.533800  1.0  -0.1001
  C  C377  1  0.214000  0.127400  0.542400  1.0  0.0776
  C  C378  1  0.283500  0.170600  0.629100  1.0  0.1461
  C  C379  1  0.197900  0.032000  0.590900  1.0  -0.1118
  C  C380  1  0.242200  0.986500  0.571500  1.0  0.0541
  C  C381  1  0.282500  0.947900  0.617700  1.0  -0.1032
  C  C382  1  0.321700  0.905400  0.599900  1.0  -0.1574
  C  C383  1  0.320500  0.901400  0.536100  1.0  0.0139
  C  C384  1  0.280100  0.939900  0.489900  1.0  -0.1852
  C  C385  1  0.241000  0.982500  0.507700  1.0  -0.1308
  C  C386  1  0.248500  0.187100  0.370200  1.0  0.0766
  C  C387  1  0.313200  0.141900  0.455900  1.0  0.178
  C  C388  1  0.268900  0.115400  0.287600  1.0  -0.1204
  C  C389  1  0.338600  0.112800  0.278000  1.0  0.1114
  C  C390  1  0.364200  0.164000  0.259600  1.0  -0.0961
  C  C391  1  0.427800  0.163500  0.249200  1.0  -0.1348
  C  C392  1  0.465700  0.111800  0.257300  1.0  0.0074
  C  C393  1  0.440100  0.060600  0.275800  1.0  -0.1629
  C  C394  1  0.376600  0.061100  0.286100  1.0  -0.1434
  C  C395  1  0.095600  0.226900  0.490100  1.0  0.0919
  C  C396  1  0.097200  0.243800  0.391600  1.0  0.1292
  C  C397  1  0.968700  0.208400  0.465300  1.0  -0.2023
  C  C398  1  0.931800  0.262400  0.481100  1.0  0.0531
  C  C399  1  0.862600  0.272300  0.445600  1.0  -0.1282
  C  C400  1  0.826600  0.318100  0.463000  1.0  -0.1374
  C  C401  1  0.859800  0.353900  0.515700  1.0  0.0109
  C  C402  1  0.929000  0.344000  0.551200  1.0  -0.1527
  C  C403  1  0.965000  0.298200  0.533800  1.0  -0.1001
  C  C404  1  0.714000  0.627400  0.542400  1.0  0.0776
  C  C405  1  0.783500  0.670600  0.629100  1.0  0.1461
  C  C406  1  0.697900  0.532000  0.590900  1.0  -0.1118
  C  C407  1  0.742200  0.486500  0.571500  1.0  0.0541
  C  C408  1  0.782500  0.447900  0.617700  1.0  -0.1032
  C  C409  1  0.821700  0.405400  0.599900  1.0  -0.1574
  C  C410  1  0.820500  0.401400  0.536100  1.0  0.0139
  C  C411  1  0.780100  0.439900  0.489900  1.0  -0.1852
  C  C412  1  0.741000  0.482500  0.507700  1.0  -0.1308
  N  N413  1  0.772200  0.311300  0.935100  1.0  -0.3074
  N  N414  1  0.774900  0.360700  0.850900  1.0  0.1237
  N  N415  1  0.814900  0.388600  0.903900  1.0  -0.2793
  N  N416  1  0.637100  0.259700  0.954600  1.0  -0.3454
  N  N417  1  0.530100  0.277800  0.949100  1.0  0.1456
  N  N418  1  0.531000  0.267400  0.888200  1.0  -0.3037
  N  N419  1  0.249900  0.822500  0.064700  1.0  -0.3438
  N  N420  1  0.225500  0.910400  0.093000  1.0  0.1172
  N  N421  1  0.268400  0.883700  0.146600  1.0  -0.3101
  N  N422  1  0.272200  0.811300  0.935100  1.0  -0.3074
  N  N423  1  0.274900  0.860700  0.850900  1.0  0.1237
  N  N424  1  0.314900  0.888600  0.903900  1.0  -0.2793
  N  N425  1  0.137100  0.759700  0.954600  1.0  -0.3454
  N  N426  1  0.030100  0.777800  0.949100  1.0  0.1456
  N  N427  1  0.031000  0.767400  0.888200  1.0  -0.3037
  N  N428  1  0.749900  0.322500  0.064700  1.0  -0.3438
  N  N429  1  0.725500  0.410400  0.093000  1.0  0.1172
  N  N430  1  0.768400  0.383700  0.146600  1.0  -0.3101
  N  N431  1  0.227800  0.311300  0.564900  1.0  -0.3079
  N  N432  1  0.225100  0.360700  0.649100  1.0  0.124
  N  N433  1  0.185100  0.388600  0.596100  1.0  -0.2761
  N  N434  1  0.362900  0.259700  0.545400  1.0  -0.3431
  N  N435  1  0.469900  0.277800  0.550900  1.0  0.1453
  N  N436  1  0.469000  0.267400  0.611800  1.0  -0.3078
  N  N437  1  0.750100  0.822500  0.435300  1.0  -0.3424
  N  N438  1  0.774500  0.910400  0.407000  1.0  0.1171
  N  N439  1  0.731600  0.883700  0.353400  1.0  -0.3036
  N  N440  1  0.727800  0.811300  0.564900  1.0  -0.3079
  N  N441  1  0.725100  0.860700  0.649100  1.0  0.124
  N  N442  1  0.685100  0.888600  0.596100  1.0  -0.2761
  N  N443  1  0.862900  0.759700  0.545400  1.0  -0.3431
  N  N444  1  0.969900  0.777800  0.550900  1.0  0.1453
  N  N445  1  0.969000  0.767400  0.611800  1.0  -0.3078
  N  N446  1  0.250100  0.322500  0.435300  1.0  -0.3424
  N  N447  1  0.274500  0.410400  0.407000  1.0  0.1171
  N  N448  1  0.231600  0.383700  0.353400  1.0  -0.3036
  N  N449  1  0.227800  0.688700  0.064900  1.0  -0.3072
  N  N450  1  0.225100  0.639300  0.149100  1.0  0.1234
  N  N451  1  0.185100  0.611400  0.096100  1.0  -0.2753
  N  N452  1  0.362900  0.740300  0.045400  1.0  -0.3429
  N  N453  1  0.469900  0.722200  0.050900  1.0  0.1461
  N  N454  1  0.469000  0.732600  0.111800  1.0  -0.3075
  N  N455  1  0.750100  0.177500  0.935300  1.0  -0.3425
  N  N456  1  0.774500  0.089600  0.907000  1.0  0.118
  N  N457  1  0.731600  0.116300  0.853400  1.0  -0.3057
  N  N458  1  0.727800  0.188700  0.064900  1.0  -0.3072
  N  N459  1  0.725100  0.139300  0.149100  1.0  0.1234
  N  N460  1  0.685100  0.111400  0.096100  1.0  -0.2753
  N  N461  1  0.862900  0.240300  0.045400  1.0  -0.3429
  N  N462  1  0.969900  0.222200  0.050900  1.0  0.1461
  N  N463  1  0.969000  0.232600  0.111800  1.0  -0.3075
  N  N464  1  0.250100  0.677500  0.935300  1.0  -0.3425
  N  N465  1  0.274500  0.589600  0.907000  1.0  0.118
  N  N466  1  0.231600  0.616300  0.853400  1.0  -0.3057
  N  N467  1  0.772200  0.688700  0.435100  1.0  -0.307
  N  N468  1  0.774900  0.639300  0.350900  1.0  0.1231
  N  N469  1  0.814900  0.611400  0.403900  1.0  -0.2782
  N  N470  1  0.637100  0.740300  0.454600  1.0  -0.3454
  N  N471  1  0.530100  0.722200  0.449100  1.0  0.1461
  N  N472  1  0.531000  0.732600  0.388200  1.0  -0.3034
  N  N473  1  0.249900  0.177500  0.564700  1.0  -0.3432
  N  N474  1  0.225500  0.089600  0.593000  1.0  0.1179
  N  N475  1  0.268400  0.116300  0.646600  1.0  -0.3096
  N  N476  1  0.272200  0.188700  0.435100  1.0  -0.307
  N  N477  1  0.274900  0.139300  0.350900  1.0  0.1231
  N  N478  1  0.314900  0.111400  0.403900  1.0  -0.2782
  N  N479  1  0.137100  0.240300  0.454600  1.0  -0.3454
  N  N480  1  0.030100  0.222200  0.449100  1.0  0.1461
  N  N481  1  0.031000  0.232600  0.388200  1.0  -0.3034
  N  N482  1  0.749900  0.677500  0.564700  1.0  -0.3432
  N  N483  1  0.725500  0.589600  0.593000  1.0  0.1179
  N  N484  1  0.768400  0.616300  0.646600  1.0  -0.3096
