# generated using pymatgen
data_Cd13P8H112C56(N3O19)4
_symmetry_space_group_name_H-M   'P 1'
_cell_length_a   18.58460000
_cell_length_b   20.81500000
_cell_length_c   20.81500000
_cell_angle_alpha   90.00000000
_cell_angle_beta   90.00000000
_cell_angle_gamma   90.00000000
_symmetry_Int_Tables_number   1
_chemical_formula_structural   Cd13P8H112C56(N3O19)4
_chemical_formula_sum   'Cd26 P16 H224 C112 N24 O152'
_cell_volume   8052.04231594
_cell_formula_units_Z   2
loop_
 _symmetry_equiv_pos_site_id
 _symmetry_equiv_pos_as_xyz
  1  'x, y, z'
loop_
 _atom_site_type_symbol
 _atom_site_label
 _atom_site_symmetry_multiplicity
 _atom_site_fract_x
 _atom_site_fract_y
 _atom_site_fract_z
 _atom_site_occupancy
 _atom_site_charge
  Cd  Cd1  1  0.612570  0.685450  0.638600  1.0  1.1119
  Cd  Cd2  1  0.794060  0.495270  0.593390  1.0  0.8698
  Cd  Cd3  1  0.445450  0.482760  0.559700  1.0  1.0882
  Cd  Cd4  1  0.612570  0.814550  0.861400  1.0  1.112
  Cd  Cd5  1  0.794060  0.004730  0.906610  1.0  0.869
  Cd  Cd6  1  0.445450  0.017240  0.940300  1.0  1.0877
  Cd  Cd7  1  0.112570  0.361400  0.185450  1.0  1.1117
  Cd  Cd8  1  0.294060  0.406610  0.995270  1.0  0.8692
  Cd  Cd9  1  0.945450  0.440300  0.982760  1.0  1.0936
  Cd  Cd10  1  0.112570  0.138600  0.314550  1.0  1.1119
  Cd  Cd11  1  0.294060  0.093390  0.504730  1.0  0.8688
  Cd  Cd12  1  0.945450  0.059700  0.517240  1.0  1.0954
  Cd  Cd13  1  0.387430  0.314550  0.361400  1.0  1.1113
  Cd  Cd14  1  0.205940  0.504730  0.406610  1.0  0.8686
  Cd  Cd15  1  0.554550  0.517240  0.440300  1.0  1.0884
  Cd  Cd16  1  0.387430  0.185450  0.138600  1.0  1.1107
  Cd  Cd17  1  0.205940  0.995270  0.093390  1.0  0.8694
  Cd  Cd18  1  0.554550  0.982760  0.059700  1.0  1.0896
  Cd  Cd19  1  0.887430  0.638600  0.814550  1.0  1.1113
  Cd  Cd20  1  0.705940  0.593390  0.004730  1.0  0.8685
  Cd  Cd21  1  0.054550  0.559700  0.017240  1.0  1.0974
  Cd  Cd22  1  0.887430  0.861400  0.685450  1.0  1.1109
  Cd  Cd23  1  0.705940  0.906610  0.495270  1.0  0.8683
  Cd  Cd24  1  0.054550  0.940300  0.482760  1.0  1.0944
  Cd  Cd25  1  0.750000  0.750000  0.750000  1.0  1.0261
  Cd  Cd26  1  0.250000  0.250000  0.250000  1.0  1.0261
  P  P27  1  0.794730  0.633620  0.671300  1.0  1.5538
  P  P28  1  0.618760  0.529000  0.584590  1.0  1.5563
  P  P29  1  0.794730  0.866380  0.828700  1.0  1.5531
  P  P30  1  0.618760  0.971000  0.915410  1.0  1.5574
  P  P31  1  0.294730  0.328700  0.133620  1.0  1.5533
  P  P32  1  0.118760  0.415410  0.029000  1.0  1.5568
  P  P33  1  0.294730  0.171300  0.366380  1.0  1.5535
  P  P34  1  0.118760  0.084590  0.471000  1.0  1.5589
  P  P35  1  0.205270  0.366380  0.328700  1.0  1.5533
  P  P36  1  0.381240  0.471000  0.415410  1.0  1.556
  P  P37  1  0.205270  0.133620  0.171300  1.0  1.554
  P  P38  1  0.381240  0.029000  0.084590  1.0  1.5552
  P  P39  1  0.705270  0.671300  0.866380  1.0  1.5534
  P  P40  1  0.881240  0.584590  0.971000  1.0  1.5575
  P  P41  1  0.705270  0.828700  0.633620  1.0  1.5534
  P  P42  1  0.881240  0.915410  0.529000  1.0  1.5552
  H  H43  1  0.807700  0.612500  0.473400  1.0  0.102
  H  H44  1  0.889900  0.629300  0.471800  1.0  0.0931
  H  H45  1  0.919000  0.519500  0.465600  1.0  0.0751
  H  H46  1  0.867300  0.537600  0.408400  1.0  0.0851
  H  H47  1  0.820400  0.427200  0.405800  1.0  0.0972
  H  H48  1  0.874300  0.409500  0.461200  1.0  0.0906
  H  H49  1  0.777800  0.342200  0.465800  1.0  0.0846
  H  H50  1  0.725000  0.401200  0.469900  1.0  0.101
  H  H51  1  0.719900  0.310800  0.561400  1.0  0.0917
  H  H52  1  0.767200  0.326500  0.622000  1.0  0.1225
  H  H53  1  0.644800  0.394700  0.582500  1.0  0.1021
  H  H54  1  0.650700  0.353400  0.645200  1.0  0.1026
  H  H55  1  0.727800  0.465500  0.744000  1.0  0.1052
  H  H56  1  0.688600  0.398900  0.740800  1.0  0.0888
  H  H57  1  0.790800  0.346700  0.712000  1.0  0.0982
  H  H58  1  0.816300  0.394500  0.766000  1.0  0.0878
  H  H59  1  0.937900  0.434900  0.717100  1.0  0.0935
  H  H60  1  0.922400  0.363700  0.695900  1.0  0.0834
  H  H61  1  0.941400  0.385500  0.593000  1.0  0.1206
  H  H62  1  0.003500  0.421900  0.628600  1.0  0.1084
  H  H63  1  0.929400  0.542200  0.664900  1.0  0.0942
  H  H64  1  0.004600  0.536100  0.630700  1.0  0.0807
  H  H65  1  0.965200  0.592000  0.543000  1.0  0.1043
  H  H66  1  0.943500  0.632900  0.603000  1.0  0.109
  H  H67  1  0.842500  0.686300  0.582300  1.0  0.173
  H  H68  1  0.771100  0.651300  0.562900  1.0  0.182
  H  H69  1  0.596000  0.462500  0.670900  1.0  0.1537
  H  H70  1  0.649100  0.517200  0.691400  1.0  0.1766
  H  H71  1  0.807700  0.887500  0.026600  1.0  0.1037
  H  H72  1  0.889900  0.870700  0.028200  1.0  0.0933
  H  H73  1  0.919000  0.980500  0.034400  1.0  0.0755
  H  H74  1  0.867300  0.962400  0.091600  1.0  0.0863
  H  H75  1  0.820400  0.072800  0.094200  1.0  0.0978
  H  H76  1  0.874300  0.090500  0.038800  1.0  0.089
  H  H77  1  0.777800  0.157800  0.034200  1.0  0.0866
  H  H78  1  0.725000  0.098800  0.030100  1.0  0.1034
  H  H79  1  0.719900  0.189200  0.938600  1.0  0.0916
  H  H80  1  0.767200  0.173500  0.878000  1.0  0.1231
  H  H81  1  0.644800  0.105300  0.917500  1.0  0.1018
  H  H82  1  0.650700  0.146600  0.854800  1.0  0.1023
  H  H83  1  0.727800  0.034500  0.756000  1.0  0.1058
  H  H84  1  0.688600  0.101100  0.759200  1.0  0.087
  H  H85  1  0.790800  0.153300  0.788000  1.0  0.0994
  H  H86  1  0.816300  0.105500  0.734000  1.0  0.0866
  H  H87  1  0.937900  0.065100  0.782900  1.0  0.0914
  H  H88  1  0.922400  0.136300  0.804100  1.0  0.0839
  H  H89  1  0.941400  0.114500  0.907000  1.0  0.1191
  H  H90  1  0.003500  0.078100  0.871400  1.0  0.1077
  H  H91  1  0.929400  0.957800  0.835100  1.0  0.0939
  H  H92  1  0.004600  0.963900  0.869300  1.0  0.0814
  H  H93  1  0.965200  0.908000  0.957000  1.0  0.1045
  H  H94  1  0.943500  0.867100  0.897000  1.0  0.1076
  H  H95  1  0.842500  0.813700  0.917700  1.0  0.1734
  H  H96  1  0.771100  0.848700  0.937100  1.0  0.1812
  H  H97  1  0.596000  0.037500  0.829100  1.0  0.1545
  H  H98  1  0.649100  0.982800  0.808600  1.0  0.1771
  H  H99  1  0.307700  0.526600  0.112500  1.0  0.1048
  H  H100  1  0.389900  0.528200  0.129300  1.0  0.0928
  H  H101  1  0.419000  0.534400  0.019500  1.0  0.0741
  H  H102  1  0.367300  0.591600  0.037600  1.0  0.0849
  H  H103  1  0.320400  0.594200  0.927200  1.0  0.0957
  H  H104  1  0.374300  0.538800  0.909500  1.0  0.0901
  H  H105  1  0.277800  0.534200  0.842200  1.0  0.0881
  H  H106  1  0.225000  0.530100  0.901200  1.0  0.1009
  H  H107  1  0.219900  0.438600  0.810800  1.0  0.0935
  H  H108  1  0.267200  0.378000  0.826500  1.0  0.1244
  H  H109  1  0.144800  0.417500  0.894700  1.0  0.1025
  H  H110  1  0.150700  0.354800  0.853400  1.0  0.102
  H  H111  1  0.227800  0.256000  0.965500  1.0  0.1067
  H  H112  1  0.188600  0.259200  0.898900  1.0  0.0879
  H  H113  1  0.290800  0.288000  0.846700  1.0  0.0978
  H  H114  1  0.316300  0.234000  0.894500  1.0  0.083
  H  H115  1  0.437900  0.282900  0.934900  1.0  0.0902
  H  H116  1  0.422400  0.304100  0.863700  1.0  0.0872
  H  H117  1  0.441400  0.407000  0.885500  1.0  0.1199
  H  H118  1  0.503500  0.371400  0.921900  1.0  0.1094
  H  H119  1  0.429400  0.335100  0.042200  1.0  0.0911
  H  H120  1  0.504600  0.369300  0.036100  1.0  0.0836
  H  H121  1  0.465200  0.457000  0.092000  1.0  0.105
  H  H122  1  0.443500  0.397000  0.132900  1.0  0.1078
  H  H123  1  0.342500  0.417700  0.186300  1.0  0.1748
  H  H124  1  0.271100  0.437100  0.151300  1.0  0.1823
  H  H125  1  0.096000  0.329100  0.962500  1.0  0.1539
  H  H126  1  0.149100  0.308600  0.017200  1.0  0.177
  H  H127  1  0.307700  0.973400  0.387500  1.0  0.1047
  H  H128  1  0.389900  0.971800  0.370700  1.0  0.0921
  H  H129  1  0.419000  0.965600  0.480500  1.0  0.074
  H  H130  1  0.367300  0.908400  0.462400  1.0  0.0839
  H  H131  1  0.320400  0.905800  0.572800  1.0  0.0957
  H  H132  1  0.374300  0.961200  0.590500  1.0  0.0912
  H  H133  1  0.277800  0.965800  0.657800  1.0  0.0877
  H  H134  1  0.225000  0.969900  0.598800  1.0  0.1016
  H  H135  1  0.219900  0.061400  0.689200  1.0  0.0933
  H  H136  1  0.267200  0.122000  0.673500  1.0  0.1237
  H  H137  1  0.144800  0.082500  0.605300  1.0  0.1022
  H  H138  1  0.150700  0.145200  0.646600  1.0  0.1015
  H  H139  1  0.227800  0.244000  0.534500  1.0  0.1067
  H  H140  1  0.188600  0.240800  0.601100  1.0  0.0863
  H  H141  1  0.290800  0.212000  0.653300  1.0  0.1022
  H  H142  1  0.316300  0.266000  0.605500  1.0  0.0826
  H  H143  1  0.437900  0.217100  0.565100  1.0  0.0879
  H  H144  1  0.422400  0.195900  0.636300  1.0  0.0872
  H  H145  1  0.441400  0.093000  0.614500  1.0  0.1192
  H  H146  1  0.503500  0.128600  0.578100  1.0  0.1078
  H  H147  1  0.429400  0.164900  0.457800  1.0  0.092
  H  H148  1  0.504600  0.130700  0.463900  1.0  0.0835
  H  H149  1  0.465200  0.043000  0.408000  1.0  0.1053
  H  H150  1  0.443500  0.103000  0.367100  1.0  0.11
  H  H151  1  0.342500  0.082300  0.313700  1.0  0.1741
  H  H152  1  0.271100  0.062900  0.348700  1.0  0.1823
  H  H153  1  0.096000  0.170900  0.537500  1.0  0.1543
  H  H154  1  0.149100  0.191400  0.482800  1.0  0.1769
  H  H155  1  0.192300  0.387500  0.526600  1.0  0.1041
  H  H156  1  0.110100  0.370700  0.528200  1.0  0.0934
  H  H157  1  0.081000  0.480500  0.534400  1.0  0.0738
  H  H158  1  0.132700  0.462400  0.591600  1.0  0.0852
  H  H159  1  0.179600  0.572800  0.594200  1.0  0.0958
  H  H160  1  0.125700  0.590500  0.538800  1.0  0.0907
  H  H161  1  0.222200  0.657800  0.534200  1.0  0.0866
  H  H162  1  0.275000  0.598800  0.530100  1.0  0.0976
  H  H163  1  0.280100  0.689200  0.438600  1.0  0.0913
  H  H164  1  0.232800  0.673500  0.378000  1.0  0.1228
  H  H165  1  0.355200  0.605300  0.417500  1.0  0.102
  H  H166  1  0.349300  0.646600  0.354800  1.0  0.1009
  H  H167  1  0.272200  0.534500  0.256000  1.0  0.1061
  H  H168  1  0.311400  0.601100  0.259200  1.0  0.0883
  H  H169  1  0.209200  0.653300  0.288000  1.0  0.1
  H  H170  1  0.183700  0.605500  0.234000  1.0  0.0864
  H  H171  1  0.062100  0.565100  0.282900  1.0  0.0915
  H  H172  1  0.077600  0.636300  0.304100  1.0  0.0842
  H  H173  1  0.058600  0.614500  0.407000  1.0  0.1188
  H  H174  1  0.996500  0.578100  0.371400  1.0  0.1067
  H  H175  1  0.070600  0.457800  0.335100  1.0  0.0945
  H  H176  1  0.995400  0.463900  0.369300  1.0  0.0811
  H  H177  1  0.034800  0.408000  0.457000  1.0  0.1044
  H  H178  1  0.056500  0.367100  0.397000  1.0  0.1085
  H  H179  1  0.157500  0.313700  0.417700  1.0  0.1734
  H  H180  1  0.228900  0.348700  0.437100  1.0  0.1839
  H  H181  1  0.404000  0.537500  0.329100  1.0  0.1536
  H  H182  1  0.350900  0.482800  0.308600  1.0  0.1755
  H  H183  1  0.192300  0.112500  0.973400  1.0  0.1042
  H  H184  1  0.110100  0.129300  0.971800  1.0  0.0934
  H  H185  1  0.081000  0.019500  0.965600  1.0  0.0723
  H  H186  1  0.132700  0.037600  0.908400  1.0  0.0862
  H  H187  1  0.179600  0.927200  0.905800  1.0  0.0978
  H  H188  1  0.125700  0.909500  0.961200  1.0  0.0913
  H  H189  1  0.222200  0.842200  0.965800  1.0  0.0849
  H  H190  1  0.275000  0.901200  0.969900  1.0  0.0984
  H  H191  1  0.280100  0.810800  0.061400  1.0  0.0913
  H  H192  1  0.232800  0.826500  0.122000  1.0  0.123
  H  H193  1  0.355200  0.894700  0.082500  1.0  0.1014
  H  H194  1  0.349300  0.853400  0.145200  1.0  0.1009
  H  H195  1  0.272200  0.965500  0.244000  1.0  0.1053
  H  H196  1  0.311400  0.898900  0.240800  1.0  0.0876
  H  H197  1  0.209200  0.846700  0.212000  1.0  0.0976
  H  H198  1  0.183700  0.894500  0.266000  1.0  0.0889
  H  H199  1  0.062100  0.934900  0.217100  1.0  0.0939
  H  H200  1  0.077600  0.863700  0.195900  1.0  0.0827
  H  H201  1  0.058600  0.885500  0.093000  1.0  0.1203
  H  H202  1  0.996500  0.921900  0.128600  1.0  0.1068
  H  H203  1  0.070600  0.042200  0.164900  1.0  0.0949
  H  H204  1  0.995400  0.036100  0.130700  1.0  0.0816
  H  H205  1  0.034800  0.092000  0.043000  1.0  0.1025
  H  H206  1  0.056500  0.132900  0.103000  1.0  0.1091
  H  H207  1  0.157500  0.186300  0.082300  1.0  0.1732
  H  H208  1  0.228900  0.151300  0.062900  1.0  0.1837
  H  H209  1  0.404000  0.962500  0.170900  1.0  0.1525
  H  H210  1  0.350900  0.017200  0.191400  1.0  0.1748
  H  H211  1  0.692300  0.473400  0.887500  1.0  0.1048
  H  H212  1  0.610100  0.471800  0.870700  1.0  0.0924
  H  H213  1  0.581000  0.465600  0.980500  1.0  0.0718
  H  H214  1  0.632700  0.408400  0.962400  1.0  0.0843
  H  H215  1  0.679600  0.405800  0.072800  1.0  0.0953
  H  H216  1  0.625700  0.461200  0.090500  1.0  0.0934
  H  H217  1  0.722200  0.465800  0.157800  1.0  0.0875
  H  H218  1  0.775000  0.469900  0.098800  1.0  0.0965
  H  H219  1  0.780100  0.561400  0.189200  1.0  0.0931
  H  H220  1  0.732800  0.622000  0.173500  1.0  0.1237
  H  H221  1  0.855200  0.582500  0.105300  1.0  0.1022
  H  H222  1  0.849300  0.645200  0.146600  1.0  0.1005
  H  H223  1  0.772200  0.744000  0.034500  1.0  0.107
  H  H224  1  0.811400  0.740800  0.101100  1.0  0.087
  H  H225  1  0.709200  0.712000  0.153300  1.0  0.1024
  H  H226  1  0.683700  0.766000  0.105500  1.0  0.0839
  H  H227  1  0.562100  0.717100  0.065100  1.0  0.0883
  H  H228  1  0.577600  0.695900  0.136300  1.0  0.0882
  H  H229  1  0.558600  0.593000  0.114500  1.0  0.1194
  H  H230  1  0.496500  0.628600  0.078100  1.0  0.1078
  H  H231  1  0.570600  0.664900  0.957800  1.0  0.0914
  H  H232  1  0.495400  0.630700  0.963900  1.0  0.0839
  H  H233  1  0.534800  0.543000  0.908000  1.0  0.1043
  H  H234  1  0.556500  0.603000  0.867100  1.0  0.1087
  H  H235  1  0.657500  0.582300  0.813700  1.0  0.174
  H  H236  1  0.728900  0.562900  0.848700  1.0  0.1847
  H  H237  1  0.904000  0.670900  0.037500  1.0  0.1523
  H  H238  1  0.850900  0.691400  0.982800  1.0  0.1757
  H  H239  1  0.692300  0.026600  0.612500  1.0  0.1045
  H  H240  1  0.610100  0.028200  0.629300  1.0  0.0924
  H  H241  1  0.581000  0.034400  0.519500  1.0  0.0726
  H  H242  1  0.632700  0.091600  0.537600  1.0  0.084
  H  H243  1  0.679600  0.094200  0.427200  1.0  0.0955
  H  H244  1  0.625700  0.038800  0.409500  1.0  0.0907
  H  H245  1  0.722200  0.034200  0.342200  1.0  0.0884
  H  H246  1  0.775000  0.030100  0.401200  1.0  0.0973
  H  H247  1  0.780100  0.938600  0.310800  1.0  0.0929
  H  H248  1  0.732800  0.878000  0.326500  1.0  0.1239
  H  H249  1  0.855200  0.917500  0.394700  1.0  0.1022
  H  H250  1  0.849300  0.854800  0.353400  1.0  0.1009
  H  H251  1  0.772200  0.756000  0.465500  1.0  0.1064
  H  H252  1  0.811400  0.759200  0.398900  1.0  0.0875
  H  H253  1  0.709200  0.788000  0.346700  1.0  0.098
  H  H254  1  0.683700  0.734000  0.394500  1.0  0.0833
  H  H255  1  0.562100  0.782900  0.434900  1.0  0.0904
  H  H256  1  0.577600  0.804100  0.363700  1.0  0.0865
  H  H257  1  0.558600  0.907000  0.385500  1.0  0.1194
  H  H258  1  0.496500  0.871400  0.421900  1.0  0.1076
  H  H259  1  0.570600  0.835100  0.542200  1.0  0.0914
  H  H260  1  0.495400  0.869300  0.536100  1.0  0.0833
  H  H261  1  0.534800  0.957000  0.592000  1.0  0.1066
  H  H262  1  0.556500  0.897000  0.632900  1.0  0.1099
  H  H263  1  0.657500  0.917700  0.686300  1.0  0.1744
  H  H264  1  0.728900  0.937100  0.651300  1.0  0.1839
  H  H265  1  0.904000  0.829100  0.462500  1.0  0.1529
  H  H266  1  0.850900  0.808600  0.517200  1.0  0.1758
  C  C267  1  0.855100  0.597900  0.486400  1.0  -0.0131
  C  C268  1  0.870800  0.533700  0.454800  1.0  0.1152
  C  C269  1  0.826800  0.426400  0.452000  1.0  0.1395
  C  C270  1  0.772800  0.386000  0.481000  1.0  0.1189
  C  C271  1  0.738300  0.345300  0.588000  1.0  0.0677
  C  C272  1  0.677200  0.381700  0.616600  1.0  -0.0136
  C  C273  1  0.724500  0.425600  0.720000  1.0  -0.0217
  C  C274  1  0.796300  0.391700  0.723100  1.0  0.122
  C  C275  1  0.916400  0.408400  0.683900  1.0  0.1148
  C  C276  1  0.951900  0.420700  0.622000  1.0  0.0778
  C  C277  1  0.953100  0.537500  0.623700  1.0  0.1331
  C  C278  1  0.933900  0.593100  0.580300  1.0  -0.0533
  C  C279  1  0.815700  0.646500  0.586600  1.0  -0.4672
  C  C280  1  0.638600  0.486100  0.657900  1.0  -0.4506
  C  C281  1  0.855100  0.902100  0.013600  1.0  -0.0127
  C  C282  1  0.870800  0.966300  0.045200  1.0  0.115
  C  C283  1  0.826800  0.073600  0.048000  1.0  0.1367
  C  C284  1  0.772800  0.114000  0.019000  1.0  0.1108
  C  C285  1  0.738300  0.154700  0.912000  1.0  0.069
  C  C286  1  0.677200  0.118300  0.883400  1.0  -0.0143
  C  C287  1  0.724500  0.074400  0.780000  1.0  -0.0187
  C  C288  1  0.796300  0.108300  0.776900  1.0  0.1234
  C  C289  1  0.916400  0.091600  0.816100  1.0  0.1148
  C  C290  1  0.951900  0.079300  0.878000  1.0  0.0765
  C  C291  1  0.953100  0.962500  0.876300  1.0  0.1342
  C  C292  1  0.933900  0.906900  0.919700  1.0  -0.0546
  C  C293  1  0.815700  0.853500  0.913400  1.0  -0.4725
  C  C294  1  0.638600  0.013900  0.842100  1.0  -0.4482
  C  C295  1  0.355100  0.513600  0.097900  1.0  -0.0132
  C  C296  1  0.370800  0.545200  0.033700  1.0  0.1149
  C  C297  1  0.326800  0.548000  0.926400  1.0  0.1405
  C  C298  1  0.272800  0.519000  0.886000  1.0  0.1196
  C  C299  1  0.238300  0.412000  0.845300  1.0  0.0685
  C  C300  1  0.177200  0.383400  0.881700  1.0  -0.0118
  C  C301  1  0.224500  0.280000  0.925600  1.0  -0.0191
  C  C302  1  0.296300  0.276900  0.891700  1.0  0.1237
  C  C303  1  0.416400  0.316100  0.908400  1.0  0.1157
  C  C304  1  0.451900  0.378000  0.920700  1.0  0.0811
  C  C305  1  0.453100  0.376300  0.037500  1.0  0.1357
  C  C306  1  0.433900  0.419700  0.093100  1.0  -0.0572
  C  C307  1  0.315700  0.413400  0.146500  1.0  -0.4608
  C  C308  1  0.138600  0.342100  0.986100  1.0  -0.439
  C  C309  1  0.355100  0.986400  0.402100  1.0  -0.0122
  C  C310  1  0.370800  0.954800  0.466300  1.0  0.1148
  C  C311  1  0.326800  0.952000  0.573600  1.0  0.1406
  C  C312  1  0.272800  0.981000  0.614000  1.0  0.1145
  C  C313  1  0.238300  0.088000  0.654700  1.0  0.068
  C  C314  1  0.177200  0.116600  0.618300  1.0  -0.0127
  C  C315  1  0.224500  0.220000  0.574400  1.0  -0.0222
  C  C316  1  0.296300  0.223100  0.608300  1.0  0.1218
  C  C317  1  0.416400  0.183900  0.591600  1.0  0.1149
  C  C318  1  0.451900  0.122000  0.579300  1.0  0.079
  C  C319  1  0.453100  0.123700  0.462500  1.0  0.1335
  C  C320  1  0.433900  0.080300  0.406900  1.0  -0.0569
  C  C321  1  0.315700  0.086600  0.353500  1.0  -0.4577
  C  C322  1  0.138600  0.157900  0.513900  1.0  -0.4387
  C  C323  1  0.144900  0.402100  0.513600  1.0  -0.0139
  C  C324  1  0.129200  0.466300  0.545200  1.0  0.1165
  C  C325  1  0.173200  0.573600  0.548000  1.0  0.137
  C  C326  1  0.227200  0.614000  0.519000  1.0  0.1147
  C  C327  1  0.261700  0.654700  0.412000  1.0  0.0685
  C  C328  1  0.322800  0.618300  0.383400  1.0  -0.0129
  C  C329  1  0.275500  0.574400  0.280000  1.0  -0.0205
  C  C330  1  0.203700  0.608300  0.276900  1.0  0.123
  C  C331  1  0.083600  0.591600  0.316100  1.0  0.1157
  C  C332  1  0.048100  0.579300  0.378000  1.0  0.0764
  C  C333  1  0.046900  0.462500  0.376300  1.0  0.1359
  C  C334  1  0.066100  0.406900  0.419700  1.0  -0.0554
  C  C335  1  0.184300  0.353500  0.413400  1.0  -0.4717
  C  C336  1  0.361400  0.513900  0.342100  1.0  -0.4498
  C  C337  1  0.144900  0.097900  0.986400  1.0  -0.0146
  C  C338  1  0.129200  0.033700  0.954800  1.0  0.1161
  C  C339  1  0.173200  0.926400  0.952000  1.0  0.1413
  C  C340  1  0.227200  0.886000  0.981000  1.0  0.1198
  C  C341  1  0.261700  0.845300  0.088000  1.0  0.0675
  C  C342  1  0.322800  0.881700  0.116600  1.0  -0.0126
  C  C343  1  0.275500  0.925600  0.220000  1.0  -0.0199
  C  C344  1  0.203700  0.891700  0.223100  1.0  0.1206
  C  C345  1  0.083600  0.908400  0.183900  1.0  0.1147
  C  C346  1  0.048100  0.920700  0.122000  1.0  0.0775
  C  C347  1  0.046900  0.037500  0.123700  1.0  0.1337
  C  C348  1  0.066100  0.093100  0.080300  1.0  -0.0533
  C  C349  1  0.184300  0.146500  0.086600  1.0  -0.4666
  C  C350  1  0.361400  0.986100  0.157900  1.0  -0.4542
  C  C351  1  0.644900  0.486400  0.902100  1.0  -0.0146
  C  C352  1  0.629200  0.454800  0.966300  1.0  0.1159
  C  C353  1  0.673200  0.452000  0.073600  1.0  0.1411
  C  C354  1  0.727200  0.481000  0.114000  1.0  0.1168
  C  C355  1  0.761700  0.588000  0.154700  1.0  0.0677
  C  C356  1  0.822800  0.616600  0.118300  1.0  -0.0119
  C  C357  1  0.775500  0.720000  0.074400  1.0  -0.0222
  C  C358  1  0.703700  0.723100  0.108300  1.0  0.1194
  C  C359  1  0.583600  0.683900  0.091600  1.0  0.1146
  C  C360  1  0.548100  0.622000  0.079300  1.0  0.0772
  C  C361  1  0.546900  0.623700  0.962500  1.0  0.1353
  C  C362  1  0.566100  0.580300  0.906900  1.0  -0.0567
  C  C363  1  0.684300  0.586600  0.853500  1.0  -0.4572
  C  C364  1  0.861400  0.657900  0.013900  1.0  -0.4402
  C  C365  1  0.644900  0.013600  0.597900  1.0  -0.0129
  C  C366  1  0.629200  0.045200  0.533700  1.0  0.1152
  C  C367  1  0.673200  0.048000  0.426400  1.0  0.1411
  C  C368  1  0.727200  0.019000  0.386000  1.0  0.1196
  C  C369  1  0.761700  0.912000  0.345300  1.0  0.0678
  C  C370  1  0.822800  0.883400  0.381700  1.0  -0.0101
  C  C371  1  0.775500  0.780000  0.425600  1.0  -0.0202
  C  C372  1  0.703700  0.776900  0.391700  1.0  0.1232
  C  C373  1  0.583600  0.816100  0.408400  1.0  0.1163
  C  C374  1  0.548100  0.878000  0.420700  1.0  0.0802
  C  C375  1  0.546900  0.876300  0.537500  1.0  0.1357
  C  C376  1  0.566100  0.919700  0.593100  1.0  -0.0576
  C  C377  1  0.684300  0.913400  0.646500  1.0  -0.4599
  C  C378  1  0.861400  0.842100  0.486100  1.0  -0.4395
  N  N379  1  0.857900  0.593700  0.557900  1.0  -0.1675
  N  N380  1  0.700000  0.440300  0.653400  1.0  -0.1588
  N  N381  1  0.857900  0.906300  0.942100  1.0  -0.1691
  N  N382  1  0.700000  0.059700  0.846600  1.0  -0.1593
  N  N383  1  0.357900  0.442100  0.093700  1.0  -0.1662
  N  N384  1  0.200000  0.346600  0.940300  1.0  -0.1586
  N  N385  1  0.357900  0.057900  0.406300  1.0  -0.1668
  N  N386  1  0.200000  0.153400  0.559700  1.0  -0.1595
  N  N387  1  0.142100  0.406300  0.442100  1.0  -0.1697
  N  N388  1  0.300000  0.559700  0.346600  1.0  -0.158
  N  N389  1  0.142100  0.093700  0.057900  1.0  -0.1681
  N  N390  1  0.300000  0.940300  0.153400  1.0  -0.1581
  N  N391  1  0.642100  0.557900  0.906300  1.0  -0.1668
  N  N392  1  0.800000  0.653400  0.059700  1.0  -0.1585
  N  N393  1  0.642100  0.942100  0.593700  1.0  -0.1671
  N  N394  1  0.800000  0.846600  0.440300  1.0  -0.1586
  N  N395  1  0.575700  0.241000  0.971100  1.0  0.4495
  N  N396  1  0.575700  0.259000  0.528900  1.0  0.4498
  N  N397  1  0.075700  0.028900  0.741000  1.0  0.4497
  N  N398  1  0.075700  0.471100  0.759000  1.0  0.4485
  N  N399  1  0.424300  0.759000  0.028900  1.0  0.4499
  N  N400  1  0.424300  0.741000  0.471100  1.0  0.4495
  N  N401  1  0.924300  0.971100  0.259000  1.0  0.4487
  N  N402  1  0.924300  0.528900  0.241000  1.0  0.4498
  O  O403  1  0.820500  0.490000  0.477200  1.0  -0.3119
  O  O404  1  0.783000  0.388400  0.549000  1.0  -0.3614
  O  O405  1  0.842500  0.423000  0.678000  1.0  -0.3466
  O  O406  1  0.929500  0.480300  0.592400  1.0  -0.3584
  O  O407  1  0.793000  0.561800  0.682000  1.0  -0.8303
  O  O408  1  0.721900  0.666400  0.684100  1.0  -0.8738
  O  O409  1  0.852000  0.667400  0.712100  1.0  -0.8835
  O  O410  1  0.579200  0.589300  0.605500  1.0  -0.8414
  O  O411  1  0.690700  0.541600  0.552500  1.0  -0.8794
  O  O412  1  0.569800  0.488000  0.542400  1.0  -0.8745
  O  O413  1  0.500100  0.728700  0.615700  1.0  -0.2721
  O  O414  1  0.642900  0.707800  0.534100  1.0  -0.2339
  O  O415  1  0.562600  0.668200  0.737700  1.0  -0.3033
  O  O416  1  0.434100  0.580100  0.584100  1.0  -0.2911
  O  O417  1  0.324700  0.468000  0.572300  1.0  -0.2077
  O  O418  1  0.483600  0.387900  0.590400  1.0  -0.2411
  O  O419  1  0.820500  0.010000  0.022800  1.0  -0.3152
  O  O420  1  0.783000  0.111600  0.951000  1.0  -0.3644
  O  O421  1  0.842500  0.077000  0.822000  1.0  -0.3478
  O  O422  1  0.929500  0.019700  0.907600  1.0  -0.3597
  O  O423  1  0.793000  0.938200  0.818000  1.0  -0.8297
  O  O424  1  0.721900  0.833600  0.815900  1.0  -0.8732
  O  O425  1  0.852000  0.832600  0.787900  1.0  -0.883
  O  O426  1  0.579200  0.910700  0.894500  1.0  -0.8414
  O  O427  1  0.690700  0.958400  0.947500  1.0  -0.8806
  O  O428  1  0.569800  0.012000  0.957600  1.0  -0.8738
  O  O429  1  0.500100  0.771300  0.884300  1.0  -0.2742
  O  O430  1  0.642900  0.792200  0.965900  1.0  -0.2338
  O  O431  1  0.562600  0.831800  0.762300  1.0  -0.3034
  O  O432  1  0.434100  0.919900  0.915900  1.0  -0.2919
  O  O433  1  0.324700  0.032000  0.927700  1.0  -0.2084
  O  O434  1  0.483600  0.112100  0.909600  1.0  -0.243
  O  O435  1  0.320500  0.522800  0.990000  1.0  -0.3136
  O  O436  1  0.283000  0.451000  0.888400  1.0  -0.3623
  O  O437  1  0.342500  0.322000  0.923000  1.0  -0.3491
  O  O438  1  0.429500  0.407600  0.980300  1.0  -0.3594
  O  O439  1  0.293000  0.318000  0.061800  1.0  -0.8307
  O  O440  1  0.221900  0.315900  0.166400  1.0  -0.8738
  O  O441  1  0.352000  0.287900  0.167400  1.0  -0.8843
  O  O442  1  0.079200  0.394500  0.089300  1.0  -0.8452
  O  O443  1  0.190700  0.447500  0.041600  1.0  -0.8801
  O  O444  1  0.069800  0.457600  0.988000  1.0  -0.8744
  O  O445  1  0.000100  0.384300  0.228700  1.0  -0.2716
  O  O446  1  0.142900  0.465900  0.207800  1.0  -0.2348
  O  O447  1  0.062600  0.262300  0.168200  1.0  -0.3036
  O  O448  1  0.934100  0.415900  0.080100  1.0  -0.2934
  O  O449  1  0.824700  0.427700  0.968000  1.0  -0.2111
  O  O450  1  0.983600  0.409600  0.887900  1.0  -0.2434
  O  O451  1  0.320500  0.977200  0.510000  1.0  -0.3144
  O  O452  1  0.283000  0.049000  0.611600  1.0  -0.3628
  O  O453  1  0.342500  0.178000  0.577000  1.0  -0.3482
  O  O454  1  0.429500  0.092400  0.519700  1.0  -0.3596
  O  O455  1  0.293000  0.182000  0.438200  1.0  -0.8303
  O  O456  1  0.221900  0.184100  0.333600  1.0  -0.8724
  O  O457  1  0.352000  0.212100  0.332600  1.0  -0.8807
  O  O458  1  0.079200  0.105500  0.410700  1.0  -0.8447
  O  O459  1  0.190700  0.052500  0.458400  1.0  -0.8793
  O  O460  1  0.069800  0.042400  0.512000  1.0  -0.8741
  O  O461  1  0.000100  0.115700  0.271300  1.0  -0.2724
  O  O462  1  0.142900  0.034100  0.292200  1.0  -0.235
  O  O463  1  0.062600  0.237700  0.331800  1.0  -0.3031
  O  O464  1  0.934100  0.084100  0.419900  1.0  -0.2926
  O  O465  1  0.824700  0.072300  0.532000  1.0  -0.2132
  O  O466  1  0.983600  0.090400  0.612100  1.0  -0.2425
  O  O467  1  0.179500  0.510000  0.522800  1.0  -0.3151
  O  O468  1  0.217000  0.611600  0.451000  1.0  -0.365
  O  O469  1  0.157500  0.577000  0.322000  1.0  -0.3476
  O  O470  1  0.070500  0.519700  0.407600  1.0  -0.3601
  O  O471  1  0.207000  0.438200  0.318000  1.0  -0.8299
  O  O472  1  0.278100  0.333600  0.315900  1.0  -0.8748
  O  O473  1  0.148000  0.332600  0.287900  1.0  -0.8832
  O  O474  1  0.420800  0.410700  0.394500  1.0  -0.8413
  O  O475  1  0.309300  0.458400  0.447500  1.0  -0.8763
  O  O476  1  0.430200  0.512000  0.457600  1.0  -0.8734
  O  O477  1  0.499900  0.271300  0.384300  1.0  -0.2732
  O  O478  1  0.357100  0.292200  0.465900  1.0  -0.2333
  O  O479  1  0.437400  0.331800  0.262300  1.0  -0.3003
  O  O480  1  0.565900  0.419900  0.415900  1.0  -0.2913
  O  O481  1  0.675300  0.532000  0.427700  1.0  -0.2103
  O  O482  1  0.516400  0.612100  0.409600  1.0  -0.2408
  O  O483  1  0.179500  0.990000  0.977200  1.0  -0.3102
  O  O484  1  0.217000  0.888400  0.049000  1.0  -0.3631
  O  O485  1  0.157500  0.923000  0.178000  1.0  -0.3483
  O  O486  1  0.070500  0.980300  0.092400  1.0  -0.3593
  O  O487  1  0.207000  0.061800  0.182000  1.0  -0.8304
  O  O488  1  0.278100  0.166400  0.184100  1.0  -0.8755
  O  O489  1  0.148000  0.167400  0.212100  1.0  -0.8849
  O  O490  1  0.420800  0.089300  0.105500  1.0  -0.8406
  O  O491  1  0.309300  0.041600  0.052500  1.0  -0.8754
  O  O492  1  0.430200  0.988000  0.042400  1.0  -0.8742
  O  O493  1  0.499900  0.228700  0.115700  1.0  -0.2717
  O  O494  1  0.357100  0.207800  0.034100  1.0  -0.2336
  O  O495  1  0.437400  0.168200  0.237700  1.0  -0.3003
  O  O496  1  0.565900  0.080100  0.084100  1.0  -0.2891
  O  O497  1  0.675300  0.968000  0.072300  1.0  -0.2077
  O  O498  1  0.516400  0.887900  0.090400  1.0  -0.2395
  O  O499  1  0.679500  0.477200  0.010000  1.0  -0.3116
  O  O500  1  0.717000  0.549000  0.111600  1.0  -0.3638
  O  O501  1  0.657500  0.678000  0.077000  1.0  -0.3497
  O  O502  1  0.570500  0.592400  0.019700  1.0  -0.3599
  O  O503  1  0.707000  0.682000  0.938200  1.0  -0.8303
  O  O504  1  0.778100  0.684100  0.833600  1.0  -0.8745
  O  O505  1  0.648000  0.712100  0.832600  1.0  -0.8824
  O  O506  1  0.920800  0.605500  0.910700  1.0  -0.8441
  O  O507  1  0.809300  0.552500  0.958400  1.0  -0.8748
  O  O508  1  0.930200  0.542400  0.012000  1.0  -0.8741
  O  O509  1  0.999900  0.615700  0.771300  1.0  -0.2722
  O  O510  1  0.857100  0.534100  0.792200  1.0  -0.2347
  O  O511  1  0.937400  0.737700  0.831800  1.0  -0.3005
  O  O512  1  0.065900  0.584100  0.919900  1.0  -0.2919
  O  O513  1  0.175300  0.572300  0.032000  1.0  -0.2145
  O  O514  1  0.016400  0.590400  0.112100  1.0  -0.241
  O  O515  1  0.679500  0.022800  0.490000  1.0  -0.3122
  O  O516  1  0.717000  0.951000  0.388400  1.0  -0.3631
  O  O517  1  0.657500  0.822000  0.423000  1.0  -0.3493
  O  O518  1  0.570500  0.907600  0.480300  1.0  -0.3604
  O  O519  1  0.707000  0.818000  0.561800  1.0  -0.8306
  O  O520  1  0.778100  0.815900  0.666400  1.0  -0.8752
  O  O521  1  0.648000  0.787900  0.667400  1.0  -0.8845
  O  O522  1  0.920800  0.894500  0.589300  1.0  -0.8447
  O  O523  1  0.809300  0.947500  0.541600  1.0  -0.8756
  O  O524  1  0.930200  0.957600  0.488000  1.0  -0.8741
  O  O525  1  0.999900  0.884300  0.728700  1.0  -0.2718
  O  O526  1  0.857100  0.965900  0.707800  1.0  -0.2344
  O  O527  1  0.937400  0.762300  0.668200  1.0  -0.3006
  O  O528  1  0.065900  0.915900  0.580100  1.0  -0.2922
  O  O529  1  0.175300  0.927700  0.468000  1.0  -0.211
  O  O530  1  0.016400  0.909600  0.387900  1.0  -0.2412
  O  O531  1  0.619000  0.281200  0.986500  1.0  -0.4418
  O  O532  1  0.560500  0.236100  0.912200  1.0  -0.5176
  O  O533  1  0.565000  0.196700  0.003200  1.0  -0.3673
  O  O534  1  0.619000  0.218800  0.513500  1.0  -0.4413
  O  O535  1  0.560500  0.263900  0.587800  1.0  -0.5197
  O  O536  1  0.565000  0.303300  0.496800  1.0  -0.3684
  O  O537  1  0.119000  0.013500  0.781200  1.0  -0.4427
  O  O538  1  0.060500  0.087800  0.736100  1.0  -0.5157
  O  O539  1  0.065000  0.996800  0.696700  1.0  -0.3677
  O  O540  1  0.119000  0.486500  0.718800  1.0  -0.443
  O  O541  1  0.060500  0.412200  0.763900  1.0  -0.5165
  O  O542  1  0.065000  0.503200  0.803300  1.0  -0.3688
  O  O543  1  0.381000  0.718800  0.013500  1.0  -0.442
  O  O544  1  0.439500  0.763900  0.087800  1.0  -0.52
  O  O545  1  0.435000  0.803300  0.996800  1.0  -0.3687
  O  O546  1  0.381000  0.781200  0.486500  1.0  -0.4417
  O  O547  1  0.439500  0.736100  0.412200  1.0  -0.5176
  O  O548  1  0.435000  0.696700  0.503200  1.0  -0.3676
  O  O549  1  0.881000  0.986500  0.218800  1.0  -0.4436
  O  O550  1  0.939500  0.912200  0.263900  1.0  -0.5164
  O  O551  1  0.935000  0.003200  0.303300  1.0  -0.3692
  O  O552  1  0.881000  0.513500  0.281200  1.0  -0.4423
  O  O553  1  0.939500  0.587800  0.236100  1.0  -0.5164
  O  O554  1  0.935000  0.496800  0.196700  1.0  -0.3678
