# generated using pymatgen
data_InPH7(C2O)7
_symmetry_space_group_name_H-M   'P 1'
_cell_length_a   23.47400000
_cell_length_b   23.47400000
_cell_length_c   6.69260000
_cell_angle_alpha   90.00000000
_cell_angle_beta   90.00000000
_cell_angle_gamma   90.00000000
_symmetry_Int_Tables_number   1
_chemical_formula_structural   InPH7(C2O)7
_chemical_formula_sum   'In8 P8 H56 C112 O56'
_cell_volume   3687.81451700
_cell_formula_units_Z   8
loop_
 _symmetry_equiv_pos_site_id
 _symmetry_equiv_pos_as_xyz
  1  'x, y, z'
loop_
 _atom_site_type_symbol
 _atom_site_label
 _atom_site_symmetry_multiplicity
 _atom_site_fract_x
 _atom_site_fract_y
 _atom_site_fract_z
 _atom_site_occupancy
 _atom_site_charge
  In  In1  1  0.123000  0.275480  0.000000  1.0  1.6371
  In  In2  1  0.877000  0.724520  0.000000  1.0  1.6358
  In  In3  1  0.724520  0.123000  0.000000  1.0  1.6341
  In  In4  1  0.275480  0.877000  0.000000  1.0  1.6356
  In  In5  1  0.377000  0.775480  0.500000  1.0  1.6366
  In  In6  1  0.623000  0.224520  0.500000  1.0  1.6362
  In  In7  1  0.775480  0.623000  0.500000  1.0  1.6352
  In  In8  1  0.224520  0.377000  0.500000  1.0  1.6346
  P  P9  1  0.604760  0.200590  0.000000  1.0  1.4497
  P  P10  1  0.395240  0.799410  0.000000  1.0  1.4504
  P  P11  1  0.799410  0.604760  0.000000  1.0  1.4529
  P  P12  1  0.200590  0.395240  0.000000  1.0  1.4529
  P  P13  1  0.895240  0.700590  0.500000  1.0  1.4506
  P  P14  1  0.104760  0.299410  0.500000  1.0  1.4495
  P  P15  1  0.700590  0.104760  0.500000  1.0  1.4525
  P  P16  1  0.299410  0.895240  0.500000  1.0  1.4531
  H  H17  1  0.543000  0.095700  0.000000  1.0  0.1123
  H  H18  1  0.317800  0.209900  0.000000  1.0  0.1219
  H  H19  1  0.199300  0.087600  0.000000  1.0  0.126
  H  H20  1  0.403300  0.232000  0.000000  1.0  0.1279
  H  H21  1  0.498400  0.257300  0.000000  1.0  0.103
  H  H22  1  0.364600  0.046400  0.000000  1.0  0.1401
  H  H23  1  0.446300  0.069500  0.000000  1.0  0.1478
  H  H24  1  0.457000  0.904300  0.000000  1.0  0.1128
  H  H25  1  0.682200  0.790100  0.000000  1.0  0.1219
  H  H26  1  0.800700  0.912400  0.000000  1.0  0.1266
  H  H27  1  0.596700  0.768000  0.000000  1.0  0.1266
  H  H28  1  0.501600  0.742700  0.000000  1.0  0.1069
  H  H29  1  0.635400  0.953600  0.000000  1.0  0.1394
  H  H30  1  0.553700  0.930500  0.000000  1.0  0.1503
  H  H31  1  0.904300  0.543000  0.000000  1.0  0.1131
  H  H32  1  0.790100  0.317800  0.000000  1.0  0.1235
  H  H33  1  0.912400  0.199300  0.000000  1.0  0.127
  H  H34  1  0.768000  0.403300  0.000000  1.0  0.1261
  H  H35  1  0.742700  0.498400  0.000000  1.0  0.1093
  H  H36  1  0.953600  0.364600  0.000000  1.0  0.141
  H  H37  1  0.930500  0.446300  0.000000  1.0  0.1479
  H  H38  1  0.095700  0.457000  0.000000  1.0  0.112
  H  H39  1  0.209900  0.682200  0.000000  1.0  0.1235
  H  H40  1  0.087600  0.800700  0.000000  1.0  0.1268
  H  H41  1  0.232000  0.596700  0.000000  1.0  0.1266
  H  H42  1  0.257300  0.501600  0.000000  1.0  0.1084
  H  H43  1  0.046400  0.635400  0.000000  1.0  0.1398
  H  H44  1  0.069500  0.553700  0.000000  1.0  0.1472
  H  H45  1  0.957000  0.595700  0.500000  1.0  0.1117
  H  H46  1  0.182200  0.709900  0.500000  1.0  0.1224
  H  H47  1  0.300700  0.587600  0.500000  1.0  0.1264
  H  H48  1  0.096700  0.732000  0.500000  1.0  0.1274
  H  H49  1  0.001600  0.757300  0.500000  1.0  0.1033
  H  H50  1  0.135400  0.546400  0.500000  1.0  0.1395
  H  H51  1  0.053700  0.569500  0.500000  1.0  0.1477
  H  H52  1  0.043000  0.404300  0.500000  1.0  0.1127
  H  H53  1  0.817800  0.290100  0.500000  1.0  0.1215
  H  H54  1  0.699300  0.412400  0.500000  1.0  0.1257
  H  H55  1  0.903300  0.268000  0.500000  1.0  0.1271
  H  H56  1  0.998400  0.242700  0.500000  1.0  0.107
  H  H57  1  0.864600  0.453600  0.500000  1.0  0.1398
  H  H58  1  0.946300  0.430500  0.500000  1.0  0.1499
  H  H59  1  0.595700  0.043000  0.500000  1.0  0.1126
  H  H60  1  0.709900  0.817800  0.500000  1.0  0.1237
  H  H61  1  0.587600  0.699300  0.500000  1.0  0.1267
  H  H62  1  0.732000  0.903300  0.500000  1.0  0.1266
  H  H63  1  0.757300  0.998400  0.500000  1.0  0.1079
  H  H64  1  0.546400  0.864600  0.500000  1.0  0.1398
  H  H65  1  0.569500  0.946300  0.500000  1.0  0.1475
  H  H66  1  0.404300  0.957000  0.500000  1.0  0.1129
  H  H67  1  0.290100  0.182200  0.500000  1.0  0.1237
  H  H68  1  0.412400  0.300700  0.500000  1.0  0.127
  H  H69  1  0.268000  0.096700  0.500000  1.0  0.1267
  H  H70  1  0.242700  0.001600  0.500000  1.0  0.1094
  H  H71  1  0.453600  0.135400  0.500000  1.0  0.1411
  H  H72  1  0.430500  0.053700  0.500000  1.0  0.1475
  C  C73  1  0.515000  0.123700  0.000000  1.0  -0.0411
  C  C74  1  0.530100  0.179700  0.000000  1.0  -0.1529
  C  C75  1  0.205700  0.199900  0.000000  1.0  0.688
  C  C76  1  0.413800  0.147700  0.000000  1.0  0.0441
  C  C77  1  0.308500  0.171400  0.000000  1.0  -0.0415
  C  C78  1  0.279600  0.058200  0.000000  1.0  -0.1074
  C  C79  1  0.352400  0.132000  0.000000  1.0  0.0468
  C  C80  1  0.237400  0.098600  0.000000  1.0  0.0063
  C  C81  1  0.252100  0.156200  0.000000  1.0  -0.1474
  C  C82  1  0.430800  0.203500  0.000000  1.0  -0.1167
  C  C83  1  0.265700  0.996300  0.000000  1.0  0.6715
  C  C84  1  0.488700  0.218900  0.000000  1.0  -0.0564
  C  C85  1  0.336500  0.074300  0.000000  1.0  -0.0593
  C  C86  1  0.456000  0.107900  0.000000  1.0  -0.0873
  C  C87  1  0.485000  0.876300  0.000000  1.0  -0.0411
  C  C88  1  0.469900  0.820300  0.000000  1.0  -0.1559
  C  C89  1  0.794300  0.800100  0.000000  1.0  0.6857
  C  C90  1  0.586200  0.852300  0.000000  1.0  0.0427
  C  C91  1  0.691500  0.828600  0.000000  1.0  -0.0381
  C  C92  1  0.720400  0.941800  0.000000  1.0  -0.108
  C  C93  1  0.647600  0.868000  0.000000  1.0  0.0453
  C  C94  1  0.762600  0.901400  0.000000  1.0  0.0053
  C  C95  1  0.747900  0.843800  0.000000  1.0  -0.1489
  C  C96  1  0.569200  0.796500  0.000000  1.0  -0.1149
  C  C97  1  0.734300  0.003700  0.000000  1.0  0.6724
  C  C98  1  0.511300  0.781100  0.000000  1.0  -0.0556
  C  C99  1  0.663500  0.925700  0.000000  1.0  -0.0602
  C  C100  1  0.544000  0.892100  0.000000  1.0  -0.0919
  C  C101  1  0.876300  0.515000  0.000000  1.0  -0.038
  C  C102  1  0.820300  0.530100  0.000000  1.0  -0.1535
  C  C103  1  0.800100  0.205700  0.000000  1.0  0.6868
  C  C104  1  0.852300  0.413800  0.000000  1.0  0.0462
  C  C105  1  0.828600  0.308500  0.000000  1.0  -0.0423
  C  C106  1  0.941800  0.279600  0.000000  1.0  -0.1067
  C  C107  1  0.868000  0.352400  0.000000  1.0  0.0473
  C  C108  1  0.901400  0.237400  0.000000  1.0  0.0065
  C  C109  1  0.843800  0.252100  0.000000  1.0  -0.1413
  C  C110  1  0.796500  0.430800  0.000000  1.0  -0.1111
  C  C111  1  0.003700  0.265700  0.000000  1.0  0.6731
  C  C112  1  0.781100  0.488700  0.000000  1.0  -0.0529
  C  C113  1  0.925700  0.336500  0.000000  1.0  -0.0599
  C  C114  1  0.892100  0.456000  0.000000  1.0  -0.0922
  C  C115  1  0.123700  0.485000  0.000000  1.0  -0.0396
  C  C116  1  0.179700  0.469900  0.000000  1.0  -0.1541
  C  C117  1  0.199900  0.794300  0.000000  1.0  0.6859
  C  C118  1  0.147700  0.586200  0.000000  1.0  0.0463
  C  C119  1  0.171400  0.691500  0.000000  1.0  -0.043
  C  C120  1  0.058200  0.720400  0.000000  1.0  -0.1071
  C  C121  1  0.132000  0.647600  0.000000  1.0  0.0475
  C  C122  1  0.098600  0.762600  0.000000  1.0  0.0099
  C  C123  1  0.156200  0.747900  0.000000  1.0  -0.1412
  C  C124  1  0.203500  0.569200  0.000000  1.0  -0.1115
  C  C125  1  0.996300  0.734300  0.000000  1.0  0.671
  C  C126  1  0.218900  0.511300  0.000000  1.0  -0.053
  C  C127  1  0.074300  0.663500  0.000000  1.0  -0.0586
  C  C128  1  0.107900  0.544000  0.000000  1.0  -0.0908
  C  C129  1  0.985000  0.623700  0.500000  1.0  -0.0412
  C  C130  1  0.969900  0.679700  0.500000  1.0  -0.1562
  C  C131  1  0.294300  0.699900  0.500000  1.0  0.6859
  C  C132  1  0.086200  0.647700  0.500000  1.0  0.0422
  C  C133  1  0.191500  0.671400  0.500000  1.0  -0.0417
  C  C134  1  0.220400  0.558200  0.500000  1.0  -0.1071
  C  C135  1  0.147600  0.632000  0.500000  1.0  0.0455
  C  C136  1  0.262600  0.598600  0.500000  1.0  0.0061
  C  C137  1  0.247900  0.656200  0.500000  1.0  -0.1486
  C  C138  1  0.069200  0.703500  0.500000  1.0  -0.1169
  C  C139  1  0.234300  0.496300  0.500000  1.0  0.6731
  C  C140  1  0.011300  0.718900  0.500000  1.0  -0.0554
  C  C141  1  0.163500  0.574300  0.500000  1.0  -0.0591
  C  C142  1  0.044000  0.607900  0.500000  1.0  -0.0908
  C  C143  1  0.015000  0.376300  0.500000  1.0  -0.0396
  C  C144  1  0.030100  0.320300  0.500000  1.0  -0.1523
  C  C145  1  0.705700  0.300100  0.500000  1.0  0.6877
  C  C146  1  0.913800  0.352300  0.500000  1.0  0.0443
  C  C147  1  0.808500  0.328600  0.500000  1.0  -0.0389
  C  C148  1  0.779600  0.441800  0.500000  1.0  -0.1072
  C  C149  1  0.852400  0.368000  0.500000  1.0  0.0467
  C  C150  1  0.737400  0.401400  0.500000  1.0  0.0059
  C  C151  1  0.752100  0.343800  0.500000  1.0  -0.1484
  C  C152  1  0.930800  0.296500  0.500000  1.0  -0.1135
  C  C153  1  0.765700  0.503700  0.500000  1.0  0.6719
  C  C154  1  0.988700  0.281100  0.500000  1.0  -0.0569
  C  C155  1  0.836500  0.425700  0.500000  1.0  -0.06
  C  C156  1  0.956000  0.392100  0.500000  1.0  -0.0896
  C  C157  1  0.623700  0.015000  0.500000  1.0  -0.0392
  C  C158  1  0.679700  0.030100  0.500000  1.0  -0.1534
  C  C159  1  0.699900  0.705700  0.500000  1.0  0.6852
  C  C160  1  0.647700  0.913800  0.500000  1.0  0.0462
  C  C161  1  0.671400  0.808500  0.500000  1.0  -0.0434
  C  C162  1  0.558200  0.779600  0.500000  1.0  -0.1065
  C  C163  1  0.632000  0.852400  0.500000  1.0  0.0476
  C  C164  1  0.598600  0.737400  0.500000  1.0  0.0055
  C  C165  1  0.656200  0.752100  0.500000  1.0  -0.1416
  C  C166  1  0.703500  0.930800  0.500000  1.0  -0.1118
  C  C167  1  0.496300  0.765700  0.500000  1.0  0.6715
  C  C168  1  0.718900  0.988700  0.500000  1.0  -0.0528
  C  C169  1  0.574300  0.836500  0.500000  1.0  -0.0584
  C  C170  1  0.607900  0.956000  0.500000  1.0  -0.0922
  C  C171  1  0.376300  0.985000  0.500000  1.0  -0.0393
  C  C172  1  0.320300  0.969900  0.500000  1.0  -0.1546
  C  C173  1  0.300100  0.294300  0.500000  1.0  0.6864
  C  C174  1  0.352300  0.086200  0.500000  1.0  0.0461
  C  C175  1  0.328600  0.191500  0.500000  1.0  -0.0417
  C  C176  1  0.441800  0.220400  0.500000  1.0  -0.1071
  C  C177  1  0.368000  0.147600  0.500000  1.0  0.0473
  C  C178  1  0.401400  0.262600  0.500000  1.0  0.0113
  C  C179  1  0.343800  0.247900  0.500000  1.0  -0.1404
  C  C180  1  0.296500  0.069200  0.500000  1.0  -0.1116
  C  C181  1  0.503700  0.234300  0.500000  1.0  0.6713
  C  C182  1  0.281100  0.011300  0.500000  1.0  -0.0526
  C  C183  1  0.425700  0.163500  0.500000  1.0  -0.0603
  C  C184  1  0.392100  0.044000  0.500000  1.0  -0.0917
  O  O185  1  0.614650  0.237510  0.815300  1.0  -0.803
  O  O186  1  0.385350  0.762490  0.815300  1.0  -0.8015
  O  O187  1  0.762490  0.614650  0.815300  1.0  -0.8031
  O  O188  1  0.237510  0.385350  0.815300  1.0  -0.8015
  O  O189  1  0.885350  0.737510  0.684700  1.0  -0.8046
  O  O190  1  0.114650  0.262490  0.684700  1.0  -0.8022
  O  O191  1  0.737510  0.114650  0.684700  1.0  -0.8031
  O  O192  1  0.262490  0.885350  0.684700  1.0  -0.804
  O  O193  1  0.385350  0.762490  0.184700  1.0  -0.8024
  O  O194  1  0.614650  0.237510  0.184700  1.0  -0.8041
  O  O195  1  0.237510  0.385350  0.184700  1.0  -0.8031
  O  O196  1  0.762490  0.614650  0.184700  1.0  -0.8042
  O  O197  1  0.114650  0.262490  0.315300  1.0  -0.8015
  O  O198  1  0.885350  0.737510  0.315300  1.0  -0.804
  O  O199  1  0.262490  0.885350  0.315300  1.0  -0.8033
  O  O200  1  0.737510  0.114650  0.315300  1.0  -0.8019
  O  O201  1  0.639100  0.145400  0.000000  1.0  -0.7965
  O  O202  1  0.218200  0.251900  0.000000  1.0  -0.5562
  O  O203  1  0.154200  0.184700  0.000000  1.0  -0.5179
  O  O204  1  0.215500  0.979000  0.000000  1.0  -0.5479
  O  O205  1  0.306700  0.961700  0.000000  1.0  -0.5928
  O  O206  1  0.360900  0.854600  0.000000  1.0  -0.7954
  O  O207  1  0.781800  0.748100  0.000000  1.0  -0.5571
  O  O208  1  0.845800  0.815300  0.000000  1.0  -0.5212
  O  O209  1  0.784500  0.021000  0.000000  1.0  -0.5517
  O  O210  1  0.693300  0.038300  0.000000  1.0  -0.5917
  O  O211  1  0.854600  0.639100  0.000000  1.0  -0.7945
  O  O212  1  0.748100  0.218200  0.000000  1.0  -0.5572
  O  O213  1  0.815300  0.154200  0.000000  1.0  -0.528
  O  O214  1  0.021000  0.215500  0.000000  1.0  -0.5523
  O  O215  1  0.038300  0.306700  0.000000  1.0  -0.5917
  O  O216  1  0.145400  0.360900  0.000000  1.0  -0.7937
  O  O217  1  0.251900  0.781800  0.000000  1.0  -0.5547
  O  O218  1  0.184700  0.845800  0.000000  1.0  -0.5199
  O  O219  1  0.979000  0.784500  0.000000  1.0  -0.554
  O  O220  1  0.961700  0.693300  0.000000  1.0  -0.593
  O  O221  1  0.860900  0.645400  0.500000  1.0  -0.7961
  O  O222  1  0.281800  0.751900  0.500000  1.0  -0.5553
  O  O223  1  0.345800  0.684700  0.500000  1.0  -0.5233
  O  O224  1  0.284500  0.479000  0.500000  1.0  -0.5522
  O  O225  1  0.193300  0.461700  0.500000  1.0  -0.5928
  O  O226  1  0.139100  0.354600  0.500000  1.0  -0.7954
  O  O227  1  0.718200  0.248100  0.500000  1.0  -0.5571
  O  O228  1  0.654200  0.315300  0.500000  1.0  -0.5152
  O  O229  1  0.715500  0.521000  0.500000  1.0  -0.5496
  O  O230  1  0.806700  0.538300  0.500000  1.0  -0.5926
  O  O231  1  0.645400  0.139100  0.500000  1.0  -0.7933
  O  O232  1  0.751900  0.718200  0.500000  1.0  -0.5552
  O  O233  1  0.684700  0.654200  0.500000  1.0  -0.522
  O  O234  1  0.479000  0.715500  0.500000  1.0  -0.5533
  O  O235  1  0.461700  0.806700  0.500000  1.0  -0.5927
  O  O236  1  0.354600  0.860900  0.500000  1.0  -0.7949
  O  O237  1  0.248100  0.281800  0.500000  1.0  -0.5571
  O  O238  1  0.315300  0.345800  0.500000  1.0  -0.5223
  O  O239  1  0.521000  0.284500  0.500000  1.0  -0.5535
  O  O240  1  0.538300  0.193300  0.500000  1.0  -0.5919
