# generated using pymatgen
data_Sr3H6C14N2O11
_symmetry_space_group_name_H-M   'P 1'
_cell_length_a   6.89530000
_cell_length_b   10.12260000
_cell_length_c   20.24060000
_cell_angle_alpha   92.70300000
_cell_angle_beta   90.00000000
_cell_angle_gamma   109.91300000
_symmetry_Int_Tables_number   1
_chemical_formula_structural   Sr3H6C14N2O11
_chemical_formula_sum   'Sr6 H12 C28 N4 O22'
_cell_volume   1326.62112534
_cell_formula_units_Z   2
loop_
 _symmetry_equiv_pos_site_id
 _symmetry_equiv_pos_as_xyz
  1  'x, y, z'
loop_
 _atom_site_type_symbol
 _atom_site_label
 _atom_site_symmetry_multiplicity
 _atom_site_fract_x
 _atom_site_fract_y
 _atom_site_fract_z
 _atom_site_occupancy
 _atom_site_charge
  Sr  Sr1  1  0.905120  0.156640  0.318590  1.0  1.5701
  Sr  Sr2  1  0.748480  0.843360  0.181400  1.0  1.5707
  Sr  Sr3  1  0.094880  0.843360  0.681400  1.0  1.5695
  Sr  Sr4  1  0.500000  0.500000  0.000000  1.0  1.639
  Sr  Sr5  1  0.000000  0.500000  0.500000  1.0  1.6391
  Sr  Sr6  1  0.251520  0.156640  0.818590  1.0  1.5698
  H  H7  1  0.923400  0.458800  0.098600  1.0  0.0797
  H  H8  1  0.960600  0.295200  0.734600  1.0  0.0638
  H  H9  1  0.858400  0.038800  0.718500  1.0  0.4535
  H  H10  1  0.039400  0.704800  0.265400  1.0  0.0638
  H  H11  1  0.665400  0.704800  0.765400  1.0  0.0635
  H  H12  1  0.535400  0.458800  0.598600  1.0  0.0796
  H  H13  1  0.141600  0.961200  0.281500  1.0  0.4552
  H  H14  1  0.180400  0.038800  0.218500  1.0  0.4533
  H  H15  1  0.819600  0.961200  0.781500  1.0  0.4562
  H  H16  1  0.464600  0.541200  0.401400  1.0  0.0792
  H  H17  1  0.334600  0.295200  0.234600  1.0  0.0639
  H  H18  1  0.076600  0.541200  0.901400  1.0  0.0791
  C  C19  1  0.014010  0.390420  0.825950  1.0  0.2599
  C  C20  1  0.162930  0.790060  0.847880  1.0  0.619
  C  C21  1  0.461350  0.502300  0.221960  1.0  0.1137
  C  C22  1  0.459510  0.526820  0.356310  1.0  -0.0838
  C  C23  1  0.067310  0.526820  0.856310  1.0  -0.084
  C  C24  1  0.985990  0.609580  0.174050  1.0  0.262
  C  C25  1  0.970230  0.502660  0.352320  1.0  0.6625
  C  C26  1  0.040950  0.502300  0.721960  1.0  0.1143
  C  C27  1  0.532430  0.502660  0.852320  1.0  0.6634
  C  C28  1  0.464800  0.358600  0.682360  1.0  0.0972
  C  C29  1  0.837070  0.209940  0.152120  1.0  0.6221
  C  C30  1  0.467570  0.497340  0.147680  1.0  0.6649
  C  C31  1  0.932690  0.473180  0.143690  1.0  -0.0794
  C  C32  1  0.999050  0.382300  0.756850  1.0  -0.149
  C  C33  1  0.535200  0.641400  0.317640  1.0  0.0966
  C  C34  1  0.540490  0.473180  0.643690  1.0  -0.078
  C  C35  1  0.623590  0.609580  0.674050  1.0  0.2618
  C  C36  1  0.538650  0.497700  0.778040  1.0  0.1123
  C  C37  1  0.959050  0.497700  0.278040  1.0  0.1125
  C  C38  1  0.627130  0.790060  0.347880  1.0  0.6196
  C  C39  1  0.383250  0.382300  0.256850  1.0  -0.1489
  C  C40  1  0.376410  0.390420  0.325950  1.0  0.2608
  C  C41  1  0.616750  0.617700  0.743150  1.0  -0.1514
  C  C42  1  0.893800  0.358600  0.182360  1.0  0.0977
  C  C43  1  0.000950  0.617700  0.243150  1.0  -0.1509
  C  C44  1  0.106200  0.641400  0.817640  1.0  0.0972
  C  C45  1  0.372870  0.209940  0.652120  1.0  0.621
  C  C46  1  0.029770  0.497340  0.647680  1.0  0.6648
  N  N47  1  0.905410  0.368020  0.248650  1.0  -0.5214
  N  N48  1  0.094590  0.631980  0.751350  1.0  -0.5199
  N  N49  1  0.537390  0.631980  0.251350  1.0  -0.5201
  N  N50  1  0.462610  0.368020  0.748650  1.0  -0.5214
  O  O51  1  0.371040  0.192480  0.590210  1.0  -0.548
  O  O52  1  0.698820  0.887040  0.308780  1.0  -0.8307
  O  O53  1  0.097700  0.000000  0.250000  1.0  -0.8714
  O  O54  1  0.628960  0.807520  0.409790  1.0  -0.549
  O  O55  1  0.544160  0.612320  0.120080  1.0  -0.7958
  O  O56  1  0.811780  0.112960  0.191220  1.0  -0.831
  O  O57  1  0.821440  0.192480  0.090210  1.0  -0.5485
  O  O58  1  0.178560  0.807520  0.909790  1.0  -0.5487
  O  O59  1  0.931840  0.387680  0.379920  1.0  -0.7921
  O  O60  1  0.017000  0.617800  0.384300  1.0  -0.6899
  O  O61  1  0.455840  0.387680  0.879920  1.0  -0.7924
  O  O62  1  0.902300  0.000000  0.750000  1.0  -0.8707
  O  O63  1  0.292490  0.277780  0.359770  1.0  -0.6934
  O  O64  1  0.600800  0.617800  0.884300  1.0  -0.69
  O  O65  1  0.301180  0.112960  0.691220  1.0  -0.8303
  O  O66  1  0.188220  0.887040  0.808780  1.0  -0.8301
  O  O67  1  0.068160  0.612320  0.620080  1.0  -0.7949
  O  O68  1  0.983000  0.382200  0.615700  1.0  -0.6948
  O  O69  1  0.985290  0.277780  0.859770  1.0  -0.6902
  O  O70  1  0.707510  0.722220  0.640230  1.0  -0.6892
  O  O71  1  0.399200  0.382200  0.115700  1.0  -0.6947
  O  O72  1  0.014710  0.722220  0.140230  1.0  -0.6881
