# generated using pymatgen
data_Fe3H6C18O13
_symmetry_space_group_name_H-M   'P 1'
_cell_length_a   7.10620000
_cell_length_b   9.73670000
_cell_length_c   9.85900000
_cell_angle_alpha   60.40950000
_cell_angle_beta   84.15150000
_cell_angle_gamma   78.09110000
_symmetry_Int_Tables_number   1
_chemical_formula_structural   Fe3H6C18O13
_chemical_formula_sum   'Fe3 H6 C18 O13'
_cell_volume   580.41767698
_cell_formula_units_Z   1
loop_
 _symmetry_equiv_pos_site_id
 _symmetry_equiv_pos_as_xyz
  1  'x, y, z'
loop_
 _atom_site_type_symbol
 _atom_site_label
 _atom_site_symmetry_multiplicity
 _atom_site_fract_x
 _atom_site_fract_y
 _atom_site_fract_z
 _atom_site_occupancy
 _atom_site_charge
  Fe  Fe1  1  0.431610  0.356850  0.676900  1.0  1.1967
  Fe  Fe2  1  0.568390  0.966250  0.676900  1.0  1.1982
  Fe  Fe3  1  0.000000  0.336390  0.327220  1.0  1.0536
  H  H4  1  0.284100  0.157100  0.092000  1.0  0.1176
  H  H5  1  0.251500  0.753800  0.498800  1.0  0.1141
  H  H6  1  0.211000  0.758500  0.093400  1.0  0.1209
  H  H7  1  0.715900  0.750900  0.092000  1.0  0.1198
  H  H8  1  0.748500  0.747400  0.498800  1.0  0.1145
  H  H9  1  0.789000  0.148100  0.093400  1.0  0.119
  C  C10  1  0.274300  0.968200  0.309000  1.0  -0.1727
  C  C11  1  0.215600  0.731800  0.309800  1.0  -0.182
  C  C12  1  0.255800  0.966700  0.067800  1.0  -0.168
  C  C13  1  0.273300  0.049200  0.147200  1.0  0.0334
  C  C14  1  0.282700  0.043800  0.894400  1.0  0.7309
  C  C15  1  0.247700  0.808800  0.390400  1.0  0.0426
  C  C16  1  0.176800  0.565000  0.395000  1.0  0.6955
  C  C17  1  0.321400  0.045100  0.399200  1.0  0.7201
  C  C18  1  0.225300  0.811100  0.148000  1.0  0.04
  C  C19  1  0.725700  0.722800  0.309000  1.0  -0.1691
  C  C20  1  0.784400  0.958400  0.309800  1.0  -0.1843
  C  C21  1  0.744200  0.965500  0.067800  1.0  -0.1665
  C  C22  1  0.726700  0.803600  0.147200  1.0  0.0322
  C  C23  1  0.717300  0.061800  0.894400  1.0  0.7252
  C  C24  1  0.752300  0.800800  0.390400  1.0  0.0406
  C  C25  1  0.823200  0.040000  0.395000  1.0  0.7018
  C  C26  1  0.678600  0.555700  0.399200  1.0  0.7173
  C  C27  1  0.774700  0.040900  0.148000  1.0  0.0435
  O  O28  1  0.174600  0.492200  0.543400  1.0  -0.603
  O  O29  1  0.398700  0.952000  0.529800  1.0  -0.5829
  O  O30  1  0.284100  0.196100  0.339000  1.0  -0.5688
  O  O31  1  0.257800  0.194000  0.816400  1.0  -0.6132
  O  O32  1  0.145600  0.505700  0.313000  1.0  -0.5948
  O  O33  1  0.332500  0.953300  0.835600  1.0  -0.6134
  O  O34  1  0.825400  0.964400  0.543400  1.0  -0.6
  O  O35  1  0.601300  0.518200  0.529800  1.0  -0.5804
  O  O36  1  0.715900  0.464900  0.339000  1.0  -0.5748
  O  O37  1  0.742200  0.989600  0.816400  1.0  -0.6137
  O  O38  1  0.854400  0.181300  0.313000  1.0  -0.5906
  O  O39  1  0.667500  0.211100  0.835600  1.0  -0.6006
  O  O40  1  0.500000  0.236200  0.527600  1.0  -0.4987
