# generated using pymatgen
data_Co3H14C26S2(NO7)2
_symmetry_space_group_name_H-M   'P 1'
_cell_length_a   25.23780000
_cell_length_b   8.68720000
_cell_length_c   18.81390000
_cell_angle_alpha   90.00000000
_cell_angle_beta   130.44700000
_cell_angle_gamma   90.00000000
_symmetry_Int_Tables_number   1
_chemical_formula_structural   Co3H14C26S2(NO7)2
_chemical_formula_sum   'Co12 H56 C104 S8 N8 O56'
_cell_volume   3139.05158374
_cell_formula_units_Z   4
loop_
 _symmetry_equiv_pos_site_id
 _symmetry_equiv_pos_as_xyz
  1  'x, y, z'
loop_
 _atom_site_type_symbol
 _atom_site_label
 _atom_site_symmetry_multiplicity
 _atom_site_fract_x
 _atom_site_fract_y
 _atom_site_fract_z
 _atom_site_occupancy
 _atom_site_charge
  Co  Co1  1  0.128670  0.205140  0.063280  1.0  0.9531
  Co  Co2  1  0.628670  0.705140  0.063280  1.0  0.9531
  Co  Co3  1  0.871330  0.205140  0.436720  1.0  0.9552
  Co  Co4  1  0.371330  0.705140  0.436720  1.0  0.9552
  Co  Co5  1  0.871330  0.794860  0.936720  1.0  0.955
  Co  Co6  1  0.371330  0.294860  0.936720  1.0  0.955
  Co  Co7  1  0.128670  0.794860  0.563280  1.0  0.9527
  Co  Co8  1  0.628670  0.294860  0.563280  1.0  0.9527
  Co  Co9  1  0.000000  0.500000  0.000000  1.0  1.2299
  Co  Co10  1  0.500000  0.000000  0.000000  1.0  1.2299
  Co  Co11  1  0.000000  0.500000  0.500000  1.0  1.2299
  Co  Co12  1  0.500000  0.000000  0.500000  1.0  1.2299
  H  H13  1  0.101500  0.684900  0.323700  1.0  0.1142
  H  H14  1  0.070400  0.260400  0.373500  1.0  0.1077
  H  H15  1  0.089100  0.157900  0.278500  1.0  0.1285
  H  H16  1  0.193600  0.166800  0.975700  1.0  0.0776
  H  H17  1  0.238500  0.987300  0.942800  1.0  0.1361
  H  H18  1  0.228400  0.690300  0.095700  1.0  0.1204
  H  H19  1  0.188600  0.883000  0.130900  1.0  0.0822
  H  H20  1  0.601500  0.184900  0.323700  1.0  0.1142
  H  H21  1  0.570400  0.760400  0.373500  1.0  0.1077
  H  H22  1  0.589100  0.657900  0.278500  1.0  0.1285
  H  H23  1  0.693600  0.666800  0.975700  1.0  0.0776
  H  H24  1  0.738500  0.487300  0.942800  1.0  0.1361
  H  H25  1  0.728400  0.190300  0.095700  1.0  0.1204
  H  H26  1  0.688600  0.383000  0.130900  1.0  0.0822
  H  H27  1  0.898500  0.684900  0.176300  1.0  0.1145
  H  H28  1  0.929600  0.260400  0.126500  1.0  0.1081
  H  H29  1  0.910900  0.157900  0.221500  1.0  0.1284
  H  H30  1  0.806400  0.166800  0.524300  1.0  0.0776
  H  H31  1  0.761500  0.987300  0.557200  1.0  0.1349
  H  H32  1  0.771600  0.690300  0.404300  1.0  0.1208
  H  H33  1  0.811400  0.883000  0.369100  1.0  0.0831
  H  H34  1  0.398500  0.184900  0.176300  1.0  0.1145
  H  H35  1  0.429600  0.760400  0.126500  1.0  0.1081
  H  H36  1  0.410900  0.657900  0.221500  1.0  0.1284
  H  H37  1  0.306400  0.666800  0.524300  1.0  0.0776
  H  H38  1  0.261500  0.487300  0.557200  1.0  0.1349
  H  H39  1  0.271600  0.190300  0.404300  1.0  0.1208
  H  H40  1  0.311400  0.383000  0.369100  1.0  0.0831
  H  H41  1  0.898500  0.315100  0.676300  1.0  0.1148
  H  H42  1  0.929600  0.739600  0.626500  1.0  0.1078
  H  H43  1  0.910900  0.842100  0.721500  1.0  0.1266
  H  H44  1  0.806400  0.833200  0.024300  1.0  0.0781
  H  H45  1  0.761500  0.012700  0.057200  1.0  0.135
  H  H46  1  0.771600  0.309700  0.904300  1.0  0.1221
  H  H47  1  0.811400  0.117000  0.869100  1.0  0.0832
  H  H48  1  0.398500  0.815100  0.676300  1.0  0.1148
  H  H49  1  0.429600  0.239600  0.626500  1.0  0.1078
  H  H50  1  0.410900  0.342100  0.721500  1.0  0.1266
  H  H51  1  0.306400  0.333200  0.024300  1.0  0.0781
  H  H52  1  0.261500  0.512700  0.057200  1.0  0.135
  H  H53  1  0.271600  0.809700  0.904300  1.0  0.1221
  H  H54  1  0.311400  0.617000  0.869100  1.0  0.0832
  H  H55  1  0.101500  0.315100  0.823700  1.0  0.1146
  H  H56  1  0.070400  0.739600  0.873500  1.0  0.1075
  H  H57  1  0.089100  0.842100  0.778500  1.0  0.1272
  H  H58  1  0.193600  0.833200  0.475700  1.0  0.0779
  H  H59  1  0.238500  0.012700  0.442800  1.0  0.1359
  H  H60  1  0.228400  0.309700  0.595700  1.0  0.1213
  H  H61  1  0.188600  0.117000  0.630900  1.0  0.0824
  H  H62  1  0.601500  0.815100  0.823700  1.0  0.1146
  H  H63  1  0.570400  0.239600  0.873500  1.0  0.1075
  H  H64  1  0.589100  0.342100  0.778500  1.0  0.1272
  H  H65  1  0.693600  0.333200  0.475700  1.0  0.0779
  H  H66  1  0.738500  0.512700  0.442800  1.0  0.1359
  H  H67  1  0.728400  0.809700  0.595700  1.0  0.1213
  H  H68  1  0.688600  0.617000  0.630900  1.0  0.0824
  C  C69  1  0.110100  0.287200  0.173700  1.0  0.6683
  C  C70  1  0.102800  0.360900  0.239000  1.0  -0.0681
  C  C71  1  0.107100  0.518500  0.253700  1.0  -0.14
  C  C72  1  0.098000  0.579200  0.313500  1.0  0.0005
  C  C73  1  0.083700  0.482700  0.358400  1.0  -0.141
  C  C74  1  0.080000  0.325600  0.343900  1.0  -0.0202
  C  C75  1  0.090400  0.264000  0.286100  1.0  -0.0573
  C  C76  1  0.072200  0.551900  0.420700  1.0  0.6876
  C  C77  1  0.201100  0.068700  0.000600  1.0  0.1766
  C  C78  1  0.227200  0.961700  0.979600  1.0  -0.1905
  C  C79  1  0.237300  0.812300  0.012700  1.0  0.0621
  C  C80  1  0.221800  0.787600  0.070500  1.0  -0.1594
  C  C81  1  0.197300  0.903200  0.090600  1.0  0.1806
  C  C82  1  0.610100  0.787200  0.173700  1.0  0.6683
  C  C83  1  0.602800  0.860900  0.239000  1.0  -0.0681
  C  C84  1  0.607100  0.018500  0.253700  1.0  -0.14
  C  C85  1  0.598000  0.079200  0.313500  1.0  0.0005
  C  C86  1  0.583700  0.982700  0.358400  1.0  -0.141
  C  C87  1  0.580000  0.825600  0.343900  1.0  -0.0202
  C  C88  1  0.590400  0.764000  0.286100  1.0  -0.0573
  C  C89  1  0.572200  0.051900  0.420700  1.0  0.6876
  C  C90  1  0.701100  0.568700  0.000600  1.0  0.1766
  C  C91  1  0.727200  0.461700  0.979600  1.0  -0.1905
  C  C92  1  0.737300  0.312300  0.012700  1.0  0.0621
  C  C93  1  0.721800  0.287600  0.070500  1.0  -0.1594
  C  C94  1  0.697300  0.403200  0.090600  1.0  0.1806
  C  C95  1  0.889900  0.287200  0.326300  1.0  0.6693
  C  C96  1  0.897200  0.360900  0.261000  1.0  -0.0684
  C  C97  1  0.892900  0.518500  0.246300  1.0  -0.1379
  C  C98  1  0.902000  0.579200  0.186500  1.0  0.0004
  C  C99  1  0.916300  0.482700  0.141600  1.0  -0.14
  C  C100  1  0.920000  0.325600  0.156100  1.0  -0.0196
  C  C101  1  0.909600  0.264000  0.213900  1.0  -0.0575
  C  C102  1  0.927800  0.551900  0.079300  1.0  0.6894
  C  C103  1  0.798900  0.068700  0.499400  1.0  0.176
  C  C104  1  0.772800  0.961700  0.520400  1.0  -0.1906
  C  C105  1  0.762700  0.812300  0.487300  1.0  0.0625
  C  C106  1  0.778200  0.787600  0.429500  1.0  -0.1604
  C  C107  1  0.802700  0.903200  0.409400  1.0  0.1822
  C  C108  1  0.389900  0.787200  0.326300  1.0  0.6693
  C  C109  1  0.397200  0.860900  0.261000  1.0  -0.0684
  C  C110  1  0.392900  0.018500  0.246300  1.0  -0.1379
  C  C111  1  0.402000  0.079200  0.186500  1.0  0.0004
  C  C112  1  0.416300  0.982700  0.141600  1.0  -0.14
  C  C113  1  0.420000  0.825600  0.156100  1.0  -0.0196
  C  C114  1  0.409600  0.764000  0.213900  1.0  -0.0575
  C  C115  1  0.427800  0.051900  0.079300  1.0  0.6894
  C  C116  1  0.298900  0.568700  0.499400  1.0  0.176
  C  C117  1  0.272800  0.461700  0.520400  1.0  -0.1906
  C  C118  1  0.262700  0.312300  0.487300  1.0  0.0625
  C  C119  1  0.278200  0.287600  0.429500  1.0  -0.1604
  C  C120  1  0.302700  0.403200  0.409400  1.0  0.1822
  C  C121  1  0.889900  0.712800  0.826300  1.0  0.667
  C  C122  1  0.897200  0.639100  0.761000  1.0  -0.0683
  C  C123  1  0.892900  0.481500  0.746300  1.0  -0.1385
  C  C124  1  0.902000  0.420800  0.686500  1.0  0.0019
  C  C125  1  0.916300  0.517300  0.641600  1.0  -0.1414
  C  C126  1  0.920000  0.674400  0.656100  1.0  -0.0198
  C  C127  1  0.909600  0.736000  0.713900  1.0  -0.0589
  C  C128  1  0.927800  0.448100  0.579300  1.0  0.6885
  C  C129  1  0.798900  0.931300  0.999400  1.0  0.1752
  C  C130  1  0.772800  0.038300  0.020400  1.0  -0.1907
  C  C131  1  0.762700  0.187700  0.987300  1.0  0.0625
  C  C132  1  0.778200  0.212400  0.929500  1.0  -0.1615
  C  C133  1  0.802700  0.096800  0.909400  1.0  0.1823
  C  C134  1  0.389900  0.212800  0.826300  1.0  0.667
  C  C135  1  0.397200  0.139100  0.761000  1.0  -0.0683
  C  C136  1  0.392900  0.981500  0.746300  1.0  -0.1385
  C  C137  1  0.402000  0.920800  0.686500  1.0  0.0019
  C  C138  1  0.416300  0.017300  0.641600  1.0  -0.1414
  C  C139  1  0.420000  0.174400  0.656100  1.0  -0.0198
  C  C140  1  0.409600  0.236000  0.713900  1.0  -0.0589
  C  C141  1  0.427800  0.948100  0.579300  1.0  0.6885
  C  C142  1  0.298900  0.431300  0.999400  1.0  0.1752
  C  C143  1  0.272800  0.538300  0.020400  1.0  -0.1907
  C  C144  1  0.262700  0.687700  0.987300  1.0  0.0625
  C  C145  1  0.278200  0.712400  0.929500  1.0  -0.1615
  C  C146  1  0.302700  0.596800  0.909400  1.0  0.1823
  C  C147  1  0.110100  0.712800  0.673700  1.0  0.6687
  C  C148  1  0.102800  0.639100  0.739000  1.0  -0.068
  C  C149  1  0.107100  0.481500  0.753700  1.0  -0.1405
  C  C150  1  0.098000  0.420800  0.813500  1.0  0.0019
  C  C151  1  0.083700  0.517300  0.858400  1.0  -0.1408
  C  C152  1  0.080000  0.674400  0.843900  1.0  -0.0207
  C  C153  1  0.090400  0.736000  0.786100  1.0  -0.0592
  C  C154  1  0.072200  0.448100  0.920700  1.0  0.6883
  C  C155  1  0.201100  0.931300  0.500600  1.0  0.176
  C  C156  1  0.227200  0.038300  0.479600  1.0  -0.1901
  C  C157  1  0.237300  0.187700  0.512700  1.0  0.062
  C  C158  1  0.221800  0.212400  0.570500  1.0  -0.159
  C  C159  1  0.197300  0.096800  0.590600  1.0  0.1811
  C  C160  1  0.610100  0.212800  0.673700  1.0  0.6687
  C  C161  1  0.602800  0.139100  0.739000  1.0  -0.068
  C  C162  1  0.607100  0.981500  0.753700  1.0  -0.1405
  C  C163  1  0.598000  0.920800  0.813500  1.0  0.0019
  C  C164  1  0.583700  0.017300  0.858400  1.0  -0.1408
  C  C165  1  0.580000  0.174400  0.843900  1.0  -0.0207
  C  C166  1  0.590400  0.236000  0.786100  1.0  -0.0592
  C  C167  1  0.572200  0.948100  0.920700  1.0  0.6883
  C  C168  1  0.701100  0.431300  0.500600  1.0  0.176
  C  C169  1  0.727200  0.538300  0.479600  1.0  -0.1901
  C  C170  1  0.737300  0.687700  0.512700  1.0  0.062
  C  C171  1  0.721800  0.712400  0.570500  1.0  -0.159
  C  C172  1  0.697300  0.596800  0.590600  1.0  0.1811
  S  S173  1  0.127540  0.651400  0.202110  1.0  1.3781
  S  S174  1  0.627540  0.151400  0.202110  1.0  1.3781
  S  S175  1  0.872460  0.651400  0.297890  1.0  1.3782
  S  S176  1  0.372460  0.151400  0.297890  1.0  1.3782
  S  S177  1  0.872460  0.348600  0.797890  1.0  1.379
  S  S178  1  0.372460  0.848600  0.797890  1.0  1.379
  S  S179  1  0.127540  0.348600  0.702110  1.0  1.3778
  S  S180  1  0.627540  0.848600  0.702110  1.0  1.3778
  N  N181  1  0.185000  0.044000  0.055400  1.0  -0.3161
  N  N182  1  0.685000  0.544000  0.055400  1.0  -0.3161
  N  N183  1  0.815000  0.044000  0.444600  1.0  -0.3152
  N  N184  1  0.315000  0.544000  0.444600  1.0  -0.3152
  N  N185  1  0.815000  0.956000  0.944600  1.0  -0.3166
  N  N186  1  0.315000  0.456000  0.944600  1.0  -0.3166
  N  N187  1  0.185000  0.956000  0.555400  1.0  -0.3159
  N  N188  1  0.685000  0.456000  0.555400  1.0  -0.3159
  O  O189  1  0.075100  0.341900  0.090700  1.0  -0.6823
  O  O190  1  0.149100  0.175700  0.197900  1.0  -0.5599
  O  O191  1  0.051300  0.461400  0.450600  1.0  -0.5864
  O  O192  1  0.085500  0.693700  0.439600  1.0  -0.599
  O  O193  1  0.063100  0.672700  0.104600  1.0  -0.7276
  O  O194  1  0.147600  0.794900  0.255300  1.0  -0.6406
  O  O195  1  0.183800  0.583600  0.210600  1.0  -0.6031
  O  O196  1  0.575100  0.841900  0.090700  1.0  -0.6823
  O  O197  1  0.649100  0.675700  0.197900  1.0  -0.5599
  O  O198  1  0.551300  0.961400  0.450600  1.0  -0.5864
  O  O199  1  0.585500  0.193700  0.439600  1.0  -0.599
  O  O200  1  0.563100  0.172700  0.104600  1.0  -0.7276
  O  O201  1  0.647600  0.294900  0.255300  1.0  -0.6406
  O  O202  1  0.683800  0.083600  0.210600  1.0  -0.6031
  O  O203  1  0.924900  0.341900  0.409300  1.0  -0.6827
  O  O204  1  0.850900  0.175700  0.302100  1.0  -0.5587
  O  O205  1  0.948700  0.461400  0.049400  1.0  -0.5869
  O  O206  1  0.914500  0.693700  0.060400  1.0  -0.5985
  O  O207  1  0.936900  0.672700  0.395400  1.0  -0.7284
  O  O208  1  0.852400  0.794900  0.244700  1.0  -0.6405
  O  O209  1  0.816200  0.583600  0.289400  1.0  -0.6024
  O  O210  1  0.424900  0.841900  0.409300  1.0  -0.6827
  O  O211  1  0.350900  0.675700  0.302100  1.0  -0.5587
  O  O212  1  0.448700  0.961400  0.049400  1.0  -0.5869
  O  O213  1  0.414500  0.193700  0.060400  1.0  -0.5985
  O  O214  1  0.436900  0.172700  0.395400  1.0  -0.7284
  O  O215  1  0.352400  0.294900  0.244700  1.0  -0.6405
  O  O216  1  0.316200  0.083600  0.289400  1.0  -0.6024
  O  O217  1  0.924900  0.658100  0.909300  1.0  -0.6831
  O  O218  1  0.850900  0.824300  0.802100  1.0  -0.5583
  O  O219  1  0.948700  0.538600  0.549400  1.0  -0.5879
  O  O220  1  0.914500  0.306300  0.560400  1.0  -0.5992
  O  O221  1  0.936900  0.327300  0.895400  1.0  -0.7305
  O  O222  1  0.852400  0.205100  0.744700  1.0  -0.6391
  O  O223  1  0.816200  0.416400  0.789400  1.0  -0.6021
  O  O224  1  0.424900  0.158100  0.909300  1.0  -0.6831
  O  O225  1  0.350900  0.324300  0.802100  1.0  -0.5583
  O  O226  1  0.448700  0.038600  0.549400  1.0  -0.5879
  O  O227  1  0.414500  0.806300  0.560400  1.0  -0.5992
  O  O228  1  0.436900  0.827300  0.895400  1.0  -0.7305
  O  O229  1  0.352400  0.705100  0.744700  1.0  -0.6391
  O  O230  1  0.316200  0.916400  0.789400  1.0  -0.6021
  O  O231  1  0.075100  0.658100  0.590700  1.0  -0.6825
  O  O232  1  0.149100  0.824300  0.697900  1.0  -0.5598
  O  O233  1  0.051300  0.538600  0.950600  1.0  -0.5858
  O  O234  1  0.085500  0.306300  0.939600  1.0  -0.6002
  O  O235  1  0.063100  0.327300  0.604600  1.0  -0.7293
  O  O236  1  0.147600  0.205100  0.755300  1.0  -0.6386
  O  O237  1  0.183800  0.416400  0.710600  1.0  -0.6027
  O  O238  1  0.575100  0.158100  0.590700  1.0  -0.6825
  O  O239  1  0.649100  0.324300  0.697900  1.0  -0.5598
  O  O240  1  0.551300  0.038600  0.950600  1.0  -0.5858
  O  O241  1  0.585500  0.806300  0.939600  1.0  -0.6002
  O  O242  1  0.563100  0.827300  0.604600  1.0  -0.7293
  O  O243  1  0.647600  0.705100  0.755300  1.0  -0.6386
  O  O244  1  0.683800  0.916400  0.710600  1.0  -0.6027
