# generated using pymatgen
data_Co3H42C52(N4O7)2
_symmetry_space_group_name_H-M   'P 1'
_cell_length_a   10.85000000
_cell_length_b   11.53400000
_cell_length_c   13.60800000
_cell_angle_alpha   66.17000000
_cell_angle_beta   81.40000000
_cell_angle_gamma   63.15000000
_symmetry_Int_Tables_number   1
_chemical_formula_structural   Co3H42C52(N4O7)2
_chemical_formula_sum   'Co3 H42 C52 N8 O14'
_cell_volume   1388.70427914
_cell_formula_units_Z   1
loop_
 _symmetry_equiv_pos_site_id
 _symmetry_equiv_pos_as_xyz
  1  'x, y, z'
loop_
 _atom_site_type_symbol
 _atom_site_label
 _atom_site_symmetry_multiplicity
 _atom_site_fract_x
 _atom_site_fract_y
 _atom_site_fract_z
 _atom_site_occupancy
 _atom_site_charge
  Co  Co1  1  0.442080  0.075150  0.791780  1.0  0.9485
  Co  Co2  1  0.557920  0.924850  0.208220  1.0  0.9455
  Co  Co3  1  0.000000  0.000000  0.000000  1.0  0.7234
  H  H4  1  0.159900  0.310700  0.787200  1.0  0.074
  H  H5  1  0.968300  0.466100  0.674800  1.0  0.1223
  H  H6  1  0.203100  0.404400  0.429800  1.0  0.127
  H  H7  1  0.385000  0.248600  0.549000  1.0  0.0876
  H  H8  1  0.825000  0.330500  0.912700  1.0  0.0822
  H  H9  1  0.822000  0.528300  0.913300  1.0  0.1151
  H  H10  1  0.185000  0.292400  0.075400  1.0  0.1119
  H  H11  1  0.179100  0.101200  0.069400  1.0  0.0664
  H  H12  1  0.855800  0.083800  0.193500  1.0  0.071
  H  H13  1  0.873200  0.010400  0.375100  1.0  0.1151
  H  H14  1  0.223500  0.678800  0.376200  1.0  0.123
  H  H15  1  0.196100  0.762900  0.193700  1.0  0.0747
  H  H16  1  0.900600  0.780700  0.733200  1.0  0.0584
  H  H17  1  0.867400  0.870200  0.550500  1.0  0.1316
  H  H18  1  0.277100  0.678700  0.531400  1.0  0.134
  H  H19  1  0.293400  0.596600  0.715200  1.0  0.0701
  H  H20  1  0.544000  0.663800  0.870100  1.0  0.1443
  H  H21  1  0.383600  0.719100  0.872200  1.0  0.1472
  H  H22  1  0.589300  0.615300  0.051400  1.0  0.1294
  H  H23  1  0.434600  0.641500  0.071900  1.0  0.1262
  H  H24  1  0.562400  0.876300  0.972000  1.0  0.3832
  H  H25  1  0.840100  0.689300  0.212800  1.0  0.0736
  H  H26  1  0.031700  0.533900  0.325200  1.0  0.1223
  H  H27  1  0.796900  0.595600  0.570200  1.0  0.1259
  H  H28  1  0.615000  0.751400  0.451000  1.0  0.0827
  H  H29  1  0.175000  0.669500  0.087300  1.0  0.0833
  H  H30  1  0.178000  0.471700  0.086700  1.0  0.1144
  H  H31  1  0.815000  0.707600  0.924600  1.0  0.112
  H  H32  1  0.820900  0.898800  0.930600  1.0  0.0667
  H  H33  1  0.144200  0.916200  0.806500  1.0  0.0709
  H  H34  1  0.126800  0.989600  0.624900  1.0  0.1148
  H  H35  1  0.776500  0.321200  0.623800  1.0  0.1234
  H  H36  1  0.803900  0.237100  0.806300  1.0  0.0759
  H  H37  1  0.099400  0.219300  0.266800  1.0  0.0587
  H  H38  1  0.132600  0.129800  0.449500  1.0  0.1313
  H  H39  1  0.722900  0.321300  0.468600  1.0  0.134
  H  H40  1  0.706600  0.403400  0.284800  1.0  0.0707
  H  H41  1  0.456000  0.336200  0.129900  1.0  0.1454
  H  H42  1  0.616400  0.280900  0.127800  1.0  0.1468
  H  H43  1  0.410700  0.384700  0.948600  1.0  0.1299
  H  H44  1  0.565400  0.358500  0.928100  1.0  0.1262
  H  H45  1  0.437600  0.123700  0.028000  1.0  0.3802
  C  C46  1  0.168300  0.327700  0.714300  1.0  0.1905
  C  C47  1  0.052200  0.422300  0.646700  1.0  -0.2016
  C  C48  1  0.061200  0.451600  0.537700  1.0  0.0884
  C  C49  1  0.190100  0.385600  0.502800  1.0  -0.1951
  C  C50  1  0.299400  0.292300  0.575100  1.0  0.1699
  C  C51  1  0.898700  0.322200  0.946400  1.0  0.1663
  C  C52  1  0.896000  0.442000  0.947000  1.0  -0.177
  C  C53  1  0.001900  0.436200  0.997000  1.0  0.0887
  C  C54  1  0.109300  0.303600  0.042000  1.0  -0.1809
  C  C55  1  0.105100  0.188300  0.037900  1.0  0.1755
  C  C56  1  0.930700  0.000500  0.230700  1.0  0.1748
  C  C57  1  0.941000  0.957400  0.340200  1.0  -0.1831
  C  C58  1  0.052300  0.835000  0.399200  1.0  0.0923
  C  C59  1  0.147300  0.762200  0.341100  1.0  -0.2007
  C  C60  1  0.129200  0.813100  0.230900  1.0  0.1695
  C  C61  1  0.978000  0.759700  0.691900  1.0  0.187
  C  C62  1  0.956400  0.813800  0.581500  1.0  -0.2081
  C  C63  1  0.069100  0.782700  0.518300  1.0  0.0956
  C  C64  1  0.197500  0.701100  0.570300  1.0  -0.2158
  C  C65  1  0.205900  0.652900  0.681700  1.0  0.1991
  C  C66  1  0.445600  0.842900  0.738700  1.0  0.7438
  C  C67  1  0.457800  0.748000  0.858300  1.0  -0.4295
  C  C68  1  0.454000  0.805500  0.943100  1.0  0.2667
  C  C69  1  0.497100  0.685700  0.054100  1.0  -0.3808
  C  C70  1  0.496000  0.735700  0.142800  1.0  0.719
  C  C71  1  0.307500  0.921600  0.943600  1.0  0.5875
  C  C72  1  0.831700  0.672300  0.285700  1.0  0.1903
  C  C73  1  0.947800  0.577700  0.353300  1.0  -0.1974
  C  C74  1  0.938800  0.548400  0.462300  1.0  0.0883
  C  C75  1  0.809900  0.614400  0.497200  1.0  -0.1941
  C  C76  1  0.700600  0.707700  0.424900  1.0  0.1721
  C  C77  1  0.101300  0.677800  0.053600  1.0  0.1668
  C  C78  1  0.104000  0.558000  0.053000  1.0  -0.1771
  C  C79  1  0.998100  0.563800  0.003000  1.0  0.0887
  C  C80  1  0.890700  0.696400  0.958000  1.0  -0.1803
  C  C81  1  0.894900  0.811700  0.962100  1.0  0.1751
  C  C82  1  0.069300  0.999500  0.769300  1.0  0.1739
  C  C83  1  0.059000  0.042600  0.659800  1.0  -0.1844
  C  C84  1  0.947700  0.165000  0.600800  1.0  0.0921
  C  C85  1  0.852700  0.237800  0.658900  1.0  -0.2014
  C  C86  1  0.870800  0.186900  0.769100  1.0  0.171
  C  C87  1  0.022000  0.240300  0.308100  1.0  0.191
  C  C88  1  0.043600  0.186200  0.418500  1.0  -0.2093
  C  C89  1  0.930900  0.217300  0.481700  1.0  0.0976
  C  C90  1  0.802500  0.298900  0.429700  1.0  -0.2147
  C  C91  1  0.794100  0.347100  0.318300  1.0  0.2004
  C  C92  1  0.554400  0.157100  0.261300  1.0  0.747
  C  C93  1  0.542200  0.252000  0.141700  1.0  -0.4244
  C  C94  1  0.546000  0.194500  0.056900  1.0  0.2664
  C  C95  1  0.502900  0.314300  0.945900  1.0  -0.381
  C  C96  1  0.504000  0.264300  0.857200  1.0  0.7189
  C  C97  1  0.692500  0.078400  0.056400  1.0  0.5869
  N  N98  1  0.290200  0.260300  0.680900  1.0  -0.3317
  N  N99  1  0.002400  0.193200  0.992100  1.0  -0.3262
  N  N100  1  0.022000  0.929700  0.174600  1.0  -0.3381
  N  N101  1  0.100300  0.680300  0.743200  1.0  -0.4172
  N  N102  1  0.709800  0.739700  0.319100  1.0  -0.341
  N  N103  1  0.997600  0.806800  0.007900  1.0  -0.3249
  N  N104  1  0.978000  0.070300  0.825400  1.0  -0.3353
  N  N105  1  0.899700  0.319700  0.256800  1.0  -0.4179
  O  O106  1  0.438700  0.962800  0.708710  1.0  -0.6237
  O  O107  1  0.444500  0.789700  0.676000  1.0  -0.5948
  O  O108  1  0.550700  0.865600  0.913600  1.0  -0.5741
  O  O109  1  0.218600  0.883800  0.998210  1.0  -0.5483
  O  O110  1  0.286300  0.045500  0.888700  1.0  -0.5447
  O  O111  1  0.464300  0.677700  0.235000  1.0  -0.6118
  O  O112  1  0.529300  0.836700  0.113450  1.0  -0.6362
  O  O113  1  0.561300  0.037200  0.291290  1.0  -0.6239
  O  O114  1  0.555500  0.210300  0.324000  1.0  -0.6003
  O  O115  1  0.449300  0.134400  0.086400  1.0  -0.5729
  O  O116  1  0.781400  0.116200  0.001790  1.0  -0.5481
  O  O117  1  0.713700  0.954500  0.111300  1.0  -0.5448
  O  O118  1  0.535700  0.322300  0.765000  1.0  -0.6144
  O  O119  1  0.470700  0.163300  0.886550  1.0  -0.6352
