# generated using pymatgen
data_NiH4C4N3O2
_symmetry_space_group_name_H-M   'P 1'
_cell_length_a   8.35670000
_cell_length_b   9.04340000
_cell_length_c   12.05500000
_cell_angle_alpha   90.00000000
_cell_angle_beta   90.00000000
_cell_angle_gamma   90.00000000
_symmetry_Int_Tables_number   1
_chemical_formula_structural   NiH4C4N3O2
_chemical_formula_sum   'Ni4 H16 C16 N12 O8'
_cell_volume   911.03228330
_cell_formula_units_Z   4
loop_
 _symmetry_equiv_pos_site_id
 _symmetry_equiv_pos_as_xyz
  1  'x, y, z'
loop_
 _atom_site_type_symbol
 _atom_site_label
 _atom_site_symmetry_multiplicity
 _atom_site_fract_x
 _atom_site_fract_y
 _atom_site_fract_z
 _atom_site_occupancy
 _atom_site_charge
  Ni  Ni1  1  0.128790  0.810240  0.680740  1.0  0.749
  Ni  Ni2  1  0.371210  0.189760  0.180740  1.0  0.7509
  Ni  Ni3  1  0.871210  0.310240  0.819260  1.0  0.7527
  Ni  Ni4  1  0.628790  0.689760  0.319260  1.0  0.7503
  H  H5  1  0.373300  0.509000  0.768300  1.0  0.133
  H  H6  1  0.360100  0.382900  0.679800  1.0  0.1304
  H  H7  1  0.525000  0.462100  0.515200  1.0  0.0628
  H  H8  1  0.422000  0.879800  0.501100  1.0  0.0389
  H  H9  1  0.126700  0.491000  0.268300  1.0  0.1333
  H  H10  1  0.139900  0.617100  0.179800  1.0  0.1295
  H  H11  1  0.975000  0.537900  0.015200  1.0  0.0633
  H  H12  1  0.078000  0.120200  0.001100  1.0  0.0379
  H  H13  1  0.626700  0.009000  0.731700  1.0  0.132
  H  H14  1  0.639900  0.882900  0.820200  1.0  0.1313
  H  H15  1  0.475000  0.962100  0.984800  1.0  0.0627
  H  H16  1  0.578000  0.379800  0.998900  1.0  0.0382
  H  H17  1  0.873300  0.991000  0.231700  1.0  0.1317
  H  H18  1  0.860100  0.117100  0.320200  1.0  0.1298
  H  H19  1  0.025000  0.037900  0.484800  1.0  0.0626
  H  H20  1  0.922000  0.620200  0.498900  1.0  0.0383
  C  C21  1  0.142100  0.478550  0.714040  1.0  0.6964
  C  C22  1  0.324100  0.481800  0.698300  1.0  -0.2536
  C  C23  1  0.482000  0.554800  0.530350  1.0  0.0875
  C  C24  1  0.424800  0.781680  0.524020  1.0  0.2289
  C  C25  1  0.357900  0.521450  0.214040  1.0  0.6946
  C  C26  1  0.175900  0.518200  0.198300  1.0  -0.2542
  C  C27  1  0.018000  0.445200  0.030350  1.0  0.0867
  C  C28  1  0.075200  0.218320  0.024020  1.0  0.2295
  C  C29  1  0.857900  0.978550  0.785960  1.0  0.6957
  C  C30  1  0.675900  0.981800  0.801700  1.0  -0.2537
  C  C31  1  0.518000  0.054800  0.969650  1.0  0.0875
  C  C32  1  0.575200  0.281680  0.975980  1.0  0.2287
  C  C33  1  0.642100  0.021450  0.285960  1.0  0.6962
  C  C34  1  0.824100  0.018200  0.301700  1.0  -0.2537
  C  C35  1  0.982000  0.945200  0.469650  1.0  0.0869
  C  C36  1  0.924800  0.718320  0.475980  1.0  0.2295
  N  N37  1  0.380510  0.583840  0.612420  1.0  0.1682
  N  N38  1  0.342190  0.731280  0.609800  1.0  -0.3536
  N  N39  1  0.513450  0.676920  0.473050  1.0  -0.4232
  N  N40  1  0.119490  0.416160  0.112420  1.0  0.1675
  N  N41  1  0.157810  0.268720  0.109800  1.0  -0.3523
  N  N42  1  0.986550  0.323080  0.973050  1.0  -0.4234
  N  N43  1  0.619490  0.083840  0.887580  1.0  0.1681
  N  N44  1  0.657810  0.231280  0.890200  1.0  -0.3556
  N  N45  1  0.486550  0.176920  0.026950  1.0  -0.424
  N  N46  1  0.880510  0.916160  0.387580  1.0  0.1677
  N  N47  1  0.842190  0.768720  0.390200  1.0  -0.3539
  N  N48  1  0.013450  0.823080  0.526950  1.0  -0.4227
  O  O49  1  0.059480  0.591320  0.693700  1.0  -0.6198
  O  O50  1  0.091790  0.358280  0.752300  1.0  -0.6426
  O  O51  1  0.440520  0.408680  0.193700  1.0  -0.6207
  O  O52  1  0.408210  0.641720  0.252300  1.0  -0.6431
  O  O53  1  0.940520  0.091320  0.806300  1.0  -0.621
  O  O54  1  0.908210  0.858280  0.747700  1.0  -0.6438
  O  O55  1  0.559480  0.908680  0.306300  1.0  -0.6202
  O  O56  1  0.591790  0.141720  0.247700  1.0  -0.6432
