# generated using pymatgen
data_PrH27(C11O2)3
_symmetry_space_group_name_H-M   'P 1'
_cell_length_a   9.84320000
_cell_length_b   10.04080000
_cell_length_c   18.04530000
_cell_angle_alpha   90.13500000
_cell_angle_beta   93.96300000
_cell_angle_gamma   113.87200000
_symmetry_Int_Tables_number   1
_chemical_formula_structural   PrH27(C11O2)3
_chemical_formula_sum   'Pr2 H54 C66 O12'
_cell_volume   1626.10951527
_cell_formula_units_Z   2
loop_
 _symmetry_equiv_pos_site_id
 _symmetry_equiv_pos_as_xyz
  1  'x, y, z'
loop_
 _atom_site_type_symbol
 _atom_site_label
 _atom_site_symmetry_multiplicity
 _atom_site_fract_x
 _atom_site_fract_y
 _atom_site_fract_z
 _atom_site_occupancy
 _atom_site_charge
  Pr  Pr1  1  0.007150  0.276660  0.996810  1.0  2.191
  Pr  Pr2  1  0.992850  0.723340  0.003190  1.0  2.1925
  H  H3  1  0.675000  0.288700  0.662600  1.0  0.0978
  H  H4  1  0.592900  0.546700  0.854400  1.0  0.1248
  H  H5  1  0.769700  0.276200  0.782700  1.0  0.1037
  H  H6  1  0.022300  0.809500  0.207200  1.0  0.1118
  H  H7  1  0.751000  0.481700  0.362100  1.0  0.1028
  H  H8  1  0.904900  0.182300  0.315200  1.0  0.1114
  H  H9  1  0.947400  0.267300  0.199000  1.0  0.1043
  H  H10  1  0.260700  0.232600  0.353100  1.0  0.1021
  H  H11  1  0.801800  0.575300  0.248300  1.0  0.1104
  H  H12  1  0.248000  0.909500  0.440400  1.0  0.0899
  H  H13  1  0.157100  0.994500  0.467700  1.0  0.1096
  H  H14  1  0.421800  0.436200  0.607100  1.0  0.1073
  H  H15  1  0.584400  0.539600  0.591400  1.0  0.0956
  H  H16  1  0.184900  0.092800  0.563200  1.0  0.1159
  H  H17  1  0.193300  0.244900  0.537700  1.0  0.1234
  H  H18  1  0.275700  0.232900  0.613200  1.0  0.1192
  H  H19  1  0.411000  0.956700  0.367900  1.0  0.1045
  H  H20  1  0.580000  0.993800  0.388400  1.0  0.1031
  H  H21  1  0.533500  0.083200  0.328400  1.0  0.1292
  H  H22  1  0.078600  0.797500  0.331800  1.0  0.0994
  H  H23  1  0.198600  0.244500  0.228400  1.0  0.084
  H  H24  1  0.873900  0.322600  0.463500  1.0  0.0918
  H  H25  1  0.791000  0.164400  0.429300  1.0  0.0871
  H  H26  1  0.490900  0.546800  0.735400  1.0  0.0976
  H  H27  1  0.786800  0.536000  0.577300  1.0  0.1163
  H  H28  1  0.836400  0.534900  0.496600  1.0  0.1109
  H  H29  1  0.869000  0.437400  0.556900  1.0  0.1069
  H  H30  1  0.325000  0.711300  0.337400  1.0  0.0962
  H  H31  1  0.407100  0.453300  0.145600  1.0  0.1246
  H  H32  1  0.230300  0.723800  0.217300  1.0  0.1029
  H  H33  1  0.977700  0.190500  0.792800  1.0  0.1124
  H  H34  1  0.249000  0.518300  0.637900  1.0  0.1027
  H  H35  1  0.095100  0.817700  0.684800  1.0  0.1122
  H  H36  1  0.052600  0.732700  0.801000  1.0  0.1043
  H  H37  1  0.739300  0.767400  0.646900  1.0  0.1028
  H  H38  1  0.198200  0.424700  0.751700  1.0  0.1105
  H  H39  1  0.752000  0.090500  0.559600  1.0  0.0914
  H  H40  1  0.842900  0.005500  0.532300  1.0  0.1091
  H  H41  1  0.578200  0.563800  0.392900  1.0  0.1073
  H  H42  1  0.415600  0.460400  0.408600  1.0  0.0962
  H  H43  1  0.815100  0.907200  0.436800  1.0  0.1181
  H  H44  1  0.806700  0.755100  0.462300  1.0  0.1248
  H  H45  1  0.724300  0.767100  0.386800  1.0  0.1208
  H  H46  1  0.589000  0.043300  0.632100  1.0  0.1068
  H  H47  1  0.420000  0.006200  0.611600  1.0  0.0997
  H  H48  1  0.466500  0.916800  0.671600  1.0  0.1307
  H  H49  1  0.921400  0.202500  0.668200  1.0  0.0992
  H  H50  1  0.801400  0.755500  0.771600  1.0  0.0844
  H  H51  1  0.126100  0.677400  0.536500  1.0  0.0924
  H  H52  1  0.209000  0.835600  0.570700  1.0  0.0889
  H  H53  1  0.509100  0.453200  0.264600  1.0  0.098
  H  H54  1  0.213200  0.464000  0.422700  1.0  0.1169
  H  H55  1  0.163600  0.465100  0.503400  1.0  0.1104
  H  H56  1  0.131000  0.562600  0.443100  1.0  0.1056
  C  C57  1  0.077200  0.042400  0.123000  1.0  0.7533
  C  C58  1  0.183000  0.012100  0.356500  1.0  0.0768
  C  C59  1  0.658000  0.340300  0.701100  1.0  -0.1207
  C  C60  1  0.690100  0.407900  0.831000  1.0  -0.1343
  C  C61  1  0.103900  0.030400  0.205000  1.0  -0.1337
  C  C62  1  0.382000  0.127000  0.465100  1.0  -0.0922
  C  C63  1  0.900700  0.482600  0.132400  1.0  0.7288
  C  C64  1  0.608000  0.493000  0.816300  1.0  -0.1004
  C  C65  1  0.715000  0.332200  0.773500  1.0  -0.0055
  C  C66  1  0.069400  0.894600  0.236300  1.0  -0.1104
  C  C67  1  0.791000  0.438000  0.329300  1.0  -0.1205
  C  C68  1  0.881000  0.260000  0.301200  1.0  -0.1109
  C  C69  1  0.874300  0.429000  0.208700  1.0  -0.0727
  C  C70  1  0.647000  0.252000  0.458900  1.0  -0.0421
  C  C71  1  0.907000  0.311000  0.231700  1.0  -0.0471
  C  C72  1  0.214000  0.147000  0.324200  1.0  -0.127
  C  C73  1  0.819000  0.320000  0.352400  1.0  0.0961
  C  C74  1  0.649000  0.351900  0.515700  1.0  0.0903
  C  C75  1  0.819000  0.493000  0.260700  1.0  -0.101
  C  C76  1  0.235000  0.000000  0.436100  1.0  -0.2054
  C  C77  1  0.522000  0.442000  0.605900  1.0  -0.2284
  C  C78  1  0.577000  0.422000  0.685600  1.0  0.054
  C  C79  1  0.522000  0.336000  0.546300  1.0  0.0553
  C  C80  1  0.247000  0.195000  0.563000  1.0  -0.3428
  C  C81  1  0.512000  0.140700  0.434400  1.0  0.0681
  C  C82  1  0.509000  0.034000  0.374300  1.0  -0.3762
  C  C83  1  0.106000  0.888000  0.310900  1.0  -0.1223
  C  C84  1  0.175000  0.153900  0.249200  1.0  -0.0312
  C  C85  1  0.759000  0.409300  0.908200  1.0  0.7385
  C  C86  1  0.791000  0.261000  0.429400  1.0  -0.2479
  C  C87  1  0.550000  0.495000  0.744500  1.0  -0.1034
  C  C88  1  0.384000  0.218000  0.523600  1.0  0.084
  C  C89  1  0.799000  0.477000  0.538800  1.0  -0.344
  C  C90  1  0.922800  0.957600  0.877000  1.0  0.7528
  C  C91  1  0.817000  0.987900  0.643500  1.0  0.0791
  C  C92  1  0.342000  0.659700  0.298900  1.0  -0.1186
  C  C93  1  0.309900  0.592100  0.169000  1.0  -0.1348
  C  C94  1  0.896100  0.969600  0.795000  1.0  -0.1332
  C  C95  1  0.618000  0.873000  0.534900  1.0  -0.0944
  C  C96  1  0.099300  0.517400  0.867600  1.0  0.7085
  C  C97  1  0.392000  0.507000  0.183700  1.0  -0.1018
  C  C98  1  0.285000  0.667800  0.226500  1.0  -0.004
  C  C99  1  0.930600  0.105400  0.763700  1.0  -0.1112
  C  C100  1  0.209000  0.562000  0.670700  1.0  -0.1206
  C  C101  1  0.119000  0.740000  0.698800  1.0  -0.1112
  C  C102  1  0.125700  0.571000  0.791300  1.0  -0.073
  C  C103  1  0.353000  0.748000  0.541100  1.0  -0.0428
  C  C104  1  0.093000  0.689000  0.768300  1.0  -0.0453
  C  C105  1  0.786000  0.853000  0.675800  1.0  -0.1261
  C  C106  1  0.181000  0.680000  0.647600  1.0  0.0936
  C  C107  1  0.351000  0.648100  0.484300  1.0  0.0907
  C  C108  1  0.181000  0.507000  0.739300  1.0  -0.1015
  C  C109  1  0.765000  0.000000  0.563900  1.0  -0.2043
  C  C110  1  0.478000  0.558000  0.394100  1.0  -0.2289
  C  C111  1  0.423000  0.578000  0.314400  1.0  0.0537
  C  C112  1  0.478000  0.664000  0.453700  1.0  0.0546
  C  C113  1  0.753000  0.805000  0.437000  1.0  -0.3437
  C  C114  1  0.488000  0.859300  0.565600  1.0  0.0688
  C  C115  1  0.491000  0.966000  0.625700  1.0  -0.3742
  C  C116  1  0.894000  0.112000  0.689100  1.0  -0.1249
  C  C117  1  0.825000  0.846100  0.750800  1.0  -0.03
  C  C118  1  0.241000  0.590700  0.091800  1.0  0.738
  C  C119  1  0.209000  0.739000  0.570600  1.0  -0.2474
  C  C120  1  0.450000  0.505000  0.255500  1.0  -0.1029
  C  C121  1  0.616000  0.782000  0.476400  1.0  0.0815
  C  C122  1  0.201000  0.523000  0.461200  1.0  -0.3428
  O  O123  1  0.939300  0.412000  0.085900  1.0  -0.8014
  O  O124  1  0.059600  0.938400  0.081900  1.0  -0.7672
  O  O125  1  0.072900  0.160800  0.102300  1.0  -0.7297
  O  O126  1  0.804000  0.309200  0.922400  1.0  -0.7439
  O  O127  1  0.887600  0.599200  0.116300  1.0  -0.6975
  O  O128  1  0.770400  0.510800  0.954100  1.0  -0.7293
  O  O129  1  0.060700  0.588000  0.914100  1.0  -0.8004
  O  O130  1  0.940400  0.061600  0.918100  1.0  -0.7673
  O  O131  1  0.927100  0.839200  0.897700  1.0  -0.7316
  O  O132  1  0.196000  0.690800  0.077600  1.0  -0.7456
  O  O133  1  0.112400  0.400800  0.883700  1.0  -0.6984
  O  O134  1  0.229600  0.489200  0.045900  1.0  -0.7295
