# generated using pymatgen
data_CeH27(C11O2)3
_symmetry_space_group_name_H-M   'P 1'
_cell_length_a   9.84010000
_cell_length_b   10.05170000
_cell_length_c   18.06420000
_cell_angle_alpha   90.22100000
_cell_angle_beta   93.85700000
_cell_angle_gamma   113.89100000
_symmetry_Int_Tables_number   1
_chemical_formula_structural   CeH27(C11O2)3
_chemical_formula_sum   'Ce2 H54 C66 O12'
_cell_volume   1628.98669540
_cell_formula_units_Z   2
loop_
 _symmetry_equiv_pos_site_id
 _symmetry_equiv_pos_as_xyz
  1  'x, y, z'
loop_
 _atom_site_type_symbol
 _atom_site_label
 _atom_site_symmetry_multiplicity
 _atom_site_fract_x
 _atom_site_fract_y
 _atom_site_fract_z
 _atom_site_occupancy
 _atom_site_charge
  Ce  Ce1  1  0.507310  0.276580  0.496380  1.0  2.2714
  Ce  Ce2  1  0.492690  0.723420  0.503620  1.0  2.2742
  H  H3  1  0.746900  0.910200  0.941000  1.0  0.0881
  H  H4  1  0.657200  0.996900  0.967800  1.0  0.0992
  H  H5  1  0.297600  0.571400  0.746600  1.0  0.1027
  H  H6  1  0.447400  0.269000  0.698200  1.0  0.1008
  H  H7  1  0.266600  0.274500  0.282600  1.0  0.0966
  H  H8  1  0.407600  0.183700  0.816200  1.0  0.0993
  H  H9  1  0.762800  0.230600  0.853700  1.0  0.0935
  H  H10  1  0.251800  0.481500  0.863600  1.0  0.0977
  H  H11  1  0.580300  0.797900  0.833300  1.0  0.1046
  H  H12  1  0.360500  0.439600  0.068200  1.0  0.1133
  H  H13  1  0.280400  0.546300  0.069400  1.0  0.1059
  H  H14  1  0.347700  0.523000  0.996700  1.0  0.1132
  H  H15  1  0.377000  0.316000  0.960000  1.0  0.094
  H  H16  1  0.696200  0.245800  0.730600  1.0  0.0948
  H  H17  1  0.088400  0.541200  0.354100  1.0  0.1152
  H  H18  1  0.176900  0.289100  0.162900  1.0  0.092
  H  H19  1  0.519700  0.811000  0.708200  1.0  0.1099
  H  H20  1  0.685300  0.234300  0.034900  1.0  0.1177
  H  H21  1  0.773600  0.242000  0.111500  1.0  0.1123
  H  H22  1  0.689600  0.092200  0.068200  1.0  0.1146
  H  H23  1  0.923900  0.439000  0.108100  1.0  0.0981
  H  H24  1  0.087300  0.539600  0.092000  1.0  0.0987
  H  H25  1  0.993500  0.548900  0.235600  1.0  0.1023
  H  H26  1  0.051900  0.969900  0.895000  1.0  0.1122
  H  H27  1  0.063200  0.084800  0.834700  1.0  0.1177
  H  H28  1  0.906600  0.976000  0.857100  1.0  0.1031
  H  H29  1  0.293000  0.164000  0.927000  1.0  0.0978
  H  H30  1  0.253100  0.089800  0.059000  1.0  0.0887
  H  H31  1  0.342800  0.003100  0.032200  1.0  0.0984
  H  H32  1  0.702400  0.428600  0.253400  1.0  0.103
  H  H33  1  0.552600  0.731000  0.301800  1.0  0.1014
  H  H34  1  0.733400  0.725500  0.717400  1.0  0.0955
  H  H35  1  0.592400  0.816300  0.183800  1.0  0.1002
  H  H36  1  0.237200  0.769400  0.146300  1.0  0.0945
  H  H37  1  0.748200  0.518500  0.136400  1.0  0.0974
  H  H38  1  0.419700  0.202100  0.166700  1.0  0.1045
  H  H39  1  0.639500  0.560400  0.931800  1.0  0.1118
  H  H40  1  0.719600  0.453700  0.930600  1.0  0.1061
  H  H41  1  0.652300  0.477000  0.003300  1.0  0.1136
  H  H42  1  0.623000  0.684000  0.040000  1.0  0.0945
  H  H43  1  0.303800  0.754200  0.269400  1.0  0.0951
  H  H44  1  0.911600  0.458800  0.645900  1.0  0.1149
  H  H45  1  0.823100  0.710900  0.837100  1.0  0.0913
  H  H46  1  0.480300  0.189000  0.291800  1.0  0.11
  H  H47  1  0.314700  0.765700  0.965100  1.0  0.1184
  H  H48  1  0.226400  0.758000  0.888500  1.0  0.11
  H  H49  1  0.310400  0.907800  0.931800  1.0  0.1139
  H  H50  1  0.076100  0.561000  0.891900  1.0  0.0999
  H  H51  1  0.912700  0.460400  0.908000  1.0  0.0993
  H  H52  1  0.006500  0.451100  0.764400  1.0  0.1021
  H  H53  1  0.948100  0.030100  0.105000  1.0  0.113
  H  H54  1  0.936800  0.915200  0.165300  1.0  0.1184
  H  H55  1  0.093400  0.024000  0.142900  1.0  0.1042
  H  H56  1  0.707000  0.836000  0.073000  1.0  0.0997
  C  C57  1  0.399900  0.483900  0.632700  1.0  0.7439
  C  C58  1  0.880200  0.125000  0.965400  1.0  -0.0588
  C  C59  1  0.735000  0.001000  0.936400  1.0  -0.209
  C  C60  1  0.077500  0.422800  0.185400  1.0  0.0566
  C  C61  1  0.317600  0.491400  0.759900  1.0  -0.021
  C  C62  1  0.190400  0.409500  0.331000  1.0  -0.1365
  C  C63  1  0.407500  0.312000  0.731200  1.0  -0.0153
  C  C64  1  0.575800  0.043500  0.623900  1.0  0.7646
  C  C65  1  0.213900  0.332100  0.273200  1.0  -0.0225
  C  C66  1  0.382300  0.260000  0.802000  1.0  -0.1262
  C  C67  1  0.714700  0.145700  0.824600  1.0  -0.1238
  C  C68  1  0.319800  0.319500  0.852200  1.0  0.0634
  C  C69  1  0.373900  0.427600  0.709300  1.0  -0.152
  C  C70  1  0.290400  0.437500  0.830400  1.0  -0.1149
  C  C71  1  0.605200  0.030800  0.705900  1.0  -0.1279
  C  C72  1  0.607200  0.888500  0.812300  1.0  -0.1028
  C  C73  1  0.683800  0.012500  0.856200  1.0  0.0492
  C  C74  1  0.298500  0.476700  0.039600  1.0  -0.3652
  C  C75  1  0.012200  0.140200  0.934700  1.0  0.0675
  C  C76  1  0.290800  0.259400  0.929000  1.0  -0.2186
  C  C77  1  0.675300  0.155000  0.750500  1.0  -0.0525
  C  C78  1  0.106800  0.490200  0.315800  1.0  -0.0785
  C  C79  1  0.147400  0.251900  0.959800  1.0  -0.027
  C  C80  1  0.158800  0.340200  0.201200  1.0  -0.1266
  C  C81  1  0.569100  0.895900  0.737200  1.0  -0.1
  C  C82  1  0.745500  0.194700  0.063200  1.0  -0.3385
  C  C83  1  0.884900  0.219600  0.023400  1.0  0.0528
  C  C84  1  0.023700  0.442800  0.106700  1.0  -0.238
  C  C85  1  0.258500  0.408600  0.407800  1.0  0.7615
  C  C86  1  0.050700  0.495400  0.244400  1.0  -0.0919
  C  C87  1  0.020100  0.335400  0.047000  1.0  -0.0605
  C  C88  1  0.008100  0.033000  0.874900  1.0  -0.3849
  C  C89  1  0.151100  0.352100  0.015000  1.0  0.0998
  C  C90  1  0.600100  0.516100  0.367300  1.0  0.7392
  C  C91  1  0.119800  0.875000  0.034600  1.0  -0.0609
  C  C92  1  0.265000  0.999000  0.063600  1.0  -0.2083
  C  C93  1  0.922500  0.577200  0.814600  1.0  0.0557
  C  C94  1  0.682400  0.508600  0.240100  1.0  -0.0213
  C  C95  1  0.809600  0.590500  0.669000  1.0  -0.1399
  C  C96  1  0.592500  0.688000  0.268800  1.0  -0.0138
  C  C97  1  0.424200  0.956500  0.376100  1.0  0.7659
  C  C98  1  0.786100  0.667900  0.726800  1.0  -0.0229
  C  C99  1  0.617700  0.740000  0.198000  1.0  -0.127
  C  C100  1  0.285300  0.854300  0.175400  1.0  -0.1229
  C  C101  1  0.680200  0.680500  0.147800  1.0  0.0606
  C  C102  1  0.626100  0.572400  0.290700  1.0  -0.1531
  C  C103  1  0.709600  0.562500  0.169600  1.0  -0.1153
  C  C104  1  0.394800  0.969200  0.294100  1.0  -0.1266
  C  C105  1  0.392800  0.111500  0.187700  1.0  -0.1036
  C  C106  1  0.316200  0.987500  0.143800  1.0  0.0497
  C  C107  1  0.701500  0.523300  0.960400  1.0  -0.3637
  C  C108  1  0.987800  0.859800  0.065300  1.0  0.0671
  C  C109  1  0.709200  0.740600  0.071000  1.0  -0.2194
  C  C110  1  0.324700  0.845000  0.249500  1.0  -0.0518
  C  C111  1  0.893200  0.509800  0.684200  1.0  -0.0757
  C  C112  1  0.852600  0.748100  0.040200  1.0  -0.0261
  C  C113  1  0.841200  0.659800  0.798800  1.0  -0.1254
  C  C114  1  0.430900  0.104100  0.262800  1.0  -0.1024
  C  C115  1  0.254500  0.805300  0.936800  1.0  -0.3398
  C  C116  1  0.115100  0.780400  0.976600  1.0  0.0517
  C  C117  1  0.976300  0.557200  0.893300  1.0  -0.2403
  C  C118  1  0.741500  0.591400  0.592200  1.0  0.7635
  C  C119  1  0.949300  0.504600  0.755600  1.0  -0.092
  C  C120  1  0.979900  0.664600  0.953000  1.0  -0.0598
  C  C121  1  0.991900  0.967000  0.125100  1.0  -0.3858
  C  C122  1  0.848900  0.647900  0.985000  1.0  0.1003
  O  O123  1  0.573700  0.161800  0.603130  1.0  -0.7139
  O  O124  1  0.436400  0.412500  0.585960  1.0  -0.7967
  O  O125  1  0.558100  0.939100  0.582130  1.0  -0.7762
  O  O126  1  0.384800  0.599300  0.618150  1.0  -0.6857
  O  O127  1  0.302400  0.309500  0.421330  1.0  -0.7303
  O  O128  1  0.267900  0.509000  0.453440  1.0  -0.73
  O  O129  1  0.426300  0.838200  0.396870  1.0  -0.7108
  O  O130  1  0.563600  0.587500  0.414040  1.0  -0.7962
  O  O131  1  0.441900  0.060900  0.417870  1.0  -0.7751
  O  O132  1  0.615200  0.400700  0.381850  1.0  -0.6877
  O  O133  1  0.697600  0.690500  0.578670  1.0  -0.7303
  O  O134  1  0.732100  0.491000  0.546560  1.0  -0.7301
