# generated using pymatgen
data_YbH27(C11O2)3
_symmetry_space_group_name_H-M   'P 1'
_cell_length_a   32.76260000
_cell_length_b   34.95000000
_cell_length_c   5.77210000
_cell_angle_alpha   90.00000000
_cell_angle_beta   90.00000000
_cell_angle_gamma   90.00000000
_symmetry_Int_Tables_number   1
_chemical_formula_structural   YbH27(C11O2)3
_chemical_formula_sum   'Yb8 H216 C264 O48'
_cell_volume   6609.35967093
_cell_formula_units_Z   8
loop_
 _symmetry_equiv_pos_site_id
 _symmetry_equiv_pos_as_xyz
  1  'x, y, z'
loop_
 _atom_site_type_symbol
 _atom_site_label
 _atom_site_symmetry_multiplicity
 _atom_site_fract_x
 _atom_site_fract_y
 _atom_site_fract_z
 _atom_site_occupancy
 _atom_site_charge
  Yb  Yb1  1  0.543710  0.250000  0.880100  1.0  1.5243
  Yb  Yb2  1  0.956290  0.750000  0.380100  1.0  1.5217
  Yb  Yb3  1  0.456290  0.750000  0.119900  1.0  1.5217
  Yb  Yb4  1  0.043710  0.250000  0.619900  1.0  1.5243
  Yb  Yb5  1  0.318850  0.750000  0.446300  1.0  1.5563
  Yb  Yb6  1  0.181150  0.250000  0.946300  1.0  1.5568
  Yb  Yb7  1  0.681150  0.250000  0.553700  1.0  1.5556
  Yb  Yb8  1  0.818850  0.750000  0.053700  1.0  1.5559
  H  H9  1  0.354300  0.565200  0.330000  1.0  0.1023
  H  H10  1  0.350700  0.630100  0.402400  1.0  0.1256
  H  H11  1  0.297700  0.442600  0.690500  1.0  0.1011
  H  H12  1  0.275600  0.467700  0.504300  1.0  0.0948
  H  H13  1  0.409300  0.649400  0.808100  1.0  0.1034
  H  H14  1  0.412900  0.584600  0.739400  1.0  0.1242
  H  H15  1  0.357000  0.520800  0.862200  1.0  0.1262
  H  H16  1  0.404600  0.518500  0.880700  1.0  0.1093
  H  H17  1  0.466700  0.470300  0.600000  1.0  0.0891
  H  H18  1  0.438500  0.447200  0.768600  1.0  0.0977
  H  H19  1  0.459000  0.525300  0.308200  1.0  0.1176
  H  H20  1  0.453300  0.509300  0.056400  1.0  0.124
  H  H21  1  0.473900  0.483900  0.247200  1.0  0.1157
  H  H22  1  0.235100  0.403500  0.671000  1.0  0.1226
  H  H23  1  0.438200  0.403800  0.240300  1.0  0.0859
  H  H24  1  0.312800  0.406800  0.146200  1.0  0.0912
  H  H25  1  0.282400  0.354100  0.981500  1.0  0.1315
  H  H26  1  0.206500  0.348100  0.520300  1.0  0.1026
  H  H27  1  0.281200  0.477300  0.103100  1.0  0.1175
  H  H28  1  0.305800  0.510400  0.984900  1.0  0.1267
  H  H29  1  0.285300  0.517000  0.227100  1.0  0.1227
  H  H30  1  0.372000  0.430200  0.876300  1.0  0.1234
  H  H31  1  0.391900  0.399800  0.711400  1.0  0.115
  H  H32  1  0.344300  0.404300  0.720000  1.0  0.1158
  H  H33  1  0.502300  0.408900  0.818300  1.0  0.122
  H  H34  1  0.470500  0.347700  0.142600  1.0  0.1104
  H  H35  1  0.534500  0.352900  0.718500  1.0  0.0861
  H  H36  1  0.145700  0.434800  0.830000  1.0  0.1024
  H  H37  1  0.149300  0.369900  0.902400  1.0  0.1255
  H  H38  1  0.202300  0.557400  0.190500  1.0  0.1014
  H  H39  1  0.224400  0.532300  0.004300  1.0  0.0935
  H  H40  1  0.090700  0.350600  0.308100  1.0  0.1029
  H  H41  1  0.087100  0.415400  0.239400  1.0  0.1236
  H  H42  1  0.143000  0.479200  0.362200  1.0  0.1261
  H  H43  1  0.095400  0.481500  0.380700  1.0  0.1096
  H  H44  1  0.033300  0.529700  0.100000  1.0  0.0894
  H  H45  1  0.061500  0.552800  0.268600  1.0  0.0968
  H  H46  1  0.041000  0.474700  0.808200  1.0  0.119
  H  H47  1  0.046700  0.490700  0.556400  1.0  0.1248
  H  H48  1  0.026100  0.516100  0.747200  1.0  0.1149
  H  H49  1  0.264900  0.596500  0.171000  1.0  0.123
  H  H50  1  0.061800  0.596200  0.740300  1.0  0.0853
  H  H51  1  0.187200  0.593200  0.646200  1.0  0.0905
  H  H52  1  0.217600  0.645900  0.481500  1.0  0.1323
  H  H53  1  0.293500  0.651900  0.020300  1.0  0.1025
  H  H54  1  0.218800  0.522700  0.603100  1.0  0.1178
  H  H55  1  0.194200  0.489600  0.484900  1.0  0.1272
  H  H56  1  0.214700  0.483000  0.727100  1.0  0.1229
  H  H57  1  0.128000  0.569800  0.376300  1.0  0.1223
  H  H58  1  0.108100  0.600200  0.211400  1.0  0.115
  H  H59  1  0.155700  0.595700  0.220000  1.0  0.1153
  H  H60  1  0.997700  0.591100  0.318300  1.0  0.1216
  H  H61  1  0.029500  0.652300  0.642600  1.0  0.1111
  H  H62  1  0.965500  0.647100  0.218500  1.0  0.0861
  H  H63  1  0.645700  0.065200  0.670000  1.0  0.103
  H  H64  1  0.649300  0.130100  0.597600  1.0  0.1259
  H  H65  1  0.702300  0.942600  0.309500  1.0  0.1019
  H  H66  1  0.724400  0.967700  0.495700  1.0  0.0941
  H  H67  1  0.590700  0.149400  0.191900  1.0  0.1033
  H  H68  1  0.587100  0.084600  0.260600  1.0  0.1241
  H  H69  1  0.643000  0.020800  0.137800  1.0  0.1255
  H  H70  1  0.595400  0.018500  0.119300  1.0  0.1097
  H  H71  1  0.533300  0.970300  0.400000  1.0  0.0905
  H  H72  1  0.561500  0.947200  0.231400  1.0  0.097
  H  H73  1  0.541000  0.025300  0.691800  1.0  0.1186
  H  H74  1  0.546700  0.009300  0.943600  1.0  0.1246
  H  H75  1  0.526100  0.983900  0.752800  1.0  0.1153
  H  H76  1  0.764900  0.903500  0.329000  1.0  0.1225
  H  H77  1  0.561800  0.903800  0.759700  1.0  0.0862
  H  H78  1  0.687200  0.906800  0.853800  1.0  0.0914
  H  H79  1  0.717600  0.854100  0.018500  1.0  0.1328
  H  H80  1  0.793500  0.848100  0.479700  1.0  0.1026
  H  H81  1  0.718800  0.977300  0.896900  1.0  0.1174
  H  H82  1  0.694200  0.010400  0.015100  1.0  0.1263
  H  H83  1  0.714700  0.017000  0.772900  1.0  0.1232
  H  H84  1  0.628000  0.930200  0.123700  1.0  0.1237
  H  H85  1  0.608100  0.899800  0.288600  1.0  0.1148
  H  H86  1  0.655700  0.904300  0.280000  1.0  0.1156
  H  H87  1  0.497700  0.908900  0.181700  1.0  0.1217
  H  H88  1  0.529500  0.847700  0.857400  1.0  0.1104
  H  H89  1  0.465500  0.852900  0.281500  1.0  0.0852
  H  H90  1  0.854300  0.934800  0.170000  1.0  0.1024
  H  H91  1  0.850700  0.869900  0.097600  1.0  0.1256
  H  H92  1  0.797700  0.057400  0.809500  1.0  0.1024
  H  H93  1  0.775600  0.032300  0.995700  1.0  0.0944
  H  H94  1  0.909300  0.850600  0.691900  1.0  0.1032
  H  H95  1  0.912900  0.915400  0.760600  1.0  0.1242
  H  H96  1  0.857000  0.979200  0.637800  1.0  0.1262
  H  H97  1  0.904600  0.981500  0.619300  1.0  0.1096
  H  H98  1  0.966700  0.029700  0.900000  1.0  0.0895
  H  H99  1  0.938500  0.052800  0.731400  1.0  0.0981
  H  H100  1  0.959000  0.974700  0.191800  1.0  0.1186
  H  H101  1  0.953300  0.990700  0.443600  1.0  0.1235
  H  H102  1  0.973900  0.016100  0.252800  1.0  0.1156
  H  H103  1  0.735100  0.096500  0.829000  1.0  0.1224
  H  H104  1  0.938200  0.096200  0.259700  1.0  0.0856
  H  H105  1  0.812800  0.093200  0.353800  1.0  0.0907
  H  H106  1  0.782400  0.145900  0.518500  1.0  0.1318
  H  H107  1  0.706500  0.151900  0.979700  1.0  0.1027
  H  H108  1  0.781200  0.022700  0.396900  1.0  0.1184
  H  H109  1  0.805800  0.989600  0.515100  1.0  0.1271
  H  H110  1  0.785300  0.983000  0.272900  1.0  0.1228
  H  H111  1  0.872000  0.069800  0.623700  1.0  0.1219
  H  H112  1  0.891900  0.100200  0.788600  1.0  0.1157
  H  H113  1  0.844300  0.095700  0.780000  1.0  0.1149
  H  H114  1  0.002300  0.091100  0.681700  1.0  0.1216
  H  H115  1  0.970500  0.152300  0.357400  1.0  0.1104
  H  H116  1  0.034500  0.147100  0.781500  1.0  0.0858
  H  H117  1  0.645700  0.434800  0.670000  1.0  0.1026
  H  H118  1  0.649300  0.369900  0.597600  1.0  0.1257
  H  H119  1  0.702300  0.557400  0.309500  1.0  0.1023
  H  H120  1  0.724400  0.532300  0.495700  1.0  0.0935
  H  H121  1  0.590700  0.350600  0.191900  1.0  0.1031
  H  H122  1  0.587100  0.415400  0.260600  1.0  0.124
  H  H123  1  0.643000  0.479200  0.137800  1.0  0.1264
  H  H124  1  0.595400  0.481500  0.119300  1.0  0.1101
  H  H125  1  0.533300  0.529700  0.400000  1.0  0.0901
  H  H126  1  0.561500  0.552800  0.231400  1.0  0.0972
  H  H127  1  0.541000  0.474700  0.691800  1.0  0.1187
  H  H128  1  0.546700  0.490700  0.943600  1.0  0.1247
  H  H129  1  0.526100  0.516100  0.752800  1.0  0.115
  H  H130  1  0.764900  0.596500  0.329000  1.0  0.1225
  H  H131  1  0.561800  0.596200  0.759700  1.0  0.0861
  H  H132  1  0.687200  0.593200  0.853800  1.0  0.0909
  H  H133  1  0.717600  0.645900  0.018500  1.0  0.1324
  H  H134  1  0.793500  0.651900  0.479700  1.0  0.1027
  H  H135  1  0.718800  0.522700  0.896900  1.0  0.1174
  H  H136  1  0.694200  0.489600  0.015100  1.0  0.1271
  H  H137  1  0.714700  0.483000  0.772900  1.0  0.1226
  H  H138  1  0.628000  0.569800  0.123700  1.0  0.1222
  H  H139  1  0.608100  0.600200  0.288600  1.0  0.1154
  H  H140  1  0.655700  0.595700  0.280000  1.0  0.1153
  H  H141  1  0.497700  0.591100  0.181700  1.0  0.1216
  H  H142  1  0.529500  0.652300  0.857400  1.0  0.1105
  H  H143  1  0.465500  0.647100  0.281500  1.0  0.086
  H  H144  1  0.854300  0.565200  0.170000  1.0  0.1028
  H  H145  1  0.850700  0.630100  0.097600  1.0  0.1259
  H  H146  1  0.797700  0.442600  0.809500  1.0  0.1019
  H  H147  1  0.775600  0.467700  0.995700  1.0  0.0949
  H  H148  1  0.909300  0.649400  0.691900  1.0  0.1033
  H  H149  1  0.912900  0.584600  0.760600  1.0  0.1243
  H  H150  1  0.857000  0.520800  0.637800  1.0  0.1258
  H  H151  1  0.904600  0.518500  0.619300  1.0  0.1091
  H  H152  1  0.966700  0.470300  0.900000  1.0  0.0899
  H  H153  1  0.938500  0.447200  0.731400  1.0  0.0977
  H  H154  1  0.959000  0.525300  0.191800  1.0  0.1184
  H  H155  1  0.953300  0.509300  0.443600  1.0  0.1235
  H  H156  1  0.973900  0.483900  0.252800  1.0  0.116
  H  H157  1  0.735100  0.403500  0.829000  1.0  0.1223
  H  H158  1  0.938200  0.403800  0.259700  1.0  0.0859
  H  H159  1  0.812800  0.406800  0.353800  1.0  0.0915
  H  H160  1  0.782400  0.354100  0.518500  1.0  0.132
  H  H161  1  0.706500  0.348100  0.979700  1.0  0.1024
  H  H162  1  0.781200  0.477300  0.396900  1.0  0.1178
  H  H163  1  0.805800  0.510400  0.515100  1.0  0.1259
  H  H164  1  0.785300  0.517000  0.272900  1.0  0.1236
  H  H165  1  0.872000  0.430200  0.623700  1.0  0.1237
  H  H166  1  0.891900  0.399800  0.788600  1.0  0.1151
  H  H167  1  0.844300  0.404300  0.780000  1.0  0.1156
  H  H168  1  0.002300  0.408900  0.681700  1.0  0.1216
  H  H169  1  0.970500  0.347700  0.357400  1.0  0.1106
  H  H170  1  0.034500  0.352900  0.781500  1.0  0.0857
  H  H171  1  0.354300  0.934800  0.330000  1.0  0.1021
  H  H172  1  0.350700  0.869900  0.402400  1.0  0.1256
  H  H173  1  0.297700  0.057400  0.690500  1.0  0.1015
  H  H174  1  0.275600  0.032300  0.504300  1.0  0.0944
  H  H175  1  0.409300  0.850600  0.808100  1.0  0.1029
  H  H176  1  0.412900  0.915400  0.739400  1.0  0.1238
  H  H177  1  0.357000  0.979200  0.862200  1.0  0.1258
  H  H178  1  0.404600  0.981500  0.880700  1.0  0.1089
  H  H179  1  0.466700  0.029700  0.600000  1.0  0.0896
  H  H180  1  0.438500  0.052800  0.768600  1.0  0.0974
  H  H181  1  0.459000  0.974700  0.308200  1.0  0.119
  H  H182  1  0.453300  0.990700  0.056400  1.0  0.1236
  H  H183  1  0.473900  0.016100  0.247200  1.0  0.1151
  H  H184  1  0.235100  0.096500  0.671000  1.0  0.1227
  H  H185  1  0.438200  0.096200  0.240300  1.0  0.0853
  H  H186  1  0.312800  0.093200  0.146200  1.0  0.0899
  H  H187  1  0.282400  0.145900  0.981500  1.0  0.1322
  H  H188  1  0.206500  0.151900  0.520300  1.0  0.1025
  H  H189  1  0.281200  0.022700  0.103100  1.0  0.1187
  H  H190  1  0.305800  0.989600  0.984900  1.0  0.1271
  H  H191  1  0.285300  0.983000  0.227100  1.0  0.1232
  H  H192  1  0.372000  0.069800  0.876300  1.0  0.1223
  H  H193  1  0.391900  0.100200  0.711400  1.0  0.1153
  H  H194  1  0.344300  0.095700  0.720000  1.0  0.115
  H  H195  1  0.502300  0.091100  0.818300  1.0  0.1219
  H  H196  1  0.470500  0.152300  0.142600  1.0  0.1107
  H  H197  1  0.534500  0.147100  0.718500  1.0  0.0858
  H  H198  1  0.145700  0.065200  0.830000  1.0  0.1027
  H  H199  1  0.149300  0.130100  0.902400  1.0  0.1255
  H  H200  1  0.202300  0.942600  0.190500  1.0  0.1012
  H  H201  1  0.224400  0.967700  0.004300  1.0  0.0938
  H  H202  1  0.090700  0.149400  0.308100  1.0  0.1035
  H  H203  1  0.087100  0.084600  0.239400  1.0  0.1239
  H  H204  1  0.143000  0.020800  0.362200  1.0  0.1259
  H  H205  1  0.095400  0.018500  0.380700  1.0  0.11
  H  H206  1  0.033300  0.970300  0.100000  1.0  0.0903
  H  H207  1  0.061500  0.947200  0.268600  1.0  0.0973
  H  H208  1  0.041000  0.025300  0.808200  1.0  0.1173
  H  H209  1  0.046700  0.009300  0.556400  1.0  0.1253
  H  H210  1  0.026100  0.983900  0.747200  1.0  0.1144
  H  H211  1  0.264900  0.903500  0.171000  1.0  0.1228
  H  H212  1  0.061800  0.903800  0.740300  1.0  0.0856
  H  H213  1  0.187200  0.906800  0.646200  1.0  0.0914
  H  H214  1  0.217600  0.854100  0.481500  1.0  0.1313
  H  H215  1  0.293500  0.848100  0.020300  1.0  0.1028
  H  H216  1  0.218800  0.977300  0.603100  1.0  0.1173
  H  H217  1  0.194200  0.010400  0.484900  1.0  0.1272
  H  H218  1  0.214700  0.017000  0.727100  1.0  0.1225
  H  H219  1  0.128000  0.930200  0.376300  1.0  0.1233
  H  H220  1  0.108100  0.899800  0.211400  1.0  0.1146
  H  H221  1  0.155700  0.904300  0.220000  1.0  0.1157
  H  H222  1  0.997700  0.908900  0.318300  1.0  0.1218
  H  H223  1  0.029500  0.847700  0.642600  1.0  0.1105
  H  H224  1  0.965500  0.852900  0.218500  1.0  0.0858
  C  C225  1  0.365000  0.582200  0.222000  1.0  -0.102
  C  C226  1  0.363400  0.621200  0.269000  1.0  -0.0942
  C  C227  1  0.294900  0.446900  0.525000  1.0  -0.2252
  C  C228  1  0.380700  0.646600  0.115000  1.0  -0.1545
  C  C229  1  0.381600  0.568000  0.024000  1.0  0.0752
  C  C230  1  0.336500  0.459700  0.430000  1.0  -0.0377
  C  C231  1  0.408900  0.461900  0.465000  1.0  -0.0092
  C  C232  1  0.412000  0.487000  0.284000  1.0  0.0749
  C  C233  1  0.338000  0.484900  0.250000  1.0  0.0168
  C  C234  1  0.277300  0.411600  0.418000  1.0  0.118
  C  C235  1  0.222100  0.310900  0.132000  1.0  0.6846
  C  C236  1  0.372000  0.446800  0.540000  1.0  0.1246
  C  C237  1  0.398300  0.632400  0.915000  1.0  -0.0111
  C  C238  1  0.399700  0.593600  0.871000  1.0  -0.0899
  C  C239  1  0.380000  0.525100  0.965000  1.0  -0.2737
  C  C240  1  0.446700  0.449800  0.608000  1.0  -0.2239
  C  C241  1  0.241100  0.346200  0.232000  1.0  -0.1298
  C  C242  1  0.376200  0.498800  0.165000  1.0  0.0331
  C  C243  1  0.453300  0.502800  0.218000  1.0  -0.359
  C  C244  1  0.380400  0.688500  0.166000  1.0  0.7418
  C  C245  1  0.244900  0.393500  0.533000  1.0  -0.1053
  C  C246  1  0.457800  0.394100  0.340000  1.0  -0.1122
  C  C247  1  0.290500  0.395700  0.221000  1.0  -0.1151
  C  C248  1  0.466500  0.413700  0.533000  1.0  0.1207
  C  C249  1  0.272800  0.363700  0.122000  1.0  -0.1099
  C  C250  1  0.505200  0.343300  0.427000  1.0  -0.1202
  C  C251  1  0.227400  0.360500  0.441000  1.0  -0.0149
  C  C252  1  0.298900  0.498700  0.130000  1.0  -0.3348
  C  C253  1  0.369900  0.417700  0.729000  1.0  -0.3385
  C  C254  1  0.495600  0.396900  0.679000  1.0  -0.1601
  C  C255  1  0.477000  0.359700  0.282000  1.0  -0.0724
  C  C256  1  0.514500  0.362700  0.620000  1.0  -0.0525
  C  C257  1  0.527400  0.305000  0.386000  1.0  0.6225
  C  C258  1  0.135000  0.417800  0.722000  1.0  -0.1013
  C  C259  1  0.136600  0.378800  0.769000  1.0  -0.0936
  C  C260  1  0.205100  0.553100  0.025000  1.0  -0.2252
  C  C261  1  0.119300  0.353400  0.615000  1.0  -0.1564
  C  C262  1  0.118400  0.432000  0.524000  1.0  0.0751
  C  C263  1  0.163500  0.540300  0.930000  1.0  -0.0373
  C  C264  1  0.091100  0.538100  0.965000  1.0  -0.0098
  C  C265  1  0.088000  0.513000  0.784000  1.0  0.0748
  C  C266  1  0.162000  0.515100  0.750000  1.0  0.018
  C  C267  1  0.222700  0.588400  0.918000  1.0  0.1172
  C  C268  1  0.277900  0.689100  0.632000  1.0  0.6843
  C  C269  1  0.128000  0.553200  0.040000  1.0  0.1239
  C  C270  1  0.101700  0.367600  0.415000  1.0  -0.0105
  C  C271  1  0.100300  0.406400  0.371000  1.0  -0.0898
  C  C272  1  0.120000  0.474900  0.465000  1.0  -0.2739
  C  C273  1  0.053300  0.550200  0.108000  1.0  -0.2254
  C  C274  1  0.258900  0.653800  0.732000  1.0  -0.1312
  C  C275  1  0.123800  0.501200  0.665000  1.0  0.0332
  C  C276  1  0.046700  0.497200  0.718000  1.0  -0.3594
  C  C277  1  0.119600  0.311500  0.666000  1.0  0.7423
  C  C278  1  0.255100  0.606500  0.033000  1.0  -0.106
  C  C279  1  0.042200  0.605900  0.840000  1.0  -0.1119
  C  C280  1  0.209500  0.604300  0.721000  1.0  -0.1155
  C  C281  1  0.033500  0.586300  0.033000  1.0  0.1203
  C  C282  1  0.227200  0.636300  0.622000  1.0  -0.1087
  C  C283  1  0.994800  0.656700  0.927000  1.0  -0.1183
  C  C284  1  0.272600  0.639500  0.941000  1.0  -0.0172
  C  C285  1  0.201100  0.501300  0.630000  1.0  -0.3341
  C  C286  1  0.130100  0.582300  0.229000  1.0  -0.3374
  C  C287  1  0.004400  0.603100  0.179000  1.0  -0.1596
  C  C288  1  0.023000  0.640300  0.782000  1.0  -0.0719
  C  C289  1  0.985500  0.637300  0.120000  1.0  -0.052
  C  C290  1  0.972600  0.695000  0.886000  1.0  0.6198
  C  C291  1  0.635000  0.082200  0.778000  1.0  -0.1027
  C  C292  1  0.636600  0.121200  0.731000  1.0  -0.0955
  C  C293  1  0.705100  0.946900  0.475000  1.0  -0.2281
  C  C294  1  0.619300  0.146600  0.885000  1.0  -0.1547
  C  C295  1  0.618400  0.068000  0.976000  1.0  0.0751
  C  C296  1  0.663500  0.959700  0.570000  1.0  -0.0374
  C  C297  1  0.591100  0.961900  0.535000  1.0  -0.0094
  C  C298  1  0.588000  0.987000  0.716000  1.0  0.0747
  C  C299  1  0.662000  0.984900  0.750000  1.0  0.0179
  C  C300  1  0.722700  0.911600  0.582000  1.0  0.1176
  C  C301  1  0.777900  0.810900  0.868000  1.0  0.684
  C  C302  1  0.628000  0.946800  0.460000  1.0  0.1234
  C  C303  1  0.601700  0.132400  0.085000  1.0  -0.0099
  C  C304  1  0.600300  0.093600  0.129000  1.0  -0.0883
  C  C305  1  0.620000  0.025100  0.035000  1.0  -0.2753
  C  C306  1  0.553300  0.949800  0.392000  1.0  -0.2252
  C  C307  1  0.758900  0.846200  0.768000  1.0  -0.1301
  C  C308  1  0.623800  0.998800  0.835000  1.0  0.0335
  C  C309  1  0.546700  0.002800  0.782000  1.0  -0.3597
  C  C310  1  0.619600  0.188500  0.834000  1.0  0.7424
  C  C311  1  0.755100  0.893500  0.467000  1.0  -0.1054
  C  C312  1  0.542200  0.894100  0.660000  1.0  -0.1108
  C  C313  1  0.709500  0.895700  0.779000  1.0  -0.115
  C  C314  1  0.533500  0.913700  0.467000  1.0  0.1209
  C  C315  1  0.727200  0.863700  0.878000  1.0  -0.1082
  C  C316  1  0.494800  0.843300  0.573000  1.0  -0.1194
  C  C317  1  0.772600  0.860500  0.559000  1.0  -0.0191
  C  C318  1  0.701100  0.998700  0.870000  1.0  -0.3352
  C  C319  1  0.630100  0.917700  0.271000  1.0  -0.3376
  C  C320  1  0.504400  0.896900  0.321000  1.0  -0.1594
  C  C321  1  0.523000  0.859700  0.718000  1.0  -0.0739
  C  C322  1  0.485500  0.862700  0.380000  1.0  -0.0518
  C  C323  1  0.472600  0.805000  0.614000  1.0  0.6205
  C  C324  1  0.865000  0.917800  0.278000  1.0  -0.1028
  C  C325  1  0.863400  0.878800  0.231000  1.0  -0.0948
  C  C326  1  0.794900  0.053100  0.975000  1.0  -0.2277
  C  C327  1  0.880700  0.853400  0.385000  1.0  -0.1561
  C  C328  1  0.881600  0.932000  0.476000  1.0  0.075
  C  C329  1  0.836500  0.040300  0.070000  1.0  -0.0383
  C  C330  1  0.908900  0.038100  0.035000  1.0  -0.0091
  C  C331  1  0.912000  0.013000  0.216000  1.0  0.0748
  C  C332  1  0.838000  0.015100  0.250000  1.0  0.0175
  C  C333  1  0.777300  0.088400  0.082000  1.0  0.117
  C  C334  1  0.722100  0.189100  0.368000  1.0  0.6849
  C  C335  1  0.872000  0.053200  0.960000  1.0  0.1233
  C  C336  1  0.898300  0.867600  0.585000  1.0  -0.0103
  C  C337  1  0.899700  0.906400  0.629000  1.0  -0.0891
  C  C338  1  0.880000  0.974900  0.535000  1.0  -0.2763
  C  C339  1  0.946700  0.050200  0.892000  1.0  -0.2269
  C  C340  1  0.741100  0.153800  0.268000  1.0  -0.1308
  C  C341  1  0.876200  0.001200  0.335000  1.0  0.0335
  C  C342  1  0.953300  0.997200  0.282000  1.0  -0.3591
  C  C343  1  0.880400  0.811500  0.334000  1.0  0.742
  C  C344  1  0.744900  0.106500  0.967000  1.0  -0.104
  C  C345  1  0.957800  0.105900  0.160000  1.0  -0.1104
  C  C346  1  0.790500  0.104300  0.279000  1.0  -0.1163
  C  C347  1  0.966500  0.086300  0.967000  1.0  0.1202
  C  C348  1  0.772800  0.136300  0.378000  1.0  -0.109
  C  C349  1  0.005200  0.156700  0.073000  1.0  -0.1189
  C  C350  1  0.727400  0.139500  0.059000  1.0  -0.014
  C  C351  1  0.798900  0.001300  0.370000  1.0  -0.3346
  C  C352  1  0.869900  0.082300  0.771000  1.0  -0.3367
  C  C353  1  0.995600  0.103100  0.821000  1.0  -0.1598
  C  C354  1  0.977000  0.140300  0.218000  1.0  -0.072
  C  C355  1  0.014500  0.137300  0.880000  1.0  -0.0536
  C  C356  1  0.027400  0.195000  0.114000  1.0  0.6213
  C  C357  1  0.635000  0.417800  0.778000  1.0  -0.1029
  C  C358  1  0.636600  0.378800  0.731000  1.0  -0.0953
  C  C359  1  0.705100  0.553100  0.475000  1.0  -0.228
  C  C360  1  0.619300  0.353400  0.885000  1.0  -0.1563
  C  C361  1  0.618400  0.432000  0.976000  1.0  0.075
  C  C362  1  0.663500  0.540300  0.570000  1.0  -0.0375
  C  C363  1  0.591100  0.538100  0.535000  1.0  -0.0096
  C  C364  1  0.588000  0.513000  0.716000  1.0  0.0748
  C  C365  1  0.662000  0.515100  0.750000  1.0  0.0183
  C  C366  1  0.722700  0.588400  0.582000  1.0  0.1173
  C  C367  1  0.777900  0.689100  0.868000  1.0  0.6845
  C  C368  1  0.628000  0.553200  0.460000  1.0  0.1233
  C  C369  1  0.601700  0.367600  0.085000  1.0  -0.0099
  C  C370  1  0.600300  0.406400  0.129000  1.0  -0.0887
  C  C371  1  0.620000  0.474900  0.035000  1.0  -0.2757
  C  C372  1  0.553300  0.550200  0.392000  1.0  -0.2264
  C  C373  1  0.758900  0.653800  0.768000  1.0  -0.1311
  C  C374  1  0.623800  0.501200  0.835000  1.0  0.0336
  C  C375  1  0.546700  0.497200  0.782000  1.0  -0.3594
  C  C376  1  0.619600  0.311500  0.834000  1.0  0.7427
  C  C377  1  0.755100  0.606500  0.467000  1.0  -0.1048
  C  C378  1  0.542200  0.605900  0.660000  1.0  -0.1104
  C  C379  1  0.709500  0.604300  0.779000  1.0  -0.1167
  C  C380  1  0.533500  0.586300  0.467000  1.0  0.1202
  C  C381  1  0.727200  0.636300  0.878000  1.0  -0.1087
  C  C382  1  0.494800  0.656700  0.573000  1.0  -0.1182
  C  C383  1  0.772600  0.639500  0.559000  1.0  -0.0173
  C  C384  1  0.701100  0.501300  0.870000  1.0  -0.3343
  C  C385  1  0.630100  0.582300  0.271000  1.0  -0.3365
  C  C386  1  0.504400  0.603100  0.321000  1.0  -0.1598
  C  C387  1  0.523000  0.640300  0.718000  1.0  -0.0725
  C  C388  1  0.485500  0.637300  0.380000  1.0  -0.0518
  C  C389  1  0.472600  0.695000  0.614000  1.0  0.6197
  C  C390  1  0.865000  0.582200  0.278000  1.0  -0.1028
  C  C391  1  0.863400  0.621200  0.231000  1.0  -0.0951
  C  C392  1  0.794900  0.446900  0.975000  1.0  -0.2279
  C  C393  1  0.880700  0.646600  0.385000  1.0  -0.1546
  C  C394  1  0.881600  0.568000  0.476000  1.0  0.075
  C  C395  1  0.836500  0.459700  0.070000  1.0  -0.0378
  C  C396  1  0.908900  0.461900  0.035000  1.0  -0.0093
  C  C397  1  0.912000  0.487000  0.216000  1.0  0.0748
  C  C398  1  0.838000  0.484900  0.250000  1.0  0.0169
  C  C399  1  0.777300  0.411600  0.082000  1.0  0.118
  C  C400  1  0.722100  0.310900  0.368000  1.0  0.685
  C  C401  1  0.872000  0.446800  0.960000  1.0  0.1233
  C  C402  1  0.898300  0.632400  0.585000  1.0  -0.0104
  C  C403  1  0.899700  0.593600  0.629000  1.0  -0.0887
  C  C404  1  0.880000  0.525100  0.535000  1.0  -0.2759
  C  C405  1  0.946700  0.449800  0.892000  1.0  -0.2258
  C  C406  1  0.741100  0.346200  0.268000  1.0  -0.1299
  C  C407  1  0.876200  0.498800  0.335000  1.0  0.0335
  C  C408  1  0.953300  0.502800  0.282000  1.0  -0.3591
  C  C409  1  0.880400  0.688500  0.334000  1.0  0.7421
  C  C410  1  0.744900  0.393500  0.967000  1.0  -0.1044
  C  C411  1  0.957800  0.394100  0.160000  1.0  -0.1103
  C  C412  1  0.790500  0.395700  0.279000  1.0  -0.1156
  C  C413  1  0.966500  0.413700  0.967000  1.0  0.1206
  C  C414  1  0.772800  0.363700  0.378000  1.0  -0.1098
  C  C415  1  0.005200  0.343300  0.073000  1.0  -0.1203
  C  C416  1  0.727400  0.360500  0.059000  1.0  -0.0154
  C  C417  1  0.798900  0.498700  0.370000  1.0  -0.3354
  C  C418  1  0.869900  0.417700  0.771000  1.0  -0.3381
  C  C419  1  0.995600  0.396900  0.821000  1.0  -0.1591
  C  C420  1  0.977000  0.359700  0.218000  1.0  -0.0729
  C  C421  1  0.014500  0.362700  0.880000  1.0  -0.0534
  C  C422  1  0.027400  0.305000  0.114000  1.0  0.6223
  C  C423  1  0.365000  0.917800  0.222000  1.0  -0.1013
  C  C424  1  0.363400  0.878800  0.269000  1.0  -0.0935
  C  C425  1  0.294900  0.053100  0.525000  1.0  -0.2255
  C  C426  1  0.380700  0.853400  0.115000  1.0  -0.1563
  C  C427  1  0.381600  0.932000  0.024000  1.0  0.0751
  C  C428  1  0.336500  0.040300  0.430000  1.0  -0.0383
  C  C429  1  0.408900  0.038100  0.465000  1.0  -0.0092
  C  C430  1  0.412000  0.013000  0.284000  1.0  0.0748
  C  C431  1  0.338000  0.015100  0.250000  1.0  0.0174
  C  C432  1  0.277300  0.088400  0.418000  1.0  0.117
  C  C433  1  0.222100  0.189100  0.132000  1.0  0.6847
  C  C434  1  0.372000  0.053200  0.540000  1.0  0.1239
  C  C435  1  0.398300  0.867600  0.915000  1.0  -0.0112
  C  C436  1  0.399700  0.906400  0.871000  1.0  -0.0903
  C  C437  1  0.380000  0.974900  0.965000  1.0  -0.2748
  C  C438  1  0.446700  0.050200  0.608000  1.0  -0.2254
  C  C439  1  0.241100  0.153800  0.232000  1.0  -0.1309
  C  C440  1  0.376200  0.001200  0.165000  1.0  0.0331
  C  C441  1  0.453300  0.997200  0.218000  1.0  -0.3592
  C  C442  1  0.380400  0.811500  0.166000  1.0  0.7416
  C  C443  1  0.244900  0.106500  0.533000  1.0  -0.1051
  C  C444  1  0.457800  0.105900  0.340000  1.0  -0.1116
  C  C445  1  0.290500  0.104300  0.221000  1.0  -0.115
  C  C446  1  0.466500  0.086300  0.533000  1.0  0.1203
  C  C447  1  0.272800  0.136300  0.122000  1.0  -0.1092
  C  C448  1  0.505200  0.156700  0.427000  1.0  -0.119
  C  C449  1  0.227400  0.139500  0.441000  1.0  -0.014
  C  C450  1  0.298900  0.001300  0.130000  1.0  -0.334
  C  C451  1  0.369900  0.082300  0.729000  1.0  -0.3374
  C  C452  1  0.495600  0.103100  0.679000  1.0  -0.1601
  C  C453  1  0.477000  0.140300  0.282000  1.0  -0.0715
  C  C454  1  0.514500  0.137300  0.620000  1.0  -0.0538
  C  C455  1  0.527400  0.195000  0.386000  1.0  0.6212
  C  C456  1  0.135000  0.082200  0.722000  1.0  -0.1016
  C  C457  1  0.136600  0.121200  0.769000  1.0  -0.0941
  C  C458  1  0.205100  0.946900  0.025000  1.0  -0.2247
  C  C459  1  0.119300  0.146600  0.615000  1.0  -0.1547
  C  C460  1  0.118400  0.068000  0.524000  1.0  0.0753
  C  C461  1  0.163500  0.959700  0.930000  1.0  -0.0373
  C  C462  1  0.091100  0.961900  0.965000  1.0  -0.0093
  C  C463  1  0.088000  0.987000  0.784000  1.0  0.0747
  C  C464  1  0.162000  0.984900  0.750000  1.0  0.0175
  C  C465  1  0.222700  0.911600  0.918000  1.0  0.1177
  C  C466  1  0.277900  0.810900  0.632000  1.0  0.6837
  C  C467  1  0.128000  0.946800  0.040000  1.0  0.1245
  C  C468  1  0.101700  0.132400  0.415000  1.0  -0.0104
  C  C469  1  0.100300  0.093600  0.371000  1.0  -0.0893
  C  C470  1  0.120000  0.025100  0.465000  1.0  -0.2728
  C  C471  1  0.053300  0.949800  0.108000  1.0  -0.2237
  C  C472  1  0.258900  0.846200  0.732000  1.0  -0.13
  C  C473  1  0.123800  0.998800  0.665000  1.0  0.033
  C  C474  1  0.046700  0.002800  0.718000  1.0  -0.3595
  C  C475  1  0.119600  0.188500  0.666000  1.0  0.7421
  C  C476  1  0.255100  0.893500  0.033000  1.0  -0.1063
  C  C477  1  0.042200  0.894100  0.840000  1.0  -0.1125
  C  C478  1  0.209500  0.895700  0.721000  1.0  -0.1144
  C  C479  1  0.033500  0.913700  0.033000  1.0  0.121
  C  C480  1  0.227200  0.863700  0.622000  1.0  -0.1086
  C  C481  1  0.994800  0.843300  0.927000  1.0  -0.1192
  C  C482  1  0.272600  0.860500  0.941000  1.0  -0.0186
  C  C483  1  0.201100  0.998700  0.630000  1.0  -0.335
  C  C484  1  0.130100  0.917700  0.229000  1.0  -0.3381
  C  C485  1  0.004400  0.896900  0.179000  1.0  -0.1599
  C  C486  1  0.023000  0.859700  0.782000  1.0  -0.0734
  C  C487  1  0.985500  0.862700  0.120000  1.0  -0.0509
  C  C488  1  0.972600  0.805000  0.886000  1.0  0.6209
  O  O489  1  0.352100  0.700400  0.289000  1.0  -0.6735
  O  O490  1  0.192000  0.295800  0.237600  1.0  -0.5884
  O  O491  1  0.235300  0.295300  0.956000  1.0  -0.6148
  O  O492  1  0.405500  0.709600  0.067000  1.0  -0.6794
  O  O493  1  0.518100  0.293300  0.166000  1.0  -0.7349
  O  O494  1  0.545000  0.291300  0.549000  1.0  -0.617
  O  O495  1  0.147900  0.299600  0.789000  1.0  -0.6723
  O  O496  1  0.308000  0.704200  0.737600  1.0  -0.5908
  O  O497  1  0.264700  0.704700  0.456000  1.0  -0.6163
  O  O498  1  0.094500  0.290400  0.567000  1.0  -0.6795
  O  O499  1  0.981900  0.706700  0.666000  1.0  -0.7308
  O  O500  1  0.955000  0.708700  0.049000  1.0  -0.6165
  O  O501  1  0.647900  0.200400  0.711000  1.0  -0.673
  O  O502  1  0.808000  0.795800  0.762400  1.0  -0.589
  O  O503  1  0.764700  0.795300  0.044000  1.0  -0.6152
  O  O504  1  0.594500  0.209600  0.933000  1.0  -0.6795
  O  O505  1  0.481900  0.793300  0.834000  1.0  -0.7314
  O  O506  1  0.455000  0.791300  0.451000  1.0  -0.6173
  O  O507  1  0.852100  0.799600  0.211000  1.0  -0.674
  O  O508  1  0.692000  0.204200  0.262400  1.0  -0.5885
  O  O509  1  0.735300  0.204700  0.544000  1.0  -0.6138
  O  O510  1  0.905500  0.790400  0.433000  1.0  -0.6785
  O  O511  1  0.018100  0.206700  0.334000  1.0  -0.7305
  O  O512  1  0.045000  0.208700  0.951000  1.0  -0.6174
  O  O513  1  0.647900  0.299600  0.711000  1.0  -0.6731
  O  O514  1  0.808000  0.704200  0.762400  1.0  -0.5896
  O  O515  1  0.764700  0.704700  0.044000  1.0  -0.6144
  O  O516  1  0.594500  0.290400  0.933000  1.0  -0.6789
  O  O517  1  0.481900  0.706700  0.834000  1.0  -0.7293
  O  O518  1  0.455000  0.708700  0.451000  1.0  -0.6158
  O  O519  1  0.852100  0.700400  0.211000  1.0  -0.6737
  O  O520  1  0.692000  0.295800  0.262400  1.0  -0.5888
  O  O521  1  0.735300  0.295300  0.544000  1.0  -0.6152
  O  O522  1  0.905500  0.709600  0.433000  1.0  -0.6796
  O  O523  1  0.018100  0.293300  0.334000  1.0  -0.731
  O  O524  1  0.045000  0.291300  0.951000  1.0  -0.6178
  O  O525  1  0.352100  0.799600  0.289000  1.0  -0.6728
  O  O526  1  0.192000  0.204200  0.237600  1.0  -0.5886
  O  O527  1  0.235300  0.204700  0.956000  1.0  -0.6149
  O  O528  1  0.405500  0.790400  0.067000  1.0  -0.6793
  O  O529  1  0.518100  0.206700  0.166000  1.0  -0.7341
  O  O530  1  0.545000  0.208700  0.549000  1.0  -0.6173
  O  O531  1  0.147900  0.200400  0.789000  1.0  -0.6729
  O  O532  1  0.308000  0.795800  0.737600  1.0  -0.5903
  O  O533  1  0.264700  0.795300  0.456000  1.0  -0.6161
  O  O534  1  0.094500  0.209600  0.567000  1.0  -0.6791
  O  O535  1  0.981900  0.793300  0.666000  1.0  -0.7328
  O  O536  1  0.955000  0.791300  0.049000  1.0  -0.6175
