# generated using pymatgen
data_CaH18(CO)10
_symmetry_space_group_name_H-M   'P 1'
_cell_length_a   12.79000000
_cell_length_b   12.79000000
_cell_length_c   11.19100000
_cell_angle_alpha   90.00000000
_cell_angle_beta   90.00000000
_cell_angle_gamma   90.00000000
_symmetry_Int_Tables_number   1
_chemical_formula_structural   CaH18(CO)10
_chemical_formula_sum   'Ca4 H72 C40 O40'
_cell_volume   1830.66966310
_cell_formula_units_Z   4
loop_
 _symmetry_equiv_pos_site_id
 _symmetry_equiv_pos_as_xyz
  1  'x, y, z'
loop_
 _atom_site_type_symbol
 _atom_site_label
 _atom_site_symmetry_multiplicity
 _atom_site_fract_x
 _atom_site_fract_y
 _atom_site_fract_z
 _atom_site_occupancy
 _atom_site_charge
  Ca  Ca1  1  0.773800  0.773800  0.000000  1.0  1.3221
  Ca  Ca2  1  0.226200  0.226200  0.500000  1.0  1.3232
  Ca  Ca3  1  0.726200  0.273800  0.750000  1.0  1.3236
  Ca  Ca4  1  0.273800  0.726200  0.250000  1.0  1.3234
  H  H5  1  0.950100  0.915500  0.807700  1.0  0.1185
  H  H6  1  0.817200  0.066300  0.835500  1.0  0.1669
  H  H7  1  0.663600  0.950800  0.794800  1.0  0.1085
  H  H8  1  0.650500  0.014400  0.604500  1.0  0.1301
  H  H9  1  0.750000  0.869900  0.603700  1.0  0.1186
  H  H10  1  0.794900  0.947700  0.508300  1.0  0.1284
  H  H11  1  0.836000  0.760000  0.739000  1.0  0.2074
  H  H12  1  0.791400  0.004500  0.016700  1.0  0.3002
  H  H13  1  0.607900  0.098700  0.880500  1.0  0.1737
  H  H14  1  0.049900  0.084500  0.307700  1.0  0.1167
  H  H15  1  0.182800  0.933700  0.335500  1.0  0.1677
  H  H16  1  0.336400  0.049200  0.294800  1.0  0.1098
  H  H17  1  0.349500  0.985600  0.104500  1.0  0.1313
  H  H18  1  0.250000  0.130100  0.103700  1.0  0.1186
  H  H19  1  0.205100  0.052300  0.008300  1.0  0.1305
  H  H20  1  0.164000  0.240000  0.239000  1.0  0.2092
  H  H21  1  0.208600  0.995500  0.516700  1.0  0.3035
  H  H22  1  0.392100  0.901300  0.380500  1.0  0.1735
  H  H23  1  0.584500  0.450100  0.557700  1.0  0.1193
  H  H24  1  0.433700  0.317200  0.585500  1.0  0.1652
  H  H25  1  0.549200  0.163600  0.544800  1.0  0.1099
  H  H26  1  0.485600  0.150500  0.354500  1.0  0.1322
  H  H27  1  0.630100  0.250000  0.353700  1.0  0.1185
  H  H28  1  0.552300  0.294900  0.258300  1.0  0.1284
  H  H29  1  0.740000  0.336000  0.489000  1.0  0.2069
  H  H30  1  0.495500  0.291400  0.766700  1.0  0.3013
  H  H31  1  0.401300  0.107900  0.630500  1.0  0.177
  H  H32  1  0.415500  0.549900  0.057700  1.0  0.1201
  H  H33  1  0.566300  0.682800  0.085500  1.0  0.1689
  H  H34  1  0.450800  0.836400  0.044800  1.0  0.1075
  H  H35  1  0.514400  0.849500  0.854500  1.0  0.1334
  H  H36  1  0.369900  0.750000  0.853700  1.0  0.1153
  H  H37  1  0.447700  0.705100  0.758300  1.0  0.1293
  H  H38  1  0.260000  0.664000  0.989000  1.0  0.2078
  H  H39  1  0.504500  0.708600  0.266700  1.0  0.2999
  H  H40  1  0.598700  0.892100  0.130500  1.0  0.1759
  H  H41  1  0.549900  0.415500  0.942300  1.0  0.117
  H  H42  1  0.682800  0.566300  0.914500  1.0  0.1672
  H  H43  1  0.836400  0.450800  0.955200  1.0  0.11
  H  H44  1  0.849500  0.514400  0.145500  1.0  0.1316
  H  H45  1  0.750000  0.369900  0.146300  1.0  0.1186
  H  H46  1  0.705100  0.447700  0.241700  1.0  0.1284
  H  H47  1  0.664000  0.260000  0.011000  1.0  0.2082
  H  H48  1  0.708600  0.504500  0.733300  1.0  0.303
  H  H49  1  0.892100  0.598700  0.869500  1.0  0.1736
  H  H50  1  0.450100  0.584500  0.442300  1.0  0.1186
  H  H51  1  0.317200  0.433700  0.414500  1.0  0.1664
  H  H52  1  0.163600  0.549200  0.455200  1.0  0.1082
  H  H53  1  0.150500  0.485600  0.645500  1.0  0.1298
  H  H54  1  0.250000  0.630100  0.646300  1.0  0.1182
  H  H55  1  0.294900  0.552300  0.741700  1.0  0.1275
  H  H56  1  0.336000  0.740000  0.511000  1.0  0.209
  H  H57  1  0.291400  0.495500  0.233300  1.0  0.3035
  H  H58  1  0.107900  0.401300  0.369500  1.0  0.1739
  H  H59  1  0.915500  0.950100  0.192300  1.0  0.1198
  H  H60  1  0.066300  0.817200  0.164500  1.0  0.1688
  H  H61  1  0.950800  0.663600  0.205200  1.0  0.1082
  H  H62  1  0.014400  0.650500  0.395500  1.0  0.1345
  H  H63  1  0.869900  0.750000  0.396300  1.0  0.1183
  H  H64  1  0.947700  0.794900  0.491700  1.0  0.1275
  H  H65  1  0.760000  0.836000  0.261000  1.0  0.2079
  H  H66  1  0.004500  0.791400  0.983300  1.0  0.3011
  H  H67  1  0.098700  0.607900  0.119500  1.0  0.1766
  H  H68  1  0.084500  0.049900  0.692300  1.0  0.1195
  H  H69  1  0.933700  0.182800  0.664500  1.0  0.1641
  H  H70  1  0.049200  0.336400  0.705200  1.0  0.1081
  H  H71  1  0.985600  0.349500  0.895500  1.0  0.1317
  H  H72  1  0.130100  0.250000  0.896300  1.0  0.1181
  H  H73  1  0.052300  0.205100  0.991700  1.0  0.1286
  H  H74  1  0.240000  0.164000  0.761000  1.0  0.2079
  H  H75  1  0.995500  0.208600  0.483300  1.0  0.3018
  H  H76  1  0.901300  0.392100  0.619500  1.0  0.1762
  C  C77  1  0.879600  0.911300  0.773900  1.0  -0.0314
  C  C78  1  0.810500  0.991500  0.836800  1.0  0.0929
  C  C79  1  0.707000  0.010000  0.776700  1.0  0.1274
  C  C80  1  0.717400  0.021800  0.642600  1.0  0.0715
  C  C81  1  0.785000  0.936500  0.593300  1.0  0.0702
  C  C82  1  0.120400  0.088700  0.273900  1.0  -0.0337
  C  C83  1  0.189500  0.008500  0.336800  1.0  0.0932
  C  C84  1  0.293000  0.990000  0.276700  1.0  0.1285
  C  C85  1  0.282600  0.978200  0.142600  1.0  0.0713
  C  C86  1  0.215000  0.063500  0.093300  1.0  0.0696
  C  C87  1  0.588700  0.379600  0.523900  1.0  -0.0298
  C  C88  1  0.508500  0.310500  0.586800  1.0  0.0906
  C  C89  1  0.490000  0.207000  0.526700  1.0  0.1309
  C  C90  1  0.478200  0.217400  0.392600  1.0  0.07
  C  C91  1  0.563500  0.285000  0.343300  1.0  0.0697
  C  C92  1  0.411300  0.620400  0.023900  1.0  -0.0335
  C  C93  1  0.491500  0.689500  0.086800  1.0  0.0914
  C  C94  1  0.510000  0.793000  0.026700  1.0  0.1333
  C  C95  1  0.521800  0.782600  0.892600  1.0  0.0715
  C  C96  1  0.436500  0.715000  0.843300  1.0  0.0699
  C  C97  1  0.620400  0.411300  0.976100  1.0  -0.0326
  C  C98  1  0.689500  0.491500  0.913200  1.0  0.0916
  C  C99  1  0.793000  0.510000  0.973300  1.0  0.1293
  C  C100  1  0.782600  0.521800  0.107400  1.0  0.0714
  C  C101  1  0.715000  0.436500  0.156700  1.0  0.0722
  C  C102  1  0.379600  0.588700  0.476100  1.0  -0.0306
  C  C103  1  0.310500  0.508500  0.413200  1.0  0.0934
  C  C104  1  0.207000  0.490000  0.473300  1.0  0.1243
  C  C105  1  0.217400  0.478200  0.607400  1.0  0.0702
  C  C106  1  0.285000  0.563500  0.656700  1.0  0.0721
  C  C107  1  0.911300  0.879600  0.226100  1.0  -0.029
  C  C108  1  0.991500  0.810500  0.163200  1.0  0.0918
  C  C109  1  0.010000  0.707000  0.223300  1.0  0.1333
  C  C110  1  0.021800  0.717400  0.357400  1.0  0.0703
  C  C111  1  0.936500  0.785000  0.406700  1.0  0.0711
  C  C112  1  0.088700  0.120400  0.726100  1.0  -0.0326
  C  C113  1  0.008500  0.189500  0.663200  1.0  0.0897
  C  C114  1  0.990000  0.293000  0.723300  1.0  0.1331
  C  C115  1  0.978200  0.282600  0.857400  1.0  0.0695
  C  C116  1  0.063500  0.215000  0.906700  1.0  0.0728
  O  O117  1  0.838400  0.810900  0.798300  1.0  -0.5876
  O  O118  1  0.794000  0.957400  0.957100  1.0  -0.5496
  O  O119  1  0.660900  0.102300  0.823800  1.0  -0.5244
  O  O120  1  0.759100  0.123800  0.622700  1.0  -0.5338
  O  O121  1  0.885500  0.932700  0.651000  1.0  -0.2476
  O  O122  1  0.161600  0.189100  0.298300  1.0  -0.5879
  O  O123  1  0.206000  0.042600  0.457100  1.0  -0.5495
  O  O124  1  0.339100  0.897700  0.323800  1.0  -0.5271
  O  O125  1  0.240900  0.876200  0.122700  1.0  -0.5355
  O  O126  1  0.114500  0.067300  0.151000  1.0  -0.2526
  O  O127  1  0.689100  0.338400  0.548300  1.0  -0.5839
  O  O128  1  0.542600  0.294000  0.707100  1.0  -0.5521
  O  O129  1  0.397700  0.160900  0.573800  1.0  -0.5285
  O  O130  1  0.376200  0.259100  0.372700  1.0  -0.5374
  O  O131  1  0.567300  0.385500  0.401000  1.0  -0.2491
  O  O132  1  0.310900  0.661600  0.048300  1.0  -0.5887
  O  O133  1  0.457400  0.706000  0.207100  1.0  -0.5509
  O  O134  1  0.602300  0.839100  0.073800  1.0  -0.5274
  O  O135  1  0.623800  0.740900  0.872700  1.0  -0.5402
  O  O136  1  0.432700  0.614500  0.901000  1.0  -0.2488
  O  O137  1  0.661600  0.310900  0.951700  1.0  -0.5912
  O  O138  1  0.706000  0.457400  0.792900  1.0  -0.5493
  O  O139  1  0.839100  0.602300  0.926200  1.0  -0.5234
  O  O140  1  0.740900  0.623800  0.127300  1.0  -0.5348
  O  O141  1  0.614500  0.432700  0.099000  1.0  -0.2533
  O  O142  1  0.338400  0.689100  0.451700  1.0  -0.5891
  O  O143  1  0.294000  0.542600  0.292900  1.0  -0.5491
  O  O144  1  0.160900  0.397700  0.426200  1.0  -0.5254
  O  O145  1  0.259100  0.376200  0.627300  1.0  -0.5341
  O  O146  1  0.385500  0.567300  0.599000  1.0  -0.2484
  O  O147  1  0.810900  0.838400  0.201700  1.0  -0.588
  O  O148  1  0.957400  0.794000  0.042900  1.0  -0.5508
  O  O149  1  0.102300  0.660900  0.176200  1.0  -0.5259
  O  O150  1  0.123800  0.759100  0.377300  1.0  -0.5414
  O  O151  1  0.932700  0.885500  0.349000  1.0  -0.2518
  O  O152  1  0.189100  0.161600  0.701700  1.0  -0.5872
  O  O153  1  0.042600  0.206000  0.542900  1.0  -0.5514
  O  O154  1  0.897700  0.339100  0.676200  1.0  -0.5244
  O  O155  1  0.876200  0.240900  0.877300  1.0  -0.538
  O  O156  1  0.067300  0.114500  0.849000  1.0  -0.2484
