# generated using pymatgen
data_ZnH3C12NO4
_symmetry_space_group_name_H-M   'P 1'
_cell_length_a   19.15930000
_cell_length_b   19.15930000
_cell_length_c   37.39100000
_cell_angle_alpha   90.00000000
_cell_angle_beta   90.00000000
_cell_angle_gamma   120.00000000
_symmetry_Int_Tables_number   1
_chemical_formula_structural   ZnH3C12NO4
_chemical_formula_sum   'Zn18 H54 C216 N18 O72'
_cell_volume   11886.58191067
_cell_formula_units_Z   18
loop_
 _symmetry_equiv_pos_site_id
 _symmetry_equiv_pos_as_xyz
  1  'x, y, z'
loop_
 _atom_site_type_symbol
 _atom_site_label
 _atom_site_symmetry_multiplicity
 _atom_site_fract_x
 _atom_site_fract_y
 _atom_site_fract_z
 _atom_site_occupancy
 _atom_site_charge
  Zn  Zn1  1  0.048670  0.524340  0.033530  1.0  1.1051
  Zn  Zn2  1  0.715340  0.857670  0.366860  1.0  1.1045
  Zn  Zn3  1  0.382000  0.191000  0.700190  1.0  1.1032
  Zn  Zn4  1  0.475670  0.524340  0.033530  1.0  1.1052
  Zn  Zn5  1  0.142330  0.857670  0.366860  1.0  1.1119
  Zn  Zn6  1  0.809000  0.191000  0.700190  1.0  1.1061
  Zn  Zn7  1  0.475660  0.951330  0.033530  1.0  1.1043
  Zn  Zn8  1  0.142330  0.284660  0.366860  1.0  1.1026
  Zn  Zn9  1  0.809000  0.618000  0.700190  1.0  1.1015
  Zn  Zn10  1  0.524340  0.048670  0.966470  1.0  1.1062
  Zn  Zn11  1  0.191000  0.382000  0.299810  1.0  1.1031
  Zn  Zn12  1  0.857670  0.715340  0.633140  1.0  1.1031
  Zn  Zn13  1  0.524340  0.475660  0.966470  1.0  1.1109
  Zn  Zn14  1  0.191000  0.809000  0.299810  1.0  1.1067
  Zn  Zn15  1  0.857670  0.142330  0.633140  1.0  1.1134
  Zn  Zn16  1  0.951330  0.475660  0.966470  1.0  1.1085
  Zn  Zn17  1  0.618000  0.809000  0.299810  1.0  1.1056
  Zn  Zn18  1  0.284660  0.142330  0.633140  1.0  1.1056
  H  H19  1  0.093600  0.697700  0.911300  1.0  0.0947
  H  H20  1  0.760270  0.031030  0.244630  1.0  0.0947
  H  H21  1  0.426930  0.364370  0.577970  1.0  0.0948
  H  H22  1  0.302300  0.395900  0.911300  1.0  0.0952
  H  H23  1  0.968970  0.729230  0.244630  1.0  0.0952
  H  H24  1  0.635630  0.062570  0.577970  1.0  0.0951
  H  H25  1  0.604100  0.906400  0.911300  1.0  0.0955
  H  H26  1  0.270770  0.239730  0.244630  1.0  0.0955
  H  H27  1  0.937430  0.573070  0.577970  1.0  0.0956
  H  H28  1  0.697700  0.093600  0.088700  1.0  0.0958
  H  H29  1  0.364370  0.426930  0.422030  1.0  0.0959
  H  H30  1  0.031030  0.760270  0.755370  1.0  0.0958
  H  H31  1  0.395900  0.302300  0.088700  1.0  0.0951
  H  H32  1  0.062570  0.635630  0.422030  1.0  0.0949
  H  H33  1  0.729230  0.968970  0.755370  1.0  0.0951
  H  H34  1  0.906400  0.604100  0.088700  1.0  0.0951
  H  H35  1  0.573070  0.937430  0.422030  1.0  0.0952
  H  H36  1  0.239730  0.270770  0.755370  1.0  0.0951
  H  H37  1  0.906400  0.302300  0.088700  1.0  0.0942
  H  H38  1  0.573070  0.635630  0.422030  1.0  0.0943
  H  H39  1  0.239730  0.968970  0.755370  1.0  0.0942
  H  H40  1  0.697700  0.604100  0.088700  1.0  0.0955
  H  H41  1  0.364370  0.937430  0.422030  1.0  0.0954
  H  H42  1  0.031030  0.270770  0.755370  1.0  0.0955
  H  H43  1  0.395900  0.093600  0.088700  1.0  0.0959
  H  H44  1  0.062570  0.426930  0.422030  1.0  0.096
  H  H45  1  0.729230  0.760270  0.755370  1.0  0.0959
  H  H46  1  0.302300  0.906400  0.911300  1.0  0.0953
  H  H47  1  0.968970  0.239730  0.244630  1.0  0.0953
  H  H48  1  0.635630  0.573070  0.577970  1.0  0.0954
  H  H49  1  0.604100  0.697700  0.911300  1.0  0.0951
  H  H50  1  0.270770  0.031030  0.244630  1.0  0.0951
  H  H51  1  0.937430  0.364370  0.577970  1.0  0.0949
  H  H52  1  0.093600  0.395900  0.911300  1.0  0.0953
  H  H53  1  0.760270  0.729230  0.244630  1.0  0.0953
  H  H54  1  0.426930  0.062570  0.577970  1.0  0.0954
  H  H55  1  0.234300  0.765700  0.998900  1.0  0.0918
  H  H56  1  0.900970  0.099030  0.332230  1.0  0.0909
  H  H57  1  0.567630  0.432370  0.665570  1.0  0.0907
  H  H58  1  0.234300  0.468600  0.998900  1.0  0.0914
  H  H59  1  0.900970  0.801930  0.332230  1.0  0.0898
  H  H60  1  0.567630  0.135270  0.665570  1.0  0.0898
  H  H61  1  0.531400  0.765700  0.998900  1.0  0.0916
  H  H62  1  0.198070  0.099030  0.332230  1.0  0.0899
  H  H63  1  0.864730  0.432370  0.665570  1.0  0.0899
  H  H64  1  0.765700  0.234300  0.001100  1.0  0.0918
  H  H65  1  0.432370  0.567630  0.334430  1.0  0.0908
  H  H66  1  0.099030  0.900970  0.667770  1.0  0.0912
  H  H67  1  0.468600  0.234300  0.001100  1.0  0.0919
  H  H68  1  0.135270  0.567630  0.334430  1.0  0.0903
  H  H69  1  0.801930  0.900970  0.667770  1.0  0.0903
  H  H70  1  0.765700  0.531400  0.001100  1.0  0.092
  H  H71  1  0.432370  0.864730  0.334430  1.0  0.0902
  H  H72  1  0.099030  0.198070  0.667770  1.0  0.0902
  C  C73  1  0.098200  0.640900  0.975400  1.0  0.6871
  C  C74  1  0.155500  0.718200  0.958040  1.0  -0.1708
  C  C75  1  0.141000  0.734500  0.922760  1.0  -0.0805
  C  C76  1  0.241700  0.855700  0.845400  1.0  0.11
  C  C77  1  0.206100  0.891400  0.856300  1.0  0.1135
  C  C78  1  0.764870  0.974230  0.308730  1.0  0.6871
  C  C79  1  0.822170  0.051530  0.291370  1.0  -0.1708
  C  C80  1  0.807670  0.067830  0.256090  1.0  -0.0805
  C  C81  1  0.908370  0.189030  0.178730  1.0  0.11
  C  C82  1  0.872770  0.224730  0.189630  1.0  0.1135
  C  C83  1  0.431530  0.307570  0.642070  1.0  0.6871
  C  C84  1  0.488830  0.384870  0.624710  1.0  -0.1708
  C  C85  1  0.474330  0.401170  0.589430  1.0  -0.0805
  C  C86  1  0.575030  0.522370  0.512070  1.0  0.1078
  C  C87  1  0.539430  0.558070  0.522970  1.0  0.1118
  C  C88  1  0.359100  0.457300  0.975400  1.0  0.6866
  C  C89  1  0.281800  0.437300  0.958040  1.0  -0.1706
  C  C90  1  0.265500  0.406500  0.922760  1.0  -0.081
  C  C91  1  0.144300  0.386000  0.845400  1.0  0.0972
  C  C92  1  0.108600  0.314700  0.856300  1.0  0.1079
  C  C93  1  0.025770  0.790630  0.308730  1.0  0.6866
  C  C94  1  0.948470  0.770630  0.291370  1.0  -0.1706
  C  C95  1  0.932170  0.739830  0.256090  1.0  -0.081
  C  C96  1  0.810970  0.719330  0.178730  1.0  0.0972
  C  C97  1  0.775270  0.648030  0.189630  1.0  0.1079
  C  C98  1  0.692430  0.123970  0.642070  1.0  0.6866
  C  C99  1  0.615130  0.103970  0.624710  1.0  -0.1706
  C  C100  1  0.598830  0.073170  0.589430  1.0  -0.081
  C  C101  1  0.477630  0.052670  0.512070  1.0  0.0938
  C  C102  1  0.441930  0.981370  0.522970  1.0  0.1094
  C  C103  1  0.542700  0.901800  0.975400  1.0  0.6864
  C  C104  1  0.562700  0.844500  0.958040  1.0  -0.1695
  C  C105  1  0.593500  0.859000  0.922760  1.0  -0.0808
  C  C106  1  0.614000  0.758300  0.845400  1.0  0.0898
  C  C107  1  0.685300  0.793900  0.856300  1.0  0.1166
  C  C108  1  0.209370  0.235130  0.308730  1.0  0.6864
  C  C109  1  0.229370  0.177830  0.291370  1.0  -0.1695
  C  C110  1  0.260170  0.192330  0.256090  1.0  -0.0808
  C  C111  1  0.280670  0.091630  0.178730  1.0  0.0898
  C  C112  1  0.351970  0.127230  0.189630  1.0  0.1166
  C  C113  1  0.876030  0.568470  0.642070  1.0  0.6864
  C  C114  1  0.896030  0.511170  0.624710  1.0  -0.1695
  C  C115  1  0.926830  0.525670  0.589430  1.0  -0.0808
  C  C116  1  0.947330  0.424970  0.512070  1.0  0.0938
  C  C117  1  0.018630  0.460570  0.522970  1.0  0.1183
  C  C118  1  0.640900  0.098200  0.024600  1.0  0.6863
  C  C119  1  0.718200  0.155500  0.041960  1.0  -0.1694
  C  C120  1  0.734500  0.141000  0.077240  1.0  -0.0805
  C  C121  1  0.855700  0.241700  0.154600  1.0  0.1049
  C  C122  1  0.307570  0.431530  0.357930  1.0  0.6863
  C  C123  1  0.384870  0.488830  0.375290  1.0  -0.1694
  C  C124  1  0.401170  0.474330  0.410570  1.0  -0.0805
  C  C125  1  0.522370  0.575030  0.487930  1.0  0.1043
  C  C126  1  0.974230  0.764870  0.691270  1.0  0.6863
  C  C127  1  0.051530  0.822170  0.708630  1.0  -0.1694
  C  C128  1  0.067830  0.807670  0.743910  1.0  -0.0805
  C  C129  1  0.189030  0.908370  0.821270  1.0  0.1049
  C  C130  1  0.457300  0.359100  0.024600  1.0  0.687
  C  C131  1  0.437300  0.281800  0.041960  1.0  -0.1703
  C  C132  1  0.406500  0.265500  0.077240  1.0  -0.0812
  C  C133  1  0.386000  0.144300  0.154600  1.0  0.1093
  C  C134  1  0.123970  0.692430  0.357930  1.0  0.687
  C  C135  1  0.103970  0.615130  0.375290  1.0  -0.1703
  C  C136  1  0.073170  0.598830  0.410570  1.0  -0.0812
  C  C137  1  0.052670  0.477630  0.487930  1.0  0.1079
  C  C138  1  0.790630  0.025770  0.691270  1.0  0.687
  C  C139  1  0.770630  0.948470  0.708630  1.0  -0.1703
  C  C140  1  0.739830  0.932170  0.743910  1.0  -0.0812
  C  C141  1  0.719330  0.810970  0.821270  1.0  0.1093
  C  C142  1  0.901800  0.542700  0.024600  1.0  0.6862
  C  C143  1  0.844500  0.562700  0.041960  1.0  -0.1702
  C  C144  1  0.859000  0.593500  0.077240  1.0  -0.0811
  C  C145  1  0.758300  0.614000  0.154600  1.0  0.0995
  C  C146  1  0.568470  0.876030  0.357930  1.0  0.6862
  C  C147  1  0.511170  0.896030  0.375290  1.0  -0.1702
  C  C148  1  0.525670  0.926830  0.410570  1.0  -0.0811
  C  C149  1  0.424970  0.947330  0.487930  1.0  0.1043
  C  C150  1  0.235130  0.209370  0.691270  1.0  0.6862
  C  C151  1  0.177830  0.229370  0.708630  1.0  -0.1702
  C  C152  1  0.192330  0.260170  0.743910  1.0  -0.0811
  C  C153  1  0.091630  0.280670  0.821270  1.0  0.0995
  C  C154  1  0.901800  0.359100  0.024600  1.0  0.6869
  C  C155  1  0.844500  0.281800  0.041960  1.0  -0.1709
  C  C156  1  0.859000  0.265500  0.077240  1.0  -0.0813
  C  C157  1  0.758300  0.144300  0.154600  1.0  0.1008
  C  C158  1  0.793900  0.108600  0.143700  1.0  0.1138
  C  C159  1  0.568470  0.692430  0.357930  1.0  0.6869
  C  C160  1  0.511170  0.615130  0.375290  1.0  -0.1709
  C  C161  1  0.525670  0.598830  0.410570  1.0  -0.0813
  C  C162  1  0.424970  0.477630  0.487930  1.0  0.0982
  C  C163  1  0.460570  0.441930  0.477030  1.0  0.1136
  C  C164  1  0.235130  0.025770  0.691270  1.0  0.6869
  C  C165  1  0.177830  0.948470  0.708630  1.0  -0.1709
  C  C166  1  0.192330  0.932170  0.743910  1.0  -0.0813
  C  C167  1  0.091630  0.810970  0.821270  1.0  0.1008
  C  C168  1  0.127230  0.775270  0.810370  1.0  0.1138
  C  C169  1  0.640900  0.542700  0.024600  1.0  0.6861
  C  C170  1  0.718200  0.562700  0.041960  1.0  -0.1714
  C  C171  1  0.734500  0.593500  0.077240  1.0  -0.0811
  C  C172  1  0.855700  0.614000  0.154600  1.0  0.101
  C  C173  1  0.891400  0.685300  0.143700  1.0  0.1093
  C  C174  1  0.307570  0.876030  0.357930  1.0  0.6861
  C  C175  1  0.384870  0.896030  0.375290  1.0  -0.1714
  C  C176  1  0.401170  0.926830  0.410570  1.0  -0.0811
  C  C177  1  0.522370  0.947330  0.487930  1.0  0.0969
  C  C178  1  0.558070  0.018630  0.477030  1.0  0.1164
  C  C179  1  0.974230  0.209370  0.691270  1.0  0.6861
  C  C180  1  0.051530  0.229370  0.708630  1.0  -0.1714
  C  C181  1  0.067830  0.260170  0.743910  1.0  -0.0811
  C  C182  1  0.189030  0.280670  0.821270  1.0  0.101
  C  C183  1  0.224730  0.351970  0.810370  1.0  0.1093
  C  C184  1  0.457300  0.098200  0.024600  1.0  0.6862
  C  C185  1  0.437300  0.155500  0.041960  1.0  -0.1703
  C  C186  1  0.406500  0.141000  0.077240  1.0  -0.0795
  C  C187  1  0.386000  0.241700  0.154600  1.0  0.0966
  C  C188  1  0.314700  0.206100  0.143700  1.0  0.1216
  C  C189  1  0.123970  0.431530  0.357930  1.0  0.6862
  C  C190  1  0.103970  0.488830  0.375290  1.0  -0.1703
  C  C191  1  0.073170  0.474330  0.410570  1.0  -0.0795
  C  C192  1  0.052670  0.575030  0.487930  1.0  0.1012
  C  C193  1  0.981370  0.539430  0.477030  1.0  0.1224
  C  C194  1  0.790630  0.764870  0.691270  1.0  0.6862
  C  C195  1  0.770630  0.822170  0.708630  1.0  -0.1703
  C  C196  1  0.739830  0.807670  0.743910  1.0  -0.0795
  C  C197  1  0.719330  0.908370  0.821270  1.0  0.0966
  C  C198  1  0.648030  0.872770  0.810370  1.0  0.1216
  C  C199  1  0.359100  0.901800  0.975400  1.0  0.6866
  C  C200  1  0.281800  0.844500  0.958040  1.0  -0.1705
  C  C201  1  0.265500  0.859000  0.922760  1.0  -0.08
  C  C202  1  0.144300  0.758300  0.845400  1.0  0.1027
  C  C203  1  0.025770  0.235130  0.308730  1.0  0.6866
  C  C204  1  0.948470  0.177830  0.291370  1.0  -0.1705
  C  C205  1  0.932170  0.192330  0.256090  1.0  -0.08
  C  C206  1  0.810970  0.091630  0.178730  1.0  0.1027
  C  C207  1  0.692430  0.568470  0.642070  1.0  0.6866
  C  C208  1  0.615130  0.511170  0.624710  1.0  -0.1705
  C  C209  1  0.598830  0.525670  0.589430  1.0  -0.08
  C  C210  1  0.477630  0.424970  0.512070  1.0  0.1018
  C  C211  1  0.542700  0.640900  0.975400  1.0  0.6869
  C  C212  1  0.562700  0.718200  0.958040  1.0  -0.1713
  C  C213  1  0.593500  0.734500  0.922760  1.0  -0.0805
  C  C214  1  0.614000  0.855700  0.845400  1.0  0.1086
  C  C215  1  0.209370  0.974230  0.308730  1.0  0.6869
  C  C216  1  0.229370  0.051530  0.291370  1.0  -0.1713
  C  C217  1  0.260170  0.067830  0.256090  1.0  -0.0805
  C  C218  1  0.280670  0.189030  0.178730  1.0  0.1086
  C  C219  1  0.876030  0.307570  0.642070  1.0  0.6869
  C  C220  1  0.896030  0.384870  0.624710  1.0  -0.1713
  C  C221  1  0.926830  0.401170  0.589430  1.0  -0.0805
  C  C222  1  0.947330  0.522370  0.512070  1.0  0.1071
  C  C223  1  0.098200  0.457300  0.975400  1.0  0.6863
  C  C224  1  0.155500  0.437300  0.958040  1.0  -0.1714
  C  C225  1  0.141000  0.406500  0.922760  1.0  -0.0808
  C  C226  1  0.241700  0.386000  0.845400  1.0  0.1048
  C  C227  1  0.764870  0.790630  0.308730  1.0  0.6863
  C  C228  1  0.822170  0.770630  0.291370  1.0  -0.1714
  C  C229  1  0.807670  0.739830  0.256090  1.0  -0.0808
  C  C230  1  0.908370  0.719330  0.178730  1.0  0.1048
  C  C231  1  0.431530  0.123970  0.642070  1.0  0.6863
  C  C232  1  0.488830  0.103970  0.624710  1.0  -0.1714
  C  C233  1  0.474330  0.073170  0.589430  1.0  -0.0808
  C  C234  1  0.575030  0.052670  0.512070  1.0  0.1063
  C  C235  1  0.225260  0.774740  0.975300  1.0  0.0158
  C  C236  1  0.195900  0.804100  0.904780  1.0  0.0338
  C  C237  1  0.180800  0.819200  0.868030  1.0  0.0336
  C  C238  1  0.891930  0.108070  0.308630  1.0  0.0158
  C  C239  1  0.862570  0.137430  0.238110  1.0  0.0338
  C  C240  1  0.847470  0.152530  0.201360  1.0  0.0336
  C  C241  1  0.558590  0.441410  0.641970  1.0  0.0158
  C  C242  1  0.529230  0.470770  0.571450  1.0  0.0338
  C  C243  1  0.514130  0.485870  0.534700  1.0  0.0336
  C  C244  1  0.225260  0.450520  0.975300  1.0  0.0144
  C  C245  1  0.195900  0.391800  0.904780  1.0  0.0339
  C  C246  1  0.180800  0.361600  0.868030  1.0  0.0332
  C  C247  1  0.891930  0.783850  0.308630  1.0  0.0145
  C  C248  1  0.862570  0.725130  0.238110  1.0  0.0339
  C  C249  1  0.847470  0.694930  0.201360  1.0  0.0332
  C  C250  1  0.558590  0.117190  0.641970  1.0  0.0144
  C  C251  1  0.529230  0.058470  0.571450  1.0  0.0339
  C  C252  1  0.514130  0.028270  0.534700  1.0  0.0332
  C  C253  1  0.549480  0.774740  0.975300  1.0  0.0148
  C  C254  1  0.608200  0.804100  0.904780  1.0  0.0341
  C  C255  1  0.638400  0.819200  0.868030  1.0  0.0328
  C  C256  1  0.216150  0.108070  0.308630  1.0  0.0148
  C  C257  1  0.274870  0.137430  0.238110  1.0  0.0341
  C  C258  1  0.305070  0.152530  0.201360  1.0  0.0328
  C  C259  1  0.882810  0.441410  0.641970  1.0  0.0148
  C  C260  1  0.941530  0.470770  0.571450  1.0  0.0341
  C  C261  1  0.971730  0.485870  0.534700  1.0  0.0328
  C  C262  1  0.774740  0.225260  0.024700  1.0  0.0147
  C  C263  1  0.804100  0.195900  0.095220  1.0  0.0348
  C  C264  1  0.819200  0.180800  0.131970  1.0  0.0407
  C  C265  1  0.441410  0.558590  0.358030  1.0  0.0147
  C  C266  1  0.470770  0.529230  0.428550  1.0  0.0348
  C  C267  1  0.485870  0.514130  0.465300  1.0  0.0407
  C  C268  1  0.108070  0.891930  0.691370  1.0  0.0147
  C  C269  1  0.137430  0.862570  0.761890  1.0  0.0348
  C  C270  1  0.152530  0.847470  0.798640  1.0  0.0407
  C  C271  1  0.450520  0.225260  0.024700  1.0  0.0148
  C  C272  1  0.391800  0.195900  0.095220  1.0  0.0343
  C  C273  1  0.361600  0.180800  0.131970  1.0  0.0415
  C  C274  1  0.117190  0.558590  0.358030  1.0  0.0148
  C  C275  1  0.058470  0.529230  0.428550  1.0  0.0343
  C  C276  1  0.028270  0.514130  0.465300  1.0  0.0415
  C  C277  1  0.783850  0.891930  0.691370  1.0  0.0148
  C  C278  1  0.725130  0.862570  0.761890  1.0  0.0343
  C  C279  1  0.694930  0.847470  0.798640  1.0  0.0415
  C  C280  1  0.774740  0.549480  0.024700  1.0  0.0147
  C  C281  1  0.804100  0.608200  0.095220  1.0  0.0345
  C  C282  1  0.819200  0.638400  0.131970  1.0  0.0394
  C  C283  1  0.441410  0.882810  0.358030  1.0  0.0147
  C  C284  1  0.470770  0.941530  0.428550  1.0  0.0345
  C  C285  1  0.485870  0.971730  0.465300  1.0  0.0394
  C  C286  1  0.108070  0.216150  0.691370  1.0  0.0147
  C  C287  1  0.137430  0.274870  0.761890  1.0  0.0345
  C  C288  1  0.152530  0.305070  0.798640  1.0  0.0394
  N  N289  1  0.224730  0.872770  0.810370  1.0  -0.1134
  N  N290  1  0.891400  0.206100  0.143700  1.0  -0.1134
  N  N291  1  0.558070  0.539430  0.477030  1.0  -0.1154
  N  N292  1  0.127230  0.351970  0.810370  1.0  -0.1149
  N  N293  1  0.793900  0.685300  0.143700  1.0  -0.1149
  N  N294  1  0.460570  0.018630  0.477030  1.0  -0.1107
  N  N295  1  0.648030  0.775270  0.810370  1.0  -0.1153
  N  N296  1  0.314700  0.108600  0.143700  1.0  -0.1153
  N  N297  1  0.981370  0.441930  0.477030  1.0  -0.1214
  N  N298  1  0.775270  0.127230  0.189630  1.0  -0.1163
  N  N299  1  0.441930  0.460570  0.522970  1.0  -0.1136
  N  N300  1  0.108600  0.793900  0.856300  1.0  -0.1163
  N  N301  1  0.872770  0.648030  0.189630  1.0  -0.1095
  N  N302  1  0.539430  0.981370  0.522970  1.0  -0.1044
  N  N303  1  0.206100  0.314700  0.856300  1.0  -0.1095
  N  N304  1  0.351970  0.224730  0.189630  1.0  -0.1124
  N  N305  1  0.018630  0.558070  0.522970  1.0  -0.1146
  N  N306  1  0.685300  0.891400  0.856300  1.0  -0.1124
  O  O307  1  0.113490  0.629820  0.006770  1.0  -0.6186
  O  O308  1  0.037130  0.591520  0.957460  1.0  -0.6545
  O  O309  1  0.780160  0.963150  0.340100  1.0  -0.6186
  O  O310  1  0.703800  0.924850  0.290790  1.0  -0.6545
  O  O311  1  0.446820  0.296490  0.673440  1.0  -0.6185
  O  O312  1  0.370460  0.258190  0.624130  1.0  -0.6545
  O  O313  1  0.370180  0.483670  0.006770  1.0  -0.6197
  O  O314  1  0.408480  0.445610  0.957460  1.0  -0.6538
  O  O315  1  0.036850  0.817000  0.340100  1.0  -0.6197
  O  O316  1  0.075150  0.778940  0.290790  1.0  -0.6539
  O  O317  1  0.703510  0.150340  0.673440  1.0  -0.6197
  O  O318  1  0.741810  0.112280  0.624130  1.0  -0.6538
  O  O319  1  0.516330  0.886510  0.006770  1.0  -0.6206
  O  O320  1  0.554390  0.962870  0.957460  1.0  -0.6546
  O  O321  1  0.183000  0.219840  0.340100  1.0  -0.6206
  O  O322  1  0.221060  0.296200  0.290790  1.0  -0.6547
  O  O323  1  0.849660  0.553180  0.673440  1.0  -0.6205
  O  O324  1  0.887720  0.629540  0.624130  1.0  -0.6546
  O  O325  1  0.629820  0.113490  0.993230  1.0  -0.6207
  O  O326  1  0.591520  0.037130  0.042540  1.0  -0.6554
  O  O327  1  0.296490  0.446820  0.326560  1.0  -0.6207
  O  O328  1  0.258190  0.370460  0.375870  1.0  -0.6554
  O  O329  1  0.963150  0.780160  0.659900  1.0  -0.6207
  O  O330  1  0.924850  0.703800  0.709210  1.0  -0.6554
  O  O331  1  0.483670  0.370180  0.993230  1.0  -0.619
  O  O332  1  0.445610  0.408480  0.042540  1.0  -0.6551
  O  O333  1  0.150340  0.703510  0.326560  1.0  -0.619
  O  O334  1  0.112280  0.741810  0.375870  1.0  -0.655
  O  O335  1  0.817000  0.036850  0.659900  1.0  -0.619
  O  O336  1  0.778940  0.075150  0.709210  1.0  -0.6551
  O  O337  1  0.886510  0.516330  0.993230  1.0  -0.6197
  O  O338  1  0.962870  0.554390  0.042540  1.0  -0.6549
  O  O339  1  0.553180  0.849660  0.326560  1.0  -0.6196
  O  O340  1  0.629540  0.887720  0.375870  1.0  -0.6549
  O  O341  1  0.219840  0.183000  0.659900  1.0  -0.6197
  O  O342  1  0.296200  0.221060  0.709210  1.0  -0.655
  O  O343  1  0.886510  0.370180  0.993230  1.0  -0.6193
  O  O344  1  0.962870  0.408480  0.042540  1.0  -0.655
  O  O345  1  0.553180  0.703510  0.326560  1.0  -0.6193
  O  O346  1  0.629540  0.741810  0.375870  1.0  -0.655
  O  O347  1  0.219840  0.036850  0.659900  1.0  -0.6193
  O  O348  1  0.296200  0.075150  0.709210  1.0  -0.655
  O  O349  1  0.629820  0.516330  0.993230  1.0  -0.619
  O  O350  1  0.591520  0.554390  0.042540  1.0  -0.6554
  O  O351  1  0.296490  0.849660  0.326560  1.0  -0.619
  O  O352  1  0.258190  0.887720  0.375870  1.0  -0.6554
  O  O353  1  0.963150  0.183000  0.659900  1.0  -0.619
  O  O354  1  0.924850  0.221060  0.709210  1.0  -0.6555
  O  O355  1  0.483670  0.113490  0.993230  1.0  -0.6208
  O  O356  1  0.445610  0.037130  0.042540  1.0  -0.6558
  O  O357  1  0.150340  0.446820  0.326560  1.0  -0.6208
  O  O358  1  0.112280  0.370460  0.375870  1.0  -0.6558
  O  O359  1  0.817000  0.780160  0.659900  1.0  -0.6208
  O  O360  1  0.778940  0.703800  0.709210  1.0  -0.6559
  O  O361  1  0.370180  0.886510  0.006770  1.0  -0.6206
  O  O362  1  0.408480  0.962870  0.957460  1.0  -0.655
  O  O363  1  0.036850  0.219840  0.340100  1.0  -0.6206
  O  O364  1  0.075150  0.296200  0.290790  1.0  -0.655
  O  O365  1  0.703510  0.553180  0.673440  1.0  -0.6206
  O  O366  1  0.741810  0.629540  0.624130  1.0  -0.655
  O  O367  1  0.516330  0.629820  0.006770  1.0  -0.6193
  O  O368  1  0.554390  0.591520  0.957460  1.0  -0.6531
  O  O369  1  0.183000  0.963150  0.340100  1.0  -0.6193
  O  O370  1  0.221060  0.924850  0.290790  1.0  -0.6532
  O  O371  1  0.849660  0.296490  0.673440  1.0  -0.6193
  O  O372  1  0.887720  0.258190  0.624130  1.0  -0.6531
  O  O373  1  0.113490  0.483670  0.006770  1.0  -0.6189
  O  O374  1  0.037130  0.445610  0.957460  1.0  -0.6537
  O  O375  1  0.780160  0.817000  0.340100  1.0  -0.6189
  O  O376  1  0.703800  0.778940  0.290790  1.0  -0.6538
  O  O377  1  0.446820  0.150340  0.673440  1.0  -0.6188
  O  O378  1  0.370460  0.112280  0.624130  1.0  -0.6537
