# generated using pymatgen
data_Mg3H14(C5O2)6
_symmetry_space_group_name_H-M   'P 1'
_cell_length_a   14.87300000
_cell_length_b   18.92930000
_cell_length_c   18.92930000
_cell_angle_alpha   66.60240000
_cell_angle_beta   74.81690000
_cell_angle_gamma   105.18300000
_symmetry_Int_Tables_number   1
_chemical_formula_structural   Mg3H14(C5O2)6
_chemical_formula_sum   'Mg9 H42 C90 O36'
_cell_volume   4298.70497331
_cell_formula_units_Z   3
loop_
 _symmetry_equiv_pos_site_id
 _symmetry_equiv_pos_as_xyz
  1  'x, y, z'
loop_
 _atom_site_type_symbol
 _atom_site_label
 _atom_site_symmetry_multiplicity
 _atom_site_fract_x
 _atom_site_fract_y
 _atom_site_fract_z
 _atom_site_occupancy
 _atom_site_charge
  Mg  Mg1  1  0.098770  0.715020  0.325770  1.0  1.6121
  Mg  Mg2  1  0.424540  0.325770  0.959210  1.0  1.5695
  Mg  Mg3  1  0.383750  0.959210  0.715020  1.0  1.5937
  Mg  Mg4  1  0.901230  0.284980  0.674230  1.0  1.6129
  Mg  Mg5  1  0.575460  0.674230  0.040790  1.0  1.5686
  Mg  Mg6  1  0.616250  0.040790  0.284980  1.0  1.5945
  Mg  Mg7  1  0.000000  0.500000  0.500000  1.0  1.5494
  Mg  Mg8  1  0.500000  0.500000  0.000000  1.0  1.5494
  Mg  Mg9  1  0.500000  0.000000  0.500000  1.0  1.5494
  H  H10  1  0.283900  0.619000  0.190300  1.0  0.1002
  H  H11  1  0.188900  0.401100  0.182400  1.0  0.1114
  H  H12  1  0.004100  0.452500  0.344800  1.0  0.1006
  H  H13  1  0.027800  0.338700  0.189900  1.0  0.1067
  H  H14  1  0.872500  0.242100  0.222600  1.0  0.0746
  H  H15  1  0.779500  0.183600  0.459600  1.0  0.0981
  H  H16  1  0.932300  0.291500  0.407600  1.0  0.0501
  H  H17  1  0.474200  0.190300  0.190700  1.0  0.1007
  H  H18  1  0.371300  0.182400  0.416500  1.0  0.1093
  H  H19  1  0.348900  0.344800  0.202700  1.0  0.1019
  H  H20  1  0.217700  0.189900  0.471400  1.0  0.101
  H  H21  1  0.095100  0.222600  0.535300  1.0  0.0757
  H  H22  1  0.239100  0.459600  0.356800  1.0  0.0991
  H  H23  1  0.339900  0.407600  0.300900  1.0  0.0501
  H  H24  1  0.664900  0.190700  0.619000  1.0  0.1011
  H  H25  1  0.787800  0.416500  0.401100  1.0  0.1108
  H  H26  1  0.551600  0.202700  0.452500  1.0  0.1016
  H  H27  1  0.689100  0.471400  0.338700  1.0  0.1033
  H  H28  1  0.630400  0.535300  0.242100  1.0  0.0751
  H  H29  1  0.595900  0.356800  0.183600  1.0  0.1008
  H  H30  1  0.640800  0.300900  0.291500  1.0  0.0495
  H  H31  1  0.716100  0.381000  0.809700  1.0  0.1008
  H  H32  1  0.811100  0.598900  0.817600  1.0  0.1115
  H  H33  1  0.995900  0.547500  0.655200  1.0  0.1009
  H  H34  1  0.972200  0.661300  0.810100  1.0  0.1076
  H  H35  1  0.127500  0.757900  0.777400  1.0  0.0752
  H  H36  1  0.220500  0.816400  0.540400  1.0  0.097
  H  H37  1  0.067700  0.708500  0.592400  1.0  0.0506
  H  H38  1  0.525800  0.809700  0.809300  1.0  0.1013
  H  H39  1  0.628700  0.817600  0.583500  1.0  0.1088
  H  H40  1  0.651100  0.655200  0.797300  1.0  0.101
  H  H41  1  0.782300  0.810100  0.528600  1.0  0.1021
  H  H42  1  0.904900  0.777400  0.464700  1.0  0.0738
  H  H43  1  0.760900  0.540400  0.643200  1.0  0.099
  H  H44  1  0.660100  0.592400  0.699100  1.0  0.0516
  H  H45  1  0.335100  0.809300  0.381000  1.0  0.1003
  H  H46  1  0.212200  0.583500  0.598900  1.0  0.1117
  H  H47  1  0.448400  0.797300  0.547500  1.0  0.1002
  H  H48  1  0.310900  0.528600  0.661300  1.0  0.1033
  H  H49  1  0.369600  0.464700  0.757900  1.0  0.0741
  H  H50  1  0.404100  0.643200  0.816400  1.0  0.1005
  H  H51  1  0.359200  0.699100  0.708500  1.0  0.0523
  C  C52  1  0.141490  0.544250  0.268220  1.0  -0.1606
  C  C53  1  0.235580  0.568680  0.206220  1.0  0.0052
  C  C54  1  0.253020  0.515480  0.176180  1.0  -0.163
  C  C55  1  0.173610  0.438780  0.206220  1.0  -0.0839
  C  C56  1  0.078010  0.413840  0.267980  1.0  0.0243
  C  C57  1  0.063650  0.465910  0.300970  1.0  -0.0485
  C  C58  1  0.125110  0.604750  0.296770  1.0  0.7361
  C  C59  1  0.358350  0.542540  0.112910  1.0  0.7587
  C  C60  1  0.990360  0.334830  0.295680  1.0  0.0257
  C  C61  1  0.974660  0.314250  0.236670  1.0  -0.1499
  C  C62  1  0.887490  0.246780  0.259110  1.0  0.002
  C  C63  1  0.814480  0.197750  0.341330  1.0  -0.1926
  C  C64  1  0.832110  0.216260  0.400880  1.0  -0.0717
  C  C65  1  0.919490  0.283960  0.378640  1.0  -0.0214
  C  C66  1  0.718020  0.127290  0.363120  1.0  0.8119
  C  C67  1  0.409710  0.268220  0.187530  1.0  -0.1542
  C  C68  1  0.441800  0.206220  0.225100  1.0  0.0027
  C  C69  1  0.429200  0.176180  0.308340  1.0  -0.1652
  C  C70  1  0.379830  0.206220  0.355000  1.0  -0.0833
  C  C71  1  0.345990  0.267980  0.318180  1.0  0.0262
  C  C72  1  0.364620  0.300970  0.233120  1.0  -0.0494
  C  C73  1  0.421880  0.296770  0.098480  1.0  0.7426
  C  C74  1  0.471260  0.112910  0.344550  1.0  0.7595
  C  C75  1  0.286040  0.295680  0.369490  1.0  0.0268
  C  C76  1  0.211330  0.236670  0.449080  1.0  -0.147
  C  C77  1  0.146600  0.259110  0.494110  1.0  0.0003
  C  C78  1  0.155810  0.341330  0.460920  1.0  -0.1865
  C  C79  1  0.232990  0.400880  0.382860  1.0  -0.0732
  C  C80  1  0.298130  0.378640  0.337400  1.0  -0.0217
  C  C81  1  0.081140  0.363120  0.509590  1.0  0.8122
  C  C82  1  0.597240  0.187530  0.544250  1.0  -0.1604
  C  C83  1  0.666900  0.225100  0.568680  1.0  0.0094
  C  C84  1  0.737540  0.308340  0.515480  1.0  -0.1625
  C  C85  1  0.734830  0.355000  0.438780  1.0  -0.0873
  C  C86  1  0.664170  0.318180  0.413840  1.0  0.026
  C  C87  1  0.597740  0.233120  0.465910  1.0  -0.0478
  C  C88  1  0.520360  0.098480  0.604750  1.0  0.7396
  C  C89  1  0.815810  0.344550  0.542540  1.0  0.7596
  C  C90  1  0.655530  0.369490  0.334830  1.0  0.0271
  C  C91  1  0.660410  0.449080  0.314250  1.0  -0.1495
  C  C92  1  0.640710  0.494110  0.246780  1.0  0.0028
  C  C93  1  0.616730  0.460920  0.197750  1.0  -0.1907
  C  C94  1  0.615850  0.382860  0.216260  1.0  -0.0689
  C  C95  1  0.635530  0.337400  0.283960  1.0  -0.0224
  C  C96  1  0.590730  0.509590  0.127290  1.0  0.8135
  C  C97  1  0.858510  0.455750  0.731780  1.0  -0.1593
  C  C98  1  0.764420  0.431320  0.793780  1.0  0.0046
  C  C99  1  0.746980  0.484520  0.823820  1.0  -0.1636
  C  C100  1  0.826390  0.561220  0.793780  1.0  -0.0853
  C  C101  1  0.921990  0.586160  0.732020  1.0  0.0244
  C  C102  1  0.936350  0.534090  0.699030  1.0  -0.048
  C  C103  1  0.874890  0.395250  0.703230  1.0  0.7372
  C  C104  1  0.641650  0.457460  0.887090  1.0  0.7605
  C  C105  1  0.009640  0.665170  0.704320  1.0  0.0265
  C  C106  1  0.025340  0.685750  0.763330  1.0  -0.151
  C  C107  1  0.112510  0.753220  0.740890  1.0  0.0041
  C  C108  1  0.185520  0.802250  0.658670  1.0  -0.1903
  C  C109  1  0.167890  0.783740  0.599120  1.0  -0.0735
  C  C110  1  0.080510  0.716040  0.621360  1.0  -0.0215
  C  C111  1  0.281980  0.872710  0.636880  1.0  0.8119
  C  C112  1  0.590290  0.731780  0.812470  1.0  -0.1577
  C  C113  1  0.558200  0.793780  0.774900  1.0  0.0036
  C  C114  1  0.570800  0.823820  0.691660  1.0  -0.1625
  C  C115  1  0.620170  0.793780  0.645000  1.0  -0.0843
  C  C116  1  0.654010  0.732020  0.681820  1.0  0.0262
  C  C117  1  0.635380  0.699030  0.766880  1.0  -0.0496
  C  C118  1  0.578120  0.703230  0.901520  1.0  0.742
  C  C119  1  0.528740  0.887090  0.655450  1.0  0.7613
  C  C120  1  0.713960  0.704320  0.630510  1.0  0.026
  C  C121  1  0.788670  0.763330  0.550920  1.0  -0.1472
  C  C122  1  0.853400  0.740890  0.505890  1.0  0.003
  C  C123  1  0.844190  0.658670  0.539080  1.0  -0.1906
  C  C124  1  0.767010  0.599120  0.617140  1.0  -0.0725
  C  C125  1  0.701870  0.621360  0.662600  1.0  -0.0212
  C  C126  1  0.918860  0.636880  0.490410  1.0  0.8074
  C  C127  1  0.402760  0.812470  0.455750  1.0  -0.1579
  C  C128  1  0.333100  0.774900  0.431320  1.0  0.0084
  C  C129  1  0.262460  0.691660  0.484520  1.0  -0.1646
  C  C130  1  0.265170  0.645000  0.561220  1.0  -0.0879
  C  C131  1  0.335830  0.681820  0.586160  1.0  0.0257
  C  C132  1  0.402260  0.766880  0.534090  1.0  -0.0482
  C  C133  1  0.479640  0.901520  0.395250  1.0  0.7404
  C  C134  1  0.184190  0.655450  0.457460  1.0  0.7622
  C  C135  1  0.344470  0.630510  0.665170  1.0  0.0274
  C  C136  1  0.339590  0.550920  0.685750  1.0  -0.1497
  C  C137  1  0.359290  0.505890  0.753220  1.0  0.0002
  C  C138  1  0.383270  0.539080  0.802250  1.0  -0.1929
  C  C139  1  0.384150  0.617140  0.783740  1.0  -0.0701
  C  C140  1  0.364470  0.662600  0.716040  1.0  -0.0228
  C  C141  1  0.409270  0.490410  0.872710  1.0  0.8106
  O  O142  1  0.052990  0.579690  0.366150  1.0  -0.7897
  O  O143  1  0.181810  0.682210  0.247180  1.0  -0.6711
  O  O144  1  0.373230  0.495030  0.084900  1.0  -0.6771
  O  O145  1  0.423220  0.612750  0.093450  1.0  -0.8021
  O  O146  1  0.652580  0.084480  0.436980  1.0  -0.6814
  O  O147  1  0.712270  0.118340  0.302270  1.0  -0.8386
  O  O148  1  0.419140  0.366150  0.054160  1.0  -0.786
  O  O149  1  0.428990  0.247180  0.070610  1.0  -0.7118
  O  O150  1  0.458130  0.084900  0.420070  1.0  -0.6781
  O  O151  1  0.516670  0.093450  0.293800  1.0  -0.801
  O  O152  1  0.089560  0.436980  0.478540  1.0  -0.6797
  O  O153  1  0.014540  0.302270  0.579390  1.0  -0.8538
  O  O154  1  0.473300  0.054160  0.579690  1.0  -0.7906
  O  O155  1  0.499600  0.070610  0.682210  1.0  -0.7138
  O  O156  1  0.878200  0.420070  0.495030  1.0  -0.6812
  O  O157  1  0.810470  0.293800  0.612750  1.0  -0.8036
  O  O158  1  0.568100  0.478540  0.084480  1.0  -0.6776
  O  O159  1  0.593930  0.579390  0.118340  1.0  -0.8383
  O  O160  1  0.947010  0.420310  0.633850  1.0  -0.7821
  O  O161  1  0.818190  0.317790  0.752820  1.0  -0.6747
  O  O162  1  0.626770  0.504970  0.915100  1.0  -0.6773
  O  O163  1  0.576780  0.387250  0.906550  1.0  -0.7991
  O  O164  1  0.347420  0.915520  0.563020  1.0  -0.6822
  O  O165  1  0.287730  0.881660  0.697730  1.0  -0.844
  O  O166  1  0.580860  0.633850  0.945840  1.0  -0.7852
  O  O167  1  0.571010  0.752820  0.929390  1.0  -0.7122
  O  O168  1  0.541870  0.915100  0.579930  1.0  -0.6781
  O  O169  1  0.483330  0.906550  0.706200  1.0  -0.7979
  O  O170  1  0.910440  0.563020  0.521460  1.0  -0.6789
  O  O171  1  0.985460  0.697730  0.420610  1.0  -0.8463
  O  O172  1  0.526700  0.945840  0.420310  1.0  -0.7855
  O  O173  1  0.500400  0.929390  0.317790  1.0  -0.7171
  O  O174  1  0.121800  0.579930  0.504970  1.0  -0.681
  O  O175  1  0.189530  0.706200  0.387250  1.0  -0.8026
  O  O176  1  0.431900  0.521460  0.915520  1.0  -0.6782
  O  O177  1  0.406070  0.420610  0.881660  1.0  -0.839
