# generated using pymatgen
data_CuH2(C3O2)2
_symmetry_space_group_name_H-M   'P 1'
_cell_length_a   26.32560000
_cell_length_b   26.32560000
_cell_length_c   26.32560000
_cell_angle_alpha   90.00000000
_cell_angle_beta   90.00000000
_cell_angle_gamma   90.00000000
_symmetry_Int_Tables_number   1
_chemical_formula_structural   CuH2(C3O2)2
_chemical_formula_sum   'Cu48 H96 C288 O192'
_cell_volume   18244.62051668
_cell_formula_units_Z   48
loop_
 _symmetry_equiv_pos_site_id
 _symmetry_equiv_pos_as_xyz
  1  'x, y, z'
loop_
 _atom_site_type_symbol
 _atom_site_label
 _atom_site_symmetry_multiplicity
 _atom_site_fract_x
 _atom_site_fract_y
 _atom_site_fract_z
 _atom_site_occupancy
 _atom_site_charge
  Cu  Cu1  1  0.284270  0.284270  0.000000  1.0  0.9118
  Cu  Cu2  1  0.284270  0.784270  0.500000  1.0  0.9118
  Cu  Cu3  1  0.784270  0.284270  0.500000  1.0  0.9118
  Cu  Cu4  1  0.784270  0.784270  0.000000  1.0  0.9118
  Cu  Cu5  1  0.715730  0.715730  0.000000  1.0  0.9113
  Cu  Cu6  1  0.715730  0.215730  0.500000  1.0  0.9113
  Cu  Cu7  1  0.215730  0.715730  0.500000  1.0  0.9113
  Cu  Cu8  1  0.215730  0.215730  0.000000  1.0  0.9113
  Cu  Cu9  1  0.715730  0.284270  0.000000  1.0  0.9116
  Cu  Cu10  1  0.715730  0.784270  0.500000  1.0  0.9116
  Cu  Cu11  1  0.215730  0.284270  0.500000  1.0  0.9116
  Cu  Cu12  1  0.215730  0.784270  0.000000  1.0  0.9116
  Cu  Cu13  1  0.284270  0.715730  0.000000  1.0  0.9106
  Cu  Cu14  1  0.284270  0.215730  0.500000  1.0  0.9106
  Cu  Cu15  1  0.784270  0.715730  0.500000  1.0  0.9106
  Cu  Cu16  1  0.784270  0.215730  0.000000  1.0  0.9106
  Cu  Cu17  1  0.000000  0.284270  0.284270  1.0  0.9091
  Cu  Cu18  1  0.000000  0.784270  0.784270  1.0  0.9091
  Cu  Cu19  1  0.500000  0.284270  0.784270  1.0  0.9091
  Cu  Cu20  1  0.500000  0.784270  0.284270  1.0  0.9091
  Cu  Cu21  1  0.000000  0.715730  0.715730  1.0  0.9089
  Cu  Cu22  1  0.000000  0.215730  0.215730  1.0  0.9089
  Cu  Cu23  1  0.500000  0.715730  0.215730  1.0  0.9089
  Cu  Cu24  1  0.500000  0.215730  0.715730  1.0  0.9089
  Cu  Cu25  1  0.000000  0.715730  0.284270  1.0  0.9085
  Cu  Cu26  1  0.000000  0.215730  0.784270  1.0  0.9085
  Cu  Cu27  1  0.500000  0.715730  0.784270  1.0  0.9085
  Cu  Cu28  1  0.500000  0.215730  0.284270  1.0  0.9085
  Cu  Cu29  1  0.000000  0.284270  0.715730  1.0  0.9092
  Cu  Cu30  1  0.000000  0.784270  0.215730  1.0  0.9092
  Cu  Cu31  1  0.500000  0.284270  0.215730  1.0  0.9092
  Cu  Cu32  1  0.500000  0.784270  0.715730  1.0  0.9092
  Cu  Cu33  1  0.284270  0.000000  0.284270  1.0  0.9097
  Cu  Cu34  1  0.284270  0.500000  0.784270  1.0  0.9097
  Cu  Cu35  1  0.784270  0.000000  0.784270  1.0  0.9097
  Cu  Cu36  1  0.784270  0.500000  0.284270  1.0  0.9097
  Cu  Cu37  1  0.715730  0.000000  0.715730  1.0  0.9107
  Cu  Cu38  1  0.715730  0.500000  0.215730  1.0  0.9107
  Cu  Cu39  1  0.215730  0.000000  0.215730  1.0  0.9107
  Cu  Cu40  1  0.215730  0.500000  0.715730  1.0  0.9107
  Cu  Cu41  1  0.284270  0.000000  0.715730  1.0  0.9098
  Cu  Cu42  1  0.284270  0.500000  0.215730  1.0  0.9098
  Cu  Cu43  1  0.784270  0.000000  0.215730  1.0  0.9098
  Cu  Cu44  1  0.784270  0.500000  0.715730  1.0  0.9098
  Cu  Cu45  1  0.715730  0.000000  0.284270  1.0  0.91
  Cu  Cu46  1  0.715730  0.500000  0.784270  1.0  0.91
  Cu  Cu47  1  0.215730  0.000000  0.784270  1.0  0.91
  Cu  Cu48  1  0.215730  0.500000  0.284270  1.0  0.91
  H  H49  1  0.380730  0.234730  0.880730  1.0  0.1387
  H  H50  1  0.380730  0.734730  0.380730  1.0  0.1387
  H  H51  1  0.619270  0.765270  0.880730  1.0  0.1391
  H  H52  1  0.619270  0.265270  0.380730  1.0  0.1391
  H  H53  1  0.119270  0.765270  0.380730  1.0  0.1391
  H  H54  1  0.619270  0.234730  0.119270  1.0  0.1387
  H  H55  1  0.619270  0.734730  0.619270  1.0  0.1387
  H  H56  1  0.119270  0.734730  0.119270  1.0  0.1387
  H  H57  1  0.380730  0.765270  0.119270  1.0  0.1382
  H  H58  1  0.380730  0.265270  0.619270  1.0  0.1382
  H  H59  1  0.880730  0.380730  0.234730  1.0  0.1383
  H  H60  1  0.880730  0.880730  0.734730  1.0  0.1383
  H  H61  1  0.380730  0.380730  0.734730  1.0  0.1383
  H  H62  1  0.880730  0.619270  0.765270  1.0  0.1372
  H  H63  1  0.880730  0.119270  0.265270  1.0  0.1372
  H  H64  1  0.380730  0.119270  0.765270  1.0  0.1372
  H  H65  1  0.119270  0.619270  0.234730  1.0  0.1387
  H  H66  1  0.119270  0.119270  0.734730  1.0  0.1387
  H  H67  1  0.119270  0.380730  0.765270  1.0  0.1374
  H  H68  1  0.119270  0.880730  0.265270  1.0  0.1374
  H  H69  1  0.234730  0.880730  0.380730  1.0  0.1379
  H  H70  1  0.734730  0.880730  0.880730  1.0  0.1379
  H  H71  1  0.734730  0.380730  0.380730  1.0  0.1379
  H  H72  1  0.765270  0.880730  0.619270  1.0  0.1376
  H  H73  1  0.765270  0.380730  0.119270  1.0  0.1376
  H  H74  1  0.265270  0.880730  0.119270  1.0  0.1376
  H  H75  1  0.234730  0.119270  0.619270  1.0  0.1378
  H  H76  1  0.734730  0.119270  0.119270  1.0  0.1378
  H  H77  1  0.765270  0.119270  0.380730  1.0  0.1381
  H  H78  1  0.265270  0.119270  0.880730  1.0  0.1381
  H  H79  1  0.234730  0.380730  0.119270  1.0  0.1375
  H  H80  1  0.734730  0.380730  0.619270  1.0  0.1375
  H  H81  1  0.765270  0.619270  0.119270  1.0  0.1378
  H  H82  1  0.265270  0.619270  0.619270  1.0  0.1378
  H  H83  1  0.265270  0.119270  0.119270  1.0  0.1378
  H  H84  1  0.234730  0.619270  0.880730  1.0  0.1383
  H  H85  1  0.234730  0.119270  0.380730  1.0  0.1383
  H  H86  1  0.734730  0.619270  0.380730  1.0  0.1383
  H  H87  1  0.765270  0.380730  0.880730  1.0  0.1377
  H  H88  1  0.265270  0.380730  0.380730  1.0  0.1377
  H  H89  1  0.380730  0.880730  0.765270  1.0  0.137
  H  H90  1  0.380730  0.380730  0.265270  1.0  0.137
  H  H91  1  0.619270  0.880730  0.234730  1.0  0.1383
  H  H92  1  0.619270  0.380730  0.734730  1.0  0.1383
  H  H93  1  0.119270  0.380730  0.234730  1.0  0.1383
  H  H94  1  0.619270  0.119270  0.765270  1.0  0.1376
  H  H95  1  0.619270  0.619270  0.265270  1.0  0.1376
  H  H96  1  0.119270  0.119270  0.265270  1.0  0.1376
  H  H97  1  0.380730  0.119270  0.234730  1.0  0.1386
  H  H98  1  0.380730  0.619270  0.734730  1.0  0.1386
  H  H99  1  0.880730  0.234730  0.619270  1.0  0.1384
  H  H100  1  0.880730  0.734730  0.119270  1.0  0.1384
  H  H101  1  0.380730  0.234730  0.119270  1.0  0.1384
  H  H102  1  0.880730  0.765270  0.380730  1.0  0.1384
  H  H103  1  0.880730  0.265270  0.880730  1.0  0.1384
  H  H104  1  0.380730  0.265270  0.380730  1.0  0.1384
  H  H105  1  0.119270  0.234730  0.380730  1.0  0.1389
  H  H106  1  0.119270  0.734730  0.880730  1.0  0.1389
  H  H107  1  0.119270  0.765270  0.619270  1.0  0.1386
  H  H108  1  0.119270  0.265270  0.119270  1.0  0.1386
  H  H109  1  0.619270  0.765270  0.119270  1.0  0.1386
  H  H110  1  0.619270  0.265270  0.619270  1.0  0.1386
  H  H111  1  0.380730  0.734730  0.619270  1.0  0.1384
  H  H112  1  0.380730  0.765270  0.880730  1.0  0.1384
  H  H113  1  0.619270  0.234730  0.880730  1.0  0.1389
  H  H114  1  0.619270  0.734730  0.380730  1.0  0.1389
  H  H115  1  0.119270  0.619270  0.765270  1.0  0.1376
  H  H116  1  0.119270  0.880730  0.734730  1.0  0.1383
  H  H117  1  0.880730  0.380730  0.765270  1.0  0.137
  H  H118  1  0.880730  0.880730  0.265270  1.0  0.137
  H  H119  1  0.880730  0.619270  0.234730  1.0  0.1386
  H  H120  1  0.880730  0.119270  0.734730  1.0  0.1386
  H  H121  1  0.765270  0.119270  0.619270  1.0  0.1378
  H  H122  1  0.734730  0.119270  0.880730  1.0  0.1383
  H  H123  1  0.765270  0.880730  0.380730  1.0  0.1377
  H  H124  1  0.265270  0.880730  0.880730  1.0  0.1377
  H  H125  1  0.234730  0.880730  0.619270  1.0  0.1375
  H  H126  1  0.734730  0.880730  0.119270  1.0  0.1375
  H  H127  1  0.765270  0.619270  0.880730  1.0  0.1381
  H  H128  1  0.265270  0.619270  0.380730  1.0  0.1381
  H  H129  1  0.234730  0.380730  0.880730  1.0  0.1379
  H  H130  1  0.265270  0.380730  0.619270  1.0  0.1376
  H  H131  1  0.234730  0.619270  0.119270  1.0  0.1378
  H  H132  1  0.734730  0.619270  0.619270  1.0  0.1378
  H  H133  1  0.619270  0.119270  0.234730  1.0  0.1387
  H  H134  1  0.619270  0.619270  0.734730  1.0  0.1387
  H  H135  1  0.380730  0.619270  0.265270  1.0  0.1372
  H  H136  1  0.380730  0.880730  0.234730  1.0  0.1383
  H  H137  1  0.619270  0.880730  0.765270  1.0  0.1374
  H  H138  1  0.619270  0.380730  0.265270  1.0  0.1374
  H  H139  1  0.119270  0.265270  0.880730  1.0  0.1391
  H  H140  1  0.119270  0.234730  0.619270  1.0  0.1387
  H  H141  1  0.880730  0.765270  0.619270  1.0  0.1382
  H  H142  1  0.880730  0.265270  0.119270  1.0  0.1382
  H  H143  1  0.880730  0.234730  0.380730  1.0  0.1387
  H  H144  1  0.880730  0.734730  0.880730  1.0  0.1387
  C  C145  1  0.321680  0.178320  0.886520  1.0  -0.0943
  C  C146  1  0.295950  0.204050  0.930840  1.0  0.6712
  C  C147  1  0.321680  0.678320  0.386520  1.0  -0.0943
  C  C148  1  0.295950  0.704050  0.430840  1.0  0.6712
  C  C149  1  0.678320  0.821680  0.886520  1.0  -0.0942
  C  C150  1  0.704050  0.795950  0.930840  1.0  0.6707
  C  C151  1  0.678320  0.321680  0.386520  1.0  -0.0942
  C  C152  1  0.704050  0.295950  0.430840  1.0  0.6707
  C  C153  1  0.178320  0.321680  0.886520  1.0  -0.0942
  C  C154  1  0.204050  0.295950  0.930840  1.0  0.6707
  C  C155  1  0.678320  0.178320  0.113480  1.0  -0.0944
  C  C156  1  0.704050  0.204050  0.069160  1.0  0.6708
  C  C157  1  0.678320  0.678320  0.613480  1.0  -0.0944
  C  C158  1  0.704050  0.704050  0.569160  1.0  0.6708
  C  C159  1  0.178320  0.178320  0.613480  1.0  -0.0944
  C  C160  1  0.204050  0.204050  0.569160  1.0  0.6708
  C  C161  1  0.321680  0.821680  0.113480  1.0  -0.0949
  C  C162  1  0.295950  0.795950  0.069160  1.0  0.6705
  C  C163  1  0.321680  0.321680  0.613480  1.0  -0.0949
  C  C164  1  0.295950  0.295950  0.569160  1.0  0.6705
  C  C165  1  0.886520  0.321680  0.178320  1.0  -0.0946
  C  C166  1  0.930840  0.295950  0.204050  1.0  0.6698
  C  C167  1  0.386520  0.321680  0.678320  1.0  -0.0946
  C  C168  1  0.430840  0.295950  0.704050  1.0  0.6698
  C  C169  1  0.886520  0.678320  0.821680  1.0  -0.0945
  C  C170  1  0.930840  0.704050  0.795950  1.0  0.67
  C  C171  1  0.886520  0.178320  0.321680  1.0  -0.0945
  C  C172  1  0.930840  0.204050  0.295950  1.0  0.67
  C  C173  1  0.386520  0.678320  0.321680  1.0  -0.0945
  C  C174  1  0.430840  0.704050  0.295950  1.0  0.67
  C  C175  1  0.113480  0.678320  0.178320  1.0  -0.0944
  C  C176  1  0.069160  0.704050  0.204050  1.0  0.6696
  C  C177  1  0.613480  0.678320  0.678320  1.0  -0.0944
  C  C178  1  0.569160  0.704050  0.704050  1.0  0.6696
  C  C179  1  0.613480  0.178320  0.178320  1.0  -0.0944
  C  C180  1  0.569160  0.204050  0.204050  1.0  0.6696
  C  C181  1  0.113480  0.321680  0.821680  1.0  -0.0945
  C  C182  1  0.069160  0.295950  0.795950  1.0  0.6692
  C  C183  1  0.613480  0.321680  0.321680  1.0  -0.0945
  C  C184  1  0.569160  0.295950  0.295950  1.0  0.6692
  C  C185  1  0.178320  0.886520  0.321680  1.0  -0.0931
  C  C186  1  0.204050  0.930840  0.295950  1.0  0.6699
  C  C187  1  0.178320  0.386520  0.821680  1.0  -0.0931
  C  C188  1  0.204050  0.430840  0.795950  1.0  0.6699
  C  C189  1  0.821680  0.886520  0.678320  1.0  -0.0935
  C  C190  1  0.795950  0.930840  0.704050  1.0  0.67
  C  C191  1  0.821680  0.386520  0.178320  1.0  -0.0935
  C  C192  1  0.795950  0.430840  0.204050  1.0  0.67
  C  C193  1  0.321680  0.886520  0.178320  1.0  -0.0935
  C  C194  1  0.295950  0.930840  0.204050  1.0  0.67
  C  C195  1  0.178320  0.113480  0.678320  1.0  -0.0932
  C  C196  1  0.204050  0.069160  0.704050  1.0  0.6698
  C  C197  1  0.178320  0.613480  0.178320  1.0  -0.0932
  C  C198  1  0.204050  0.569160  0.204050  1.0  0.6698
  C  C199  1  0.821680  0.113480  0.321680  1.0  -0.0937
  C  C200  1  0.795950  0.069160  0.295950  1.0  0.6697
  C  C201  1  0.821680  0.613480  0.821680  1.0  -0.0937
  C  C202  1  0.795950  0.569160  0.795950  1.0  0.6697
  C  C203  1  0.321680  0.613480  0.321680  1.0  -0.0937
  C  C204  1  0.295950  0.569160  0.295950  1.0  0.6697
  C  C205  1  0.178320  0.321680  0.113480  1.0  -0.0946
  C  C206  1  0.204050  0.295950  0.069160  1.0  0.6705
  C  C207  1  0.178320  0.821680  0.613480  1.0  -0.0946
  C  C208  1  0.204050  0.795950  0.569160  1.0  0.6705
  C  C209  1  0.821680  0.678320  0.113480  1.0  -0.0947
  C  C210  1  0.795950  0.704050  0.069160  1.0  0.6708
  C  C211  1  0.821680  0.178320  0.613480  1.0  -0.0947
  C  C212  1  0.795950  0.204050  0.569160  1.0  0.6708
  C  C213  1  0.321680  0.178320  0.113480  1.0  -0.0947
  C  C214  1  0.295950  0.204050  0.069160  1.0  0.6708
  C  C215  1  0.178320  0.678320  0.886520  1.0  -0.0941
  C  C216  1  0.204050  0.704050  0.930840  1.0  0.6711
  C  C217  1  0.178320  0.178320  0.386520  1.0  -0.0941
  C  C218  1  0.204050  0.204050  0.430840  1.0  0.6711
  C  C219  1  0.821680  0.321680  0.886520  1.0  -0.0944
  C  C220  1  0.795950  0.295950  0.930840  1.0  0.6708
  C  C221  1  0.821680  0.821680  0.386520  1.0  -0.0944
  C  C222  1  0.795950  0.795950  0.430840  1.0  0.6708
  C  C223  1  0.321680  0.321680  0.386520  1.0  -0.0944
  C  C224  1  0.295950  0.295950  0.430840  1.0  0.6708
  C  C225  1  0.321680  0.886520  0.821680  1.0  -0.0934
  C  C226  1  0.295950  0.930840  0.795950  1.0  0.6699
  C  C227  1  0.321680  0.386520  0.321680  1.0  -0.0934
  C  C228  1  0.295950  0.430840  0.295950  1.0  0.6699
  C  C229  1  0.678320  0.886520  0.178320  1.0  -0.0932
  C  C230  1  0.704050  0.930840  0.204050  1.0  0.6699
  C  C231  1  0.678320  0.386520  0.678320  1.0  -0.0932
  C  C232  1  0.704050  0.430840  0.704050  1.0  0.6699
  C  C233  1  0.178320  0.386520  0.178320  1.0  -0.0932
  C  C234  1  0.204050  0.430840  0.204050  1.0  0.6699
  C  C235  1  0.678320  0.113480  0.821680  1.0  -0.0933
  C  C236  1  0.704050  0.069160  0.795950  1.0  0.6696
  C  C237  1  0.678320  0.613480  0.321680  1.0  -0.0933
  C  C238  1  0.704050  0.569160  0.295950  1.0  0.6696
  C  C239  1  0.178320  0.113480  0.321680  1.0  -0.0933
  C  C240  1  0.204050  0.069160  0.295950  1.0  0.6696
  C  C241  1  0.321680  0.113480  0.178320  1.0  -0.0935
  C  C242  1  0.295950  0.069160  0.204050  1.0  0.6699
  C  C243  1  0.321680  0.613480  0.678320  1.0  -0.0935
  C  C244  1  0.295950  0.569160  0.704050  1.0  0.6699
  C  C245  1  0.886520  0.178320  0.678320  1.0  -0.0945
  C  C246  1  0.930840  0.204050  0.704050  1.0  0.6701
  C  C247  1  0.386520  0.178320  0.178320  1.0  -0.0945
  C  C248  1  0.430840  0.204050  0.204050  1.0  0.6701
  C  C249  1  0.886520  0.821680  0.321680  1.0  -0.0946
  C  C250  1  0.930840  0.795950  0.295950  1.0  0.6696
  C  C251  1  0.386520  0.821680  0.821680  1.0  -0.0946
  C  C252  1  0.430840  0.795950  0.795950  1.0  0.6696
  C  C253  1  0.386520  0.321680  0.321680  1.0  -0.0946
  C  C254  1  0.430840  0.295950  0.295950  1.0  0.6696
  C  C255  1  0.113480  0.178320  0.321680  1.0  -0.0943
  C  C256  1  0.069160  0.204050  0.295950  1.0  0.6696
  C  C257  1  0.613480  0.178320  0.821680  1.0  -0.0943
  C  C258  1  0.569160  0.204050  0.795950  1.0  0.6696
  C  C259  1  0.113480  0.821680  0.678320  1.0  -0.0945
  C  C260  1  0.069160  0.795950  0.704050  1.0  0.6694
  C  C261  1  0.113480  0.321680  0.178320  1.0  -0.0945
  C  C262  1  0.069160  0.295950  0.204050  1.0  0.6694
  C  C263  1  0.613480  0.821680  0.178320  1.0  -0.0945
  C  C264  1  0.569160  0.795950  0.204050  1.0  0.6694
  C  C265  1  0.678320  0.821680  0.113480  1.0  -0.0946
  C  C266  1  0.704050  0.795950  0.069160  1.0  0.6705
  C  C267  1  0.678320  0.321680  0.613480  1.0  -0.0946
  C  C268  1  0.704050  0.295950  0.569160  1.0  0.6705
  C  C269  1  0.321680  0.678320  0.613480  1.0  -0.0947
  C  C270  1  0.295950  0.704050  0.569160  1.0  0.6708
  C  C271  1  0.321680  0.821680  0.886520  1.0  -0.0944
  C  C272  1  0.295950  0.795950  0.930840  1.0  0.6708
  C  C273  1  0.678320  0.178320  0.886520  1.0  -0.0941
  C  C274  1  0.704050  0.204050  0.930840  1.0  0.6711
  C  C275  1  0.678320  0.678320  0.386520  1.0  -0.0941
  C  C276  1  0.704050  0.704050  0.430840  1.0  0.6711
  C  C277  1  0.113480  0.678320  0.821680  1.0  -0.0943
  C  C278  1  0.069160  0.704050  0.795950  1.0  0.6696
  C  C279  1  0.613480  0.678320  0.321680  1.0  -0.0943
  C  C280  1  0.569160  0.704050  0.295950  1.0  0.6696
  C  C281  1  0.613480  0.321680  0.678320  1.0  -0.0945
  C  C282  1  0.569160  0.295950  0.704050  1.0  0.6694
  C  C283  1  0.886520  0.321680  0.821680  1.0  -0.0946
  C  C284  1  0.930840  0.295950  0.795950  1.0  0.6696
  C  C285  1  0.886520  0.678320  0.178320  1.0  -0.0945
  C  C286  1  0.930840  0.704050  0.204050  1.0  0.6701
  C  C287  1  0.386520  0.678320  0.678320  1.0  -0.0945
  C  C288  1  0.430840  0.704050  0.704050  1.0  0.6701
  C  C289  1  0.821680  0.113480  0.678320  1.0  -0.0935
  C  C290  1  0.795950  0.069160  0.704050  1.0  0.6699
  C  C291  1  0.821680  0.613480  0.178320  1.0  -0.0935
  C  C292  1  0.795950  0.569160  0.204050  1.0  0.6699
  C  C293  1  0.178320  0.613480  0.821680  1.0  -0.0933
  C  C294  1  0.204050  0.569160  0.795950  1.0  0.6696
  C  C295  1  0.821680  0.886520  0.321680  1.0  -0.0934
  C  C296  1  0.795950  0.930840  0.295950  1.0  0.6699
  C  C297  1  0.821680  0.386520  0.821680  1.0  -0.0934
  C  C298  1  0.795950  0.430840  0.795950  1.0  0.6699
  C  C299  1  0.178320  0.886520  0.678320  1.0  -0.0932
  C  C300  1  0.204050  0.930840  0.704050  1.0  0.6699
  C  C301  1  0.821680  0.678320  0.886520  1.0  -0.0943
  C  C302  1  0.795950  0.704050  0.930840  1.0  0.6712
  C  C303  1  0.821680  0.178320  0.386520  1.0  -0.0943
  C  C304  1  0.795950  0.204050  0.430840  1.0  0.6712
  C  C305  1  0.178320  0.821680  0.386520  1.0  -0.0942
  C  C306  1  0.204050  0.795950  0.430840  1.0  0.6707
  C  C307  1  0.821680  0.321680  0.113480  1.0  -0.0949
  C  C308  1  0.795950  0.295950  0.069160  1.0  0.6705
  C  C309  1  0.821680  0.821680  0.613480  1.0  -0.0949
  C  C310  1  0.795950  0.795950  0.569160  1.0  0.6705
  C  C311  1  0.178320  0.678320  0.113480  1.0  -0.0944
  C  C312  1  0.204050  0.704050  0.069160  1.0  0.6708
  C  C313  1  0.678320  0.113480  0.178320  1.0  -0.0932
  C  C314  1  0.704050  0.069160  0.204050  1.0  0.6698
  C  C315  1  0.678320  0.613480  0.678320  1.0  -0.0932
  C  C316  1  0.704050  0.569160  0.704050  1.0  0.6698
  C  C317  1  0.321680  0.113480  0.821680  1.0  -0.0937
  C  C318  1  0.295950  0.069160  0.795950  1.0  0.6697
  C  C319  1  0.321680  0.386520  0.678320  1.0  -0.0935
  C  C320  1  0.295950  0.430840  0.704050  1.0  0.67
  C  C321  1  0.678320  0.886520  0.821680  1.0  -0.0931
  C  C322  1  0.704050  0.930840  0.795950  1.0  0.6699
  C  C323  1  0.678320  0.386520  0.321680  1.0  -0.0931
  C  C324  1  0.704050  0.430840  0.295950  1.0  0.6699
  C  C325  1  0.113480  0.821680  0.321680  1.0  -0.0945
  C  C326  1  0.069160  0.795950  0.295950  1.0  0.6692
  C  C327  1  0.613480  0.821680  0.821680  1.0  -0.0945
  C  C328  1  0.569160  0.795950  0.795950  1.0  0.6692
  C  C329  1  0.113480  0.178320  0.678320  1.0  -0.0944
  C  C330  1  0.069160  0.204050  0.704050  1.0  0.6696
  C  C331  1  0.886520  0.821680  0.678320  1.0  -0.0946
  C  C332  1  0.930840  0.795950  0.704050  1.0  0.6698
  C  C333  1  0.386520  0.821680  0.178320  1.0  -0.0946
  C  C334  1  0.430840  0.795950  0.204050  1.0  0.6698
  C  C335  1  0.386520  0.178320  0.821680  1.0  -0.0945
  C  C336  1  0.430840  0.204050  0.795950  1.0  0.67
  C  C337  1  0.364890  0.200580  0.864890  1.0  -0.0794
  C  C338  1  0.364890  0.700580  0.364890  1.0  -0.0794
  C  C339  1  0.635110  0.799420  0.864890  1.0  -0.0789
  C  C340  1  0.635110  0.299420  0.364890  1.0  -0.0789
  C  C341  1  0.135110  0.799420  0.364890  1.0  -0.0789
  C  C342  1  0.635110  0.200580  0.135110  1.0  -0.0798
  C  C343  1  0.635110  0.700580  0.635110  1.0  -0.0798
  C  C344  1  0.135110  0.700580  0.135110  1.0  -0.0798
  C  C345  1  0.364890  0.799420  0.135110  1.0  -0.0792
  C  C346  1  0.364890  0.299420  0.635110  1.0  -0.0792
  C  C347  1  0.864890  0.364890  0.200580  1.0  -0.0792
  C  C348  1  0.864890  0.864890  0.700580  1.0  -0.0792
  C  C349  1  0.364890  0.364890  0.700580  1.0  -0.0792
  C  C350  1  0.864890  0.635110  0.799420  1.0  -0.0795
  C  C351  1  0.864890  0.135110  0.299420  1.0  -0.0795
  C  C352  1  0.364890  0.135110  0.799420  1.0  -0.0795
  C  C353  1  0.135110  0.635110  0.200580  1.0  -0.0798
  C  C354  1  0.135110  0.135110  0.700580  1.0  -0.0798
  C  C355  1  0.135110  0.364890  0.799420  1.0  -0.079
  C  C356  1  0.135110  0.864890  0.299420  1.0  -0.079
  C  C357  1  0.200580  0.864890  0.364890  1.0  -0.0774
  C  C358  1  0.700580  0.864890  0.864890  1.0  -0.0774
  C  C359  1  0.700580  0.364890  0.364890  1.0  -0.0774
  C  C360  1  0.799420  0.864890  0.635110  1.0  -0.078
  C  C361  1  0.799420  0.364890  0.135110  1.0  -0.078
  C  C362  1  0.299420  0.864890  0.135110  1.0  -0.078
  C  C363  1  0.200580  0.135110  0.635110  1.0  -0.0786
  C  C364  1  0.700580  0.135110  0.135110  1.0  -0.0786
  C  C365  1  0.799420  0.135110  0.364890  1.0  -0.0777
  C  C366  1  0.299420  0.135110  0.864890  1.0  -0.0777
  C  C367  1  0.200580  0.364890  0.135110  1.0  -0.0779
  C  C368  1  0.700580  0.364890  0.635110  1.0  -0.0779
  C  C369  1  0.799420  0.635110  0.135110  1.0  -0.0784
  C  C370  1  0.299420  0.635110  0.635110  1.0  -0.0784
  C  C371  1  0.299420  0.135110  0.135110  1.0  -0.0784
  C  C372  1  0.200580  0.635110  0.864890  1.0  -0.0775
  C  C373  1  0.200580  0.135110  0.364890  1.0  -0.0775
  C  C374  1  0.700580  0.635110  0.364890  1.0  -0.0775
  C  C375  1  0.799420  0.364890  0.864890  1.0  -0.0779
  C  C376  1  0.299420  0.364890  0.364890  1.0  -0.0779
  C  C377  1  0.364890  0.864890  0.799420  1.0  -0.0788
  C  C378  1  0.364890  0.364890  0.299420  1.0  -0.0788
  C  C379  1  0.635110  0.864890  0.200580  1.0  -0.08
  C  C380  1  0.635110  0.364890  0.700580  1.0  -0.08
  C  C381  1  0.135110  0.364890  0.200580  1.0  -0.08
  C  C382  1  0.635110  0.135110  0.799420  1.0  -0.0797
  C  C383  1  0.635110  0.635110  0.299420  1.0  -0.0797
  C  C384  1  0.135110  0.135110  0.299420  1.0  -0.0797
  C  C385  1  0.364890  0.135110  0.200580  1.0  -0.079
  C  C386  1  0.364890  0.635110  0.700580  1.0  -0.079
  C  C387  1  0.864890  0.200580  0.635110  1.0  -0.0796
  C  C388  1  0.864890  0.700580  0.135110  1.0  -0.0796
  C  C389  1  0.364890  0.200580  0.135110  1.0  -0.0796
  C  C390  1  0.864890  0.799420  0.364890  1.0  -0.0781
  C  C391  1  0.864890  0.299420  0.864890  1.0  -0.0781
  C  C392  1  0.364890  0.299420  0.364890  1.0  -0.0781
  C  C393  1  0.135110  0.200580  0.364890  1.0  -0.0803
  C  C394  1  0.135110  0.700580  0.864890  1.0  -0.0803
  C  C395  1  0.135110  0.799420  0.635110  1.0  -0.0794
  C  C396  1  0.135110  0.299420  0.135110  1.0  -0.0794
  C  C397  1  0.635110  0.799420  0.135110  1.0  -0.0794
  C  C398  1  0.635110  0.299420  0.635110  1.0  -0.0794
  C  C399  1  0.364890  0.700580  0.635110  1.0  -0.0796
  C  C400  1  0.364890  0.799420  0.864890  1.0  -0.0781
  C  C401  1  0.635110  0.200580  0.864890  1.0  -0.0803
  C  C402  1  0.635110  0.700580  0.364890  1.0  -0.0803
  C  C403  1  0.135110  0.635110  0.799420  1.0  -0.0797
  C  C404  1  0.135110  0.864890  0.700580  1.0  -0.08
  C  C405  1  0.864890  0.364890  0.799420  1.0  -0.0788
  C  C406  1  0.864890  0.864890  0.299420  1.0  -0.0788
  C  C407  1  0.864890  0.635110  0.200580  1.0  -0.079
  C  C408  1  0.864890  0.135110  0.700580  1.0  -0.079
  C  C409  1  0.799420  0.135110  0.635110  1.0  -0.0784
  C  C410  1  0.700580  0.135110  0.864890  1.0  -0.0775
  C  C411  1  0.799420  0.864890  0.364890  1.0  -0.0779
  C  C412  1  0.299420  0.864890  0.864890  1.0  -0.0779
  C  C413  1  0.200580  0.864890  0.635110  1.0  -0.0779
  C  C414  1  0.700580  0.864890  0.135110  1.0  -0.0779
  C  C415  1  0.799420  0.635110  0.864890  1.0  -0.0777
  C  C416  1  0.299420  0.635110  0.364890  1.0  -0.0777
  C  C417  1  0.200580  0.364890  0.864890  1.0  -0.0774
  C  C418  1  0.299420  0.364890  0.635110  1.0  -0.078
  C  C419  1  0.200580  0.635110  0.135110  1.0  -0.0786
  C  C420  1  0.700580  0.635110  0.635110  1.0  -0.0786
  C  C421  1  0.635110  0.135110  0.200580  1.0  -0.0798
  C  C422  1  0.635110  0.635110  0.700580  1.0  -0.0798
  C  C423  1  0.364890  0.635110  0.299420  1.0  -0.0795
  C  C424  1  0.364890  0.864890  0.200580  1.0  -0.0792
  C  C425  1  0.635110  0.864890  0.799420  1.0  -0.079
  C  C426  1  0.635110  0.364890  0.299420  1.0  -0.079
  C  C427  1  0.135110  0.299420  0.864890  1.0  -0.0789
  C  C428  1  0.135110  0.200580  0.635110  1.0  -0.0798
  C  C429  1  0.864890  0.799420  0.635110  1.0  -0.0792
  C  C430  1  0.864890  0.299420  0.135110  1.0  -0.0792
  C  C431  1  0.864890  0.200580  0.364890  1.0  -0.0794
  C  C432  1  0.864890  0.700580  0.864890  1.0  -0.0794
  O  O433  1  0.317040  0.243770  0.947380  1.0  -0.545
  O  O434  1  0.317040  0.743770  0.447380  1.0  -0.545
  O  O435  1  0.817040  0.243770  0.447380  1.0  -0.545
  O  O436  1  0.817040  0.743770  0.947380  1.0  -0.545
  O  O437  1  0.682960  0.756230  0.947380  1.0  -0.5442
  O  O438  1  0.682960  0.256230  0.447380  1.0  -0.5442
  O  O439  1  0.182960  0.756230  0.447380  1.0  -0.5442
  O  O440  1  0.182960  0.256230  0.947380  1.0  -0.5442
  O  O441  1  0.682960  0.243770  0.052620  1.0  -0.5452
  O  O442  1  0.682960  0.743770  0.552620  1.0  -0.545
  O  O443  1  0.182960  0.243770  0.552620  1.0  -0.5452
  O  O444  1  0.182960  0.743770  0.052620  1.0  -0.5452
  O  O445  1  0.317040  0.756230  0.052620  1.0  -0.5452
  O  O446  1  0.317040  0.256230  0.552620  1.0  -0.5452
  O  O447  1  0.817040  0.756230  0.552620  1.0  -0.5452
  O  O448  1  0.817040  0.256230  0.052620  1.0  -0.5452
  O  O449  1  0.947380  0.317040  0.243770  1.0  -0.5457
  O  O450  1  0.947380  0.817040  0.743770  1.0  -0.5457
  O  O451  1  0.447380  0.317040  0.743770  1.0  -0.5457
  O  O452  1  0.447380  0.817040  0.243770  1.0  -0.5457
  O  O453  1  0.947380  0.682960  0.756230  1.0  -0.5446
  O  O454  1  0.947380  0.182960  0.256230  1.0  -0.5446
  O  O455  1  0.447380  0.682960  0.256230  1.0  -0.5446
  O  O456  1  0.447380  0.182960  0.756230  1.0  -0.5446
  O  O457  1  0.052620  0.682960  0.243770  1.0  -0.5457
  O  O458  1  0.052620  0.182960  0.743770  1.0  -0.5457
  O  O459  1  0.552620  0.682960  0.743770  1.0  -0.5458
  O  O460  1  0.552620  0.182960  0.243770  1.0  -0.5457
  O  O461  1  0.052620  0.317040  0.756230  1.0  -0.5448
  O  O462  1  0.052620  0.817040  0.256230  1.0  -0.5448
  O  O463  1  0.552620  0.317040  0.256230  1.0  -0.545
  O  O464  1  0.552620  0.817040  0.756230  1.0  -0.5448
  O  O465  1  0.243770  0.947380  0.317040  1.0  -0.5443
  O  O466  1  0.243770  0.447380  0.817040  1.0  -0.5444
  O  O467  1  0.743770  0.947380  0.817040  1.0  -0.5443
  O  O468  1  0.743770  0.447380  0.317040  1.0  -0.5443
  O  O469  1  0.756230  0.947380  0.682960  1.0  -0.545
  O  O470  1  0.756230  0.447380  0.182960  1.0  -0.545
  O  O471  1  0.256230  0.947380  0.182960  1.0  -0.545
  O  O472  1  0.256230  0.447380  0.682960  1.0  -0.5452
  O  O473  1  0.243770  0.052620  0.682960  1.0  -0.5457
  O  O474  1  0.243770  0.552620  0.182960  1.0  -0.546
  O  O475  1  0.743770  0.052620  0.182960  1.0  -0.5457
  O  O476  1  0.743770  0.552620  0.682960  1.0  -0.5457
  O  O477  1  0.756230  0.052620  0.317040  1.0  -0.5445
  O  O478  1  0.756230  0.552620  0.817040  1.0  -0.5445
  O  O479  1  0.256230  0.052620  0.817040  1.0  -0.5444
  O  O480  1  0.256230  0.552620  0.317040  1.0  -0.5447
  O  O481  1  0.243770  0.317040  0.052620  1.0  -0.5461
  O  O482  1  0.243770  0.817040  0.552620  1.0  -0.5461
  O  O483  1  0.743770  0.317040  0.552620  1.0  -0.5461
  O  O484  1  0.743770  0.817040  0.052620  1.0  -0.5461
  O  O485  1  0.756230  0.682960  0.052620  1.0  -0.5459
  O  O486  1  0.756230  0.182960  0.552620  1.0  -0.5462
  O  O487  1  0.256230  0.682960  0.552620  1.0  -0.5461
  O  O488  1  0.256230  0.182960  0.052620  1.0  -0.5461
  O  O489  1  0.243770  0.682960  0.947380  1.0  -0.5456
  O  O490  1  0.243770  0.182960  0.447380  1.0  -0.5456
  O  O491  1  0.743770  0.682960  0.447380  1.0  -0.5456
  O  O492  1  0.743770  0.182960  0.947380  1.0  -0.5456
  O  O493  1  0.756230  0.317040  0.947380  1.0  -0.5458
  O  O494  1  0.756230  0.817040  0.447380  1.0  -0.5458
  O  O495  1  0.256230  0.317040  0.447380  1.0  -0.5459
  O  O496  1  0.256230  0.817040  0.947380  1.0  -0.5458
  O  O497  1  0.317040  0.947380  0.756230  1.0  -0.5433
  O  O498  1  0.317040  0.447380  0.256230  1.0  -0.5433
  O  O499  1  0.817040  0.947380  0.256230  1.0  -0.5433
  O  O500  1  0.817040  0.447380  0.756230  1.0  -0.5433
  O  O501  1  0.682960  0.947380  0.243770  1.0  -0.5443
  O  O502  1  0.682960  0.447380  0.743770  1.0  -0.5443
  O  O503  1  0.182960  0.947380  0.743770  1.0  -0.5443
  O  O504  1  0.182960  0.447380  0.243770  1.0  -0.5443
  O  O505  1  0.682960  0.052620  0.756230  1.0  -0.5434
  O  O506  1  0.682960  0.552620  0.256230  1.0  -0.5434
  O  O507  1  0.182960  0.052620  0.256230  1.0  -0.5434
  O  O508  1  0.182960  0.552620  0.756230  1.0  -0.5434
  O  O509  1  0.317040  0.052620  0.243770  1.0  -0.545
  O  O510  1  0.317040  0.552620  0.743770  1.0  -0.545
  O  O511  1  0.817040  0.052620  0.743770  1.0  -0.545
  O  O512  1  0.817040  0.552620  0.243770  1.0  -0.545
  O  O513  1  0.947380  0.243770  0.682960  1.0  -0.5464
  O  O514  1  0.947380  0.743770  0.182960  1.0  -0.5464
  O  O515  1  0.447380  0.243770  0.182960  1.0  -0.5463
  O  O516  1  0.447380  0.743770  0.682960  1.0  -0.5464
  O  O517  1  0.947380  0.756230  0.317040  1.0  -0.5455
  O  O518  1  0.947380  0.256230  0.817040  1.0  -0.5455
  O  O519  1  0.447380  0.756230  0.817040  1.0  -0.5455
  O  O520  1  0.447380  0.256230  0.317040  1.0  -0.5456
  O  O521  1  0.052620  0.243770  0.317040  1.0  -0.5452
  O  O522  1  0.052620  0.743770  0.817040  1.0  -0.5452
  O  O523  1  0.552620  0.243770  0.817040  1.0  -0.5452
  O  O524  1  0.552620  0.743770  0.317040  1.0  -0.5452
  O  O525  1  0.052620  0.756230  0.682960  1.0  -0.5461
  O  O526  1  0.052620  0.256230  0.182960  1.0  -0.5463
  O  O527  1  0.552620  0.756230  0.182960  1.0  -0.5463
  O  O528  1  0.552620  0.256230  0.682960  1.0  -0.5463
  O  O529  1  0.682960  0.756230  0.052620  1.0  -0.5446
  O  O530  1  0.682960  0.256230  0.552620  1.0  -0.5443
  O  O531  1  0.182960  0.756230  0.552620  1.0  -0.5443
  O  O532  1  0.182960  0.256230  0.052620  1.0  -0.5446
  O  O533  1  0.317040  0.243770  0.052620  1.0  -0.5452
  O  O534  1  0.317040  0.743770  0.552620  1.0  -0.5452
  O  O535  1  0.817040  0.243770  0.552620  1.0  -0.5451
  O  O536  1  0.817040  0.743770  0.052620  1.0  -0.5452
  O  O537  1  0.317040  0.756230  0.947380  1.0  -0.5451
  O  O538  1  0.317040  0.256230  0.447380  1.0  -0.5452
  O  O539  1  0.817040  0.756230  0.447380  1.0  -0.5451
  O  O540  1  0.817040  0.256230  0.947380  1.0  -0.545
  O  O541  1  0.682960  0.243770  0.947380  1.0  -0.545
  O  O542  1  0.682960  0.743770  0.447380  1.0  -0.545
  O  O543  1  0.182960  0.243770  0.447380  1.0  -0.545
  O  O544  1  0.182960  0.743770  0.947380  1.0  -0.545
  O  O545  1  0.052620  0.682960  0.756230  1.0  -0.5443
  O  O546  1  0.052620  0.182960  0.256230  1.0  -0.5443
  O  O547  1  0.552620  0.682960  0.256230  1.0  -0.5443
  O  O548  1  0.552620  0.182960  0.756230  1.0  -0.5443
  O  O549  1  0.052620  0.317040  0.243770  1.0  -0.5461
  O  O550  1  0.052620  0.817040  0.743770  1.0  -0.546
  O  O551  1  0.552620  0.317040  0.743770  1.0  -0.546
  O  O552  1  0.552620  0.817040  0.243770  1.0  -0.5458
  O  O553  1  0.947380  0.317040  0.756230  1.0  -0.5452
  O  O554  1  0.947380  0.817040  0.256230  1.0  -0.545
  O  O555  1  0.447380  0.317040  0.256230  1.0  -0.5453
  O  O556  1  0.447380  0.817040  0.756230  1.0  -0.5452
  O  O557  1  0.947380  0.682960  0.243770  1.0  -0.5459
  O  O558  1  0.947380  0.182960  0.743770  1.0  -0.5459
  O  O559  1  0.447380  0.682960  0.743770  1.0  -0.5459
  O  O560  1  0.447380  0.182960  0.243770  1.0  -0.5459
  O  O561  1  0.756230  0.052620  0.682960  1.0  -0.5452
  O  O562  1  0.756230  0.552620  0.182960  1.0  -0.5452
  O  O563  1  0.256230  0.052620  0.182960  1.0  -0.5453
  O  O564  1  0.256230  0.552620  0.682960  1.0  -0.5455
  O  O565  1  0.243770  0.052620  0.317040  1.0  -0.5445
  O  O566  1  0.243770  0.552620  0.817040  1.0  -0.5447
  O  O567  1  0.743770  0.052620  0.817040  1.0  -0.5445
  O  O568  1  0.743770  0.552620  0.317040  1.0  -0.5445
  O  O569  1  0.756230  0.947380  0.317040  1.0  -0.5443
  O  O570  1  0.756230  0.447380  0.817040  1.0  -0.5443
  O  O571  1  0.256230  0.947380  0.817040  1.0  -0.5443
  O  O572  1  0.256230  0.447380  0.317040  1.0  -0.5445
  O  O573  1  0.243770  0.947380  0.682960  1.0  -0.5454
  O  O574  1  0.243770  0.447380  0.182960  1.0  -0.5457
  O  O575  1  0.743770  0.947380  0.182960  1.0  -0.5455
  O  O576  1  0.743770  0.447380  0.682960  1.0  -0.5455
  O  O577  1  0.756230  0.682960  0.947380  1.0  -0.5459
  O  O578  1  0.756230  0.182960  0.447380  1.0  -0.5459
  O  O579  1  0.256230  0.682960  0.447380  1.0  -0.5459
  O  O580  1  0.256230  0.182960  0.947380  1.0  -0.5459
  O  O581  1  0.243770  0.317040  0.947380  1.0  -0.546
  O  O582  1  0.243770  0.817040  0.447380  1.0  -0.5459
  O  O583  1  0.743770  0.317040  0.447380  1.0  -0.546
  O  O584  1  0.743770  0.817040  0.947380  1.0  -0.546
  O  O585  1  0.756230  0.317040  0.052620  1.0  -0.546
  O  O586  1  0.756230  0.817040  0.552620  1.0  -0.546
  O  O587  1  0.256230  0.317040  0.552620  1.0  -0.546
  O  O588  1  0.256230  0.817040  0.052620  1.0  -0.5459
  O  O589  1  0.243770  0.682960  0.052620  1.0  -0.5458
  O  O590  1  0.243770  0.182960  0.552620  1.0  -0.5458
  O  O591  1  0.743770  0.682960  0.552620  1.0  -0.5457
  O  O592  1  0.743770  0.182960  0.052620  1.0  -0.5458
  O  O593  1  0.682960  0.052620  0.243770  1.0  -0.5444
  O  O594  1  0.682960  0.552620  0.743770  1.0  -0.5444
  O  O595  1  0.182960  0.052620  0.743770  1.0  -0.5444
  O  O596  1  0.182960  0.552620  0.243770  1.0  -0.5444
  O  O597  1  0.317040  0.052620  0.756230  1.0  -0.5437
  O  O598  1  0.317040  0.552620  0.256230  1.0  -0.5436
  O  O599  1  0.817040  0.052620  0.256230  1.0  -0.5436
  O  O600  1  0.817040  0.552620  0.756230  1.0  -0.5437
  O  O601  1  0.317040  0.947380  0.243770  1.0  -0.5446
  O  O602  1  0.317040  0.447380  0.743770  1.0  -0.5446
  O  O603  1  0.817040  0.947380  0.743770  1.0  -0.5446
  O  O604  1  0.817040  0.447380  0.243770  1.0  -0.5446
  O  O605  1  0.682960  0.947380  0.756230  1.0  -0.5433
  O  O606  1  0.682960  0.447380  0.256230  1.0  -0.5433
  O  O607  1  0.182960  0.947380  0.256230  1.0  -0.5433
  O  O608  1  0.182960  0.447380  0.756230  1.0  -0.5433
  O  O609  1  0.052620  0.756230  0.317040  1.0  -0.5453
  O  O610  1  0.052620  0.256230  0.817040  1.0  -0.5455
  O  O611  1  0.552620  0.756230  0.817040  1.0  -0.5455
  O  O612  1  0.552620  0.256230  0.317040  1.0  -0.5455
  O  O613  1  0.052620  0.243770  0.682960  1.0  -0.5461
  O  O614  1  0.052620  0.743770  0.182960  1.0  -0.5461
  O  O615  1  0.552620  0.243770  0.182960  1.0  -0.5461
  O  O616  1  0.552620  0.743770  0.682960  1.0  -0.5461
  O  O617  1  0.947380  0.756230  0.682960  1.0  -0.5467
  O  O618  1  0.947380  0.256230  0.182960  1.0  -0.5467
  O  O619  1  0.447380  0.756230  0.182960  1.0  -0.5467
  O  O620  1  0.447380  0.256230  0.682960  1.0  -0.5467
  O  O621  1  0.947380  0.243770  0.317040  1.0  -0.5451
  O  O622  1  0.947380  0.743770  0.817040  1.0  -0.5451
  O  O623  1  0.447380  0.243770  0.817040  1.0  -0.545
  O  O624  1  0.447380  0.743770  0.317040  1.0  -0.5451
