# generated using pymatgen
data_CuH2(C3O2)2
_symmetry_space_group_name_H-M   'P 1'
_cell_length_a   26.33860000
_cell_length_b   26.33860000
_cell_length_c   26.33860000
_cell_angle_alpha   90.00000000
_cell_angle_beta   90.00000000
_cell_angle_gamma   90.00000000
_symmetry_Int_Tables_number   1
_chemical_formula_structural   CuH2(C3O2)2
_chemical_formula_sum   'Cu48 H96 C288 O192'
_cell_volume   18271.66231736
_cell_formula_units_Z   48
loop_
 _symmetry_equiv_pos_site_id
 _symmetry_equiv_pos_as_xyz
  1  'x, y, z'
loop_
 _atom_site_type_symbol
 _atom_site_label
 _atom_site_symmetry_multiplicity
 _atom_site_fract_x
 _atom_site_fract_y
 _atom_site_fract_z
 _atom_site_occupancy
 _atom_site_charge
  Cu  Cu1  1  0.284520  0.284520  0.000000  1.0  0.9111
  Cu  Cu2  1  0.284520  0.784520  0.500000  1.0  0.9111
  Cu  Cu3  1  0.784520  0.284520  0.500000  1.0  0.9111
  Cu  Cu4  1  0.784520  0.784520  0.000000  1.0  0.9111
  Cu  Cu5  1  0.715480  0.715480  0.000000  1.0  0.9104
  Cu  Cu6  1  0.715480  0.215480  0.500000  1.0  0.9104
  Cu  Cu7  1  0.215480  0.715480  0.500000  1.0  0.9104
  Cu  Cu8  1  0.215480  0.215480  0.000000  1.0  0.9104
  Cu  Cu9  1  0.715480  0.284520  0.000000  1.0  0.9109
  Cu  Cu10  1  0.715480  0.784520  0.500000  1.0  0.9109
  Cu  Cu11  1  0.215480  0.284520  0.500000  1.0  0.9109
  Cu  Cu12  1  0.215480  0.784520  0.000000  1.0  0.9109
  Cu  Cu13  1  0.284520  0.715480  0.000000  1.0  0.9096
  Cu  Cu14  1  0.284520  0.215480  0.500000  1.0  0.9096
  Cu  Cu15  1  0.784520  0.715480  0.500000  1.0  0.9096
  Cu  Cu16  1  0.784520  0.215480  0.000000  1.0  0.9096
  Cu  Cu17  1  0.000000  0.284520  0.284520  1.0  0.9088
  Cu  Cu18  1  0.000000  0.784520  0.784520  1.0  0.9088
  Cu  Cu19  1  0.500000  0.284520  0.784520  1.0  0.9088
  Cu  Cu20  1  0.500000  0.784520  0.284520  1.0  0.9088
  Cu  Cu21  1  0.000000  0.715480  0.715480  1.0  0.9083
  Cu  Cu22  1  0.000000  0.215480  0.215480  1.0  0.9083
  Cu  Cu23  1  0.500000  0.715480  0.215480  1.0  0.9083
  Cu  Cu24  1  0.500000  0.215480  0.715480  1.0  0.9083
  Cu  Cu25  1  0.000000  0.715480  0.284520  1.0  0.908
  Cu  Cu26  1  0.000000  0.215480  0.784520  1.0  0.908
  Cu  Cu27  1  0.500000  0.715480  0.784520  1.0  0.908
  Cu  Cu28  1  0.500000  0.215480  0.284520  1.0  0.908
  Cu  Cu29  1  0.000000  0.284520  0.715480  1.0  0.9087
  Cu  Cu30  1  0.000000  0.784520  0.215480  1.0  0.9087
  Cu  Cu31  1  0.500000  0.284520  0.215480  1.0  0.9087
  Cu  Cu32  1  0.500000  0.784520  0.715480  1.0  0.9087
  Cu  Cu33  1  0.284520  0.000000  0.284520  1.0  0.9088
  Cu  Cu34  1  0.284520  0.500000  0.784520  1.0  0.9088
  Cu  Cu35  1  0.784520  0.000000  0.784520  1.0  0.9088
  Cu  Cu36  1  0.784520  0.500000  0.284520  1.0  0.9088
  Cu  Cu37  1  0.715480  0.000000  0.715480  1.0  0.9097
  Cu  Cu38  1  0.715480  0.500000  0.215480  1.0  0.9097
  Cu  Cu39  1  0.215480  0.000000  0.215480  1.0  0.9097
  Cu  Cu40  1  0.215480  0.500000  0.715480  1.0  0.9097
  Cu  Cu41  1  0.284520  0.000000  0.715480  1.0  0.9087
  Cu  Cu42  1  0.284520  0.500000  0.215480  1.0  0.9087
  Cu  Cu43  1  0.784520  0.000000  0.215480  1.0  0.9087
  Cu  Cu44  1  0.784520  0.500000  0.715480  1.0  0.9087
  Cu  Cu45  1  0.715480  0.000000  0.284520  1.0  0.9092
  Cu  Cu46  1  0.715480  0.500000  0.784520  1.0  0.9092
  Cu  Cu47  1  0.215480  0.000000  0.784520  1.0  0.9092
  Cu  Cu48  1  0.215480  0.500000  0.284520  1.0  0.9092
  H  H49  1  0.381030  0.235400  0.881030  1.0  0.1299
  H  H50  1  0.381030  0.735400  0.381030  1.0  0.1299
  H  H51  1  0.618970  0.764600  0.881030  1.0  0.1293
  H  H52  1  0.618970  0.264600  0.381030  1.0  0.1293
  H  H53  1  0.118970  0.764600  0.381030  1.0  0.1293
  H  H54  1  0.618970  0.235400  0.118970  1.0  0.1296
  H  H55  1  0.618970  0.735400  0.618970  1.0  0.1296
  H  H56  1  0.118970  0.735400  0.118970  1.0  0.1296
  H  H57  1  0.381030  0.764600  0.118970  1.0  0.1285
  H  H58  1  0.381030  0.264600  0.618970  1.0  0.1285
  H  H59  1  0.881030  0.381030  0.235400  1.0  0.1296
  H  H60  1  0.881030  0.881030  0.735400  1.0  0.1296
  H  H61  1  0.381030  0.381030  0.735400  1.0  0.1296
  H  H62  1  0.881030  0.618970  0.764600  1.0  0.1289
  H  H63  1  0.881030  0.118970  0.264600  1.0  0.1289
  H  H64  1  0.381030  0.118970  0.764600  1.0  0.1289
  H  H65  1  0.118970  0.618970  0.235400  1.0  0.1295
  H  H66  1  0.118970  0.118970  0.735400  1.0  0.1295
  H  H67  1  0.118970  0.381030  0.764600  1.0  0.129
  H  H68  1  0.118970  0.881030  0.264600  1.0  0.129
  H  H69  1  0.235400  0.881030  0.381030  1.0  0.129
  H  H70  1  0.735400  0.881030  0.881030  1.0  0.129
  H  H71  1  0.735400  0.381030  0.381030  1.0  0.129
  H  H72  1  0.764600  0.881030  0.618970  1.0  0.1288
  H  H73  1  0.764600  0.381030  0.118970  1.0  0.1288
  H  H74  1  0.264600  0.881030  0.118970  1.0  0.1288
  H  H75  1  0.235400  0.118970  0.618970  1.0  0.129
  H  H76  1  0.735400  0.118970  0.118970  1.0  0.129
  H  H77  1  0.764600  0.118970  0.381030  1.0  0.129
  H  H78  1  0.264600  0.118970  0.881030  1.0  0.129
  H  H79  1  0.235400  0.381030  0.118970  1.0  0.1288
  H  H80  1  0.735400  0.381030  0.618970  1.0  0.1288
  H  H81  1  0.764600  0.618970  0.118970  1.0  0.1293
  H  H82  1  0.264600  0.618970  0.618970  1.0  0.1293
  H  H83  1  0.264600  0.118970  0.118970  1.0  0.1293
  H  H84  1  0.235400  0.618970  0.881030  1.0  0.1288
  H  H85  1  0.235400  0.118970  0.381030  1.0  0.1288
  H  H86  1  0.735400  0.618970  0.381030  1.0  0.1288
  H  H87  1  0.764600  0.381030  0.881030  1.0  0.1288
  H  H88  1  0.264600  0.381030  0.381030  1.0  0.1288
  H  H89  1  0.381030  0.881030  0.764600  1.0  0.1284
  H  H90  1  0.381030  0.381030  0.264600  1.0  0.1284
  H  H91  1  0.618970  0.881030  0.235400  1.0  0.1295
  H  H92  1  0.618970  0.381030  0.735400  1.0  0.1295
  H  H93  1  0.118970  0.381030  0.235400  1.0  0.1295
  H  H94  1  0.618970  0.118970  0.764600  1.0  0.1293
  H  H95  1  0.618970  0.618970  0.264600  1.0  0.1293
  H  H96  1  0.118970  0.118970  0.264600  1.0  0.1293
  H  H97  1  0.381030  0.118970  0.235400  1.0  0.1295
  H  H98  1  0.381030  0.618970  0.735400  1.0  0.1295
  H  H99  1  0.881030  0.235400  0.618970  1.0  0.1293
  H  H100  1  0.881030  0.735400  0.118970  1.0  0.1293
  H  H101  1  0.381030  0.235400  0.118970  1.0  0.1293
  H  H102  1  0.881030  0.764600  0.381030  1.0  0.1286
  H  H103  1  0.881030  0.264600  0.881030  1.0  0.1286
  H  H104  1  0.381030  0.264600  0.381030  1.0  0.1286
  H  H105  1  0.118970  0.235400  0.381030  1.0  0.1298
  H  H106  1  0.118970  0.735400  0.881030  1.0  0.1298
  H  H107  1  0.118970  0.764600  0.618970  1.0  0.1291
  H  H108  1  0.118970  0.264600  0.118970  1.0  0.1291
  H  H109  1  0.618970  0.764600  0.118970  1.0  0.1291
  H  H110  1  0.618970  0.264600  0.618970  1.0  0.1291
  H  H111  1  0.381030  0.735400  0.618970  1.0  0.1293
  H  H112  1  0.381030  0.764600  0.881030  1.0  0.1286
  H  H113  1  0.618970  0.235400  0.881030  1.0  0.1298
  H  H114  1  0.618970  0.735400  0.381030  1.0  0.1298
  H  H115  1  0.118970  0.618970  0.764600  1.0  0.1293
  H  H116  1  0.118970  0.881030  0.735400  1.0  0.1295
  H  H117  1  0.881030  0.381030  0.764600  1.0  0.1284
  H  H118  1  0.881030  0.881030  0.264600  1.0  0.1284
  H  H119  1  0.881030  0.618970  0.235400  1.0  0.1295
  H  H120  1  0.881030  0.118970  0.735400  1.0  0.1295
  H  H121  1  0.764600  0.118970  0.618970  1.0  0.1293
  H  H122  1  0.735400  0.118970  0.881030  1.0  0.1288
  H  H123  1  0.764600  0.881030  0.381030  1.0  0.1288
  H  H124  1  0.264600  0.881030  0.881030  1.0  0.1288
  H  H125  1  0.235400  0.881030  0.618970  1.0  0.1288
  H  H126  1  0.735400  0.881030  0.118970  1.0  0.1288
  H  H127  1  0.764600  0.618970  0.881030  1.0  0.129
  H  H128  1  0.264600  0.618970  0.381030  1.0  0.129
  H  H129  1  0.235400  0.381030  0.881030  1.0  0.129
  H  H130  1  0.264600  0.381030  0.618970  1.0  0.1288
  H  H131  1  0.235400  0.618970  0.118970  1.0  0.129
  H  H132  1  0.735400  0.618970  0.618970  1.0  0.129
  H  H133  1  0.618970  0.118970  0.235400  1.0  0.1295
  H  H134  1  0.618970  0.618970  0.735400  1.0  0.1295
  H  H135  1  0.381030  0.618970  0.264600  1.0  0.1289
  H  H136  1  0.381030  0.881030  0.235400  1.0  0.1296
  H  H137  1  0.618970  0.881030  0.764600  1.0  0.129
  H  H138  1  0.618970  0.381030  0.264600  1.0  0.129
  H  H139  1  0.118970  0.264600  0.881030  1.0  0.1293
  H  H140  1  0.118970  0.235400  0.618970  1.0  0.1296
  H  H141  1  0.881030  0.764600  0.618970  1.0  0.1285
  H  H142  1  0.881030  0.264600  0.118970  1.0  0.1285
  H  H143  1  0.881030  0.235400  0.381030  1.0  0.1299
  H  H144  1  0.881030  0.735400  0.881030  1.0  0.1299
  C  C145  1  0.321580  0.178420  0.886460  1.0  -0.103
  C  C146  1  0.297290  0.202710  0.930760  1.0  0.6779
  C  C147  1  0.321580  0.678420  0.386460  1.0  -0.103
  C  C148  1  0.297290  0.702710  0.430760  1.0  0.6779
  C  C149  1  0.678420  0.821580  0.886460  1.0  -0.103
  C  C150  1  0.702710  0.797290  0.930760  1.0  0.6777
  C  C151  1  0.678420  0.321580  0.386460  1.0  -0.103
  C  C152  1  0.702710  0.297290  0.430760  1.0  0.6777
  C  C153  1  0.178420  0.321580  0.886460  1.0  -0.103
  C  C154  1  0.202710  0.297290  0.930760  1.0  0.6777
  C  C155  1  0.678420  0.178420  0.113540  1.0  -0.1023
  C  C156  1  0.702710  0.202710  0.069240  1.0  0.6777
  C  C157  1  0.678420  0.678420  0.613540  1.0  -0.1023
  C  C158  1  0.702710  0.702710  0.569240  1.0  0.6777
  C  C159  1  0.178420  0.178420  0.613540  1.0  -0.1023
  C  C160  1  0.202710  0.202710  0.569240  1.0  0.6777
  C  C161  1  0.321580  0.821580  0.113540  1.0  -0.1029
  C  C162  1  0.297290  0.797290  0.069240  1.0  0.6779
  C  C163  1  0.321580  0.321580  0.613540  1.0  -0.1029
  C  C164  1  0.297290  0.297290  0.569240  1.0  0.6779
  C  C165  1  0.886460  0.321580  0.178420  1.0  -0.1028
  C  C166  1  0.930760  0.297290  0.202710  1.0  0.6772
  C  C167  1  0.386460  0.321580  0.678420  1.0  -0.1028
  C  C168  1  0.430760  0.297290  0.702710  1.0  0.6772
  C  C169  1  0.886460  0.678420  0.821580  1.0  -0.1026
  C  C170  1  0.930760  0.702710  0.797290  1.0  0.6767
  C  C171  1  0.886460  0.178420  0.321580  1.0  -0.1026
  C  C172  1  0.930760  0.202710  0.297290  1.0  0.6767
  C  C173  1  0.386460  0.678420  0.321580  1.0  -0.1026
  C  C174  1  0.430760  0.702710  0.297290  1.0  0.6767
  C  C175  1  0.113540  0.678420  0.178420  1.0  -0.1032
  C  C176  1  0.069240  0.702710  0.202710  1.0  0.6772
  C  C177  1  0.613540  0.678420  0.678420  1.0  -0.1032
  C  C178  1  0.569240  0.702710  0.702710  1.0  0.6772
  C  C179  1  0.613540  0.178420  0.178420  1.0  -0.1032
  C  C180  1  0.569240  0.202710  0.202710  1.0  0.6772
  C  C181  1  0.113540  0.321580  0.821580  1.0  -0.1034
  C  C182  1  0.069240  0.297290  0.797290  1.0  0.6766
  C  C183  1  0.613540  0.321580  0.321580  1.0  -0.1034
  C  C184  1  0.569240  0.297290  0.297290  1.0  0.6766
  C  C185  1  0.178420  0.886460  0.321580  1.0  -0.1016
  C  C186  1  0.202710  0.930760  0.297290  1.0  0.6763
  C  C187  1  0.178420  0.386460  0.821580  1.0  -0.1016
  C  C188  1  0.202710  0.430760  0.797290  1.0  0.6763
  C  C189  1  0.821580  0.886460  0.678420  1.0  -0.102
  C  C190  1  0.797290  0.930760  0.702710  1.0  0.6768
  C  C191  1  0.821580  0.386460  0.178420  1.0  -0.102
  C  C192  1  0.797290  0.430760  0.202710  1.0  0.6768
  C  C193  1  0.321580  0.886460  0.178420  1.0  -0.102
  C  C194  1  0.297290  0.930760  0.202710  1.0  0.6768
  C  C195  1  0.178420  0.113540  0.678420  1.0  -0.101
  C  C196  1  0.202710  0.069240  0.702710  1.0  0.6765
  C  C197  1  0.178420  0.613540  0.178420  1.0  -0.101
  C  C198  1  0.202710  0.569240  0.202710  1.0  0.6765
  C  C199  1  0.821580  0.113540  0.321580  1.0  -0.1015
  C  C200  1  0.797290  0.069240  0.297290  1.0  0.6762
  C  C201  1  0.821580  0.613540  0.821580  1.0  -0.1015
  C  C202  1  0.797290  0.569240  0.797290  1.0  0.6762
  C  C203  1  0.321580  0.613540  0.321580  1.0  -0.1015
  C  C204  1  0.297290  0.569240  0.297290  1.0  0.6762
  C  C205  1  0.178420  0.321580  0.113540  1.0  -0.1026
  C  C206  1  0.202710  0.297290  0.069240  1.0  0.6777
  C  C207  1  0.178420  0.821580  0.613540  1.0  -0.1026
  C  C208  1  0.202710  0.797290  0.569240  1.0  0.6777
  C  C209  1  0.821580  0.678420  0.113540  1.0  -0.1026
  C  C210  1  0.797290  0.702710  0.069240  1.0  0.678
  C  C211  1  0.821580  0.178420  0.613540  1.0  -0.1026
  C  C212  1  0.797290  0.202710  0.569240  1.0  0.678
  C  C213  1  0.321580  0.178420  0.113540  1.0  -0.1026
  C  C214  1  0.297290  0.202710  0.069240  1.0  0.678
  C  C215  1  0.178420  0.678420  0.886460  1.0  -0.1027
  C  C216  1  0.202710  0.702710  0.930760  1.0  0.6776
  C  C217  1  0.178420  0.178420  0.386460  1.0  -0.1027
  C  C218  1  0.202710  0.202710  0.430760  1.0  0.6776
  C  C219  1  0.821580  0.321580  0.886460  1.0  -0.1032
  C  C220  1  0.797290  0.297290  0.930760  1.0  0.6779
  C  C221  1  0.821580  0.821580  0.386460  1.0  -0.1032
  C  C222  1  0.797290  0.797290  0.430760  1.0  0.6779
  C  C223  1  0.321580  0.321580  0.386460  1.0  -0.1032
  C  C224  1  0.297290  0.297290  0.430760  1.0  0.6779
  C  C225  1  0.321580  0.886460  0.821580  1.0  -0.1019
  C  C226  1  0.297290  0.930760  0.797290  1.0  0.6764
  C  C227  1  0.321580  0.386460  0.321580  1.0  -0.1019
  C  C228  1  0.297290  0.430760  0.297290  1.0  0.6764
  C  C229  1  0.678420  0.886460  0.178420  1.0  -0.1017
  C  C230  1  0.702710  0.930760  0.202710  1.0  0.6766
  C  C231  1  0.678420  0.386460  0.678420  1.0  -0.1017
  C  C232  1  0.702710  0.430760  0.702710  1.0  0.6766
  C  C233  1  0.178420  0.386460  0.178420  1.0  -0.1017
  C  C234  1  0.202710  0.430760  0.202710  1.0  0.6766
  C  C235  1  0.678420  0.113540  0.821580  1.0  -0.1012
  C  C236  1  0.702710  0.069240  0.797290  1.0  0.6762
  C  C237  1  0.678420  0.613540  0.321580  1.0  -0.1012
  C  C238  1  0.702710  0.569240  0.297290  1.0  0.6762
  C  C239  1  0.178420  0.113540  0.321580  1.0  -0.1012
  C  C240  1  0.202710  0.069240  0.297290  1.0  0.6762
  C  C241  1  0.321580  0.113540  0.178420  1.0  -0.1013
  C  C242  1  0.297290  0.069240  0.202710  1.0  0.6766
  C  C243  1  0.321580  0.613540  0.678420  1.0  -0.1013
  C  C244  1  0.297290  0.569240  0.702710  1.0  0.6766
  C  C245  1  0.886460  0.178420  0.678420  1.0  -0.1027
  C  C246  1  0.930760  0.202710  0.702710  1.0  0.6771
  C  C247  1  0.386460  0.178420  0.178420  1.0  -0.1027
  C  C248  1  0.430760  0.202710  0.202710  1.0  0.6771
  C  C249  1  0.886460  0.821580  0.321580  1.0  -0.1028
  C  C250  1  0.930760  0.797290  0.297290  1.0  0.6768
  C  C251  1  0.386460  0.821580  0.821580  1.0  -0.1028
  C  C252  1  0.430760  0.797290  0.797290  1.0  0.6768
  C  C253  1  0.386460  0.321580  0.321580  1.0  -0.1028
  C  C254  1  0.430760  0.297290  0.297290  1.0  0.6768
  C  C255  1  0.113540  0.178420  0.321580  1.0  -0.1031
  C  C256  1  0.069240  0.202710  0.297290  1.0  0.6766
  C  C257  1  0.613540  0.178420  0.821580  1.0  -0.1031
  C  C258  1  0.569240  0.202710  0.797290  1.0  0.6766
  C  C259  1  0.113540  0.821580  0.678420  1.0  -0.1033
  C  C260  1  0.069240  0.797290  0.702710  1.0  0.6772
  C  C261  1  0.113540  0.321580  0.178420  1.0  -0.1033
  C  C262  1  0.069240  0.297290  0.202710  1.0  0.6772
  C  C263  1  0.613540  0.821580  0.178420  1.0  -0.1033
  C  C264  1  0.569240  0.797290  0.202710  1.0  0.6772
  C  C265  1  0.678420  0.821580  0.113540  1.0  -0.1026
  C  C266  1  0.702710  0.797290  0.069240  1.0  0.6777
  C  C267  1  0.678420  0.321580  0.613540  1.0  -0.1026
  C  C268  1  0.702710  0.297290  0.569240  1.0  0.6777
  C  C269  1  0.321580  0.678420  0.613540  1.0  -0.1026
  C  C270  1  0.297290  0.702710  0.569240  1.0  0.678
  C  C271  1  0.321580  0.821580  0.886460  1.0  -0.1032
  C  C272  1  0.297290  0.797290  0.930760  1.0  0.6779
  C  C273  1  0.678420  0.178420  0.886460  1.0  -0.1027
  C  C274  1  0.702710  0.202710  0.930760  1.0  0.6776
  C  C275  1  0.678420  0.678420  0.386460  1.0  -0.1027
  C  C276  1  0.702710  0.702710  0.430760  1.0  0.6776
  C  C277  1  0.113540  0.678420  0.821580  1.0  -0.1031
  C  C278  1  0.069240  0.702710  0.797290  1.0  0.6766
  C  C279  1  0.613540  0.678420  0.321580  1.0  -0.1031
  C  C280  1  0.569240  0.702710  0.297290  1.0  0.6766
  C  C281  1  0.613540  0.321580  0.678420  1.0  -0.1033
  C  C282  1  0.569240  0.297290  0.702710  1.0  0.6772
  C  C283  1  0.886460  0.321580  0.821580  1.0  -0.1028
  C  C284  1  0.930760  0.297290  0.797290  1.0  0.6768
  C  C285  1  0.886460  0.678420  0.178420  1.0  -0.1027
  C  C286  1  0.930760  0.702710  0.202710  1.0  0.6771
  C  C287  1  0.386460  0.678420  0.678420  1.0  -0.1027
  C  C288  1  0.430760  0.702710  0.702710  1.0  0.6771
  C  C289  1  0.821580  0.113540  0.678420  1.0  -0.1013
  C  C290  1  0.797290  0.069240  0.702710  1.0  0.6766
  C  C291  1  0.821580  0.613540  0.178420  1.0  -0.1013
  C  C292  1  0.797290  0.569240  0.202710  1.0  0.6766
  C  C293  1  0.178420  0.613540  0.821580  1.0  -0.1012
  C  C294  1  0.202710  0.569240  0.797290  1.0  0.6762
  C  C295  1  0.821580  0.886460  0.321580  1.0  -0.1019
  C  C296  1  0.797290  0.930760  0.297290  1.0  0.6764
  C  C297  1  0.821580  0.386460  0.821580  1.0  -0.1019
  C  C298  1  0.797290  0.430760  0.797290  1.0  0.6764
  C  C299  1  0.178420  0.886460  0.678420  1.0  -0.1017
  C  C300  1  0.202710  0.930760  0.702710  1.0  0.6766
  C  C301  1  0.821580  0.678420  0.886460  1.0  -0.103
  C  C302  1  0.797290  0.702710  0.930760  1.0  0.6779
  C  C303  1  0.821580  0.178420  0.386460  1.0  -0.103
  C  C304  1  0.797290  0.202710  0.430760  1.0  0.6779
  C  C305  1  0.178420  0.821580  0.386460  1.0  -0.103
  C  C306  1  0.202710  0.797290  0.430760  1.0  0.6777
  C  C307  1  0.821580  0.321580  0.113540  1.0  -0.1029
  C  C308  1  0.797290  0.297290  0.069240  1.0  0.6779
  C  C309  1  0.821580  0.821580  0.613540  1.0  -0.1029
  C  C310  1  0.797290  0.797290  0.569240  1.0  0.6779
  C  C311  1  0.178420  0.678420  0.113540  1.0  -0.1023
  C  C312  1  0.202710  0.702710  0.069240  1.0  0.6777
  C  C313  1  0.678420  0.113540  0.178420  1.0  -0.101
  C  C314  1  0.702710  0.069240  0.202710  1.0  0.6765
  C  C315  1  0.678420  0.613540  0.678420  1.0  -0.101
  C  C316  1  0.702710  0.569240  0.702710  1.0  0.6765
  C  C317  1  0.321580  0.113540  0.821580  1.0  -0.1015
  C  C318  1  0.297290  0.069240  0.797290  1.0  0.6762
  C  C319  1  0.321580  0.386460  0.678420  1.0  -0.102
  C  C320  1  0.297290  0.430760  0.702710  1.0  0.6768
  C  C321  1  0.678420  0.886460  0.821580  1.0  -0.1016
  C  C322  1  0.702710  0.930760  0.797290  1.0  0.6763
  C  C323  1  0.678420  0.386460  0.321580  1.0  -0.1016
  C  C324  1  0.702710  0.430760  0.297290  1.0  0.6763
  C  C325  1  0.113540  0.821580  0.321580  1.0  -0.1034
  C  C326  1  0.069240  0.797290  0.297290  1.0  0.6766
  C  C327  1  0.613540  0.821580  0.821580  1.0  -0.1034
  C  C328  1  0.569240  0.797290  0.797290  1.0  0.6766
  C  C329  1  0.113540  0.178420  0.678420  1.0  -0.1032
  C  C330  1  0.069240  0.202710  0.702710  1.0  0.6772
  C  C331  1  0.886460  0.821580  0.678420  1.0  -0.1028
  C  C332  1  0.930760  0.797290  0.702710  1.0  0.6772
  C  C333  1  0.386460  0.821580  0.178420  1.0  -0.1028
  C  C334  1  0.430760  0.797290  0.202710  1.0  0.6772
  C  C335  1  0.386460  0.178420  0.821580  1.0  -0.1026
  C  C336  1  0.430760  0.202710  0.797290  1.0  0.6767
  C  C337  1  0.364810  0.198930  0.864810  1.0  -0.0476
  C  C338  1  0.364810  0.698930  0.364810  1.0  -0.0476
  C  C339  1  0.635190  0.801070  0.864810  1.0  -0.0456
  C  C340  1  0.635190  0.301070  0.364810  1.0  -0.0456
  C  C341  1  0.135190  0.801070  0.364810  1.0  -0.0456
  C  C342  1  0.635190  0.198930  0.135190  1.0  -0.047
  C  C343  1  0.635190  0.698930  0.635190  1.0  -0.047
  C  C344  1  0.135190  0.698930  0.135190  1.0  -0.047
  C  C345  1  0.364810  0.801070  0.135190  1.0  -0.0459
  C  C346  1  0.364810  0.301070  0.635190  1.0  -0.0459
  C  C347  1  0.864810  0.364810  0.198930  1.0  -0.044
  C  C348  1  0.864810  0.864810  0.698930  1.0  -0.044
  C  C349  1  0.364810  0.364810  0.698930  1.0  -0.044
  C  C350  1  0.864810  0.635190  0.801070  1.0  -0.0446
  C  C351  1  0.864810  0.135190  0.301070  1.0  -0.0446
  C  C352  1  0.364810  0.135190  0.801070  1.0  -0.0446
  C  C353  1  0.135190  0.635190  0.198930  1.0  -0.0434
  C  C354  1  0.135190  0.135190  0.698930  1.0  -0.0434
  C  C355  1  0.135190  0.364810  0.801070  1.0  -0.0444
  C  C356  1  0.135190  0.864810  0.301070  1.0  -0.0444
  C  C357  1  0.198930  0.864810  0.364810  1.0  -0.045
  C  C358  1  0.698930  0.864810  0.864810  1.0  -0.045
  C  C359  1  0.698930  0.364810  0.364810  1.0  -0.045
  C  C360  1  0.801070  0.864810  0.635190  1.0  -0.0447
  C  C361  1  0.801070  0.364810  0.135190  1.0  -0.0447
  C  C362  1  0.301070  0.864810  0.135190  1.0  -0.0447
  C  C363  1  0.198930  0.135190  0.635190  1.0  -0.0453
  C  C364  1  0.698930  0.135190  0.135190  1.0  -0.0453
  C  C365  1  0.801070  0.135190  0.364810  1.0  -0.0444
  C  C366  1  0.301070  0.135190  0.864810  1.0  -0.0444
  C  C367  1  0.198930  0.364810  0.135190  1.0  -0.0447
  C  C368  1  0.698930  0.364810  0.635190  1.0  -0.0447
  C  C369  1  0.801070  0.635190  0.135190  1.0  -0.0448
  C  C370  1  0.301070  0.635190  0.635190  1.0  -0.0448
  C  C371  1  0.301070  0.135190  0.135190  1.0  -0.0448
  C  C372  1  0.198930  0.635190  0.864810  1.0  -0.0446
  C  C373  1  0.198930  0.135190  0.364810  1.0  -0.0446
  C  C374  1  0.698930  0.635190  0.364810  1.0  -0.0446
  C  C375  1  0.801070  0.364810  0.864810  1.0  -0.0453
  C  C376  1  0.301070  0.364810  0.364810  1.0  -0.0453
  C  C377  1  0.364810  0.864810  0.801070  1.0  -0.0442
  C  C378  1  0.364810  0.364810  0.301070  1.0  -0.0442
  C  C379  1  0.635190  0.864810  0.198930  1.0  -0.0443
  C  C380  1  0.635190  0.364810  0.698930  1.0  -0.0443
  C  C381  1  0.135190  0.364810  0.198930  1.0  -0.0443
  C  C382  1  0.635190  0.135190  0.801070  1.0  -0.0446
  C  C383  1  0.635190  0.635190  0.301070  1.0  -0.0446
  C  C384  1  0.135190  0.135190  0.301070  1.0  -0.0446
  C  C385  1  0.364810  0.135190  0.198930  1.0  -0.0434
  C  C386  1  0.364810  0.635190  0.698930  1.0  -0.0434
  C  C387  1  0.864810  0.198930  0.635190  1.0  -0.0469
  C  C388  1  0.864810  0.698930  0.135190  1.0  -0.0469
  C  C389  1  0.364810  0.198930  0.135190  1.0  -0.0469
  C  C390  1  0.864810  0.801070  0.364810  1.0  -0.0454
  C  C391  1  0.864810  0.301070  0.864810  1.0  -0.0454
  C  C392  1  0.364810  0.301070  0.364810  1.0  -0.0454
  C  C393  1  0.135190  0.198930  0.364810  1.0  -0.0478
  C  C394  1  0.135190  0.698930  0.864810  1.0  -0.0478
  C  C395  1  0.135190  0.801070  0.635190  1.0  -0.0461
  C  C396  1  0.135190  0.301070  0.135190  1.0  -0.0461
  C  C397  1  0.635190  0.801070  0.135190  1.0  -0.0461
  C  C398  1  0.635190  0.301070  0.635190  1.0  -0.0461
  C  C399  1  0.364810  0.698930  0.635190  1.0  -0.0469
  C  C400  1  0.364810  0.801070  0.864810  1.0  -0.0454
  C  C401  1  0.635190  0.198930  0.864810  1.0  -0.0478
  C  C402  1  0.635190  0.698930  0.364810  1.0  -0.0478
  C  C403  1  0.135190  0.635190  0.801070  1.0  -0.0446
  C  C404  1  0.135190  0.864810  0.698930  1.0  -0.0443
  C  C405  1  0.864810  0.364810  0.801070  1.0  -0.0442
  C  C406  1  0.864810  0.864810  0.301070  1.0  -0.0442
  C  C407  1  0.864810  0.635190  0.198930  1.0  -0.0434
  C  C408  1  0.864810  0.135190  0.698930  1.0  -0.0434
  C  C409  1  0.801070  0.135190  0.635190  1.0  -0.0448
  C  C410  1  0.698930  0.135190  0.864810  1.0  -0.0446
  C  C411  1  0.801070  0.864810  0.364810  1.0  -0.0453
  C  C412  1  0.301070  0.864810  0.864810  1.0  -0.0453
  C  C413  1  0.198930  0.864810  0.635190  1.0  -0.0447
  C  C414  1  0.698930  0.864810  0.135190  1.0  -0.0447
  C  C415  1  0.801070  0.635190  0.864810  1.0  -0.0444
  C  C416  1  0.301070  0.635190  0.364810  1.0  -0.0444
  C  C417  1  0.198930  0.364810  0.864810  1.0  -0.045
  C  C418  1  0.301070  0.364810  0.635190  1.0  -0.0447
  C  C419  1  0.198930  0.635190  0.135190  1.0  -0.0453
  C  C420  1  0.698930  0.635190  0.635190  1.0  -0.0453
  C  C421  1  0.635190  0.135190  0.198930  1.0  -0.0434
  C  C422  1  0.635190  0.635190  0.698930  1.0  -0.0434
  C  C423  1  0.364810  0.635190  0.301070  1.0  -0.0446
  C  C424  1  0.364810  0.864810  0.198930  1.0  -0.044
  C  C425  1  0.635190  0.864810  0.801070  1.0  -0.0444
  C  C426  1  0.635190  0.364810  0.301070  1.0  -0.0444
  C  C427  1  0.135190  0.301070  0.864810  1.0  -0.0456
  C  C428  1  0.135190  0.198930  0.635190  1.0  -0.047
  C  C429  1  0.864810  0.801070  0.635190  1.0  -0.0459
  C  C430  1  0.864810  0.301070  0.135190  1.0  -0.0459
  C  C431  1  0.864810  0.198930  0.364810  1.0  -0.0476
  C  C432  1  0.864810  0.698930  0.864810  1.0  -0.0476
  O  O433  1  0.316880  0.244050  0.947730  1.0  -0.556
  O  O434  1  0.316880  0.744050  0.447730  1.0  -0.556
  O  O435  1  0.816880  0.244050  0.447730  1.0  -0.556
  O  O436  1  0.816880  0.744050  0.947730  1.0  -0.556
  O  O437  1  0.683120  0.755950  0.947730  1.0  -0.555
  O  O438  1  0.683120  0.255950  0.447730  1.0  -0.555
  O  O439  1  0.183120  0.755950  0.447730  1.0  -0.5553
  O  O440  1  0.183120  0.255950  0.947730  1.0  -0.555
  O  O441  1  0.683120  0.244050  0.052270  1.0  -0.5571
  O  O442  1  0.683120  0.744050  0.552270  1.0  -0.5567
  O  O443  1  0.183120  0.244050  0.552270  1.0  -0.5571
  O  O444  1  0.183120  0.744050  0.052270  1.0  -0.5569
  O  O445  1  0.316880  0.755950  0.052270  1.0  -0.5558
  O  O446  1  0.316880  0.255950  0.552270  1.0  -0.5558
  O  O447  1  0.816880  0.755950  0.552270  1.0  -0.5558
  O  O448  1  0.816880  0.255950  0.052270  1.0  -0.5558
  O  O449  1  0.947730  0.316880  0.244050  1.0  -0.5573
  O  O450  1  0.947730  0.816880  0.744050  1.0  -0.5573
  O  O451  1  0.447730  0.316880  0.744050  1.0  -0.5573
  O  O452  1  0.447730  0.816880  0.244050  1.0  -0.5573
  O  O453  1  0.947730  0.683120  0.755950  1.0  -0.5564
  O  O454  1  0.947730  0.183120  0.255950  1.0  -0.5564
  O  O455  1  0.447730  0.683120  0.255950  1.0  -0.5564
  O  O456  1  0.447730  0.183120  0.755950  1.0  -0.5567
  O  O457  1  0.052270  0.683120  0.244050  1.0  -0.5561
  O  O458  1  0.052270  0.183120  0.744050  1.0  -0.5561
  O  O459  1  0.552270  0.683120  0.744050  1.0  -0.5562
  O  O460  1  0.552270  0.183120  0.244050  1.0  -0.5561
  O  O461  1  0.052270  0.316880  0.755950  1.0  -0.5573
  O  O462  1  0.052270  0.816880  0.255950  1.0  -0.5573
  O  O463  1  0.552270  0.316880  0.255950  1.0  -0.5575
  O  O464  1  0.552270  0.816880  0.755950  1.0  -0.5573
  O  O465  1  0.244050  0.947730  0.316880  1.0  -0.5572
  O  O466  1  0.244050  0.447730  0.816880  1.0  -0.5575
  O  O467  1  0.744050  0.947730  0.816880  1.0  -0.5572
  O  O468  1  0.744050  0.447730  0.316880  1.0  -0.5575
  O  O469  1  0.755950  0.947730  0.683120  1.0  -0.556
  O  O470  1  0.755950  0.447730  0.183120  1.0  -0.556
  O  O471  1  0.255950  0.947730  0.183120  1.0  -0.556
  O  O472  1  0.255950  0.447730  0.683120  1.0  -0.5562
  O  O473  1  0.244050  0.052270  0.683120  1.0  -0.5565
  O  O474  1  0.244050  0.552270  0.183120  1.0  -0.5568
  O  O475  1  0.744050  0.052270  0.183120  1.0  -0.5565
  O  O476  1  0.744050  0.552270  0.683120  1.0  -0.5565
  O  O477  1  0.755950  0.052270  0.316880  1.0  -0.5569
  O  O478  1  0.755950  0.552270  0.816880  1.0  -0.5569
  O  O479  1  0.255950  0.052270  0.816880  1.0  -0.5569
  O  O480  1  0.255950  0.552270  0.316880  1.0  -0.5572
  O  O481  1  0.244050  0.316880  0.052270  1.0  -0.5582
  O  O482  1  0.244050  0.816880  0.552270  1.0  -0.5584
  O  O483  1  0.744050  0.316880  0.552270  1.0  -0.5582
  O  O484  1  0.744050  0.816880  0.052270  1.0  -0.5584
  O  O485  1  0.755950  0.683120  0.052270  1.0  -0.5568
  O  O486  1  0.755950  0.183120  0.552270  1.0  -0.5572
  O  O487  1  0.255950  0.683120  0.552270  1.0  -0.5571
  O  O488  1  0.255950  0.183120  0.052270  1.0  -0.5571
  O  O489  1  0.244050  0.683120  0.947730  1.0  -0.5569
  O  O490  1  0.244050  0.183120  0.447730  1.0  -0.557
  O  O491  1  0.744050  0.683120  0.447730  1.0  -0.5569
  O  O492  1  0.744050  0.183120  0.947730  1.0  -0.557
  O  O493  1  0.755950  0.316880  0.947730  1.0  -0.5579
  O  O494  1  0.755950  0.816880  0.447730  1.0  -0.5581
  O  O495  1  0.255950  0.316880  0.447730  1.0  -0.5578
  O  O496  1  0.255950  0.816880  0.947730  1.0  -0.5581
  O  O497  1  0.316880  0.947730  0.755950  1.0  -0.5551
  O  O498  1  0.316880  0.447730  0.255950  1.0  -0.5548
  O  O499  1  0.816880  0.947730  0.255950  1.0  -0.555
  O  O500  1  0.816880  0.447730  0.755950  1.0  -0.5551
  O  O501  1  0.683120  0.947730  0.244050  1.0  -0.5549
  O  O502  1  0.683120  0.447730  0.744050  1.0  -0.5548
  O  O503  1  0.183120  0.947730  0.744050  1.0  -0.5549
  O  O504  1  0.183120  0.447730  0.244050  1.0  -0.5549
  O  O505  1  0.683120  0.052270  0.755950  1.0  -0.5544
  O  O506  1  0.683120  0.552270  0.255950  1.0  -0.5544
  O  O507  1  0.183120  0.052270  0.255950  1.0  -0.5544
  O  O508  1  0.183120  0.552270  0.755950  1.0  -0.5543
  O  O509  1  0.316880  0.052270  0.244050  1.0  -0.5551
  O  O510  1  0.316880  0.552270  0.744050  1.0  -0.5552
  O  O511  1  0.816880  0.052270  0.744050  1.0  -0.5553
  O  O512  1  0.816880  0.552270  0.244050  1.0  -0.5553
  O  O513  1  0.947730  0.244050  0.683120  1.0  -0.5576
  O  O514  1  0.947730  0.744050  0.183120  1.0  -0.5577
  O  O515  1  0.447730  0.244050  0.183120  1.0  -0.5573
  O  O516  1  0.447730  0.744050  0.683120  1.0  -0.5576
  O  O517  1  0.947730  0.755950  0.316880  1.0  -0.5582
  O  O518  1  0.947730  0.255950  0.816880  1.0  -0.5582
  O  O519  1  0.447730  0.755950  0.816880  1.0  -0.5582
  O  O520  1  0.447730  0.255950  0.316880  1.0  -0.558
  O  O521  1  0.052270  0.244050  0.316880  1.0  -0.5579
  O  O522  1  0.052270  0.744050  0.816880  1.0  -0.5579
  O  O523  1  0.552270  0.244050  0.816880  1.0  -0.5582
  O  O524  1  0.552270  0.744050  0.316880  1.0  -0.5581
  O  O525  1  0.052270  0.755950  0.683120  1.0  -0.5571
  O  O526  1  0.052270  0.255950  0.183120  1.0  -0.5572
  O  O527  1  0.552270  0.755950  0.183120  1.0  -0.5574
  O  O528  1  0.552270  0.255950  0.683120  1.0  -0.5574
  O  O529  1  0.683120  0.755950  0.052270  1.0  -0.5556
  O  O530  1  0.683120  0.255950  0.552270  1.0  -0.5553
  O  O531  1  0.183120  0.755950  0.552270  1.0  -0.5553
  O  O532  1  0.183120  0.255950  0.052270  1.0  -0.5556
  O  O533  1  0.316880  0.244050  0.052270  1.0  -0.5558
  O  O534  1  0.316880  0.744050  0.552270  1.0  -0.5558
  O  O535  1  0.816880  0.244050  0.552270  1.0  -0.5558
  O  O536  1  0.816880  0.744050  0.052270  1.0  -0.5558
  O  O537  1  0.316880  0.755950  0.947730  1.0  -0.556
  O  O538  1  0.316880  0.255950  0.447730  1.0  -0.5564
  O  O539  1  0.816880  0.755950  0.447730  1.0  -0.556
  O  O540  1  0.816880  0.255950  0.947730  1.0  -0.556
  O  O541  1  0.683120  0.244050  0.947730  1.0  -0.5564
  O  O542  1  0.683120  0.744050  0.447730  1.0  -0.5564
  O  O543  1  0.183120  0.244050  0.447730  1.0  -0.5564
  O  O544  1  0.183120  0.744050  0.947730  1.0  -0.5564
  O  O545  1  0.052270  0.683120  0.755950  1.0  -0.5563
  O  O546  1  0.052270  0.183120  0.255950  1.0  -0.5563
  O  O547  1  0.552270  0.683120  0.255950  1.0  -0.5563
  O  O548  1  0.552270  0.183120  0.755950  1.0  -0.5565
  O  O549  1  0.052270  0.316880  0.244050  1.0  -0.5579
  O  O550  1  0.052270  0.816880  0.744050  1.0  -0.5575
  O  O551  1  0.552270  0.316880  0.744050  1.0  -0.5578
  O  O552  1  0.552270  0.816880  0.244050  1.0  -0.5575
  O  O553  1  0.947730  0.316880  0.755950  1.0  -0.5575
  O  O554  1  0.947730  0.816880  0.255950  1.0  -0.5575
  O  O555  1  0.447730  0.316880  0.255950  1.0  -0.5574
  O  O556  1  0.447730  0.816880  0.755950  1.0  -0.5572
  O  O557  1  0.947730  0.683120  0.244050  1.0  -0.5566
  O  O558  1  0.947730  0.183120  0.744050  1.0  -0.5566
  O  O559  1  0.447730  0.683120  0.744050  1.0  -0.5566
  O  O560  1  0.447730  0.183120  0.244050  1.0  -0.5566
  O  O561  1  0.755950  0.052270  0.683120  1.0  -0.5561
  O  O562  1  0.755950  0.552270  0.183120  1.0  -0.5564
  O  O563  1  0.255950  0.052270  0.183120  1.0  -0.5563
  O  O564  1  0.255950  0.552270  0.683120  1.0  -0.5564
  O  O565  1  0.244050  0.052270  0.316880  1.0  -0.5572
  O  O566  1  0.244050  0.552270  0.816880  1.0  -0.5574
  O  O567  1  0.744050  0.052270  0.816880  1.0  -0.5572
  O  O568  1  0.744050  0.552270  0.316880  1.0  -0.5572
  O  O569  1  0.755950  0.947730  0.316880  1.0  -0.5571
  O  O570  1  0.755950  0.447730  0.816880  1.0  -0.5571
  O  O571  1  0.255950  0.947730  0.816880  1.0  -0.5571
  O  O572  1  0.255950  0.447730  0.316880  1.0  -0.5573
  O  O573  1  0.244050  0.947730  0.683120  1.0  -0.5563
  O  O574  1  0.244050  0.447730  0.183120  1.0  -0.5566
  O  O575  1  0.744050  0.947730  0.183120  1.0  -0.5566
  O  O576  1  0.744050  0.447730  0.683120  1.0  -0.5563
  O  O577  1  0.755950  0.683120  0.947730  1.0  -0.557
  O  O578  1  0.755950  0.183120  0.447730  1.0  -0.5569
  O  O579  1  0.255950  0.683120  0.447730  1.0  -0.557
  O  O580  1  0.255950  0.183120  0.947730  1.0  -0.5569
  O  O581  1  0.244050  0.316880  0.947730  1.0  -0.5581
  O  O582  1  0.244050  0.816880  0.447730  1.0  -0.558
  O  O583  1  0.744050  0.316880  0.447730  1.0  -0.5581
  O  O584  1  0.744050  0.816880  0.947730  1.0  -0.558
  O  O585  1  0.755950  0.316880  0.052270  1.0  -0.5584
  O  O586  1  0.755950  0.816880  0.552270  1.0  -0.5583
  O  O587  1  0.255950  0.316880  0.552270  1.0  -0.5584
  O  O588  1  0.255950  0.816880  0.052270  1.0  -0.5583
  O  O589  1  0.244050  0.683120  0.052270  1.0  -0.5568
  O  O590  1  0.244050  0.183120  0.552270  1.0  -0.5568
  O  O591  1  0.744050  0.683120  0.552270  1.0  -0.5571
  O  O592  1  0.744050  0.183120  0.052270  1.0  -0.5568
  O  O593  1  0.683120  0.052270  0.244050  1.0  -0.5546
  O  O594  1  0.683120  0.552270  0.744050  1.0  -0.5547
  O  O595  1  0.183120  0.052270  0.744050  1.0  -0.5546
  O  O596  1  0.183120  0.552270  0.244050  1.0  -0.5547
  O  O597  1  0.316880  0.052270  0.755950  1.0  -0.5553
  O  O598  1  0.316880  0.552270  0.255950  1.0  -0.5551
  O  O599  1  0.816880  0.052270  0.255950  1.0  -0.5551
  O  O600  1  0.816880  0.552270  0.755950  1.0  -0.5551
  O  O601  1  0.316880  0.947730  0.244050  1.0  -0.5551
  O  O602  1  0.316880  0.447730  0.744050  1.0  -0.5553
  O  O603  1  0.816880  0.947730  0.744050  1.0  -0.5552
  O  O604  1  0.816880  0.447730  0.244050  1.0  -0.5552
  O  O605  1  0.683120  0.947730  0.755950  1.0  -0.5547
  O  O606  1  0.683120  0.447730  0.255950  1.0  -0.5547
  O  O607  1  0.183120  0.947730  0.255950  1.0  -0.5547
  O  O608  1  0.183120  0.447730  0.755950  1.0  -0.5546
  O  O609  1  0.052270  0.755950  0.316880  1.0  -0.5577
  O  O610  1  0.052270  0.255950  0.816880  1.0  -0.5577
  O  O611  1  0.552270  0.755950  0.816880  1.0  -0.5579
  O  O612  1  0.552270  0.255950  0.316880  1.0  -0.5579
  O  O613  1  0.052270  0.244050  0.683120  1.0  -0.5573
  O  O614  1  0.052270  0.744050  0.183120  1.0  -0.5573
  O  O615  1  0.552270  0.244050  0.183120  1.0  -0.5576
  O  O616  1  0.552270  0.744050  0.683120  1.0  -0.5576
  O  O617  1  0.947730  0.755950  0.683120  1.0  -0.5577
  O  O618  1  0.947730  0.255950  0.183120  1.0  -0.5577
  O  O619  1  0.447730  0.755950  0.183120  1.0  -0.5575
  O  O620  1  0.447730  0.255950  0.683120  1.0  -0.5574
  O  O621  1  0.947730  0.244050  0.316880  1.0  -0.5578
  O  O622  1  0.947730  0.744050  0.816880  1.0  -0.5578
  O  O623  1  0.447730  0.244050  0.816880  1.0  -0.5576
  O  O624  1  0.447730  0.744050  0.316880  1.0  -0.558
