# generated using pymatgen
data_ZnH3(C3O2)3
_symmetry_space_group_name_H-M   'P 1'
_cell_length_a   9.43700000
_cell_length_b   15.37800000
_cell_length_c   13.31900000
_cell_angle_alpha   90.00000000
_cell_angle_beta   106.38300000
_cell_angle_gamma   90.00000000
_symmetry_Int_Tables_number   1
_chemical_formula_structural   ZnH3(C3O2)3
_chemical_formula_sum   'Zn4 H12 C36 O24'
_cell_volume   1854.40293356
_cell_formula_units_Z   4
loop_
 _symmetry_equiv_pos_site_id
 _symmetry_equiv_pos_as_xyz
  1  'x, y, z'
loop_
 _atom_site_type_symbol
 _atom_site_label
 _atom_site_symmetry_multiplicity
 _atom_site_fract_x
 _atom_site_fract_y
 _atom_site_fract_z
 _atom_site_occupancy
 _atom_site_charge
  Zn  Zn1  1  0.126170  0.096320  0.988680  1.0  1.0871
  Zn  Zn2  1  0.373830  0.596320  0.511320  1.0  1.087
  Zn  Zn3  1  0.873830  0.903680  0.011320  1.0  1.0872
  Zn  Zn4  1  0.626170  0.403680  0.488680  1.0  1.0874
  H  H5  1  0.854900  0.229100  0.224000  1.0  0.1295
  H  H6  1  0.047500  0.422800  0.416200  1.0  0.1251
  H  H7  1  0.269300  0.301600  0.241500  1.0  0.1239
  H  H8  1  0.645100  0.729100  0.276000  1.0  0.1294
  H  H9  1  0.452500  0.922800  0.083800  1.0  0.1257
  H  H10  1  0.230700  0.801600  0.258500  1.0  0.1243
  H  H11  1  0.145100  0.770900  0.776000  1.0  0.1296
  H  H12  1  0.952500  0.577200  0.583800  1.0  0.1257
  H  H13  1  0.730700  0.698400  0.758500  1.0  0.1242
  H  H14  1  0.354900  0.270900  0.724000  1.0  0.1298
  H  H15  1  0.547500  0.077200  0.916200  1.0  0.1255
  H  H16  1  0.769300  0.198400  0.741500  1.0  0.1242
  C  C17  1  0.063600  0.189100  0.135700  1.0  0.7139
  C  C18  1  0.062400  0.255900  0.218200  1.0  -0.1589
  C  C19  1  0.935900  0.264900  0.251600  1.0  0.052
  C  C20  1  0.930400  0.327500  0.326200  1.0  -0.137
  C  C21  1  0.792200  0.334400  0.363500  1.0  0.7114
  C  C22  1  0.051800  0.380100  0.367600  1.0  0.0455
  C  C23  1  0.180000  0.369500  0.337300  1.0  -0.1671
  C  C24  1  0.183900  0.308100  0.262500  1.0  0.0421
  C  C25  1  0.312800  0.423900  0.388200  1.0  0.7662
  C  C26  1  0.436400  0.689100  0.364300  1.0  0.7139
  C  C27  1  0.437600  0.755900  0.281800  1.0  -0.1591
  C  C28  1  0.564100  0.764900  0.248400  1.0  0.0528
  C  C29  1  0.569600  0.827500  0.173800  1.0  -0.1365
  C  C30  1  0.707800  0.834400  0.136500  1.0  0.7102
  C  C31  1  0.448200  0.880100  0.132400  1.0  0.0461
  C  C32  1  0.320000  0.869500  0.162700  1.0  -0.1672
  C  C33  1  0.316100  0.808100  0.237500  1.0  0.042
  C  C34  1  0.187200  0.923900  0.111800  1.0  0.7654
  C  C35  1  0.936400  0.810900  0.864300  1.0  0.7138
  C  C36  1  0.937600  0.744100  0.781800  1.0  -0.1593
  C  C37  1  0.064100  0.735100  0.748400  1.0  0.0527
  C  C38  1  0.069600  0.672500  0.673800  1.0  -0.1364
  C  C39  1  0.207800  0.665600  0.636500  1.0  0.7099
  C  C40  1  0.948200  0.619900  0.632400  1.0  0.0463
  C  C41  1  0.820000  0.630500  0.662700  1.0  -0.1671
  C  C42  1  0.816100  0.691900  0.737500  1.0  0.042
  C  C43  1  0.687200  0.576100  0.611800  1.0  0.7655
  C  C44  1  0.563600  0.310900  0.635700  1.0  0.7138
  C  C45  1  0.562400  0.244100  0.718200  1.0  -0.1585
  C  C46  1  0.435900  0.235100  0.751600  1.0  0.0525
  C  C47  1  0.430400  0.172500  0.826200  1.0  -0.1369
  C  C48  1  0.292200  0.165600  0.863500  1.0  0.7113
  C  C49  1  0.551800  0.119900  0.867600  1.0  0.0464
  C  C50  1  0.680000  0.130500  0.837300  1.0  -0.1664
  C  C51  1  0.683900  0.191900  0.762500  1.0  0.0421
  C  C52  1  0.812800  0.076100  0.888200  1.0  0.7658
  O  O53  1  0.964600  0.133600  0.111800  1.0  -0.5478
  O  O54  1  0.168200  0.192200  0.093600  1.0  -0.5538
  O  O55  1  0.436300  0.396500  0.382200  1.0  -0.5831
  O  O56  1  0.291400  0.490400  0.435600  1.0  -0.6418
  O  O57  1  0.785500  0.399400  0.420000  1.0  -0.5448
  O  O58  1  0.695200  0.278400  0.336500  1.0  -0.4629
  O  O59  1  0.535400  0.633600  0.388200  1.0  -0.5504
  O  O60  1  0.331800  0.692200  0.406400  1.0  -0.5543
  O  O61  1  0.063700  0.896500  0.117800  1.0  -0.5832
  O  O62  1  0.208600  0.990400  0.064400  1.0  -0.6416
  O  O63  1  0.714500  0.899400  0.080000  1.0  -0.5466
  O  O64  1  0.804800  0.778400  0.163500  1.0  -0.4624
  O  O65  1  0.035400  0.866400  0.888200  1.0  -0.5485
  O  O66  1  0.831800  0.807800  0.906400  1.0  -0.5542
  O  O67  1  0.563700  0.603500  0.617800  1.0  -0.5831
  O  O68  1  0.708600  0.509600  0.564400  1.0  -0.6406
  O  O69  1  0.214500  0.600600  0.580000  1.0  -0.546
  O  O70  1  0.304800  0.721600  0.663500  1.0  -0.462
  O  O71  1  0.464600  0.366400  0.611800  1.0  -0.5462
  O  O72  1  0.668200  0.307800  0.593600  1.0  -0.555
  O  O73  1  0.936300  0.103500  0.882200  1.0  -0.5832
  O  O74  1  0.791400  0.009600  0.935600  1.0  -0.6403
  O  O75  1  0.285500  0.100600  0.920000  1.0  -0.5451
  O  O76  1  0.195200  0.221600  0.836500  1.0  -0.4621
