# generated using pymatgen
data_CdH36C48N12ClO4
_symmetry_space_group_name_H-M   'P 1'
_cell_length_a   15.89000000
_cell_length_b   15.89000000
_cell_length_c   21.70600000
_cell_angle_alpha   90.00000000
_cell_angle_beta   90.00000000
_cell_angle_gamma   90.00000000
_symmetry_Int_Tables_number   1
_chemical_formula_structural   CdH36C48N12ClO4
_chemical_formula_sum   'Cd4 H144 C192 N48 Cl4 O16'
_cell_volume   5480.59352260
_cell_formula_units_Z   4
loop_
 _symmetry_equiv_pos_site_id
 _symmetry_equiv_pos_as_xyz
  1  'x, y, z'
loop_
 _atom_site_type_symbol
 _atom_site_label
 _atom_site_symmetry_multiplicity
 _atom_site_fract_x
 _atom_site_fract_y
 _atom_site_fract_z
 _atom_site_occupancy
 _atom_site_charge
  Cd  Cd1  1  0.057770  0.057770  0.000000  1.0  0.7944
  Cd  Cd2  1  0.942230  0.942230  0.500000  1.0  0.7947
  Cd  Cd3  1  0.442230  0.557770  0.250000  1.0  0.7947
  Cd  Cd4  1  0.557770  0.442230  0.750000  1.0  0.7944
  H  H5  1  0.361800  0.729600  0.208900  1.0  0.0759
  H  H6  1  0.261100  0.786300  0.144900  1.0  0.1132
  H  H7  1  0.284400  0.581200  0.036900  1.0  0.1302
  H  H8  1  0.388400  0.537100  0.101300  1.0  0.0692
  H  H9  1  0.201900  0.647700  0.971000  1.0  0.0763
  H  H10  1  0.088600  0.698600  0.915500  1.0  0.1041
  H  H11  1  0.998100  0.797200  0.958300  1.0  0.0861
  H  H12  1  0.139300  0.800400  0.113100  1.0  0.1059
  H  H13  1  0.882200  0.042600  0.208800  1.0  0.1074
  H  H14  1  0.768800  0.061600  0.276000  1.0  0.0896
  H  H15  1  0.667300  0.962000  0.287900  1.0  0.101
  H  H16  1  0.777800  0.822200  0.154000  1.0  0.0875
  H  H17  1  0.657200  0.763700  0.141000  1.0  0.1236
  H  H18  1  0.563400  0.655500  0.156300  1.0  0.0535
  H  H19  1  0.506500  0.738200  0.319900  1.0  0.0626
  H  H20  1  0.600900  0.848800  0.308400  1.0  0.1209
  H  H21  1  0.968100  0.746800  0.154800  1.0  0.3316
  H  H22  1  0.918500  0.733500  0.097600  1.0  0.3138
  H  H23  1  0.638200  0.270400  0.708900  1.0  0.0758
  H  H24  1  0.738900  0.213700  0.644900  1.0  0.1133
  H  H25  1  0.715600  0.418800  0.536900  1.0  0.1306
  H  H26  1  0.611600  0.462900  0.601300  1.0  0.0699
  H  H27  1  0.798100  0.352300  0.471000  1.0  0.0772
  H  H28  1  0.911400  0.301400  0.415500  1.0  0.1041
  H  H29  1  0.001900  0.202800  0.458300  1.0  0.0861
  H  H30  1  0.860700  0.199600  0.613100  1.0  0.1054
  H  H31  1  0.117800  0.957400  0.708800  1.0  0.1075
  H  H32  1  0.231200  0.938400  0.776000  1.0  0.0901
  H  H33  1  0.332700  0.038000  0.787900  1.0  0.1011
  H  H34  1  0.222200  0.177800  0.654000  1.0  0.0878
  H  H35  1  0.342800  0.236300  0.641000  1.0  0.1237
  H  H36  1  0.436600  0.344500  0.656300  1.0  0.0532
  H  H37  1  0.493500  0.261800  0.819900  1.0  0.0626
  H  H38  1  0.399100  0.151200  0.808400  1.0  0.1212
  H  H39  1  0.031900  0.253200  0.654800  1.0  0.3313
  H  H40  1  0.081500  0.266500  0.597600  1.0  0.3138
  H  H41  1  0.770400  0.861800  0.458900  1.0  0.0748
  H  H42  1  0.713700  0.761100  0.394900  1.0  0.1123
  H  H43  1  0.918800  0.784400  0.286900  1.0  0.13
  H  H44  1  0.962900  0.888400  0.351300  1.0  0.0692
  H  H45  1  0.852300  0.701900  0.221000  1.0  0.0761
  H  H46  1  0.801400  0.588600  0.165500  1.0  0.104
  H  H47  1  0.702800  0.498100  0.208300  1.0  0.0871
  H  H48  1  0.699600  0.639300  0.363100  1.0  0.1057
  H  H49  1  0.457400  0.382200  0.458800  1.0  0.1083
  H  H50  1  0.438400  0.268800  0.526000  1.0  0.0896
  H  H51  1  0.538000  0.167300  0.537900  1.0  0.1016
  H  H52  1  0.677800  0.277800  0.404000  1.0  0.0874
  H  H53  1  0.736300  0.157200  0.391000  1.0  0.1223
  H  H54  1  0.844500  0.063400  0.406300  1.0  0.0524
  H  H55  1  0.761800  0.006500  0.569900  1.0  0.0625
  H  H56  1  0.651200  0.100900  0.558400  1.0  0.1211
  H  H57  1  0.753200  0.468100  0.404800  1.0  0.3312
  H  H58  1  0.766500  0.418500  0.347600  1.0  0.3127
  H  H59  1  0.229600  0.138200  0.958900  1.0  0.0751
  H  H60  1  0.286300  0.238900  0.894900  1.0  0.1129
  H  H61  1  0.081200  0.215600  0.786900  1.0  0.1303
  H  H62  1  0.037100  0.111600  0.851300  1.0  0.0694
  H  H63  1  0.147700  0.298100  0.721000  1.0  0.0764
  H  H64  1  0.198600  0.411400  0.665500  1.0  0.1038
  H  H65  1  0.297200  0.501900  0.708300  1.0  0.0863
  H  H66  1  0.300400  0.360700  0.863100  1.0  0.1062
  H  H67  1  0.542600  0.617800  0.958800  1.0  0.1078
  H  H68  1  0.561600  0.731200  0.026000  1.0  0.0896
  H  H69  1  0.462000  0.832700  0.037900  1.0  0.1003
  H  H70  1  0.322200  0.722200  0.904000  1.0  0.0883
  H  H71  1  0.263700  0.842800  0.891000  1.0  0.1225
  H  H72  1  0.155500  0.936600  0.906300  1.0  0.0521
  H  H73  1  0.238200  0.993500  0.069900  1.0  0.0618
  H  H74  1  0.348800  0.899100  0.058400  1.0  0.1211
  H  H75  1  0.246800  0.531900  0.904800  1.0  0.3317
  H  H76  1  0.233500  0.581500  0.847600  1.0  0.313
  H  H77  1  0.138200  0.229600  0.041100  1.0  0.0756
  H  H78  1  0.238900  0.286300  0.105100  1.0  0.1129
  H  H79  1  0.215600  0.081200  0.213100  1.0  0.1301
  H  H80  1  0.111600  0.037100  0.148700  1.0  0.0699
  H  H81  1  0.298100  0.147700  0.279000  1.0  0.0767
  H  H82  1  0.411400  0.198600  0.334500  1.0  0.104
  H  H83  1  0.501900  0.297200  0.291700  1.0  0.0859
  H  H84  1  0.360700  0.300400  0.136900  1.0  0.105
  H  H85  1  0.617800  0.542600  0.041200  1.0  0.1077
  H  H86  1  0.731200  0.561600  0.974000  1.0  0.0903
  H  H87  1  0.832700  0.462000  0.962100  1.0  0.1013
  H  H88  1  0.722200  0.322200  0.096000  1.0  0.0869
  H  H89  1  0.842800  0.263700  0.109000  1.0  0.1236
  H  H90  1  0.936600  0.155500  0.093700  1.0  0.0534
  H  H91  1  0.993500  0.238200  0.930100  1.0  0.061
  H  H92  1  0.899100  0.348800  0.941600  1.0  0.1212
  H  H93  1  0.531900  0.246800  0.095200  1.0  0.331
  H  H94  1  0.581500  0.233500  0.152400  1.0  0.3136
  H  H95  1  0.861800  0.770400  0.541100  1.0  0.0751
  H  H96  1  0.761100  0.713700  0.605100  1.0  0.113
  H  H97  1  0.784400  0.918800  0.713100  1.0  0.1304
  H  H98  1  0.888400  0.962900  0.648700  1.0  0.0695
  H  H99  1  0.701900  0.852300  0.779000  1.0  0.0763
  H  H100  1  0.588600  0.801400  0.834500  1.0  0.104
  H  H101  1  0.498100  0.702800  0.791700  1.0  0.0859
  H  H102  1  0.639300  0.699600  0.636900  1.0  0.1055
  H  H103  1  0.382200  0.457400  0.541200  1.0  0.1075
  H  H104  1  0.268800  0.438400  0.474000  1.0  0.0899
  H  H105  1  0.167300  0.538000  0.462100  1.0  0.1011
  H  H106  1  0.277800  0.677800  0.596000  1.0  0.0867
  H  H107  1  0.157200  0.736300  0.609000  1.0  0.1239
  H  H108  1  0.063400  0.844500  0.593700  1.0  0.0525
  H  H109  1  0.006500  0.761800  0.430100  1.0  0.0609
  H  H110  1  0.100900  0.651200  0.441600  1.0  0.121
  H  H111  1  0.468100  0.753200  0.595200  1.0  0.3309
  H  H112  1  0.418500  0.766500  0.652400  1.0  0.3135
  H  H113  1  0.729600  0.361800  0.791100  1.0  0.0748
  H  H114  1  0.786300  0.261100  0.855100  1.0  0.1121
  H  H115  1  0.581200  0.284400  0.963100  1.0  0.1301
  H  H116  1  0.537100  0.388400  0.898700  1.0  0.0698
  H  H117  1  0.647700  0.201900  0.029000  1.0  0.0761
  H  H118  1  0.698600  0.088600  0.084500  1.0  0.1041
  H  H119  1  0.797200  0.998100  0.041700  1.0  0.0865
  H  H120  1  0.800400  0.139300  0.886900  1.0  0.1056
  H  H121  1  0.042600  0.882200  0.791200  1.0  0.1079
  H  H122  1  0.061600  0.768800  0.724000  1.0  0.0899
  H  H123  1  0.962000  0.667300  0.712100  1.0  0.101
  H  H124  1  0.822200  0.777800  0.846000  1.0  0.0869
  H  H125  1  0.763700  0.657200  0.859000  1.0  0.1227
  H  H126  1  0.655500  0.563400  0.843700  1.0  0.0518
  H  H127  1  0.738200  0.506500  0.680100  1.0  0.0605
  H  H128  1  0.848800  0.600900  0.691600  1.0  0.1212
  H  H129  1  0.746800  0.968100  0.845200  1.0  0.3317
  H  H130  1  0.733500  0.918500  0.902400  1.0  0.3132
  H  H131  1  0.270400  0.638200  0.291100  1.0  0.0744
  H  H132  1  0.213700  0.738900  0.355100  1.0  0.1121
  H  H133  1  0.418800  0.715600  0.463100  1.0  0.1299
  H  H134  1  0.462900  0.611600  0.398700  1.0  0.0697
  H  H135  1  0.352300  0.798100  0.529000  1.0  0.0757
  H  H136  1  0.301400  0.911400  0.584500  1.0  0.1035
  H  H137  1  0.202800  0.001900  0.541700  1.0  0.0868
  H  H138  1  0.199600  0.860700  0.386900  1.0  0.1053
  H  H139  1  0.957400  0.117800  0.291200  1.0  0.108
  H  H140  1  0.938400  0.231200  0.224000  1.0  0.0897
  H  H141  1  0.038000  0.332700  0.212100  1.0  0.1015
  H  H142  1  0.177800  0.222200  0.346000  1.0  0.0869
  H  H143  1  0.236300  0.342800  0.359000  1.0  0.1225
  H  H144  1  0.344500  0.436600  0.343700  1.0  0.0522
  H  H145  1  0.261800  0.493500  0.180100  1.0  0.0608
  H  H146  1  0.151200  0.399100  0.191600  1.0  0.121
  H  H147  1  0.253200  0.031900  0.345200  1.0  0.3308
  H  H148  1  0.266500  0.081500  0.402400  1.0  0.3124
  C  C149  1  0.343800  0.698400  0.174000  1.0  0.1229
  C  C150  1  0.283000  0.732100  0.135900  1.0  -0.1973
  C  C151  1  0.253600  0.689700  0.085900  1.0  0.0916
  C  C152  1  0.297600  0.613000  0.072700  1.0  -0.208
  C  C153  1  0.358200  0.586500  0.112100  1.0  0.1711
  C  C154  1  0.183000  0.718200  0.048200  1.0  0.0079
  C  C155  1  0.166200  0.688900  0.988900  1.0  -0.0813
  C  C156  1  0.098700  0.718900  0.956000  1.0  -0.0939
  C  C157  1  0.045400  0.778200  0.981300  1.0  -0.1059
  C  C158  1  0.059900  0.810700  0.040100  1.0  -0.0477
  C  C159  1  0.128700  0.779500  0.072800  1.0  -0.1137
  C  C160  1  0.005600  0.871300  0.069800  1.0  0.255
  C  C161  1  0.907500  0.922900  0.132200  1.0  0.238
  C  C162  1  0.839900  0.931000  0.175100  1.0  -0.0051
  C  C163  1  0.838700  0.001800  0.211300  1.0  -0.1212
  C  C164  1  0.771500  0.011900  0.251700  1.0  -0.0823
  C  C165  1  0.710100  0.953900  0.258000  1.0  -0.1293
  C  C166  1  0.708600  0.880200  0.219900  1.0  0.02
  C  C167  1  0.775400  0.870800  0.179500  1.0  -0.1331
  C  C168  1  0.644400  0.815300  0.225400  1.0  0.1104
  C  C169  1  0.628700  0.759000  0.179300  1.0  -0.2165
  C  C170  1  0.571200  0.695200  0.188600  1.0  0.1635
  C  C171  1  0.538000  0.742100  0.282800  1.0  0.1592
  C  C172  1  0.595700  0.808300  0.276500  1.0  -0.2145
  C  C173  1  0.656200  0.301600  0.674000  1.0  0.1225
  C  C174  1  0.717000  0.267900  0.635900  1.0  -0.1964
  C  C175  1  0.746400  0.310300  0.585900  1.0  0.0918
  C  C176  1  0.702400  0.387000  0.572700  1.0  -0.2084
  C  C177  1  0.641800  0.413500  0.612100  1.0  0.1706
  C  C178  1  0.817000  0.281800  0.548200  1.0  0.0085
  C  C179  1  0.833800  0.311100  0.488900  1.0  -0.0815
  C  C180  1  0.901300  0.281100  0.456000  1.0  -0.0938
  C  C181  1  0.954600  0.221800  0.481300  1.0  -0.1055
  C  C182  1  0.940100  0.189300  0.540100  1.0  -0.0465
  C  C183  1  0.871300  0.220500  0.572800  1.0  -0.1136
  C  C184  1  0.994400  0.128700  0.569800  1.0  0.2552
  C  C185  1  0.092500  0.077100  0.632200  1.0  0.2378
  C  C186  1  0.160100  0.069000  0.675100  1.0  -0.0044
  C  C187  1  0.161300  0.998200  0.711300  1.0  -0.1223
  C  C188  1  0.228500  0.988100  0.751700  1.0  -0.0831
  C  C189  1  0.289900  0.046100  0.758000  1.0  -0.1292
  C  C190  1  0.291400  0.119800  0.719900  1.0  0.018
  C  C191  1  0.224600  0.129200  0.679500  1.0  -0.1334
  C  C192  1  0.355600  0.184700  0.725400  1.0  0.1092
  C  C193  1  0.371300  0.241000  0.679300  1.0  -0.2173
  C  C194  1  0.428800  0.304800  0.688600  1.0  0.1637
  C  C195  1  0.462000  0.257900  0.782800  1.0  0.1596
  C  C196  1  0.404300  0.191700  0.776500  1.0  -0.2129
  C  C197  1  0.801600  0.843800  0.424000  1.0  0.1242
  C  C198  1  0.767900  0.783000  0.385900  1.0  -0.1986
  C  C199  1  0.810300  0.753600  0.335900  1.0  0.092
  C  C200  1  0.887000  0.797600  0.322700  1.0  -0.2065
  C  C201  1  0.913500  0.858200  0.362100  1.0  0.1712
  C  C202  1  0.781800  0.683000  0.298200  1.0  0.0074
  C  C203  1  0.811100  0.666200  0.238900  1.0  -0.0814
  C  C204  1  0.781100  0.598700  0.206000  1.0  -0.0952
  C  C205  1  0.721800  0.545400  0.231300  1.0  -0.1084
  C  C206  1  0.689300  0.559900  0.290100  1.0  -0.0479
  C  C207  1  0.720500  0.628700  0.322800  1.0  -0.1134
  C  C208  1  0.628700  0.505600  0.319800  1.0  0.2549
  C  C209  1  0.577100  0.407500  0.382200  1.0  0.2384
  C  C210  1  0.569000  0.339900  0.425100  1.0  -0.0048
  C  C211  1  0.498200  0.338700  0.461300  1.0  -0.1205
  C  C212  1  0.488100  0.271500  0.501700  1.0  -0.0838
  C  C213  1  0.546100  0.210100  0.508000  1.0  -0.1303
  C  C214  1  0.619800  0.208600  0.469900  1.0  0.0188
  C  C215  1  0.629200  0.275400  0.429500  1.0  -0.1348
  C  C216  1  0.684700  0.144400  0.475400  1.0  0.1089
  C  C217  1  0.741000  0.128700  0.429300  1.0  -0.215
  C  C218  1  0.804800  0.071200  0.438600  1.0  0.1643
  C  C219  1  0.757900  0.038000  0.532800  1.0  0.1611
  C  C220  1  0.691700  0.095700  0.526500  1.0  -0.2131
  C  C221  1  0.198400  0.156200  0.924000  1.0  0.1245
  C  C222  1  0.232100  0.217000  0.885900  1.0  -0.1986
  C  C223  1  0.189700  0.246400  0.835900  1.0  0.0923
  C  C224  1  0.113000  0.202400  0.822700  1.0  -0.2071
  C  C225  1  0.086500  0.141800  0.862100  1.0  0.1715
  C  C226  1  0.218200  0.317000  0.798200  1.0  0.0069
  C  C227  1  0.188900  0.333800  0.738900  1.0  -0.0816
  C  C228  1  0.218900  0.401300  0.706000  1.0  -0.0942
  C  C229  1  0.278200  0.454600  0.731300  1.0  -0.1078
  C  C230  1  0.310700  0.440100  0.790100  1.0  -0.0468
  C  C231  1  0.279500  0.371300  0.822800  1.0  -0.1132
  C  C232  1  0.371300  0.494400  0.819800  1.0  0.2548
  C  C233  1  0.422900  0.592500  0.882200  1.0  0.2382
  C  C234  1  0.431000  0.660100  0.925100  1.0  -0.004
  C  C235  1  0.501800  0.661300  0.961300  1.0  -0.1218
  C  C236  1  0.511900  0.728500  0.001700  1.0  -0.0839
  C  C237  1  0.453900  0.789900  0.008000  1.0  -0.1302
  C  C238  1  0.380200  0.791400  0.969900  1.0  0.0187
  C  C239  1  0.370800  0.724600  0.929500  1.0  -0.1351
  C  C240  1  0.315300  0.855600  0.975400  1.0  0.1089
  C  C241  1  0.259000  0.871300  0.929300  1.0  -0.2154
  C  C242  1  0.195200  0.928800  0.938600  1.0  0.1648
  C  C243  1  0.242100  0.962000  0.032800  1.0  0.1607
  C  C244  1  0.308300  0.904300  0.026500  1.0  -0.2125
  C  C245  1  0.156200  0.198400  0.076000  1.0  0.1229
  C  C246  1  0.217000  0.232100  0.114100  1.0  -0.1972
  C  C247  1  0.246400  0.189700  0.164100  1.0  0.0914
  C  C248  1  0.202400  0.113000  0.177300  1.0  -0.2076
  C  C249  1  0.141800  0.086500  0.137900  1.0  0.1709
  C  C250  1  0.317000  0.218200  0.201800  1.0  0.0084
  C  C251  1  0.333800  0.188900  0.261100  1.0  -0.0812
  C  C252  1  0.401300  0.218900  0.294000  1.0  -0.0943
  C  C253  1  0.454600  0.278200  0.268700  1.0  -0.1057
  C  C254  1  0.440100  0.310700  0.209900  1.0  -0.0475
  C  C255  1  0.371300  0.279500  0.177200  1.0  -0.1132
  C  C256  1  0.494400  0.371300  0.180200  1.0  0.2552
  C  C257  1  0.592500  0.422900  0.117800  1.0  0.2375
  C  C258  1  0.660100  0.431000  0.074900  1.0  -0.004
  C  C259  1  0.661300  0.501800  0.038700  1.0  -0.1207
  C  C260  1  0.728500  0.511900  0.998300  1.0  -0.0822
  C  C261  1  0.789900  0.453900  0.992000  1.0  -0.1304
  C  C262  1  0.791400  0.380200  0.030100  1.0  0.0189
  C  C263  1  0.724600  0.370800  0.070500  1.0  -0.1329
  C  C264  1  0.855600  0.315300  0.024600  1.0  0.1105
  C  C265  1  0.871300  0.259000  0.070700  1.0  -0.217
  C  C266  1  0.928800  0.195200  0.061400  1.0  0.1641
  C  C267  1  0.962000  0.242100  0.967200  1.0  0.159
  C  C268  1  0.904300  0.308300  0.973500  1.0  -0.213
  C  C269  1  0.843800  0.801600  0.576000  1.0  0.1239
  C  C270  1  0.783000  0.767900  0.614100  1.0  -0.1978
  C  C271  1  0.753600  0.810300  0.664100  1.0  0.0919
  C  C272  1  0.797600  0.887000  0.677300  1.0  -0.2072
  C  C273  1  0.858200  0.913500  0.637900  1.0  0.1705
  C  C274  1  0.683000  0.781800  0.701800  1.0  0.0081
  C  C275  1  0.666200  0.811100  0.761100  1.0  -0.0822
  C  C276  1  0.598700  0.781100  0.794000  1.0  -0.094
  C  C277  1  0.545400  0.721800  0.768700  1.0  -0.1053
  C  C278  1  0.559900  0.689300  0.709900  1.0  -0.0464
  C  C279  1  0.628700  0.720500  0.677200  1.0  -0.1131
  C  C280  1  0.505600  0.628700  0.680200  1.0  0.2544
  C  C281  1  0.407500  0.577100  0.617800  1.0  0.2374
  C  C282  1  0.339900  0.569000  0.574900  1.0  -0.0055
  C  C283  1  0.338700  0.498200  0.538700  1.0  -0.1231
  C  C284  1  0.271500  0.488100  0.498300  1.0  -0.0824
  C  C285  1  0.210100  0.546100  0.492000  1.0  -0.1288
  C  C286  1  0.208600  0.619800  0.530100  1.0  0.0215
  C  C287  1  0.275400  0.629200  0.570500  1.0  -0.1336
  C  C288  1  0.144400  0.684700  0.524600  1.0  0.1104
  C  C289  1  0.128700  0.741000  0.570700  1.0  -0.2175
  C  C290  1  0.071200  0.804800  0.561400  1.0  0.1638
  C  C291  1  0.038000  0.757900  0.467200  1.0  0.1592
  C  C292  1  0.095700  0.691700  0.473500  1.0  -0.2139
  C  C293  1  0.698400  0.343800  0.826000  1.0  0.1249
  C  C294  1  0.732100  0.283000  0.864100  1.0  -0.1993
  C  C295  1  0.689700  0.253600  0.914100  1.0  0.0915
  C  C296  1  0.613000  0.297600  0.927300  1.0  -0.2062
  C  C297  1  0.586500  0.358200  0.887900  1.0  0.171
  C  C298  1  0.718200  0.183000  0.951800  1.0  0.0071
  C  C299  1  0.688900  0.166200  0.011100  1.0  -0.0816
  C  C300  1  0.718900  0.098700  0.044000  1.0  -0.0949
  C  C301  1  0.778200  0.045400  0.018700  1.0  -0.1081
  C  C302  1  0.810700  0.059900  0.959900  1.0  -0.048
  C  C303  1  0.779500  0.128700  0.927200  1.0  -0.113
  C  C304  1  0.871300  0.005600  0.930200  1.0  0.2546
  C  C305  1  0.922900  0.907500  0.867800  1.0  0.2383
  C  C306  1  0.931000  0.839900  0.824900  1.0  -0.0043
  C  C307  1  0.001800  0.838700  0.788700  1.0  -0.1207
  C  C308  1  0.011900  0.771500  0.748300  1.0  -0.083
  C  C309  1  0.953900  0.710100  0.742000  1.0  -0.1313
  C  C310  1  0.880200  0.708600  0.780100  1.0  0.0198
  C  C311  1  0.870800  0.775400  0.820500  1.0  -0.1348
  C  C312  1  0.815300  0.644400  0.774600  1.0  0.1086
  C  C313  1  0.759000  0.628700  0.820700  1.0  -0.2152
  C  C314  1  0.695200  0.571200  0.811400  1.0  0.1651
  C  C315  1  0.742100  0.538000  0.717200  1.0  0.1609
  C  C316  1  0.808300  0.595700  0.723500  1.0  -0.2124
  C  C317  1  0.301600  0.656200  0.326000  1.0  0.1248
  C  C318  1  0.267900  0.717000  0.364100  1.0  -0.1993
  C  C319  1  0.310300  0.746400  0.414100  1.0  0.0925
  C  C320  1  0.387000  0.702400  0.427300  1.0  -0.2062
  C  C321  1  0.413500  0.641800  0.387900  1.0  0.1715
  C  C322  1  0.281800  0.817000  0.451800  1.0  0.0076
  C  C323  1  0.311100  0.833800  0.511100  1.0  -0.082
  C  C324  1  0.281100  0.901300  0.544000  1.0  -0.0948
  C  C325  1  0.221800  0.954600  0.518700  1.0  -0.107
  C  C326  1  0.189300  0.940100  0.459900  1.0  -0.0464
  C  C327  1  0.220500  0.871300  0.427200  1.0  -0.1124
  C  C328  1  0.128700  0.994400  0.430200  1.0  0.2547
  C  C329  1  0.077100  0.092500  0.367800  1.0  0.2382
  C  C330  1  0.069000  0.160100  0.324900  1.0  -0.0045
  C  C331  1  0.998200  0.161300  0.288700  1.0  -0.1206
  C  C332  1  0.988100  0.228500  0.248300  1.0  -0.0841
  C  C333  1  0.046100  0.289900  0.242000  1.0  -0.1309
  C  C334  1  0.119800  0.291400  0.280100  1.0  0.0189
  C  C335  1  0.129200  0.224600  0.320500  1.0  -0.1346
  C  C336  1  0.184700  0.355600  0.274600  1.0  0.1098
  C  C337  1  0.241000  0.371300  0.320700  1.0  -0.2163
  C  C338  1  0.304800  0.428800  0.311400  1.0  0.1647
  C  C339  1  0.257900  0.462000  0.217200  1.0  0.1605
  C  C340  1  0.191700  0.404300  0.223500  1.0  -0.213
  N  N341  1  0.006400  0.952900  0.065100  1.0  -0.2337
  N  N342  1  0.944300  0.986100  0.103900  1.0  -0.3078
  N  N343  1  0.945000  0.849700  0.110900  1.0  0.0743
  N  N344  1  0.925500  0.767200  0.131100  1.0  -0.5684
  N  N345  1  0.378100  0.623100  0.163100  1.0  -0.348
  N  N346  1  0.525700  0.685500  0.239900  1.0  -0.3624
  N  N347  1  0.993600  0.047100  0.565100  1.0  -0.2344
  N  N348  1  0.055700  0.013900  0.603900  1.0  -0.3069
  N  N349  1  0.055000  0.150300  0.610900  1.0  0.0744
  N  N350  1  0.074500  0.232800  0.631100  1.0  -0.569
  N  N351  1  0.621900  0.376900  0.663100  1.0  -0.3492
  N  N352  1  0.474300  0.314500  0.739900  1.0  -0.3621
  N  N353  1  0.547100  0.506400  0.315100  1.0  -0.2333
  N  N354  1  0.513900  0.444300  0.353900  1.0  -0.3067
  N  N355  1  0.650300  0.445000  0.360900  1.0  0.0755
  N  N356  1  0.732800  0.425500  0.381100  1.0  -0.5673
  N  N357  1  0.876900  0.878100  0.413100  1.0  -0.35
  N  N358  1  0.814500  0.025700  0.489900  1.0  -0.3629
  N  N359  1  0.452900  0.493600  0.815100  1.0  -0.2339
  N  N360  1  0.486100  0.555700  0.853900  1.0  -0.3083
  N  N361  1  0.349700  0.555000  0.860900  1.0  0.075
  N  N362  1  0.267200  0.574500  0.881100  1.0  -0.5674
  N  N363  1  0.123100  0.121900  0.913100  1.0  -0.3495
  N  N364  1  0.185500  0.974300  0.989900  1.0  -0.363
  N  N365  1  0.493600  0.452900  0.184900  1.0  -0.2344
  N  N366  1  0.555700  0.486100  0.146100  1.0  -0.3057
  N  N367  1  0.555000  0.349700  0.139100  1.0  0.0744
  N  N368  1  0.574500  0.267200  0.118900  1.0  -0.5685
  N  N369  1  0.121900  0.123100  0.086900  1.0  -0.3493
  N  N370  1  0.974300  0.185500  0.010100  1.0  -0.3621
  N  N371  1  0.506400  0.547100  0.684900  1.0  -0.2334
  N  N372  1  0.444300  0.513900  0.646100  1.0  -0.3063
  N  N373  1  0.445000  0.650300  0.639100  1.0  0.075
  N  N374  1  0.425500  0.732800  0.618900  1.0  -0.5687
  N  N375  1  0.878100  0.876900  0.586900  1.0  -0.3493
  N  N376  1  0.025700  0.814500  0.510100  1.0  -0.362
  N  N377  1  0.952900  0.006400  0.934900  1.0  -0.2338
  N  N378  1  0.986100  0.944300  0.896100  1.0  -0.3066
  N  N379  1  0.849700  0.945000  0.889100  1.0  0.075
  N  N380  1  0.767200  0.925500  0.868900  1.0  -0.5674
  N  N381  1  0.623100  0.378100  0.836900  1.0  -0.3505
  N  N382  1  0.685500  0.525700  0.760100  1.0  -0.3624
  N  N383  1  0.047100  0.993600  0.434900  1.0  -0.2337
  N  N384  1  0.013900  0.055700  0.396100  1.0  -0.3057
  N  N385  1  0.150300  0.055000  0.389100  1.0  0.0754
  N  N386  1  0.232800  0.074500  0.368900  1.0  -0.5667
  N  N387  1  0.376900  0.621900  0.336900  1.0  -0.3504
  N  N388  1  0.314500  0.474300  0.260100  1.0  -0.3635
  Cl  Cl389  1  0.378600  0.378600  0.000000  1.0  1.6083
  Cl  Cl390  1  0.621400  0.621400  0.500000  1.0  1.6079
  Cl  Cl391  1  0.121400  0.878600  0.250000  1.0  1.6081
  Cl  Cl392  1  0.878600  0.121400  0.750000  1.0  1.6083
  O  O393  1  0.328300  0.401100  0.047100  1.0  -0.5734
  O  O394  1  0.340600  0.443400  0.967200  1.0  -0.6187
  O  O395  1  0.401100  0.328300  0.952900  1.0  -0.575
  O  O396  1  0.443400  0.340600  0.032800  1.0  -0.622
  O  O397  1  0.671700  0.598900  0.547100  1.0  -0.5737
  O  O398  1  0.659400  0.556600  0.467200  1.0  -0.6188
  O  O399  1  0.598900  0.671700  0.452900  1.0  -0.5751
  O  O400  1  0.556600  0.659400  0.532800  1.0  -0.6201
  O  O401  1  0.098900  0.828300  0.297100  1.0  -0.5749
  O  O402  1  0.056600  0.840600  0.217200  1.0  -0.6185
  O  O403  1  0.171700  0.901100  0.202900  1.0  -0.5736
  O  O404  1  0.159400  0.943400  0.282800  1.0  -0.619
  O  O405  1  0.901100  0.171700  0.797100  1.0  -0.5755
  O  O406  1  0.943400  0.159400  0.717200  1.0  -0.6211
  O  O407  1  0.828300  0.098900  0.702900  1.0  -0.5737
  O  O408  1  0.840600  0.056600  0.782800  1.0  -0.6196
