# generated using pymatgen
data_CdH36C48N12ClO4
_symmetry_space_group_name_H-M   'P 1'
_cell_length_a   15.89550000
_cell_length_b   15.89550000
_cell_length_c   21.59900000
_cell_angle_alpha   90.00000000
_cell_angle_beta   90.00000000
_cell_angle_gamma   90.00000000
_symmetry_Int_Tables_number   1
_chemical_formula_structural   CdH36C48N12ClO4
_chemical_formula_sum   'Cd4 H144 C192 N48 Cl4 O16'
_cell_volume   5457.35281048
_cell_formula_units_Z   4
loop_
 _symmetry_equiv_pos_site_id
 _symmetry_equiv_pos_as_xyz
  1  'x, y, z'
loop_
 _atom_site_type_symbol
 _atom_site_label
 _atom_site_symmetry_multiplicity
 _atom_site_fract_x
 _atom_site_fract_y
 _atom_site_fract_z
 _atom_site_occupancy
 _atom_site_charge
  Cd  Cd1  1  0.441470  0.441470  0.000000  1.0  0.7921
  Cd  Cd2  1  0.558530  0.558530  0.500000  1.0  0.792
  Cd  Cd3  1  0.058530  0.941470  0.250000  1.0  0.7922
  Cd  Cd4  1  0.941470  0.058530  0.750000  1.0  0.7921
  H  H5  1  0.111200  0.960900  0.100000  1.0  0.0647
  H  H6  1  0.216700  0.914100  0.036100  1.0  0.1147
  H  H7  1  0.240200  0.714200  0.145100  1.0  0.1152
  H  H8  1  0.139900  0.770300  0.209700  1.0  0.0741
  H  H9  1  0.301900  0.852000  0.971000  1.0  0.0755
  H  H10  1  0.411200  0.799100  0.915200  1.0  0.1101
  H  H11  1  0.503500  0.700600  0.958900  1.0  0.093
  H  H12  1  0.361200  0.696900  0.111300  1.0  0.093
  H  H13  1  0.622000  0.455200  0.208500  1.0  0.1091
  H  H14  1  0.730800  0.437400  0.277300  1.0  0.1058
  H  H15  1  0.837400  0.533200  0.284900  1.0  0.1037
  H  H16  1  0.722200  0.676500  0.156400  1.0  0.0967
  H  H17  1  0.902400  0.650500  0.309800  1.0  0.1207
  H  H18  1  0.993700  0.760100  0.320600  1.0  0.0491
  H  H19  1  0.937700  0.844400  0.158700  1.0  0.0569
  H  H20  1  0.843500  0.737000  0.143100  1.0  0.1426
  H  H21  1  0.531600  0.750000  0.154600  1.0  0.3102
  H  H22  1  0.583700  0.764300  0.100300  1.0  0.3142
  H  H23  1  0.888800  0.039100  0.600000  1.0  0.0644
  H  H24  1  0.783300  0.085900  0.536100  1.0  0.1147
  H  H25  1  0.759800  0.285800  0.645100  1.0  0.1149
  H  H26  1  0.860100  0.229700  0.709700  1.0  0.0742
  H  H27  1  0.698100  0.148000  0.471000  1.0  0.0739
  H  H28  1  0.588800  0.200900  0.415200  1.0  0.1104
  H  H29  1  0.496500  0.299400  0.458900  1.0  0.0935
  H  H30  1  0.638800  0.303100  0.611300  1.0  0.0927
  H  H31  1  0.378000  0.544800  0.708500  1.0  0.1088
  H  H32  1  0.269200  0.562600  0.777300  1.0  0.1052
  H  H33  1  0.162600  0.466800  0.784900  1.0  0.1037
  H  H34  1  0.277800  0.323500  0.656400  1.0  0.0967
  H  H35  1  0.097600  0.349500  0.809800  1.0  0.1207
  H  H36  1  0.006300  0.239900  0.820600  1.0  0.0495
  H  H37  1  0.062300  0.155600  0.658700  1.0  0.0569
  H  H38  1  0.156500  0.263000  0.643100  1.0  0.1426
  H  H39  1  0.468400  0.250000  0.654600  1.0  0.3101
  H  H40  1  0.416300  0.235700  0.600300  1.0  0.314
  H  H41  1  0.539100  0.611200  0.350000  1.0  0.0651
  H  H42  1  0.585900  0.716700  0.286100  1.0  0.1132
  H  H43  1  0.785800  0.740200  0.395100  1.0  0.116
  H  H44  1  0.729700  0.639900  0.459700  1.0  0.0752
  H  H45  1  0.648000  0.801900  0.221000  1.0  0.073
  H  H46  1  0.700900  0.911200  0.165200  1.0  0.1104
  H  H47  1  0.799400  0.003500  0.208900  1.0  0.0937
  H  H48  1  0.803100  0.861200  0.361300  1.0  0.0931
  H  H49  1  0.044800  0.122000  0.458500  1.0  0.1093
  H  H50  1  0.062600  0.230800  0.527300  1.0  0.1047
  H  H51  1  0.966800  0.337400  0.534900  1.0  0.1034
  H  H52  1  0.823500  0.222200  0.406400  1.0  0.0964
  H  H53  1  0.849500  0.402400  0.559800  1.0  0.1207
  H  H54  1  0.739900  0.493700  0.570600  1.0  0.0482
  H  H55  1  0.655600  0.437700  0.408700  1.0  0.0568
  H  H56  1  0.763000  0.343500  0.393100  1.0  0.1432
  H  H57  1  0.750000  0.031600  0.404600  1.0  0.3129
  H  H58  1  0.735700  0.083700  0.350300  1.0  0.3139
  H  H59  1  0.460900  0.388800  0.850000  1.0  0.0651
  H  H60  1  0.414100  0.283300  0.786100  1.0  0.1136
  H  H61  1  0.214200  0.259800  0.895100  1.0  0.1167
  H  H62  1  0.270300  0.360100  0.959700  1.0  0.0734
  H  H63  1  0.352000  0.198100  0.721000  1.0  0.0733
  H  H64  1  0.299100  0.088800  0.665200  1.0  0.1098
  H  H65  1  0.200600  0.996500  0.708900  1.0  0.0936
  H  H66  1  0.196900  0.138800  0.861300  1.0  0.0932
  H  H67  1  0.955200  0.878000  0.958500  1.0  0.1095
  H  H68  1  0.937400  0.769200  0.027300  1.0  0.1048
  H  H69  1  0.033200  0.662600  0.034900  1.0  0.1037
  H  H70  1  0.176500  0.777800  0.906400  1.0  0.0959
  H  H71  1  0.150500  0.597600  0.059800  1.0  0.1213
  H  H72  1  0.260100  0.506300  0.070600  1.0  0.0496
  H  H73  1  0.344400  0.562300  0.908700  1.0  0.0569
  H  H74  1  0.237000  0.656500  0.893100  1.0  0.143
  H  H75  1  0.250000  0.968400  0.904600  1.0  0.3106
  H  H76  1  0.264300  0.916300  0.850300  1.0  0.3146
  H  H77  1  0.388800  0.460900  0.150000  1.0  0.0647
  H  H78  1  0.283300  0.414100  0.213900  1.0  0.1152
  H  H79  1  0.259800  0.214200  0.104900  1.0  0.1138
  H  H80  1  0.360100  0.270300  0.040300  1.0  0.0752
  H  H81  1  0.198100  0.352000  0.279000  1.0  0.0749
  H  H82  1  0.088800  0.299100  0.334800  1.0  0.1099
  H  H83  1  0.996500  0.200600  0.291100  1.0  0.0934
  H  H84  1  0.138800  0.196900  0.138700  1.0  0.0929
  H  H85  1  0.878000  0.955200  0.041500  1.0  0.1091
  H  H86  1  0.769200  0.937400  0.972700  1.0  0.1053
  H  H87  1  0.662600  0.033200  0.965100  1.0  0.1035
  H  H88  1  0.777800  0.176500  0.093600  1.0  0.0962
  H  H89  1  0.597600  0.150500  0.940200  1.0  0.1209
  H  H90  1  0.506300  0.260100  0.929400  1.0  0.0483
  H  H91  1  0.562300  0.344400  0.091300  1.0  0.0566
  H  H92  1  0.656500  0.237000  0.106900  1.0  0.1426
  H  H93  1  0.968400  0.250000  0.095400  1.0  0.309
  H  H94  1  0.916300  0.264300  0.149700  1.0  0.3132
  H  H95  1  0.611200  0.539100  0.650000  1.0  0.0644
  H  H96  1  0.716700  0.585900  0.713900  1.0  0.1147
  H  H97  1  0.740200  0.785800  0.604900  1.0  0.1146
  H  H98  1  0.639900  0.729700  0.540300  1.0  0.0746
  H  H99  1  0.801900  0.648000  0.779000  1.0  0.0743
  H  H100  1  0.911200  0.700900  0.834800  1.0  0.1101
  H  H101  1  0.003500  0.799400  0.791100  1.0  0.0934
  H  H102  1  0.861200  0.803100  0.638700  1.0  0.0926
  H  H103  1  0.122000  0.044800  0.541500  1.0  0.109
  H  H104  1  0.230800  0.062600  0.472700  1.0  0.1057
  H  H105  1  0.337400  0.966800  0.465100  1.0  0.1037
  H  H106  1  0.222200  0.823500  0.593600  1.0  0.0969
  H  H107  1  0.402400  0.849500  0.440200  1.0  0.1205
  H  H108  1  0.493700  0.739900  0.429400  1.0  0.0485
  H  H109  1  0.437700  0.655600  0.591300  1.0  0.0572
  H  H110  1  0.343500  0.763000  0.606900  1.0  0.1422
  H  H111  1  0.031600  0.750000  0.595400  1.0  0.308
  H  H112  1  0.083700  0.735700  0.649700  1.0  0.3138
  H  H113  1  0.960900  0.111200  0.900000  1.0  0.0654
  H  H114  1  0.914100  0.216700  0.963900  1.0  0.1135
  H  H115  1  0.714200  0.240200  0.854900  1.0  0.1156
  H  H116  1  0.770300  0.139900  0.790300  1.0  0.0736
  H  H117  1  0.852000  0.301900  0.029000  1.0  0.0729
  H  H118  1  0.799100  0.411200  0.084800  1.0  0.1097
  H  H119  1  0.700600  0.503500  0.041100  1.0  0.0935
  H  H120  1  0.696900  0.361200  0.888700  1.0  0.0931
  H  H121  1  0.455200  0.622000  0.791500  1.0  0.1094
  H  H122  1  0.437400  0.730800  0.722700  1.0  0.1049
  H  H123  1  0.533200  0.837400  0.715100  1.0  0.1038
  H  H124  1  0.676500  0.722200  0.843600  1.0  0.0963
  H  H125  1  0.650500  0.902400  0.690200  1.0  0.1208
  H  H126  1  0.760100  0.993700  0.679400  1.0  0.0482
  H  H127  1  0.844400  0.937700  0.841300  1.0  0.0571
  H  H128  1  0.737000  0.843500  0.856900  1.0  0.1427
  H  H129  1  0.750000  0.531600  0.845400  1.0  0.3111
  H  H130  1  0.764300  0.583700  0.899700  1.0  0.3139
  H  H131  1  0.039100  0.888800  0.400000  1.0  0.0652
  H  H132  1  0.085900  0.783300  0.463900  1.0  0.1136
  H  H133  1  0.285800  0.759800  0.354900  1.0  0.1159
  H  H134  1  0.229700  0.860100  0.290300  1.0  0.0759
  H  H135  1  0.148000  0.698100  0.529000  1.0  0.0729
  H  H136  1  0.200900  0.588800  0.584800  1.0  0.1101
  H  H137  1  0.299400  0.496500  0.541100  1.0  0.0938
  H  H138  1  0.303100  0.638800  0.388700  1.0  0.0929
  H  H139  1  0.544800  0.378000  0.291500  1.0  0.109
  H  H140  1  0.562600  0.269200  0.222700  1.0  0.1048
  H  H141  1  0.466800  0.162600  0.215100  1.0  0.1033
  H  H142  1  0.323500  0.277800  0.343600  1.0  0.0961
  H  H143  1  0.349500  0.097600  0.190200  1.0  0.121
  H  H144  1  0.239900  0.006300  0.179400  1.0  0.0479
  H  H145  1  0.155600  0.062300  0.341300  1.0  0.0567
  H  H146  1  0.263000  0.156500  0.356900  1.0  0.1431
  H  H147  1  0.250000  0.468400  0.345400  1.0  0.3109
  H  H148  1  0.235700  0.416300  0.399700  1.0  0.3143
  C  C149  1  0.140500  0.912600  0.111200  1.0  0.1643
  C  C150  1  0.203200  0.883700  0.071500  1.0  -0.2221
  C  C151  1  0.245700  0.809200  0.084900  1.0  0.0882
  C  C152  1  0.217700  0.766800  0.136100  1.0  -0.1954
  C  C153  1  0.156600  0.800400  0.174800  1.0  0.115
  C  C154  1  0.318000  0.779600  0.047500  1.0  0.0042
  C  C155  1  0.335800  0.810300  0.988100  1.0  -0.0926
  C  C156  1  0.402000  0.779900  0.955300  1.0  -0.0648
  C  C157  1  0.457000  0.719600  0.981000  1.0  -0.0929
  C  C158  1  0.440000  0.689200  0.040300  1.0  -0.0525
  C  C159  1  0.372100  0.718300  0.072100  1.0  -0.1484
  C  C160  1  0.495600  0.626500  0.070200  1.0  0.2363
  C  C161  1  0.592400  0.576200  0.132600  1.0  0.2485
  C  C162  1  0.660500  0.568200  0.175700  1.0  -0.0452
  C  C163  1  0.663800  0.495900  0.211800  1.0  -0.0768
  C  C164  1  0.729500  0.485200  0.252400  1.0  -0.0694
  C  C165  1  0.793300  0.542700  0.257500  1.0  -0.1136
  C  C166  1  0.792000  0.617500  0.220600  1.0  0.0037
  C  C167  1  0.724800  0.628200  0.180600  1.0  -0.0903
  C  C168  1  0.858100  0.682900  0.226300  1.0  0.1162
  C  C169  1  0.906900  0.690200  0.278300  1.0  -0.2205
  C  C170  1  0.962800  0.756200  0.284200  1.0  0.1603
  C  C171  1  0.930100  0.805200  0.190200  1.0  0.1749
  C  C172  1  0.872300  0.740700  0.180500  1.0  -0.2003
  C  C173  1  0.859500  0.087400  0.611200  1.0  0.1639
  C  C174  1  0.796800  0.116300  0.571500  1.0  -0.2219
  C  C175  1  0.754300  0.190800  0.584900  1.0  0.0886
  C  C176  1  0.782300  0.233200  0.636100  1.0  -0.1975
  C  C177  1  0.843400  0.199600  0.674800  1.0  0.1157
  C  C178  1  0.682000  0.220400  0.547500  1.0  0.0028
  C  C179  1  0.664200  0.189700  0.488100  1.0  -0.0928
  C  C180  1  0.598000  0.220100  0.455300  1.0  -0.0671
  C  C181  1  0.543000  0.280400  0.481000  1.0  -0.0934
  C  C182  1  0.560000  0.310800  0.540300  1.0  -0.0532
  C  C183  1  0.627900  0.281700  0.572100  1.0  -0.149
  C  C184  1  0.504400  0.373500  0.570200  1.0  0.2365
  C  C185  1  0.407600  0.423800  0.632600  1.0  0.2496
  C  C186  1  0.339500  0.431800  0.675700  1.0  -0.0458
  C  C187  1  0.336200  0.504100  0.711800  1.0  -0.0802
  C  C188  1  0.270500  0.514800  0.752400  1.0  -0.0684
  C  C189  1  0.206700  0.457300  0.757500  1.0  -0.1133
  C  C190  1  0.208000  0.382500  0.720600  1.0  0.0033
  C  C191  1  0.275200  0.371800  0.680600  1.0  -0.0892
  C  C192  1  0.141900  0.317100  0.726300  1.0  0.1176
  C  C193  1  0.093100  0.309800  0.778300  1.0  -0.2212
  C  C194  1  0.037200  0.243800  0.784200  1.0  0.1608
  C  C195  1  0.069900  0.194800  0.690200  1.0  0.1741
  C  C196  1  0.127700  0.259300  0.680500  1.0  -0.2005
  C  C197  1  0.587400  0.640500  0.361200  1.0  0.1656
  C  C198  1  0.616300  0.703200  0.321500  1.0  -0.2186
  C  C199  1  0.690800  0.745700  0.334900  1.0  0.0888
  C  C200  1  0.733200  0.717700  0.386100  1.0  -0.1966
  C  C201  1  0.699600  0.656600  0.424800  1.0  0.1176
  C  C202  1  0.720400  0.818000  0.297500  1.0  0.0046
  C  C203  1  0.689700  0.835800  0.238100  1.0  -0.0915
  C  C204  1  0.720100  0.902000  0.205300  1.0  -0.0656
  C  C205  1  0.780400  0.957000  0.231000  1.0  -0.0893
  C  C206  1  0.810800  0.940000  0.290300  1.0  -0.0534
  C  C207  1  0.781700  0.872100  0.322100  1.0  -0.1486
  C  C208  1  0.873500  0.995600  0.320200  1.0  0.2347
  C  C209  1  0.923800  0.092400  0.382600  1.0  0.2502
  C  C210  1  0.931800  0.160500  0.425700  1.0  -0.0461
  C  C211  1  0.004100  0.163800  0.461800  1.0  -0.0808
  C  C212  1  0.014800  0.229500  0.502400  1.0  -0.0707
  C  C213  1  0.957300  0.293300  0.507500  1.0  -0.113
  C  C214  1  0.882500  0.292000  0.470600  1.0  0.0027
  C  C215  1  0.871800  0.224800  0.430600  1.0  -0.0908
  C  C216  1  0.817100  0.358100  0.476300  1.0  0.1156
  C  C217  1  0.809800  0.406900  0.528300  1.0  -0.2204
  C  C218  1  0.743800  0.462800  0.534200  1.0  0.161
  C  C219  1  0.694800  0.430100  0.440200  1.0  0.175
  C  C220  1  0.759300  0.372300  0.430500  1.0  -0.2001
  C  C221  1  0.412600  0.359500  0.861200  1.0  0.1653
  C  C222  1  0.383700  0.296800  0.821500  1.0  -0.2196
  C  C223  1  0.309200  0.254300  0.834900  1.0  0.0885
  C  C224  1  0.266800  0.282300  0.886100  1.0  -0.1926
  C  C225  1  0.300400  0.343400  0.924800  1.0  0.1176
  C  C226  1  0.279600  0.182000  0.797500  1.0  0.0045
  C  C227  1  0.310300  0.164200  0.738100  1.0  -0.0907
  C  C228  1  0.279900  0.098000  0.705300  1.0  -0.0665
  C  C229  1  0.219600  0.043000  0.731000  1.0  -0.0865
  C  C230  1  0.189200  0.060000  0.790300  1.0  -0.0524
  C  C231  1  0.218300  0.127900  0.822100  1.0  -0.149
  C  C232  1  0.126500  0.004400  0.820200  1.0  0.2348
  C  C233  1  0.076200  0.907600  0.882600  1.0  0.2501
  C  C234  1  0.068200  0.839500  0.925700  1.0  -0.0457
  C  C235  1  0.995900  0.836200  0.961800  1.0  -0.079
  C  C236  1  0.985200  0.770500  0.002400  1.0  -0.0711
  C  C237  1  0.042700  0.706700  0.007500  1.0  -0.1119
  C  C238  1  0.117500  0.708000  0.970600  1.0  0.0016
  C  C239  1  0.128200  0.775200  0.930600  1.0  -0.091
  C  C240  1  0.182900  0.641900  0.976300  1.0  0.1164
  C  C241  1  0.190200  0.593100  0.028300  1.0  -0.2196
  C  C242  1  0.256200  0.537200  0.034200  1.0  0.1615
  C  C243  1  0.305200  0.569900  0.940200  1.0  0.1752
  C  C244  1  0.240700  0.627700  0.930500  1.0  -0.1996
  C  C245  1  0.359500  0.412600  0.138800  1.0  0.1637
  C  C246  1  0.296800  0.383700  0.178500  1.0  -0.2224
  C  C247  1  0.254300  0.309200  0.165100  1.0  0.0893
  C  C248  1  0.282300  0.266800  0.113900  1.0  -0.1999
  C  C249  1  0.343400  0.300400  0.075200  1.0  0.1155
  C  C250  1  0.182000  0.279600  0.202500  1.0  0.0034
  C  C251  1  0.164200  0.310300  0.261900  1.0  -0.093
  C  C252  1  0.098000  0.279900  0.294700  1.0  -0.0631
  C  C253  1  0.043000  0.219600  0.269000  1.0  -0.0945
  C  C254  1  0.060000  0.189200  0.209700  1.0  -0.0537
  C  C255  1  0.127900  0.218300  0.177900  1.0  -0.1486
  C  C256  1  0.004400  0.126500  0.179800  1.0  0.237
  C  C257  1  0.907600  0.076200  0.117400  1.0  0.2491
  C  C258  1  0.839500  0.068200  0.074300  1.0  -0.0457
  C  C259  1  0.836200  0.995900  0.038200  1.0  -0.0785
  C  C260  1  0.770500  0.985200  0.997600  1.0  -0.0692
  C  C261  1  0.706700  0.042700  0.992500  1.0  -0.1139
  C  C262  1  0.708000  0.117500  0.029400  1.0  0.0032
  C  C263  1  0.775200  0.128200  0.069400  1.0  -0.0899
  C  C264  1  0.641900  0.182900  0.023700  1.0  0.1163
  C  C265  1  0.593100  0.190200  0.971700  1.0  -0.2211
  C  C266  1  0.537200  0.256200  0.965800  1.0  0.161
  C  C267  1  0.569900  0.305200  0.059800  1.0  0.1739
  C  C268  1  0.627700  0.240700  0.069500  1.0  -0.1999
  C  C269  1  0.640500  0.587400  0.638800  1.0  0.1642
  C  C270  1  0.703200  0.616300  0.678500  1.0  -0.2223
  C  C271  1  0.745700  0.690800  0.665100  1.0  0.0884
  C  C272  1  0.717700  0.733200  0.613900  1.0  -0.1999
  C  C273  1  0.656600  0.699600  0.575200  1.0  0.1152
  C  C274  1  0.818000  0.720400  0.702500  1.0  0.004
  C  C275  1  0.835800  0.689700  0.761900  1.0  -0.0925
  C  C276  1  0.902000  0.720100  0.794700  1.0  -0.0638
  C  C277  1  0.957000  0.780400  0.769000  1.0  -0.0936
  C  C278  1  0.940000  0.810800  0.709700  1.0  -0.0527
  C  C279  1  0.872100  0.781700  0.677900  1.0  -0.1494
  C  C280  1  0.995600  0.873500  0.679800  1.0  0.2371
  C  C281  1  0.092400  0.923800  0.617400  1.0  0.2481
  C  C282  1  0.160500  0.931800  0.574300  1.0  -0.0452
  C  C283  1  0.163800  0.004100  0.538200  1.0  -0.0777
  C  C284  1  0.229500  0.014800  0.497600  1.0  -0.0684
  C  C285  1  0.293300  0.957300  0.492500  1.0  -0.115
  C  C286  1  0.292000  0.882500  0.529400  1.0  0.0036
  C  C287  1  0.224800  0.871800  0.569400  1.0  -0.0901
  C  C288  1  0.358100  0.817100  0.523700  1.0  0.1171
  C  C289  1  0.406900  0.809800  0.471700  1.0  -0.22
  C  C290  1  0.462800  0.743800  0.465800  1.0  0.1617
  C  C291  1  0.430100  0.694800  0.559800  1.0  0.1748
  C  C292  1  0.372300  0.759300  0.569500  1.0  -0.1995
  C  C293  1  0.912600  0.140500  0.888800  1.0  0.1646
  C  C294  1  0.883700  0.203200  0.928500  1.0  -0.2198
  C  C295  1  0.809200  0.245700  0.915100  1.0  0.0895
  C  C296  1  0.766800  0.217700  0.863900  1.0  -0.1973
  C  C297  1  0.800400  0.156600  0.825200  1.0  0.1176
  C  C298  1  0.779600  0.318000  0.952500  1.0  0.0048
  C  C299  1  0.810300  0.335800  0.011900  1.0  -0.0908
  C  C300  1  0.779900  0.402000  0.044700  1.0  -0.0635
  C  C301  1  0.719600  0.457000  0.019000  1.0  -0.0881
  C  C302  1  0.689200  0.440000  0.959700  1.0  -0.0527
  C  C303  1  0.718300  0.372100  0.927900  1.0  -0.1489
  C  C304  1  0.626500  0.495600  0.929800  1.0  0.2357
  C  C305  1  0.576200  0.592400  0.867400  1.0  0.2496
  C  C306  1  0.568200  0.660500  0.824300  1.0  -0.0454
  C  C307  1  0.495900  0.663800  0.788200  1.0  -0.0788
  C  C308  1  0.485200  0.729500  0.747600  1.0  -0.0712
  C  C309  1  0.542700  0.793300  0.742500  1.0  -0.1132
  C  C310  1  0.617500  0.792000  0.779400  1.0  0.0019
  C  C311  1  0.628200  0.724800  0.819400  1.0  -0.0912
  C  C312  1  0.682900  0.858100  0.773700  1.0  0.1166
  C  C313  1  0.690200  0.906900  0.721700  1.0  -0.2196
  C  C314  1  0.756200  0.962800  0.715800  1.0  0.1615
  C  C315  1  0.805200  0.930100  0.809800  1.0  0.175
  C  C316  1  0.740700  0.872300  0.819500  1.0  -0.1998
  C  C317  1  0.087400  0.859500  0.388800  1.0  0.165
  C  C318  1  0.116300  0.796800  0.428500  1.0  -0.2184
  C  C319  1  0.190800  0.754300  0.415100  1.0  0.0888
  C  C320  1  0.233200  0.782300  0.363900  1.0  -0.1992
  C  C321  1  0.199600  0.843400  0.325200  1.0  0.1176
  C  C322  1  0.220400  0.682000  0.452500  1.0  0.0038
  C  C323  1  0.189700  0.664200  0.511900  1.0  -0.0911
  C  C324  1  0.220100  0.598000  0.544700  1.0  -0.0639
  C  C325  1  0.280400  0.543000  0.519000  1.0  -0.0897
  C  C326  1  0.310800  0.560000  0.459700  1.0  -0.0532
  C  C327  1  0.281700  0.627900  0.427900  1.0  -0.149
  C  C328  1  0.373500  0.504400  0.429800  1.0  0.2354
  C  C329  1  0.423800  0.407600  0.367400  1.0  0.2493
  C  C330  1  0.431800  0.339500  0.324300  1.0  -0.0464
  C  C331  1  0.504100  0.336200  0.288200  1.0  -0.081
  C  C332  1  0.514800  0.270500  0.247600  1.0  -0.0711
  C  C333  1  0.457300  0.206700  0.242500  1.0  -0.1141
  C  C334  1  0.382500  0.208000  0.279400  1.0  0.0025
  C  C335  1  0.371800  0.275200  0.319400  1.0  -0.0909
  C  C336  1  0.317100  0.141900  0.273700  1.0  0.1155
  C  C337  1  0.309800  0.093100  0.221700  1.0  -0.2203
  C  C338  1  0.243800  0.037200  0.215800  1.0  0.1623
  C  C339  1  0.194800  0.069900  0.309800  1.0  0.1757
  C  C340  1  0.259300  0.127700  0.319500  1.0  -0.1989
  N  N341  1  0.555000  0.512500  0.104800  1.0  -0.2972
  N  N342  1  0.493600  0.544700  0.066100  1.0  -0.2388
  N  N343  1  0.556300  0.648500  0.111500  1.0  0.0743
  N  N344  1  0.574900  0.730800  0.132700  1.0  -0.5526
  N  N345  1  0.975000  0.814000  0.241600  1.0  -0.3611
  N  N346  1  0.120600  0.876200  0.162900  1.0  -0.3523
  N  N347  1  0.445000  0.487500  0.604800  1.0  -0.297
  N  N348  1  0.506400  0.455300  0.566100  1.0  -0.2393
  N  N349  1  0.443700  0.351500  0.611500  1.0  0.0745
  N  N350  1  0.425100  0.269200  0.632700  1.0  -0.5527
  N  N351  1  0.025000  0.186000  0.741600  1.0  -0.3615
  N  N352  1  0.879400  0.123800  0.662900  1.0  -0.3518
  N  N353  1  0.987500  0.055000  0.354800  1.0  -0.2981
  N  N354  1  0.955300  0.993600  0.316100  1.0  -0.2383
  N  N355  1  0.851500  0.056300  0.361500  1.0  0.0747
  N  N356  1  0.769200  0.074900  0.382700  1.0  -0.5528
  N  N357  1  0.686000  0.475000  0.491600  1.0  -0.3619
  N  N358  1  0.623800  0.620600  0.412900  1.0  -0.3517
  N  N359  1  0.012500  0.945000  0.854800  1.0  -0.2974
  N  N360  1  0.044700  0.006400  0.816100  1.0  -0.238
  N  N361  1  0.148500  0.943700  0.861500  1.0  0.0756
  N  N362  1  0.230800  0.925100  0.882700  1.0  -0.5547
  N  N363  1  0.314000  0.525000  0.991600  1.0  -0.3623
  N  N364  1  0.376200  0.379400  0.912900  1.0  -0.3522
  N  N365  1  0.945000  0.012500  0.145200  1.0  -0.297
  N  N366  1  0.006400  0.044700  0.183900  1.0  -0.2386
  N  N367  1  0.943700  0.148500  0.138500  1.0  0.0745
  N  N368  1  0.925100  0.230800  0.117300  1.0  -0.5538
  N  N369  1  0.525000  0.314000  0.008400  1.0  -0.3616
  N  N370  1  0.379400  0.376200  0.087100  1.0  -0.3521
  N  N371  1  0.055000  0.987500  0.645200  1.0  -0.2975
  N  N372  1  0.993600  0.955300  0.683900  1.0  -0.239
  N  N373  1  0.056300  0.851500  0.638500  1.0  0.0744
  N  N374  1  0.074900  0.769200  0.617300  1.0  -0.551
  N  N375  1  0.475000  0.686000  0.508400  1.0  -0.3614
  N  N376  1  0.620600  0.623800  0.587100  1.0  -0.3522
  N  N377  1  0.512500  0.555000  0.895200  1.0  -0.2963
  N  N378  1  0.544700  0.493600  0.933900  1.0  -0.2385
  N  N379  1  0.648500  0.556300  0.888500  1.0  0.0754
  N  N380  1  0.730800  0.574900  0.867300  1.0  -0.5527
  N  N381  1  0.814000  0.975000  0.758400  1.0  -0.3631
  N  N382  1  0.876200  0.120600  0.837100  1.0  -0.3522
  N  N383  1  0.487500  0.445000  0.395200  1.0  -0.2969
  N  N384  1  0.455300  0.506400  0.433900  1.0  -0.2382
  N  N385  1  0.351500  0.443700  0.388500  1.0  0.0751
  N  N386  1  0.269200  0.425100  0.367300  1.0  -0.5521
  N  N387  1  0.186000  0.025000  0.258400  1.0  -0.3618
  N  N388  1  0.123800  0.879400  0.337100  1.0  -0.3521
  Cl  Cl389  1  0.731440  0.731440  0.000000  1.0  1.3632
  Cl  Cl390  1  0.268560  0.268560  0.500000  1.0  1.3632
  Cl  Cl391  1  0.768560  0.231440  0.250000  1.0  1.3631
  Cl  Cl392  1  0.231440  0.768560  0.750000  1.0  1.3631
  O  O393  1  0.756500  0.775000  0.053400  1.0  -0.5978
  O  O394  1  0.661000  0.776000  0.973700  1.0  -0.528
  O  O395  1  0.775000  0.756500  0.946600  1.0  -0.5985
  O  O396  1  0.776000  0.661000  0.026300  1.0  -0.5269
  O  O397  1  0.243500  0.225000  0.553400  1.0  -0.5974
  O  O398  1  0.339000  0.224000  0.473700  1.0  -0.5267
  O  O399  1  0.225000  0.243500  0.446600  1.0  -0.5975
  O  O400  1  0.224000  0.339000  0.526300  1.0  -0.5283
  O  O401  1  0.725000  0.256500  0.303400  1.0  -0.5971
  O  O402  1  0.724000  0.161000  0.223700  1.0  -0.5272
  O  O403  1  0.743500  0.275000  0.196600  1.0  -0.5979
  O  O404  1  0.839000  0.276000  0.276300  1.0  -0.5269
  O  O405  1  0.275000  0.743500  0.803400  1.0  -0.598
  O  O406  1  0.276000  0.839000  0.723700  1.0  -0.5272
  O  O407  1  0.256500  0.725000  0.696600  1.0  -0.5967
  O  O408  1  0.161000  0.724000  0.776300  1.0  -0.528
