# generated using pymatgen
data_CdH36C48N12ClO4
_symmetry_space_group_name_H-M   'P 1'
_cell_length_a   15.81780000
_cell_length_b   15.81780000
_cell_length_c   21.50300000
_cell_angle_alpha   90.00000000
_cell_angle_beta   90.00000000
_cell_angle_gamma   90.00000000
_symmetry_Int_Tables_number   1
_chemical_formula_structural   CdH36C48N12ClO4
_chemical_formula_sum   'Cd4 H144 C192 N48 Cl4 O16'
_cell_volume   5380.11074045
_cell_formula_units_Z   4
loop_
 _symmetry_equiv_pos_site_id
 _symmetry_equiv_pos_as_xyz
  1  'x, y, z'
loop_
 _atom_site_type_symbol
 _atom_site_label
 _atom_site_symmetry_multiplicity
 _atom_site_fract_x
 _atom_site_fract_y
 _atom_site_fract_z
 _atom_site_occupancy
 _atom_site_charge
  Cd  Cd1  1  0.059660  0.940340  0.750000  1.0  0.7947
  Cd  Cd2  1  0.940340  0.059660  0.250000  1.0  0.7946
  Cd  Cd3  1  0.559660  0.559660  0.000000  1.0  0.7946
  Cd  Cd4  1  0.440340  0.440340  0.500000  1.0  0.7948
  H  H5  1  0.240500  0.003800  0.675200  1.0  0.0612
  H  H6  1  0.350400  0.096100  0.682700  1.0  0.1276
  H  H7  1  0.265700  0.154400  0.855900  1.0  0.1169
  H  H8  1  0.159200  0.060300  0.841400  1.0  0.0529
  H  H9  1  0.470100  0.159500  0.711600  1.0  0.1031
  H  H10  1  0.571500  0.261700  0.723100  1.0  0.0943
  H  H11  1  0.551400  0.375900  0.790200  1.0  0.1046
  H  H12  1  0.328400  0.274100  0.844100  1.0  0.0891
  H  H13  1  0.298400  0.489100  0.042500  1.0  0.0974
  H  H14  1  0.195600  0.579600  0.082800  1.0  0.0918
  H  H15  1  0.152200  0.698800  0.032500  1.0  0.0828
  H  H16  1  0.304900  0.639400  0.887900  1.0  0.1178
  H  H17  1  0.089700  0.784900  0.967900  1.0  0.1196
  H  H18  1  0.040800  0.890900  0.902900  1.0  0.0811
  H  H19  1  0.231800  0.860800  0.790300  1.0  0.0682
  H  H20  1  0.291400  0.759000  0.855000  1.0  0.1259
  H  H21  1  0.233900  0.462000  0.861300  1.0  0.3441
  H  H22  1  0.253100  0.394000  0.901000  1.0  0.2872
  H  H23  1  0.759500  0.996200  0.175200  1.0  0.061
  H  H24  1  0.649600  0.903900  0.182700  1.0  0.1279
  H  H25  1  0.734300  0.845600  0.355900  1.0  0.1168
  H  H26  1  0.840800  0.939700  0.341400  1.0  0.0527
  H  H27  1  0.529900  0.840500  0.211600  1.0  0.1035
  H  H28  1  0.428500  0.738300  0.223100  1.0  0.0947
  H  H29  1  0.448600  0.624100  0.290200  1.0  0.105
  H  H30  1  0.671600  0.725900  0.344100  1.0  0.0888
  H  H31  1  0.701600  0.510900  0.542500  1.0  0.0981
  H  H32  1  0.804400  0.420400  0.582800  1.0  0.0914
  H  H33  1  0.847800  0.301200  0.532500  1.0  0.0824
  H  H34  1  0.695100  0.360600  0.387900  1.0  0.1181
  H  H35  1  0.910300  0.215100  0.467900  1.0  0.119
  H  H36  1  0.959200  0.109100  0.402900  1.0  0.081
  H  H37  1  0.768200  0.139200  0.290300  1.0  0.0681
  H  H38  1  0.708600  0.241000  0.355000  1.0  0.126
  H  H39  1  0.766100  0.538000  0.361300  1.0  0.3427
  H  H40  1  0.746900  0.606000  0.401000  1.0  0.2871
  H  H41  1  0.496200  0.740500  0.925200  1.0  0.0619
  H  H42  1  0.403900  0.850400  0.932700  1.0  0.1279
  H  H43  1  0.345600  0.765700  0.105900  1.0  0.1163
  H  H44  1  0.439700  0.659200  0.091400  1.0  0.0536
  H  H45  1  0.340500  0.970100  0.961600  1.0  0.1035
  H  H46  1  0.238300  0.071500  0.973100  1.0  0.0941
  H  H47  1  0.124100  0.051400  0.040200  1.0  0.1047
  H  H48  1  0.225900  0.828400  0.094100  1.0  0.0894
  H  H49  1  0.010900  0.798400  0.292500  1.0  0.0961
  H  H50  1  0.920400  0.695600  0.332800  1.0  0.0929
  H  H51  1  0.801200  0.652200  0.282500  1.0  0.0826
  H  H52  1  0.860600  0.804900  0.137900  1.0  0.1179
  H  H53  1  0.715100  0.589700  0.217900  1.0  0.1195
  H  H54  1  0.609100  0.540800  0.152900  1.0  0.081
  H  H55  1  0.639200  0.731800  0.040300  1.0  0.0678
  H  H56  1  0.741000  0.791400  0.105000  1.0  0.1265
  H  H57  1  0.038000  0.733900  0.111300  1.0  0.342
  H  H58  1  0.106000  0.753100  0.151000  1.0  0.2867
  H  H59  1  0.503800  0.259500  0.425200  1.0  0.0612
  H  H60  1  0.596100  0.149600  0.432700  1.0  0.1275
  H  H61  1  0.654400  0.234300  0.605900  1.0  0.1165
  H  H62  1  0.560300  0.340800  0.591400  1.0  0.0531
  H  H63  1  0.659500  0.029900  0.461600  1.0  0.1026
  H  H64  1  0.761700  0.928500  0.473100  1.0  0.0942
  H  H65  1  0.875900  0.948600  0.540200  1.0  0.1047
  H  H66  1  0.774100  0.171600  0.594100  1.0  0.0893
  H  H67  1  0.989100  0.201600  0.792500  1.0  0.0966
  H  H68  1  0.079600  0.304400  0.832800  1.0  0.0926
  H  H69  1  0.198800  0.347800  0.782500  1.0  0.0831
  H  H70  1  0.139400  0.195100  0.637900  1.0  0.1176
  H  H71  1  0.284900  0.410300  0.717900  1.0  0.1203
  H  H72  1  0.390900  0.459200  0.652900  1.0  0.081
  H  H73  1  0.360800  0.268200  0.540300  1.0  0.0675
  H  H74  1  0.259000  0.208600  0.605000  1.0  0.1255
  H  H75  1  0.962000  0.266100  0.611300  1.0  0.3405
  H  H76  1  0.894000  0.246900  0.651000  1.0  0.2864
  H  H77  1  0.259500  0.503800  0.574800  1.0  0.0605
  H  H78  1  0.149600  0.596100  0.567300  1.0  0.1288
  H  H79  1  0.234300  0.654400  0.394100  1.0  0.117
  H  H80  1  0.340800  0.560300  0.408600  1.0  0.053
  H  H81  1  0.029900  0.659500  0.538400  1.0  0.1027
  H  H82  1  0.928500  0.761700  0.526900  1.0  0.0946
  H  H83  1  0.948600  0.875900  0.459800  1.0  0.105
  H  H84  1  0.171600  0.774100  0.405900  1.0  0.0887
  H  H85  1  0.201600  0.989100  0.207500  1.0  0.0978
  H  H86  1  0.304400  0.079600  0.167200  1.0  0.0917
  H  H87  1  0.347800  0.198800  0.217500  1.0  0.0829
  H  H88  1  0.195100  0.139400  0.362100  1.0  0.1184
  H  H89  1  0.410300  0.284900  0.282100  1.0  0.1194
  H  H90  1  0.459200  0.390900  0.347100  1.0  0.0803
  H  H91  1  0.268200  0.360800  0.459700  1.0  0.0683
  H  H92  1  0.208600  0.259000  0.395000  1.0  0.1256
  H  H93  1  0.266100  0.962000  0.388700  1.0  0.3438
  H  H94  1  0.246900  0.894000  0.349000  1.0  0.2872
  H  H95  1  0.740500  0.496200  0.074800  1.0  0.0601
  H  H96  1  0.850400  0.403900  0.067300  1.0  0.1282
  H  H97  1  0.765700  0.345600  0.894100  1.0  0.1171
  H  H98  1  0.659200  0.439700  0.908600  1.0  0.0531
  H  H99  1  0.970100  0.340500  0.038400  1.0  0.1028
  H  H100  1  0.071500  0.238300  0.026900  1.0  0.0942
  H  H101  1  0.051400  0.124100  0.959800  1.0  0.105
  H  H102  1  0.828400  0.225900  0.905900  1.0  0.0897
  H  H103  1  0.798400  0.010900  0.707500  1.0  0.0974
  H  H104  1  0.695600  0.920400  0.667200  1.0  0.0915
  H  H105  1  0.652200  0.801200  0.717500  1.0  0.0828
  H  H106  1  0.804900  0.860600  0.862100  1.0  0.1182
  H  H107  1  0.589700  0.715100  0.782100  1.0  0.1197
  H  H108  1  0.540800  0.609100  0.847100  1.0  0.0806
  H  H109  1  0.731800  0.639200  0.959700  1.0  0.0686
  H  H110  1  0.791400  0.741000  0.895000  1.0  0.1262
  H  H111  1  0.733900  0.038000  0.888700  1.0  0.343
  H  H112  1  0.753100  0.106000  0.849000  1.0  0.2863
  H  H113  1  0.003800  0.240500  0.324800  1.0  0.061
  H  H114  1  0.096100  0.350400  0.317300  1.0  0.1283
  H  H115  1  0.154400  0.265700  0.144100  1.0  0.1167
  H  H116  1  0.060300  0.159200  0.158600  1.0  0.0538
  H  H117  1  0.159500  0.470100  0.288400  1.0  0.1027
  H  H118  1  0.261700  0.571500  0.276900  1.0  0.0941
  H  H119  1  0.375900  0.551400  0.209800  1.0  0.1045
  H  H120  1  0.274100  0.328400  0.155900  1.0  0.0893
  H  H121  1  0.489100  0.298400  0.957500  1.0  0.0968
  H  H122  1  0.579600  0.195600  0.917200  1.0  0.0928
  H  H123  1  0.698800  0.152200  0.967500  1.0  0.0825
  H  H124  1  0.639400  0.304900  0.112100  1.0  0.1178
  H  H125  1  0.784900  0.089700  0.032100  1.0  0.1205
  H  H126  1  0.890900  0.040800  0.097100  1.0  0.0804
  H  H127  1  0.860800  0.231800  0.209700  1.0  0.0678
  H  H128  1  0.759000  0.291400  0.145000  1.0  0.1261
  H  H129  1  0.462000  0.233900  0.138700  1.0  0.3423
  H  H130  1  0.394000  0.253100  0.099000  1.0  0.2864
  H  H131  1  0.996200  0.759500  0.824800  1.0  0.0606
  H  H132  1  0.903900  0.649600  0.817300  1.0  0.1284
  H  H133  1  0.845600  0.734300  0.644100  1.0  0.1165
  H  H134  1  0.939700  0.840800  0.658600  1.0  0.0535
  H  H135  1  0.840500  0.529900  0.788400  1.0  0.1025
  H  H136  1  0.738300  0.428500  0.776900  1.0  0.0943
  H  H137  1  0.624100  0.448600  0.709800  1.0  0.1048
  H  H138  1  0.725900  0.671600  0.655900  1.0  0.0897
  H  H139  1  0.510900  0.701600  0.457500  1.0  0.096
  H  H140  1  0.420400  0.804400  0.417200  1.0  0.0926
  H  H141  1  0.301200  0.847800  0.467500  1.0  0.0841
  H  H142  1  0.360600  0.695100  0.612100  1.0  0.1181
  H  H143  1  0.215100  0.910300  0.532100  1.0  0.1202
  H  H144  1  0.109100  0.959200  0.597100  1.0  0.0807
  H  H145  1  0.139200  0.768200  0.709700  1.0  0.0683
  H  H146  1  0.241000  0.708600  0.645000  1.0  0.1256
  H  H147  1  0.538000  0.766100  0.638700  1.0  0.3417
  H  H148  1  0.606000  0.746900  0.599000  1.0  0.2864
  C  C149  1  0.245700  0.035800  0.712400  1.0  0.1707
  C  C150  1  0.311700  0.090700  0.716200  1.0  -0.2205
  C  C151  1  0.321900  0.139800  0.771000  1.0  0.0875
  C  C152  1  0.261900  0.124700  0.817500  1.0  -0.2247
  C  C153  1  0.198600  0.068400  0.808600  1.0  0.1722
  C  C154  1  0.388100  0.205300  0.776100  1.0  0.0219
  C  C155  1  0.461400  0.204000  0.740700  1.0  -0.1204
  C  C156  1  0.521100  0.265200  0.746900  1.0  -0.0849
  C  C157  1  0.509900  0.332700  0.787100  1.0  -0.122
  C  C158  1  0.436400  0.335900  0.823100  1.0  0.004
  C  C159  1  0.377200  0.272600  0.818400  1.0  -0.1357
  C  C160  1  0.427300  0.406300  0.867200  1.0  0.2365
  C  C161  1  0.375700  0.501800  0.930300  1.0  0.2333
  C  C162  1  0.312800  0.556500  0.961000  1.0  -0.0471
  C  C163  1  0.280100  0.537300  0.019800  1.0  -0.1402
  C  C164  1  0.219500  0.592200  0.043300  1.0  -0.0817
  C  C165  1  0.192500  0.662600  0.013500  1.0  -0.0992
  C  C166  1  0.224500  0.681600  0.954100  1.0  0.0213
  C  C167  1  0.283600  0.628000  0.928300  1.0  -0.1252
  C  C168  1  0.192600  0.754100  0.917600  1.0  0.085
  C  C169  1  0.120100  0.797700  0.930900  1.0  -0.1735
  C  C170  1  0.090100  0.860500  0.891200  1.0  0.1566
  C  C171  1  0.201600  0.843700  0.826300  1.0  0.136
  C  C172  1  0.237500  0.782000  0.864500  1.0  -0.2071
  C  C173  1  0.754300  0.964200  0.212400  1.0  0.1712
  C  C174  1  0.688300  0.909300  0.216200  1.0  -0.2205
  C  C175  1  0.678100  0.860200  0.271000  1.0  0.0889
  C  C176  1  0.738100  0.875300  0.317500  1.0  -0.2242
  C  C177  1  0.801400  0.931600  0.308600  1.0  0.1713
  C  C178  1  0.611900  0.794700  0.276100  1.0  0.0218
  C  C179  1  0.538600  0.796000  0.240700  1.0  -0.121
  C  C180  1  0.478900  0.734800  0.246900  1.0  -0.0863
  C  C181  1  0.490100  0.667300  0.287100  1.0  -0.1222
  C  C182  1  0.563600  0.664100  0.323100  1.0  0.004
  C  C183  1  0.622800  0.727400  0.318400  1.0  -0.1352
  C  C184  1  0.572700  0.593700  0.367200  1.0  0.2364
  C  C185  1  0.624300  0.498200  0.430300  1.0  0.2328
  C  C186  1  0.687200  0.443500  0.461000  1.0  -0.0478
  C  C187  1  0.719900  0.462700  0.519800  1.0  -0.1361
  C  C188  1  0.780500  0.407800  0.543300  1.0  -0.0823
  C  C189  1  0.807500  0.337400  0.513500  1.0  -0.1006
  C  C190  1  0.775500  0.318400  0.454100  1.0  0.0224
  C  C191  1  0.716400  0.372000  0.428300  1.0  -0.1253
  C  C192  1  0.807400  0.245900  0.417600  1.0  0.0852
  C  C193  1  0.879900  0.202300  0.430900  1.0  -0.1733
  C  C194  1  0.909900  0.139500  0.391200  1.0  0.156
  C  C195  1  0.798400  0.156300  0.326300  1.0  0.1363
  C  C196  1  0.762500  0.218000  0.364500  1.0  -0.2068
  C  C197  1  0.464200  0.745700  0.962400  1.0  0.1699
  C  C198  1  0.409300  0.811700  0.966200  1.0  -0.2199
  C  C199  1  0.360200  0.821900  0.021000  1.0  0.0875
  C  C200  1  0.375300  0.761900  0.067500  1.0  -0.2262
  C  C201  1  0.431600  0.698600  0.058600  1.0  0.1709
  C  C202  1  0.294700  0.888100  0.026100  1.0  0.0216
  C  C203  1  0.296000  0.961400  0.990700  1.0  -0.1197
  C  C204  1  0.234800  0.021100  0.996900  1.0  -0.0846
  C  C205  1  0.167300  0.009900  0.037100  1.0  -0.1232
  C  C206  1  0.164100  0.936400  0.073100  1.0  0.0037
  C  C207  1  0.227400  0.877200  0.068400  1.0  -0.1339
  C  C208  1  0.093700  0.927300  0.117200  1.0  0.2351
  C  C209  1  0.998200  0.875700  0.180300  1.0  0.2326
  C  C210  1  0.943500  0.812800  0.211000  1.0  -0.047
  C  C211  1  0.962700  0.780100  0.269800  1.0  -0.1369
  C  C212  1  0.907800  0.719500  0.293300  1.0  -0.0822
  C  C213  1  0.837400  0.692500  0.263500  1.0  -0.1
  C  C214  1  0.818400  0.724500  0.204100  1.0  0.0219
  C  C215  1  0.872000  0.783600  0.178300  1.0  -0.127
  C  C216  1  0.745900  0.692600  0.167600  1.0  0.0845
  C  C217  1  0.702300  0.620100  0.180900  1.0  -0.1746
  C  C218  1  0.639500  0.590100  0.141200  1.0  0.1557
  C  C219  1  0.656300  0.701600  0.076300  1.0  0.135
  C  C220  1  0.718000  0.737500  0.114500  1.0  -0.2054
  C  C221  1  0.535800  0.254300  0.462400  1.0  0.1698
  C  C222  1  0.590700  0.188300  0.466200  1.0  -0.2215
  C  C223  1  0.639800  0.178100  0.521000  1.0  0.0881
  C  C224  1  0.624700  0.238100  0.567500  1.0  -0.2258
  C  C225  1  0.568400  0.301400  0.558600  1.0  0.1708
  C  C226  1  0.705300  0.111900  0.526100  1.0  0.022
  C  C227  1  0.704000  0.038600  0.490700  1.0  -0.1189
  C  C228  1  0.765200  0.978900  0.496900  1.0  -0.0841
  C  C229  1  0.832700  0.990100  0.537100  1.0  -0.1232
  C  C230  1  0.835900  0.063600  0.573100  1.0  0.0032
  C  C231  1  0.772600  0.122800  0.568400  1.0  -0.1337
  C  C232  1  0.906300  0.072700  0.617200  1.0  0.2351
  C  C233  1  0.001800  0.124300  0.680300  1.0  0.2326
  C  C234  1  0.056500  0.187200  0.711000  1.0  -0.0465
  C  C235  1  0.037300  0.219900  0.769800  1.0  -0.136
  C  C236  1  0.092200  0.280500  0.793300  1.0  -0.0814
  C  C237  1  0.162600  0.307500  0.763500  1.0  -0.0988
  C  C238  1  0.181600  0.275500  0.704100  1.0  0.0213
  C  C239  1  0.128000  0.216400  0.678300  1.0  -0.1263
  C  C240  1  0.254100  0.307400  0.667600  1.0  0.0842
  C  C241  1  0.297700  0.379900  0.680900  1.0  -0.1758
  C  C242  1  0.360500  0.409900  0.641200  1.0  0.1554
  C  C243  1  0.343700  0.298400  0.576300  1.0  0.1354
  C  C244  1  0.282000  0.262500  0.614500  1.0  -0.206
  C  C245  1  0.254300  0.535800  0.537600  1.0  0.1713
  C  C246  1  0.188300  0.590700  0.533800  1.0  -0.2211
  C  C247  1  0.178100  0.639800  0.479000  1.0  0.0875
  C  C248  1  0.238100  0.624700  0.432500  1.0  -0.224
  C  C249  1  0.301400  0.568400  0.441400  1.0  0.171
  C  C250  1  0.111900  0.705300  0.473900  1.0  0.0215
  C  C251  1  0.038600  0.704000  0.509300  1.0  -0.1209
  C  C252  1  0.978900  0.765200  0.503100  1.0  -0.0863
  C  C253  1  0.990100  0.832700  0.462900  1.0  -0.1226
  C  C254  1  0.063600  0.835900  0.426900  1.0  0.0044
  C  C255  1  0.122800  0.772600  0.431600  1.0  -0.1356
  C  C256  1  0.072700  0.906300  0.382800  1.0  0.2364
  C  C257  1  0.124300  0.001800  0.319700  1.0  0.2338
  C  C258  1  0.187200  0.056500  0.289000  1.0  -0.0487
  C  C259  1  0.219900  0.037300  0.230200  1.0  -0.1367
  C  C260  1  0.280500  0.092200  0.206700  1.0  -0.0816
  C  C261  1  0.307500  0.162600  0.236500  1.0  -0.1001
  C  C262  1  0.275500  0.181600  0.295900  1.0  0.022
  C  C263  1  0.216400  0.128000  0.321700  1.0  -0.1251
  C  C264  1  0.307400  0.254100  0.332400  1.0  0.0848
  C  C265  1  0.379900  0.297700  0.319100  1.0  -0.1725
  C  C266  1  0.409900  0.360500  0.358800  1.0  0.1562
  C  C267  1  0.298400  0.343700  0.423700  1.0  0.1357
  C  C268  1  0.262500  0.282000  0.385500  1.0  -0.2071
  C  C269  1  0.745700  0.464200  0.037600  1.0  0.1712
  C  C270  1  0.811700  0.409300  0.033800  1.0  -0.2213
  C  C271  1  0.821900  0.360200  0.979000  1.0  0.0874
  C  C272  1  0.761900  0.375300  0.932500  1.0  -0.2248
  C  C273  1  0.698600  0.431600  0.941400  1.0  0.1717
  C  C274  1  0.888100  0.294700  0.973900  1.0  0.0219
  C  C275  1  0.961400  0.296000  0.009300  1.0  -0.1207
  C  C276  1  0.021100  0.234800  0.003100  1.0  -0.0859
  C  C277  1  0.009900  0.167300  0.962900  1.0  -0.1221
  C  C278  1  0.936400  0.164100  0.926900  1.0  0.0039
  C  C279  1  0.877200  0.227400  0.931600  1.0  -0.1359
  C  C280  1  0.927300  0.093700  0.882800  1.0  0.2365
  C  C281  1  0.875700  0.998200  0.819700  1.0  0.2339
  C  C282  1  0.812800  0.943500  0.789000  1.0  -0.0472
  C  C283  1  0.780100  0.962700  0.730200  1.0  -0.1407
  C  C284  1  0.719500  0.907800  0.706700  1.0  -0.0809
  C  C285  1  0.692500  0.837400  0.736500  1.0  -0.101
  C  C286  1  0.724500  0.818400  0.795900  1.0  0.0216
  C  C287  1  0.783600  0.872000  0.821700  1.0  -0.1253
  C  C288  1  0.692600  0.745900  0.832400  1.0  0.0843
  C  C289  1  0.620100  0.702300  0.819100  1.0  -0.1735
  C  C290  1  0.590100  0.639500  0.858800  1.0  0.1566
  C  C291  1  0.701600  0.656300  0.923700  1.0  0.1362
  C  C292  1  0.737500  0.718000  0.885500  1.0  -0.2069
  C  C293  1  0.035800  0.245700  0.287600  1.0  0.1701
  C  C294  1  0.090700  0.311700  0.283800  1.0  -0.2212
  C  C295  1  0.139800  0.321900  0.229000  1.0  0.088
  C  C296  1  0.124700  0.261900  0.182500  1.0  -0.2256
  C  C297  1  0.068400  0.198600  0.191400  1.0  0.1707
  C  C298  1  0.205300  0.388100  0.223900  1.0  0.0224
  C  C299  1  0.204000  0.461400  0.259300  1.0  -0.1201
  C  C300  1  0.265200  0.521100  0.253100  1.0  -0.0841
  C  C301  1  0.332700  0.509900  0.212900  1.0  -0.1233
  C  C302  1  0.335900  0.436400  0.176900  1.0  0.0035
  C  C303  1  0.272600  0.377200  0.181600  1.0  -0.1335
  C  C304  1  0.406300  0.427300  0.132800  1.0  0.2354
  C  C305  1  0.501800  0.375700  0.069700  1.0  0.2335
  C  C306  1  0.556500  0.312800  0.039000  1.0  -0.0473
  C  C307  1  0.537300  0.280100  0.980200  1.0  -0.1362
  C  C308  1  0.592200  0.219500  0.956700  1.0  -0.0813
  C  C309  1  0.662600  0.192500  0.986500  1.0  -0.0991
  C  C310  1  0.681600  0.224500  0.045900  1.0  0.0213
  C  C311  1  0.628000  0.283600  0.071700  1.0  -0.1258
  C  C312  1  0.754100  0.192600  0.082400  1.0  0.0837
  C  C313  1  0.797700  0.120100  0.069100  1.0  -0.1753
  C  C314  1  0.860500  0.090100  0.108800  1.0  0.1555
  C  C315  1  0.843700  0.201600  0.173700  1.0  0.1353
  C  C316  1  0.782000  0.237500  0.135500  1.0  -0.2061
  C  C317  1  0.964200  0.754300  0.787600  1.0  0.1705
  C  C318  1  0.909300  0.688300  0.783800  1.0  -0.2212
  C  C319  1  0.860200  0.678100  0.729000  1.0  0.0871
  C  C320  1  0.875300  0.738100  0.682500  1.0  -0.226
  C  C321  1  0.931600  0.801400  0.691400  1.0  0.1706
  C  C322  1  0.794700  0.611900  0.723900  1.0  0.0213
  C  C323  1  0.796000  0.538600  0.759300  1.0  -0.1189
  C  C324  1  0.734800  0.478900  0.753100  1.0  -0.0851
  C  C325  1  0.667300  0.490100  0.712900  1.0  -0.123
  C  C326  1  0.664100  0.563600  0.676900  1.0  0.0033
  C  C327  1  0.727400  0.622800  0.681600  1.0  -0.1343
  C  C328  1  0.593700  0.572700  0.632800  1.0  0.2352
  C  C329  1  0.498200  0.624300  0.569700  1.0  0.2336
  C  C330  1  0.443500  0.687200  0.539000  1.0  -0.0464
  C  C331  1  0.462700  0.719900  0.480200  1.0  -0.1374
  C  C332  1  0.407800  0.780500  0.456700  1.0  -0.0814
  C  C333  1  0.337400  0.807500  0.486500  1.0  -0.0997
  C  C334  1  0.318400  0.775500  0.545900  1.0  0.0222
  C  C335  1  0.372000  0.716400  0.571700  1.0  -0.1273
  C  C336  1  0.245900  0.807400  0.582400  1.0  0.0841
  C  C337  1  0.202300  0.879900  0.569100  1.0  -0.1748
  C  C338  1  0.139500  0.909900  0.608800  1.0  0.1557
  C  C339  1  0.156300  0.798400  0.673700  1.0  0.1342
  C  C340  1  0.218000  0.762500  0.635500  1.0  -0.2058
  N  N341  1  0.187700  0.023200  0.756500  1.0  -0.3715
  N  N342  1  0.491200  0.444600  0.893500  1.0  -0.2925
  N  N343  1  0.457900  0.505000  0.933000  1.0  -0.2282
  N  N344  1  0.353600  0.441400  0.888400  1.0  0.0986
  N  N345  1  0.271500  0.421700  0.867800  1.0  -0.5509
  N  N346  1  0.127200  0.880000  0.837700  1.0  -0.3497
  N  N347  1  0.812300  0.976800  0.256500  1.0  -0.3737
  N  N348  1  0.508800  0.555400  0.393500  1.0  -0.2921
  N  N349  1  0.542100  0.495000  0.433000  1.0  -0.2282
  N  N350  1  0.646400  0.558600  0.388400  1.0  0.0988
  N  N351  1  0.728500  0.578300  0.367800  1.0  -0.5496
  N  N352  1  0.872800  0.120000  0.337700  1.0  -0.3495
  N  N353  1  0.476800  0.687700  0.006500  1.0  -0.3719
  N  N354  1  0.055400  0.991200  0.143500  1.0  -0.2915
  N  N355  1  0.995000  0.957900  0.183000  1.0  -0.2282
  N  N356  1  0.058600  0.853600  0.138400  1.0  0.0979
  N  N357  1  0.078300  0.771500  0.117800  1.0  -0.5514
  N  N358  1  0.620000  0.627200  0.087700  1.0  -0.3499
  N  N359  1  0.523200  0.312300  0.506500  1.0  -0.3719
  N  N360  1  0.944600  0.008800  0.643500  1.0  -0.2916
  N  N361  1  0.005000  0.042100  0.683000  1.0  -0.2278
  N  N362  1  0.941400  0.146400  0.638400  1.0  0.0974
  N  N363  1  0.921700  0.228500  0.617800  1.0  -0.5512
  N  N364  1  0.380000  0.372800  0.587700  1.0  -0.3495
  N  N365  1  0.312300  0.523200  0.493500  1.0  -0.3729
  N  N366  1  0.008800  0.944600  0.356500  1.0  -0.2919
  N  N367  1  0.042100  0.005000  0.317000  1.0  -0.2279
  N  N368  1  0.146400  0.941400  0.361600  1.0  0.0992
  N  N369  1  0.228500  0.921700  0.382200  1.0  -0.5477
  N  N370  1  0.372800  0.380000  0.412300  1.0  -0.3494
  N  N371  1  0.687700  0.476800  0.993500  1.0  -0.3724
  N  N372  1  0.991200  0.055400  0.856500  1.0  -0.2925
  N  N373  1  0.957900  0.995000  0.817000  1.0  -0.2283
  N  N374  1  0.853600  0.058600  0.861600  1.0  0.0985
  N  N375  1  0.771500  0.078300  0.882200  1.0  -0.5493
  N  N376  1  0.627200  0.620000  0.912300  1.0  -0.349
  N  N377  1  0.023200  0.187700  0.243500  1.0  -0.3724
  N  N378  1  0.444600  0.491200  0.106500  1.0  -0.2917
  N  N379  1  0.505000  0.457900  0.067000  1.0  -0.2286
  N  N380  1  0.441400  0.353600  0.111600  1.0  0.0973
  N  N381  1  0.421700  0.271500  0.132200  1.0  -0.55
  N  N382  1  0.880000  0.127200  0.162300  1.0  -0.3493
  N  N383  1  0.976800  0.812300  0.743500  1.0  -0.3717
  N  N384  1  0.555400  0.508800  0.606500  1.0  -0.2913
  N  N385  1  0.495000  0.542100  0.567000  1.0  -0.2282
  N  N386  1  0.558600  0.646400  0.611600  1.0  0.0981
  N  N387  1  0.578300  0.728500  0.632200  1.0  -0.5504
  N  N388  1  0.120000  0.872800  0.662300  1.0  -0.3489
  Cl  Cl389  1  0.879540  0.879540  0.000000  1.0  1.5095
  Cl  Cl390  1  0.120460  0.120460  0.500000  1.0  1.5085
  Cl  Cl391  1  0.620460  0.379540  0.250000  1.0  1.5088
  Cl  Cl392  1  0.379540  0.620460  0.750000  1.0  1.5094
  O  O393  1  0.903900  0.824400  0.951200  1.0  -0.5684
  O  O394  1  0.861900  0.941800  0.955400  1.0  -0.5946
  O  O395  1  0.824400  0.903900  0.048800  1.0  -0.5688
  O  O396  1  0.941800  0.861900  0.044600  1.0  -0.5932
  O  O397  1  0.096100  0.175600  0.451200  1.0  -0.5698
  O  O398  1  0.138100  0.058200  0.455400  1.0  -0.5929
  O  O399  1  0.175600  0.096100  0.548800  1.0  -0.5693
  O  O400  1  0.058200  0.138100  0.544600  1.0  -0.5934
  O  O401  1  0.675600  0.403900  0.201200  1.0  -0.5688
  O  O402  1  0.558200  0.361900  0.205400  1.0  -0.5936
  O  O403  1  0.596100  0.324400  0.298800  1.0  -0.569
  O  O404  1  0.638100  0.441800  0.294600  1.0  -0.5927
  O  O405  1  0.324400  0.596100  0.701200  1.0  -0.569
  O  O406  1  0.441800  0.638100  0.705400  1.0  -0.5943
  O  O407  1  0.403900  0.675600  0.798800  1.0  -0.5697
  O  O408  1  0.361900  0.558200  0.794600  1.0  -0.5938
