# generated using pymatgen
data_CdH36C48N12ClO4
_symmetry_space_group_name_H-M   'P 1'
_cell_length_a   15.86900000
_cell_length_b   15.86900000
_cell_length_c   21.64900000
_cell_angle_alpha   90.00000000
_cell_angle_beta   90.00000000
_cell_angle_gamma   90.00000000
_symmetry_Int_Tables_number   1
_chemical_formula_structural   CdH36C48N12ClO4
_chemical_formula_sum   'Cd4 H144 C192 N48 Cl4 O16'
_cell_volume   5451.76291049
_cell_formula_units_Z   4
loop_
 _symmetry_equiv_pos_site_id
 _symmetry_equiv_pos_as_xyz
  1  'x, y, z'
loop_
 _atom_site_type_symbol
 _atom_site_label
 _atom_site_symmetry_multiplicity
 _atom_site_fract_x
 _atom_site_fract_y
 _atom_site_fract_z
 _atom_site_occupancy
 _atom_site_charge
  Cd  Cd1  1  0.441580  0.441580  0.000000  1.0  0.7943
  Cd  Cd2  1  0.558420  0.558420  0.500000  1.0  0.7939
  Cd  Cd3  1  0.058420  0.941580  0.250000  1.0  0.7941
  Cd  Cd4  1  0.941580  0.058420  0.750000  1.0  0.7942
  H  H5  1  0.341300  0.560300  0.908400  1.0  0.049
  H  H6  1  0.234200  0.654200  0.893500  1.0  0.1199
  H  H7  1  0.151100  0.599400  0.063100  1.0  0.1254
  H  H8  1  0.261500  0.507000  0.073400  1.0  0.0609
  H  H9  1  0.034800  0.662600  0.037300  1.0  0.1007
  H  H10  1  0.934900  0.766900  0.029200  1.0  0.1026
  H  H11  1  0.951500  0.875000  0.957300  1.0  0.1004
  H  H12  1  0.172800  0.775700  0.905100  1.0  0.0922
  H  H13  1  0.201700  0.991600  0.710400  1.0  0.1061
  H  H14  1  0.299300  0.086100  0.666500  1.0  0.099
  H  H15  1  0.349700  0.196700  0.720900  1.0  0.0772
  H  H16  1  0.196200  0.139200  0.861500  1.0  0.1154
  H  H17  1  0.412000  0.285700  0.783700  1.0  0.1186
  H  H18  1  0.460700  0.389800  0.849900  1.0  0.0682
  H  H19  1  0.269600  0.359600  0.958500  1.0  0.0665
  H  H20  1  0.213800  0.259500  0.896100  1.0  0.126
  H  H21  1  0.233500  0.934000  0.923000  1.0  0.3281
  H  H22  1  0.267500  0.953700  0.862400  1.0  0.3262
  H  H23  1  0.658700  0.439700  0.408400  1.0  0.0494
  H  H24  1  0.765800  0.345800  0.393500  1.0  0.1199
  H  H25  1  0.848900  0.400600  0.563100  1.0  0.1246
  H  H26  1  0.738500  0.493000  0.573400  1.0  0.0611
  H  H27  1  0.965200  0.337400  0.537300  1.0  0.1004
  H  H28  1  0.065100  0.233100  0.529200  1.0  0.1029
  H  H29  1  0.048500  0.125000  0.457300  1.0  0.1006
  H  H30  1  0.827200  0.224300  0.405100  1.0  0.0928
  H  H31  1  0.798300  0.008400  0.210400  1.0  0.1061
  H  H32  1  0.700700  0.913900  0.166500  1.0  0.0991
  H  H33  1  0.650300  0.803300  0.220900  1.0  0.076
  H  H34  1  0.803800  0.860800  0.361500  1.0  0.1156
  H  H35  1  0.588000  0.714300  0.283700  1.0  0.1189
  H  H36  1  0.539300  0.610200  0.349900  1.0  0.0686
  H  H37  1  0.730400  0.640400  0.458500  1.0  0.0667
  H  H38  1  0.786200  0.740500  0.396100  1.0  0.1268
  H  H39  1  0.766500  0.066000  0.423000  1.0  0.3285
  H  H40  1  0.732500  0.046300  0.362400  1.0  0.3255
  H  H41  1  0.939700  0.841300  0.158400  1.0  0.0495
  H  H42  1  0.845800  0.734200  0.143500  1.0  0.12
  H  H43  1  0.900600  0.651100  0.313100  1.0  0.1237
  H  H44  1  0.993000  0.761500  0.323400  1.0  0.0608
  H  H45  1  0.837400  0.534800  0.287300  1.0  0.1008
  H  H46  1  0.733100  0.434900  0.279200  1.0  0.1026
  H  H47  1  0.625000  0.451500  0.207300  1.0  0.0998
  H  H48  1  0.724300  0.672800  0.155100  1.0  0.093
  H  H49  1  0.508400  0.701700  0.960400  1.0  0.1058
  H  H50  1  0.413900  0.799300  0.916500  1.0  0.0993
  H  H51  1  0.303300  0.849700  0.970900  1.0  0.0773
  H  H52  1  0.360800  0.696200  0.111500  1.0  0.1154
  H  H53  1  0.214300  0.912000  0.033700  1.0  0.1198
  H  H54  1  0.110200  0.960700  0.099900  1.0  0.0693
  H  H55  1  0.140400  0.769600  0.208500  1.0  0.0667
  H  H56  1  0.240500  0.713800  0.146100  1.0  0.1266
  H  H57  1  0.566000  0.733500  0.173000  1.0  0.3272
  H  H58  1  0.546300  0.767500  0.112400  1.0  0.3254
  H  H59  1  0.060300  0.158700  0.658400  1.0  0.0499
  H  H60  1  0.154200  0.265800  0.643500  1.0  0.1199
  H  H61  1  0.099400  0.348900  0.813100  1.0  0.1234
  H  H62  1  0.007000  0.238500  0.823400  1.0  0.0612
  H  H63  1  0.162600  0.465200  0.787300  1.0  0.1005
  H  H64  1  0.266900  0.565100  0.779200  1.0  0.1026
  H  H65  1  0.375000  0.548500  0.707300  1.0  0.0998
  H  H66  1  0.275700  0.327200  0.655100  1.0  0.0928
  H  H67  1  0.491600  0.298300  0.460400  1.0  0.1063
  H  H68  1  0.586100  0.200700  0.416500  1.0  0.0998
  H  H69  1  0.696700  0.150300  0.470900  1.0  0.0771
  H  H70  1  0.639200  0.303800  0.611500  1.0  0.1153
  H  H71  1  0.785700  0.088000  0.533700  1.0  0.1201
  H  H72  1  0.889800  0.039300  0.599900  1.0  0.0688
  H  H73  1  0.859600  0.230400  0.708500  1.0  0.0668
  H  H74  1  0.759500  0.286200  0.646100  1.0  0.1267
  H  H75  1  0.434000  0.266500  0.673000  1.0  0.3274
  H  H76  1  0.453700  0.232500  0.612400  1.0  0.3248
  H  H77  1  0.158700  0.060300  0.341600  1.0  0.0491
  H  H78  1  0.265800  0.154200  0.356500  1.0  0.1205
  H  H79  1  0.348900  0.099400  0.186900  1.0  0.1247
  H  H80  1  0.238500  0.007000  0.176600  1.0  0.0609
  H  H81  1  0.465200  0.162600  0.212700  1.0  0.1009
  H  H82  1  0.565100  0.266900  0.220800  1.0  0.1032
  H  H83  1  0.548500  0.375000  0.292700  1.0  0.0999
  H  H84  1  0.327200  0.275700  0.344900  1.0  0.0926
  H  H85  1  0.298300  0.491600  0.539600  1.0  0.1063
  H  H86  1  0.200700  0.586100  0.583500  1.0  0.0993
  H  H87  1  0.150300  0.696700  0.529100  1.0  0.0767
  H  H88  1  0.303800  0.639200  0.388500  1.0  0.1156
  H  H89  1  0.088000  0.785700  0.466300  1.0  0.1185
  H  H90  1  0.039300  0.889800  0.400100  1.0  0.0687
  H  H91  1  0.230400  0.859600  0.291500  1.0  0.0678
  H  H92  1  0.286200  0.759500  0.353900  1.0  0.1263
  H  H93  1  0.266500  0.434000  0.327000  1.0  0.329
  H  H94  1  0.232500  0.453700  0.387600  1.0  0.3254
  H  H95  1  0.841300  0.939700  0.841600  1.0  0.0491
  H  H96  1  0.734200  0.845800  0.856500  1.0  0.1205
  H  H97  1  0.651100  0.900600  0.686900  1.0  0.1249
  H  H98  1  0.761500  0.993000  0.676600  1.0  0.061
  H  H99  1  0.534800  0.837400  0.712700  1.0  0.1015
  H  H100  1  0.434900  0.733100  0.720800  1.0  0.1026
  H  H101  1  0.451500  0.625000  0.792700  1.0  0.1005
  H  H102  1  0.672800  0.724300  0.844900  1.0  0.0924
  H  H103  1  0.701700  0.508400  0.039600  1.0  0.1061
  H  H104  1  0.799300  0.413900  0.083500  1.0  0.0986
  H  H105  1  0.849700  0.303300  0.029100  1.0  0.0768
  H  H106  1  0.696200  0.360800  0.888500  1.0  0.1153
  H  H107  1  0.912000  0.214300  0.966300  1.0  0.1187
  H  H108  1  0.960700  0.110200  0.900100  1.0  0.0688
  H  H109  1  0.769600  0.140400  0.791500  1.0  0.0675
  H  H110  1  0.713800  0.240500  0.853900  1.0  0.1254
  H  H111  1  0.733500  0.566000  0.827000  1.0  0.3279
  H  H112  1  0.767500  0.546300  0.887600  1.0  0.3257
  H  H113  1  0.560300  0.341300  0.091600  1.0  0.0494
  H  H114  1  0.654200  0.234200  0.106500  1.0  0.1204
  H  H115  1  0.599400  0.151100  0.936900  1.0  0.1233
  H  H116  1  0.507000  0.261500  0.926600  1.0  0.0608
  H  H117  1  0.662600  0.034800  0.962700  1.0  0.1009
  H  H118  1  0.766900  0.934900  0.970800  1.0  0.1026
  H  H119  1  0.875000  0.951500  0.042700  1.0  0.0999
  H  H120  1  0.775700  0.172800  0.094900  1.0  0.0931
  H  H121  1  0.991600  0.201700  0.289600  1.0  0.1061
  H  H122  1  0.086100  0.299300  0.333500  1.0  0.0992
  H  H123  1  0.196700  0.349700  0.279100  1.0  0.0779
  H  H124  1  0.139200  0.196200  0.138500  1.0  0.1159
  H  H125  1  0.285700  0.412000  0.216300  1.0  0.1197
  H  H126  1  0.389800  0.460700  0.150100  1.0  0.0693
  H  H127  1  0.359600  0.269600  0.041500  1.0  0.0677
  H  H128  1  0.259500  0.213800  0.103900  1.0  0.1258
  H  H129  1  0.934000  0.233500  0.077000  1.0  0.3272
  H  H130  1  0.953700  0.267500  0.137600  1.0  0.3245
  H  H131  1  0.439700  0.658700  0.591600  1.0  0.0498
  H  H132  1  0.345800  0.765800  0.606500  1.0  0.1202
  H  H133  1  0.400600  0.848900  0.436900  1.0  0.1233
  H  H134  1  0.493000  0.738500  0.426600  1.0  0.0614
  H  H135  1  0.337400  0.965200  0.462700  1.0  0.1013
  H  H136  1  0.233100  0.065100  0.470800  1.0  0.1029
  H  H137  1  0.125000  0.048500  0.542700  1.0  0.0998
  H  H138  1  0.224300  0.827200  0.594900  1.0  0.0932
  H  H139  1  0.008400  0.798300  0.789600  1.0  0.1062
  H  H140  1  0.913900  0.700700  0.833500  1.0  0.0993
  H  H141  1  0.803300  0.650300  0.779100  1.0  0.0768
  H  H142  1  0.860800  0.803800  0.638500  1.0  0.1153
  H  H143  1  0.714300  0.588000  0.716300  1.0  0.1193
  H  H144  1  0.610200  0.539300  0.650100  1.0  0.0692
  H  H145  1  0.640400  0.730400  0.541500  1.0  0.068
  H  H146  1  0.740500  0.786200  0.603900  1.0  0.1264
  H  H147  1  0.066000  0.766500  0.577000  1.0  0.3282
  H  H148  1  0.046300  0.732500  0.637600  1.0  0.3244
  C  C149  1  0.303200  0.568900  0.940400  1.0  0.174
  C  C150  1  0.238900  0.626100  0.931100  1.0  -0.2298
  C  C151  1  0.181000  0.641700  0.978100  1.0  0.0943
  C  C152  1  0.189900  0.593800  0.031200  1.0  -0.2068
  C  C153  1  0.256600  0.537500  0.037000  1.0  0.1694
  C  C154  1  0.115300  0.707500  0.971900  1.0  0.0081
  C  C155  1  0.042500  0.706100  0.009100  1.0  -0.1162
  C  C156  1  0.982500  0.768400  0.004200  1.0  -0.0884
  C  C157  1  0.992900  0.834000  0.961700  1.0  -0.105
  C  C158  1  0.066200  0.837300  0.926000  1.0  -0.0125
  C  C159  1  0.125300  0.774100  0.930300  1.0  -0.1273
  C  C160  1  0.074700  0.906500  0.882700  1.0  0.2256
  C  C161  1  0.126100  0.003000  0.820300  1.0  0.2345
  C  C162  1  0.188900  0.058100  0.790000  1.0  -0.0364
  C  C163  1  0.219600  0.039100  0.731800  1.0  -0.1241
  C  C164  1  0.279500  0.095500  0.706300  1.0  -0.0842
  C  C165  1  0.308600  0.162500  0.738500  1.0  -0.096
  C  C166  1  0.278600  0.181600  0.797000  1.0  0.017
  C  C167  1  0.217700  0.127900  0.822400  1.0  -0.1241
  C  C168  1  0.308900  0.254100  0.834600  1.0  0.084
  C  C169  1  0.382700  0.297800  0.819800  1.0  -0.2059
  C  C170  1  0.412000  0.360600  0.860500  1.0  0.1675
  C  C171  1  0.299900  0.343100  0.923700  1.0  0.1431
  C  C172  1  0.266100  0.282300  0.886500  1.0  -0.1879
  C  C173  1  0.696800  0.431100  0.440400  1.0  0.1733
  C  C174  1  0.761100  0.373900  0.431100  1.0  -0.2305
  C  C175  1  0.819000  0.358300  0.478100  1.0  0.0942
  C  C176  1  0.810100  0.406200  0.531200  1.0  -0.2073
  C  C177  1  0.743400  0.462500  0.537000  1.0  0.169
  C  C178  1  0.884700  0.292500  0.471900  1.0  0.0078
  C  C179  1  0.957500  0.293900  0.509100  1.0  -0.1154
  C  C180  1  0.017500  0.231600  0.504200  1.0  -0.0883
  C  C181  1  0.007100  0.166000  0.461700  1.0  -0.1052
  C  C182  1  0.933800  0.162700  0.426000  1.0  -0.0128
  C  C183  1  0.874700  0.225900  0.430300  1.0  -0.1272
  C  C184  1  0.925300  0.093500  0.382700  1.0  0.2259
  C  C185  1  0.873900  0.997000  0.320300  1.0  0.2341
  C  C186  1  0.811100  0.941900  0.290000  1.0  -0.0367
  C  C187  1  0.780400  0.960900  0.231800  1.0  -0.1227
  C  C188  1  0.720500  0.904500  0.206300  1.0  -0.0829
  C  C189  1  0.691400  0.837500  0.238500  1.0  -0.097
  C  C190  1  0.721400  0.818400  0.297000  1.0  0.0175
  C  C191  1  0.782300  0.872100  0.322400  1.0  -0.125
  C  C192  1  0.691100  0.745900  0.334600  1.0  0.0844
  C  C193  1  0.617300  0.702200  0.319800  1.0  -0.2058
  C  C194  1  0.588000  0.639400  0.360500  1.0  0.1677
  C  C195  1  0.700100  0.656900  0.423700  1.0  0.1433
  C  C196  1  0.733900  0.717700  0.386500  1.0  -0.1901
  C  C197  1  0.931100  0.803200  0.190400  1.0  0.1731
  C  C198  1  0.873900  0.738900  0.181100  1.0  -0.2314
  C  C199  1  0.858300  0.681000  0.228100  1.0  0.0939
  C  C200  1  0.906200  0.689900  0.281200  1.0  -0.2066
  C  C201  1  0.962500  0.756600  0.287000  1.0  0.1675
  C  C202  1  0.792500  0.615300  0.221900  1.0  0.0088
  C  C203  1  0.793900  0.542500  0.259100  1.0  -0.1156
  C  C204  1  0.731600  0.482500  0.254200  1.0  -0.086
  C  C205  1  0.666000  0.492900  0.211700  1.0  -0.1062
  C  C206  1  0.662700  0.566200  0.176000  1.0  -0.0133
  C  C207  1  0.725900  0.625300  0.180300  1.0  -0.1266
  C  C208  1  0.593500  0.574700  0.132700  1.0  0.225
  C  C209  1  0.497000  0.626100  0.070300  1.0  0.2346
  C  C210  1  0.441900  0.688900  0.040000  1.0  -0.036
  C  C211  1  0.460900  0.719600  0.981800  1.0  -0.1232
  C  C212  1  0.404500  0.779500  0.956300  1.0  -0.0829
  C  C213  1  0.337500  0.808600  0.988500  1.0  -0.095
  C  C214  1  0.318400  0.778600  0.047000  1.0  0.0161
  C  C215  1  0.372100  0.717700  0.072400  1.0  -0.1267
  C  C216  1  0.245900  0.808900  0.084600  1.0  0.0836
  C  C217  1  0.202200  0.882700  0.069800  1.0  -0.2083
  C  C218  1  0.139400  0.912000  0.110500  1.0  0.1671
  C  C219  1  0.156900  0.799900  0.173700  1.0  0.1412
  C  C220  1  0.217700  0.766100  0.136500  1.0  -0.1873
  C  C221  1  0.068900  0.196800  0.690400  1.0  0.1721
  C  C222  1  0.126100  0.261100  0.681100  1.0  -0.2316
  C  C223  1  0.141700  0.319000  0.728100  1.0  0.0942
  C  C224  1  0.093800  0.310100  0.781200  1.0  -0.2074
  C  C225  1  0.037500  0.243400  0.787000  1.0  0.1674
  C  C226  1  0.207500  0.384700  0.721900  1.0  0.0092
  C  C227  1  0.206100  0.457500  0.759100  1.0  -0.1169
  C  C228  1  0.268400  0.517500  0.754200  1.0  -0.0853
  C  C229  1  0.334000  0.507100  0.711700  1.0  -0.1061
  C  C230  1  0.337300  0.433800  0.676000  1.0  -0.0131
  C  C231  1  0.274100  0.374700  0.680300  1.0  -0.125
  C  C232  1  0.406500  0.425300  0.632700  1.0  0.2252
  C  C233  1  0.503000  0.373900  0.570300  1.0  0.2341
  C  C234  1  0.558100  0.311100  0.540000  1.0  -0.0371
  C  C235  1  0.539100  0.280400  0.481800  1.0  -0.122
  C  C236  1  0.595500  0.220500  0.456300  1.0  -0.0836
  C  C237  1  0.662500  0.191400  0.488500  1.0  -0.0961
  C  C238  1  0.681600  0.221400  0.547000  1.0  0.0168
  C  C239  1  0.627900  0.282300  0.572400  1.0  -0.1255
  C  C240  1  0.754100  0.191100  0.584600  1.0  0.0839
  C  C241  1  0.797800  0.117300  0.569800  1.0  -0.2078
  C  C242  1  0.860600  0.088000  0.610500  1.0  0.1672
  C  C243  1  0.843100  0.200100  0.673700  1.0  0.1426
  C  C244  1  0.782300  0.233900  0.636500  1.0  -0.1882
  C  C245  1  0.196800  0.068900  0.309600  1.0  0.1743
  C  C246  1  0.261100  0.126100  0.318900  1.0  -0.2304
  C  C247  1  0.319000  0.141700  0.271900  1.0  0.0944
  C  C248  1  0.310100  0.093800  0.218800  1.0  -0.2069
  C  C249  1  0.243400  0.037500  0.213000  1.0  0.1693
  C  C250  1  0.384700  0.207500  0.278100  1.0  0.0082
  C  C251  1  0.457500  0.206100  0.240900  1.0  -0.1155
  C  C252  1  0.517500  0.268400  0.245800  1.0  -0.0878
  C  C253  1  0.507100  0.334000  0.288300  1.0  -0.1053
  C  C254  1  0.433800  0.337300  0.324000  1.0  -0.0124
  C  C255  1  0.374700  0.274100  0.319700  1.0  -0.1268
  C  C256  1  0.425300  0.406500  0.367300  1.0  0.2256
  C  C257  1  0.373900  0.503000  0.429700  1.0  0.2335
  C  C258  1  0.311100  0.558100  0.460000  1.0  -0.0368
  C  C259  1  0.280400  0.539100  0.518200  1.0  -0.1229
  C  C260  1  0.220500  0.595500  0.543700  1.0  -0.0838
  C  C261  1  0.191400  0.662500  0.511500  1.0  -0.0958
  C  C262  1  0.221400  0.681600  0.453000  1.0  0.0173
  C  C263  1  0.282300  0.627900  0.427600  1.0  -0.1245
  C  C264  1  0.191100  0.754100  0.415400  1.0  0.0843
  C  C265  1  0.117300  0.797800  0.430200  1.0  -0.2055
  C  C266  1  0.088000  0.860600  0.389500  1.0  0.1678
  C  C267  1  0.200100  0.843100  0.326300  1.0  0.1437
  C  C268  1  0.233900  0.782300  0.363500  1.0  -0.1894
  C  C269  1  0.803200  0.931100  0.809600  1.0  0.1739
  C  C270  1  0.738900  0.873900  0.818900  1.0  -0.231
  C  C271  1  0.681000  0.858300  0.771900  1.0  0.0948
  C  C272  1  0.689900  0.906200  0.718800  1.0  -0.2072
  C  C273  1  0.756600  0.962500  0.713000  1.0  0.1692
  C  C274  1  0.615300  0.792500  0.778100  1.0  0.0084
  C  C275  1  0.542500  0.793900  0.740900  1.0  -0.1158
  C  C276  1  0.482500  0.731600  0.745800  1.0  -0.0893
  C  C277  1  0.492900  0.666000  0.788300  1.0  -0.1048
  C  C278  1  0.566200  0.662700  0.824000  1.0  -0.0119
  C  C279  1  0.625300  0.725900  0.819700  1.0  -0.1262
  C  C280  1  0.574700  0.593500  0.867300  1.0  0.2255
  C  C281  1  0.626100  0.497000  0.929700  1.0  0.2342
  C  C282  1  0.688900  0.441900  0.960000  1.0  -0.0361
  C  C283  1  0.719600  0.460900  0.018200  1.0  -0.1218
  C  C284  1  0.779500  0.404500  0.043700  1.0  -0.0836
  C  C285  1  0.808600  0.337500  0.011500  1.0  -0.0964
  C  C286  1  0.778600  0.318400  0.953000  1.0  0.0174
  C  C287  1  0.717700  0.372100  0.927600  1.0  -0.124
  C  C288  1  0.808900  0.245900  0.915400  1.0  0.0846
  C  C289  1  0.882700  0.202200  0.930200  1.0  -0.2062
  C  C290  1  0.912000  0.139400  0.889500  1.0  0.1674
  C  C291  1  0.799900  0.156900  0.826300  1.0  0.1433
  C  C292  1  0.766100  0.217700  0.863500  1.0  -0.1876
  C  C293  1  0.568900  0.303200  0.059600  1.0  0.1726
  C  C294  1  0.626100  0.238900  0.068900  1.0  -0.2318
  C  C295  1  0.641700  0.181000  0.021900  1.0  0.0949
  C  C296  1  0.593800  0.189900  0.968800  1.0  -0.2074
  C  C297  1  0.537500  0.256600  0.963000  1.0  0.1674
  C  C298  1  0.707500  0.115300  0.028100  1.0  0.0089
  C  C299  1  0.706100  0.042500  0.990900  1.0  -0.116
  C  C300  1  0.768400  0.982500  0.995800  1.0  -0.0858
  C  C301  1  0.834000  0.992900  0.038300  1.0  -0.107
  C  C302  1  0.837300  0.066200  0.074000  1.0  -0.0129
  C  C303  1  0.774100  0.125300  0.069700  1.0  -0.1252
  C  C304  1  0.906500  0.074700  0.117300  1.0  0.2247
  C  C305  1  0.003000  0.126100  0.179700  1.0  0.2337
  C  C306  1  0.058100  0.188900  0.210000  1.0  -0.0368
  C  C307  1  0.039100  0.219600  0.268200  1.0  -0.1211
  C  C308  1  0.095500  0.279500  0.293700  1.0  -0.083
  C  C309  1  0.162500  0.308600  0.261500  1.0  -0.0966
  C  C310  1  0.181600  0.278600  0.203000  1.0  0.0167
  C  C311  1  0.127900  0.217700  0.177600  1.0  -0.1257
  C  C312  1  0.254100  0.308900  0.165400  1.0  0.0844
  C  C313  1  0.297800  0.382700  0.180200  1.0  -0.208
  C  C314  1  0.360600  0.412000  0.139500  1.0  0.1674
  C  C315  1  0.343100  0.299900  0.076300  1.0  0.1432
  C  C316  1  0.282300  0.266100  0.113500  1.0  -0.1873
  C  C317  1  0.431100  0.696800  0.559600  1.0  0.1732
  C  C318  1  0.373900  0.761100  0.568900  1.0  -0.2314
  C  C319  1  0.358300  0.819000  0.521900  1.0  0.0938
  C  C320  1  0.406200  0.810100  0.468800  1.0  -0.2069
  C  C321  1  0.462500  0.743400  0.463000  1.0  0.1679
  C  C322  1  0.292500  0.884700  0.528100  1.0  0.0088
  C  C323  1  0.293900  0.957500  0.490900  1.0  -0.1156
  C  C324  1  0.231600  0.017500  0.495800  1.0  -0.0856
  C  C325  1  0.166000  0.007100  0.538300  1.0  -0.106
  C  C326  1  0.162700  0.933800  0.574000  1.0  -0.0127
  C  C327  1  0.225900  0.874700  0.569700  1.0  -0.125
  C  C328  1  0.093500  0.925300  0.617300  1.0  0.2243
  C  C329  1  0.997000  0.873900  0.679700  1.0  0.2338
  C  C330  1  0.941900  0.811100  0.710000  1.0  -0.0366
  C  C331  1  0.960900  0.780400  0.768200  1.0  -0.1231
  C  C332  1  0.904500  0.720500  0.793700  1.0  -0.0836
  C  C333  1  0.837500  0.691400  0.761500  1.0  -0.0954
  C  C334  1  0.818400  0.721400  0.703000  1.0  0.0167
  C  C335  1  0.872100  0.782300  0.677600  1.0  -0.1266
  C  C336  1  0.745900  0.691100  0.665400  1.0  0.0837
  C  C337  1  0.702200  0.617300  0.680200  1.0  -0.2074
  C  C338  1  0.639400  0.588000  0.639500  1.0  0.1669
  C  C339  1  0.656900  0.700100  0.576300  1.0  0.1416
  C  C340  1  0.717700  0.733900  0.613500  1.0  -0.1871
  N  N341  1  0.314300  0.525000  0.992400  1.0  -0.3692
  N  N342  1  0.011300  0.944900  0.855400  1.0  -0.2968
  N  N343  1  0.044000  0.005200  0.816500  1.0  -0.2267
  N  N344  1  0.147900  0.942100  0.861700  1.0  0.1159
  N  N345  1  0.230100  0.922600  0.882900  1.0  -0.6023
  N  N346  1  0.374300  0.380300  0.912900  1.0  -0.3517
  N  N347  1  0.685700  0.475000  0.492400  1.0  -0.3695
  N  N348  1  0.988700  0.055100  0.355400  1.0  -0.2972
  N  N349  1  0.956000  0.994800  0.316500  1.0  -0.2275
  N  N350  1  0.852100  0.057900  0.361700  1.0  0.116
  N  N351  1  0.769900  0.077400  0.382900  1.0  -0.6031
  N  N352  1  0.625700  0.619700  0.412900  1.0  -0.351
  N  N353  1  0.975000  0.814300  0.242400  1.0  -0.3686
  N  N354  1  0.555100  0.511300  0.105400  1.0  -0.2966
  N  N355  1  0.494800  0.544000  0.066500  1.0  -0.2271
  N  N356  1  0.557900  0.647900  0.111700  1.0  0.1151
  N  N357  1  0.577400  0.730100  0.132900  1.0  -0.6026
  N  N358  1  0.119700  0.874300  0.162900  1.0  -0.3506
  N  N359  1  0.025000  0.185700  0.742400  1.0  -0.369
  N  N360  1  0.444900  0.488700  0.605400  1.0  -0.2974
  N  N361  1  0.505200  0.456000  0.566500  1.0  -0.2274
  N  N362  1  0.442100  0.352100  0.611700  1.0  0.1155
  N  N363  1  0.422600  0.269900  0.632900  1.0  -0.6031
  N  N364  1  0.880300  0.125700  0.662900  1.0  -0.35
  N  N365  1  0.185700  0.025000  0.257600  1.0  -0.3683
  N  N366  1  0.488700  0.444900  0.394600  1.0  -0.2948
  N  N367  1  0.456000  0.505200  0.433500  1.0  -0.2273
  N  N368  1  0.352100  0.442100  0.388300  1.0  0.1155
  N  N369  1  0.269900  0.422600  0.367100  1.0  -0.6019
  N  N370  1  0.125700  0.880300  0.337100  1.0  -0.3523
  N  N371  1  0.814300  0.975000  0.757600  1.0  -0.3698
  N  N372  1  0.511300  0.555100  0.894600  1.0  -0.2948
  N  N373  1  0.544000  0.494800  0.933500  1.0  -0.2271
  N  N374  1  0.647900  0.557900  0.888300  1.0  0.1154
  N  N375  1  0.730100  0.577400  0.867100  1.0  -0.6021
  N  N376  1  0.874300  0.119700  0.837100  1.0  -0.352
  N  N377  1  0.525000  0.314300  0.007600  1.0  -0.3685
  N  N378  1  0.944900  0.011300  0.144600  1.0  -0.2955
  N  N379  1  0.005200  0.044000  0.183500  1.0  -0.2272
  N  N380  1  0.942100  0.147900  0.138300  1.0  0.1155
  N  N381  1  0.922600  0.230100  0.117100  1.0  -0.6032
  N  N382  1  0.380300  0.374300  0.087100  1.0  -0.3505
  N  N383  1  0.475000  0.685700  0.507600  1.0  -0.3684
  N  N384  1  0.055100  0.988700  0.644600  1.0  -0.2942
  N  N385  1  0.994800  0.956000  0.683500  1.0  -0.2271
  N  N386  1  0.057900  0.852100  0.638300  1.0  0.1151
  N  N387  1  0.077400  0.769900  0.617100  1.0  -0.6018
  N  N388  1  0.619700  0.625700  0.587100  1.0  -0.3514
  Cl  Cl389  1  0.119910  0.119910  0.000000  1.0  1.7958
  Cl  Cl390  1  0.880090  0.880090  0.500000  1.0  1.7953
  Cl  Cl391  1  0.380090  0.619910  0.250000  1.0  1.7955
  Cl  Cl392  1  0.619910  0.380090  0.750000  1.0  1.7957
  O  O393  1  0.190000  0.110200  0.031800  1.0  -0.6821
  O  O394  1  0.132300  0.065000  0.956500  1.0  -0.637
  O  O395  1  0.110200  0.190000  0.968200  1.0  -0.6807
  O  O396  1  0.065000  0.132300  0.043500  1.0  -0.6374
  O  O397  1  0.810000  0.889800  0.531800  1.0  -0.6825
  O  O398  1  0.867700  0.935000  0.456500  1.0  -0.6371
  O  O399  1  0.889800  0.810000  0.468200  1.0  -0.6801
  O  O400  1  0.935000  0.867700  0.543500  1.0  -0.6383
  O  O401  1  0.389800  0.690000  0.281800  1.0  -0.6814
  O  O402  1  0.435000  0.632300  0.206500  1.0  -0.6377
  O  O403  1  0.310000  0.610200  0.218200  1.0  -0.6822
  O  O404  1  0.367700  0.565000  0.293500  1.0  -0.6379
  O  O405  1  0.610200  0.310000  0.781800  1.0  -0.6806
  O  O406  1  0.565000  0.367700  0.706500  1.0  -0.6369
  O  O407  1  0.690000  0.389800  0.718200  1.0  -0.6813
  O  O408  1  0.632300  0.435000  0.793500  1.0  -0.6371
