# generated using pymatgen
data_CdH36C48N12(ClO4)2
_symmetry_space_group_name_H-M   'P 1'
_cell_length_a   15.91600000
_cell_length_b   15.91600000
_cell_length_c   21.49500000
_cell_angle_alpha   90.00000000
_cell_angle_beta   90.00000000
_cell_angle_gamma   90.00000000
_symmetry_Int_Tables_number   1
_chemical_formula_structural   CdH36C48N12(ClO4)2
_chemical_formula_sum   'Cd4 H144 C192 N48 Cl8 O32'
_cell_volume   5445.09310872
_cell_formula_units_Z   4
loop_
 _symmetry_equiv_pos_site_id
 _symmetry_equiv_pos_as_xyz
  1  'x, y, z'
loop_
 _atom_site_type_symbol
 _atom_site_label
 _atom_site_symmetry_multiplicity
 _atom_site_fract_x
 _atom_site_fract_y
 _atom_site_fract_z
 _atom_site_occupancy
 _atom_site_charge
  Cd  Cd1  1  0.059080  0.940920  0.750000  1.0  0.7927
  Cd  Cd2  1  0.940920  0.059080  0.250000  1.0  0.7931
  Cd  Cd3  1  0.559080  0.559080  0.500000  1.0  0.7925
  Cd  Cd4  1  0.440920  0.440920  0.000000  1.0  0.7933
  H  H5  1  0.742100  0.497100  0.428700  1.0  0.0632
  H  H6  1  0.850000  0.401100  0.438100  1.0  0.1293
  H  H7  1  0.761600  0.342200  0.607600  1.0  0.1441
  H  H8  1  0.655000  0.439100  0.591900  1.0  0.0609
  H  H9  1  0.964400  0.336200  0.462600  1.0  0.1066
  H  H10  1  0.066200  0.231700  0.474400  1.0  0.1119
  H  H11  1  0.045300  0.120700  0.542100  1.0  0.108
  H  H12  1  0.822900  0.221900  0.595200  1.0  0.0973
  H  H13  1  0.797400  0.006600  0.792600  1.0  0.0935
  H  H14  1  0.698600  0.912300  0.837200  1.0  0.1108
  H  H15  1  0.645800  0.800900  0.781000  1.0  0.087
  H  H16  1  0.804900  0.858600  0.639600  1.0  0.0971
  H  H17  1  0.584100  0.716100  0.716400  1.0  0.1302
  H  H18  1  0.535200  0.613300  0.649700  1.0  0.0841
  H  H19  1  0.730500  0.638300  0.541100  1.0  0.0725
  H  H20  1  0.787500  0.739600  0.604800  1.0  0.124
  H  H21  1  0.737800  0.092200  0.651700  1.0  0.3161
  H  H22  1  0.745300  0.027500  0.602200  1.0  0.3155
  H  H23  1  0.257900  0.502900  0.928700  1.0  0.063
  H  H24  1  0.150000  0.598900  0.938100  1.0  0.1297
  H  H25  1  0.238400  0.657800  0.107600  1.0  0.1447
  H  H26  1  0.345000  0.560900  0.091900  1.0  0.0608
  H  H27  1  0.035600  0.663800  0.962600  1.0  0.1066
  H  H28  1  0.933800  0.768300  0.974400  1.0  0.1116
  H  H29  1  0.954700  0.879300  0.042100  1.0  0.1083
  H  H30  1  0.177100  0.778100  0.095200  1.0  0.0973
  H  H31  1  0.202600  0.993400  0.292600  1.0  0.0939
  H  H32  1  0.301400  0.087700  0.337200  1.0  0.1102
  H  H33  1  0.354200  0.199100  0.281000  1.0  0.0872
  H  H34  1  0.195100  0.141400  0.139600  1.0  0.0968
  H  H35  1  0.415900  0.283900  0.216400  1.0  0.1307
  H  H36  1  0.464800  0.386700  0.149700  1.0  0.0833
  H  H37  1  0.269500  0.361700  0.041100  1.0  0.0721
  H  H38  1  0.212500  0.260400  0.104800  1.0  0.1237
  H  H39  1  0.262200  0.907800  0.151700  1.0  0.3149
  H  H40  1  0.254700  0.972500  0.102200  1.0  0.3168
  H  H41  1  0.002900  0.242100  0.178700  1.0  0.0636
  H  H42  1  0.098900  0.350000  0.188100  1.0  0.1292
  H  H43  1  0.157800  0.261600  0.357600  1.0  0.1438
  H  H44  1  0.060900  0.155000  0.341900  1.0  0.0611
  H  H45  1  0.163800  0.464400  0.212600  1.0  0.1063
  H  H46  1  0.268300  0.566200  0.224400  1.0  0.1126
  H  H47  1  0.379300  0.545300  0.292100  1.0  0.108
  H  H48  1  0.278100  0.322900  0.345200  1.0  0.0976
  H  H49  1  0.493400  0.297400  0.542600  1.0  0.094
  H  H50  1  0.587700  0.198600  0.587200  1.0  0.1114
  H  H51  1  0.699100  0.145800  0.531000  1.0  0.0884
  H  H52  1  0.641400  0.304900  0.389600  1.0  0.096
  H  H53  1  0.783900  0.084100  0.466400  1.0  0.1314
  H  H54  1  0.886700  0.035200  0.399700  1.0  0.0836
  H  H55  1  0.861700  0.230500  0.291100  1.0  0.0722
  H  H56  1  0.760400  0.287500  0.354800  1.0  0.1242
  H  H57  1  0.407800  0.237800  0.401700  1.0  0.3131
  H  H58  1  0.472500  0.245300  0.352200  1.0  0.3153
  H  H59  1  0.997100  0.757900  0.678700  1.0  0.0632
  H  H60  1  0.901100  0.650000  0.688100  1.0  0.1299
  H  H61  1  0.842200  0.738400  0.857600  1.0  0.1443
  H  H62  1  0.939100  0.845000  0.841900  1.0  0.0606
  H  H63  1  0.836200  0.535600  0.712600  1.0  0.1066
  H  H64  1  0.731700  0.433800  0.724400  1.0  0.1122
  H  H65  1  0.620700  0.454700  0.792100  1.0  0.1083
  H  H66  1  0.721900  0.677100  0.845200  1.0  0.0973
  H  H67  1  0.506600  0.702600  0.042600  1.0  0.0937
  H  H68  1  0.412300  0.801400  0.087200  1.0  0.1108
  H  H69  1  0.300900  0.854200  0.031000  1.0  0.0881
  H  H70  1  0.358600  0.695100  0.889600  1.0  0.097
  H  H71  1  0.216100  0.915900  0.966400  1.0  0.1314
  H  H72  1  0.113300  0.964800  0.899700  1.0  0.0837
  H  H73  1  0.138300  0.769500  0.791100  1.0  0.0722
  H  H74  1  0.239600  0.712500  0.854800  1.0  0.1238
  H  H75  1  0.592200  0.762200  0.901700  1.0  0.3133
  H  H76  1  0.527500  0.754700  0.852200  1.0  0.3152
  H  H77  1  0.757900  0.997100  0.321300  1.0  0.0622
  H  H78  1  0.650000  0.901100  0.311900  1.0  0.1296
  H  H79  1  0.738400  0.842200  0.142400  1.0  0.1448
  H  H80  1  0.845000  0.939100  0.158100  1.0  0.0604
  H  H81  1  0.535600  0.836200  0.287400  1.0  0.1067
  H  H82  1  0.433800  0.731700  0.275600  1.0  0.1118
  H  H83  1  0.454700  0.620700  0.207900  1.0  0.1081
  H  H84  1  0.677100  0.721900  0.154800  1.0  0.0973
  H  H85  1  0.702600  0.506600  0.957400  1.0  0.0943
  H  H86  1  0.801400  0.412300  0.912800  1.0  0.1109
  H  H87  1  0.854200  0.300900  0.969000  1.0  0.087
  H  H88  1  0.695100  0.358600  0.110400  1.0  0.0966
  H  H89  1  0.915900  0.216100  0.033600  1.0  0.1309
  H  H90  1  0.964800  0.113300  0.100300  1.0  0.0834
  H  H91  1  0.769500  0.138300  0.208900  1.0  0.0725
  H  H92  1  0.712500  0.239600  0.145200  1.0  0.1235
  H  H93  1  0.762200  0.592200  0.098300  1.0  0.3143
  H  H94  1  0.754700  0.527500  0.147800  1.0  0.3167
  H  H95  1  0.242100  0.002900  0.821300  1.0  0.0624
  H  H96  1  0.350000  0.098900  0.811900  1.0  0.1298
  H  H97  1  0.261600  0.157800  0.642400  1.0  0.1451
  H  H98  1  0.155000  0.060900  0.658100  1.0  0.0604
  H  H99  1  0.464400  0.163800  0.787400  1.0  0.1067
  H  H100  1  0.566200  0.268300  0.775600  1.0  0.1119
  H  H101  1  0.545300  0.379300  0.707900  1.0  0.108
  H  H102  1  0.322900  0.278100  0.654800  1.0  0.0976
  H  H103  1  0.297400  0.493400  0.457400  1.0  0.0932
  H  H104  1  0.198600  0.587700  0.412800  1.0  0.111
  H  H105  1  0.145800  0.699100  0.469000  1.0  0.0869
  H  H106  1  0.304900  0.641400  0.610400  1.0  0.0971
  H  H107  1  0.084100  0.783900  0.533600  1.0  0.131
  H  H108  1  0.035200  0.886700  0.600300  1.0  0.0838
  H  H109  1  0.230500  0.861700  0.708900  1.0  0.0724
  H  H110  1  0.287500  0.760400  0.645200  1.0  0.124
  H  H111  1  0.237800  0.407800  0.598300  1.0  0.3157
  H  H112  1  0.245300  0.472500  0.647800  1.0  0.3165
  H  H113  1  0.497100  0.742100  0.571300  1.0  0.063
  H  H114  1  0.401100  0.850000  0.561900  1.0  0.1293
  H  H115  1  0.342200  0.761600  0.392400  1.0  0.1444
  H  H116  1  0.439100  0.655000  0.408100  1.0  0.0607
  H  H117  1  0.336200  0.964400  0.537400  1.0  0.1068
  H  H118  1  0.231700  0.066200  0.525600  1.0  0.112
  H  H119  1  0.120700  0.045300  0.457900  1.0  0.1085
  H  H120  1  0.221900  0.822900  0.404800  1.0  0.0978
  H  H121  1  0.006600  0.797400  0.207400  1.0  0.0937
  H  H122  1  0.912300  0.698600  0.162800  1.0  0.1113
  H  H123  1  0.800900  0.645800  0.219000  1.0  0.088
  H  H124  1  0.858600  0.804900  0.360400  1.0  0.0968
  H  H125  1  0.716100  0.584100  0.283600  1.0  0.1311
  H  H126  1  0.613300  0.535200  0.350300  1.0  0.0834
  H  H127  1  0.638300  0.730500  0.458900  1.0  0.0726
  H  H128  1  0.739600  0.787500  0.395200  1.0  0.1239
  H  H129  1  0.092200  0.737800  0.348300  1.0  0.3137
  H  H130  1  0.027500  0.745300  0.397800  1.0  0.3151
  H  H131  1  0.502900  0.257900  0.071300  1.0  0.0625
  H  H132  1  0.598900  0.150000  0.061900  1.0  0.13
  H  H133  1  0.657800  0.238400  0.892400  1.0  0.1446
  H  H134  1  0.560900  0.345000  0.908100  1.0  0.0605
  H  H135  1  0.663800  0.035600  0.037400  1.0  0.1063
  H  H136  1  0.768300  0.933800  0.025600  1.0  0.1127
  H  H137  1  0.879300  0.954700  0.957900  1.0  0.1083
  H  H138  1  0.778100  0.177100  0.904800  1.0  0.0981
  H  H139  1  0.993400  0.202600  0.707400  1.0  0.0938
  H  H140  1  0.087700  0.301400  0.662800  1.0  0.1111
  H  H141  1  0.199100  0.354200  0.719000  1.0  0.0886
  H  H142  1  0.141400  0.195100  0.860400  1.0  0.0957
  H  H143  1  0.283900  0.415900  0.783600  1.0  0.1318
  H  H144  1  0.386700  0.464800  0.850300  1.0  0.0833
  H  H145  1  0.361700  0.269500  0.958900  1.0  0.0727
  H  H146  1  0.260400  0.212500  0.895200  1.0  0.1238
  H  H147  1  0.907800  0.262200  0.848300  1.0  0.3134
  H  H148  1  0.972500  0.254700  0.897800  1.0  0.3151
  C  C149  1  0.744900  0.463800  0.465300  1.0  0.1718
  C  C150  1  0.810000  0.406400  0.470700  1.0  -0.2162
  C  C151  1  0.816800  0.357200  0.523000  1.0  0.1218
  C  C152  1  0.758400  0.371900  0.569300  1.0  -0.1913
  C  C153  1  0.694900  0.430500  0.559600  1.0  0.1744
  C  C154  1  0.882300  0.291400  0.529000  1.0  0.0014
  C  C155  1  0.956000  0.292400  0.491900  1.0  -0.1036
  C  C156  1  0.016100  0.229200  0.498300  1.0  -0.0747
  C  C157  1  0.004100  0.163600  0.538600  1.0  -0.0598
  C  C158  1  0.930800  0.160100  0.574600  1.0  -0.0138
  C  C159  1  0.871800  0.224000  0.569900  1.0  -0.111
  C  C160  1  0.923300  0.091300  0.618300  1.0  0.2602
  C  C161  1  0.872200  0.994900  0.680600  1.0  0.2458
  C  C162  1  0.810100  0.940900  0.711400  1.0  -0.0472
  C  C163  1  0.778900  0.958500  0.770200  1.0  -0.0605
  C  C164  1  0.718400  0.902600  0.796200  1.0  -0.069
  C  C165  1  0.688300  0.835500  0.763600  1.0  -0.0813
  C  C166  1  0.720700  0.817900  0.703900  1.0  0.0067
  C  C167  1  0.781900  0.870800  0.679300  1.0  -0.1102
  C  C168  1  0.690300  0.745200  0.666667  1.0  0.1094
  C  C169  1  0.615000  0.702800  0.679900  1.0  -0.1901
  C  C170  1  0.585900  0.641400  0.639300  1.0  0.1698
  C  C171  1  0.699500  0.655800  0.576600  1.0  0.1388
  C  C172  1  0.733900  0.716800  0.614400  1.0  -0.205
  C  C173  1  0.255100  0.536200  0.965300  1.0  0.1715
  C  C174  1  0.190000  0.593600  0.970700  1.0  -0.2174
  C  C175  1  0.183200  0.642800  0.023000  1.0  0.122
  C  C176  1  0.241600  0.628100  0.069300  1.0  -0.1918
  C  C177  1  0.305100  0.569500  0.059600  1.0  0.1741
  C  C178  1  0.117700  0.708600  0.029000  1.0  0.0021
  C  C179  1  0.044000  0.707600  0.991900  1.0  -0.1041
  C  C180  1  0.983900  0.770800  0.998300  1.0  -0.0754
  C  C181  1  0.995900  0.836400  0.038600  1.0  -0.0583
  C  C182  1  0.069200  0.839900  0.074600  1.0  -0.0138
  C  C183  1  0.128200  0.776000  0.069900  1.0  -0.1106
  C  C184  1  0.076700  0.908700  0.118300  1.0  0.2595
  C  C185  1  0.127800  0.005100  0.180600  1.0  0.2458
  C  C186  1  0.189900  0.059100  0.211400  1.0  -0.047
  C  C187  1  0.221100  0.041500  0.270200  1.0  -0.0563
  C  C188  1  0.281600  0.097400  0.296200  1.0  -0.068
  C  C189  1  0.311700  0.164500  0.263600  1.0  -0.0826
  C  C190  1  0.279300  0.182100  0.203900  1.0  0.0059
  C  C191  1  0.218100  0.129200  0.179300  1.0  -0.1097
  C  C192  1  0.309700  0.254800  0.166600  1.0  0.1101
  C  C193  1  0.385000  0.297200  0.179900  1.0  -0.1898
  C  C194  1  0.414100  0.358600  0.139300  1.0  0.17
  C  C195  1  0.300500  0.344200  0.076600  1.0  0.1388
  C  C196  1  0.266100  0.283200  0.114400  1.0  -0.2043
  C  C197  1  0.036200  0.244900  0.215300  1.0  0.1711
  C  C198  1  0.093600  0.310000  0.220700  1.0  -0.2174
  C  C199  1  0.142800  0.316800  0.273000  1.0  0.1223
  C  C200  1  0.128100  0.258400  0.319300  1.0  -0.1923
  C  C201  1  0.069500  0.194900  0.309600  1.0  0.1732
  C  C202  1  0.208600  0.382300  0.279000  1.0  0.0029
  C  C203  1  0.207600  0.456000  0.241900  1.0  -0.1042
  C  C204  1  0.270800  0.516100  0.248300  1.0  -0.073
  C  C205  1  0.336400  0.504100  0.288600  1.0  -0.0596
  C  C206  1  0.339900  0.430800  0.324600  1.0  -0.0157
  C  C207  1  0.276000  0.371800  0.319900  1.0  -0.1095
  C  C208  1  0.408700  0.423300  0.368300  1.0  0.2599
  C  C209  1  0.505100  0.372200  0.430600  1.0  0.247
  C  C210  1  0.559100  0.310100  0.461400  1.0  -0.0468
  C  C211  1  0.541500  0.278900  0.520200  1.0  -0.0631
  C  C212  1  0.597400  0.218400  0.546200  1.0  -0.0679
  C  C213  1  0.664500  0.188300  0.513600  1.0  -0.0803
  C  C214  1  0.682100  0.220700  0.453900  1.0  0.006
  C  C215  1  0.629200  0.281900  0.429300  1.0  -0.111
  C  C216  1  0.754800  0.190300  0.416600  1.0  0.1107
  C  C217  1  0.797200  0.115000  0.429900  1.0  -0.1924
  C  C218  1  0.858600  0.085900  0.389300  1.0  0.1679
  C  C219  1  0.844200  0.199500  0.326600  1.0  0.1381
  C  C220  1  0.783200  0.233900  0.364400  1.0  -0.2024
  C  C221  1  0.963800  0.755100  0.715300  1.0  0.171
  C  C222  1  0.906400  0.690000  0.720700  1.0  -0.2176
  C  C223  1  0.857200  0.683200  0.773000  1.0  0.1219
  C  C224  1  0.871900  0.741600  0.819300  1.0  -0.192
  C  C225  1  0.930500  0.805100  0.809600  1.0  0.1734
  C  C226  1  0.791400  0.617700  0.779000  1.0  0.002
  C  C227  1  0.792400  0.544000  0.741900  1.0  -0.1043
  C  C228  1  0.729200  0.483900  0.748300  1.0  -0.0732
  C  C229  1  0.663600  0.495900  0.788600  1.0  -0.0577
  C  C230  1  0.660100  0.569200  0.824600  1.0  -0.0149
  C  C231  1  0.724000  0.628200  0.819900  1.0  -0.1092
  C  C232  1  0.591300  0.576700  0.868300  1.0  0.2606
  C  C233  1  0.494900  0.627800  0.930600  1.0  0.2471
  C  C234  1  0.440900  0.689900  0.961400  1.0  -0.0467
  C  C235  1  0.458500  0.721100  0.020200  1.0  -0.0638
  C  C236  1  0.402600  0.781600  0.046200  1.0  -0.0683
  C  C237  1  0.335500  0.811700  0.013600  1.0  -0.0791
  C  C238  1  0.317900  0.779300  0.953900  1.0  0.0055
  C  C239  1  0.370800  0.718100  0.929300  1.0  -0.1117
  C  C240  1  0.245200  0.809700  0.916600  1.0  0.1097
  C  C241  1  0.202800  0.885000  0.929900  1.0  -0.1915
  C  C242  1  0.141400  0.914100  0.889300  1.0  0.1688
  C  C243  1  0.155800  0.800500  0.826600  1.0  0.1362
  C  C244  1  0.216800  0.766100  0.864400  1.0  -0.2021
  C  C245  1  0.755100  0.963800  0.284700  1.0  0.1712
  C  C246  1  0.690000  0.906400  0.279300  1.0  -0.217
  C  C247  1  0.683200  0.857200  0.227000  1.0  0.122
  C  C248  1  0.741600  0.871900  0.180700  1.0  -0.1927
  C  C249  1  0.805100  0.930500  0.190400  1.0  0.1747
  C  C250  1  0.617700  0.791400  0.221000  1.0  0.0017
  C  C251  1  0.544000  0.792400  0.258100  1.0  -0.1035
  C  C252  1  0.483900  0.729200  0.251700  1.0  -0.0753
  C  C253  1  0.495900  0.663600  0.211400  1.0  -0.0591
  C  C254  1  0.569200  0.660100  0.175400  1.0  -0.0139
  C  C255  1  0.628200  0.724000  0.180100  1.0  -0.1107
  C  C256  1  0.576700  0.591300  0.131700  1.0  0.2594
  C  C257  1  0.627800  0.494900  0.069400  1.0  0.2462
  C  C258  1  0.689900  0.440900  0.038600  1.0  -0.0476
  C  C259  1  0.721100  0.458500  0.979800  1.0  -0.0581
  C  C260  1  0.781600  0.402600  0.953800  1.0  -0.069
  C  C261  1  0.811700  0.335500  0.986400  1.0  -0.0823
  C  C262  1  0.779300  0.317900  0.046100  1.0  0.0056
  C  C263  1  0.718100  0.370800  0.070700  1.0  -0.1098
  C  C264  1  0.809700  0.245200  0.083400  1.0  0.1099
  C  C265  1  0.885000  0.202800  0.070100  1.0  -0.19
  C  C266  1  0.914100  0.141400  0.110700  1.0  0.1699
  C  C267  1  0.800500  0.155800  0.173400  1.0  0.1387
  C  C268  1  0.766100  0.216800  0.135600  1.0  -0.2046
  C  C269  1  0.244900  0.036200  0.784700  1.0  0.1719
  C  C270  1  0.310000  0.093600  0.779300  1.0  -0.2173
  C  C271  1  0.316800  0.142800  0.727000  1.0  0.1217
  C  C272  1  0.258400  0.128100  0.680700  1.0  -0.1925
  C  C273  1  0.194900  0.069500  0.690400  1.0  0.1751
  C  C274  1  0.382300  0.208600  0.721000  1.0  0.002
  C  C275  1  0.456000  0.207600  0.758100  1.0  -0.1046
  C  C276  1  0.516100  0.270800  0.751700  1.0  -0.0749
  C  C277  1  0.504100  0.336400  0.711400  1.0  -0.0598
  C  C278  1  0.430800  0.339900  0.675400  1.0  -0.0137
  C  C279  1  0.371800  0.276000  0.680100  1.0  -0.1105
  C  C280  1  0.423300  0.408700  0.631700  1.0  0.26
  C  C281  1  0.372200  0.505100  0.569400  1.0  0.2465
  C  C282  1  0.310100  0.559100  0.538600  1.0  -0.0473
  C  C283  1  0.278900  0.541500  0.479800  1.0  -0.0604
  C  C284  1  0.218400  0.597400  0.453800  1.0  -0.0712
  C  C285  1  0.188300  0.664500  0.486400  1.0  -0.081
  C  C286  1  0.220700  0.682100  0.546100  1.0  0.0068
  C  C287  1  0.281900  0.629200  0.570700  1.0  -0.1101
  C  C288  1  0.190300  0.754800  0.583400  1.0  0.11
  C  C289  1  0.115000  0.797200  0.570100  1.0  -0.1904
  C  C290  1  0.085900  0.858600  0.610700  1.0  0.1698
  C  C291  1  0.199500  0.844200  0.673400  1.0  0.1381
  C  C292  1  0.233900  0.783200  0.635600  1.0  -0.2048
  C  C293  1  0.463800  0.744900  0.534700  1.0  0.1707
  C  C294  1  0.406400  0.810000  0.529300  1.0  -0.217
  C  C295  1  0.357200  0.816800  0.477000  1.0  0.1218
  C  C296  1  0.371900  0.758400  0.430700  1.0  -0.1929
  C  C297  1  0.430500  0.694900  0.440400  1.0  0.1738
  C  C298  1  0.291400  0.882300  0.471000  1.0  0.0022
  C  C299  1  0.292400  0.956000  0.508100  1.0  -0.1037
  C  C300  1  0.229200  0.016100  0.501700  1.0  -0.0731
  C  C301  1  0.163600  0.004100  0.461400  1.0  -0.0584
  C  C302  1  0.160100  0.930800  0.425400  1.0  -0.0149
  C  C303  1  0.224000  0.871800  0.430100  1.0  -0.1088
  C  C304  1  0.091300  0.923300  0.381700  1.0  0.2599
  C  C305  1  0.994900  0.872200  0.319400  1.0  0.2476
  C  C306  1  0.940900  0.810100  0.288600  1.0  -0.0471
  C  C307  1  0.958500  0.778900  0.229800  1.0  -0.0642
  C  C308  1  0.902600  0.718400  0.203800  1.0  -0.0697
  C  C309  1  0.835500  0.688300  0.236400  1.0  -0.0789
  C  C310  1  0.817900  0.720700  0.296100  1.0  0.0052
  C  C311  1  0.870800  0.781900  0.320700  1.0  -0.1119
  C  C312  1  0.745200  0.690300  0.333400  1.0  0.1092
  C  C313  1  0.702800  0.615000  0.320100  1.0  -0.192
  C  C314  1  0.641400  0.585900  0.360700  1.0  0.1685
  C  C315  1  0.655800  0.699500  0.423400  1.0  0.1357
  C  C316  1  0.716800  0.733900  0.385600  1.0  -0.2019
  C  C317  1  0.536200  0.255100  0.034700  1.0  0.1708
  C  C318  1  0.593600  0.190000  0.029300  1.0  -0.2174
  C  C319  1  0.642800  0.183200  0.977000  1.0  0.1219
  C  C320  1  0.628100  0.241600  0.930700  1.0  -0.1936
  C  C321  1  0.569500  0.305100  0.940400  1.0  0.1734
  C  C322  1  0.708600  0.117700  0.971000  1.0  0.0022
  C  C323  1  0.707600  0.044000  0.008100  1.0  -0.1043
  C  C324  1  0.770800  0.983900  0.001700  1.0  -0.0738
  C  C325  1  0.836400  0.995900  0.961400  1.0  -0.06
  C  C326  1  0.839900  0.069200  0.925400  1.0  -0.0153
  C  C327  1  0.776000  0.128200  0.930100  1.0  -0.1102
  C  C328  1  0.908700  0.076700  0.881700  1.0  0.26
  C  C329  1  0.005100  0.127800  0.819400  1.0  0.2472
  C  C330  1  0.059100  0.189900  0.788600  1.0  -0.0471
  C  C331  1  0.041500  0.221100  0.729800  1.0  -0.0654
  C  C332  1  0.097400  0.281600  0.703800  1.0  -0.0697
  C  C333  1  0.164500  0.311700  0.736400  1.0  -0.0795
  C  C334  1  0.182100  0.279300  0.796100  1.0  0.0059
  C  C335  1  0.129200  0.218100  0.820700  1.0  -0.1113
  C  C336  1  0.254800  0.309700  0.833400  1.0  0.11
  C  C337  1  0.297200  0.385000  0.820100  1.0  -0.192
  C  C338  1  0.358600  0.414100  0.860700  1.0  0.168
  C  C339  1  0.344200  0.300500  0.923400  1.0  0.1374
  C  C340  1  0.283200  0.266100  0.885600  1.0  -0.2025
  N  N341  1  0.987000  0.054100  0.644800  1.0  -0.2962
  N  N342  1  0.955100  0.992500  0.683800  1.0  -0.2446
  N  N343  1  0.850200  0.055300  0.639900  1.0  0.0882
  N  N344  1  0.769200  0.074300  0.618900  1.0  -0.5521
  N  N345  1  0.624000  0.619700  0.587500  1.0  -0.3473
  N  N346  1  0.686800  0.474800  0.508200  1.0  -0.361
  N  N347  1  0.013000  0.945900  0.144800  1.0  -0.2955
  N  N348  1  0.044900  0.007500  0.183800  1.0  -0.244
  N  N349  1  0.149800  0.944700  0.139900  1.0  0.0887
  N  N350  1  0.230800  0.925700  0.118900  1.0  -0.5531
  N  N351  1  0.376000  0.380300  0.087500  1.0  -0.3473
  N  N352  1  0.313200  0.525200  0.008200  1.0  -0.3598
  N  N353  1  0.445900  0.487000  0.394800  1.0  -0.295
  N  N354  1  0.507500  0.455100  0.433800  1.0  -0.2442
  N  N355  1  0.444700  0.350200  0.389900  1.0  0.0882
  N  N356  1  0.425700  0.269200  0.368900  1.0  -0.5522
  N  N357  1  0.880300  0.124000  0.337500  1.0  -0.3467
  N  N358  1  0.025200  0.186800  0.258200  1.0  -0.3606
  N  N359  1  0.554100  0.513000  0.894800  1.0  -0.2942
  N  N360  1  0.492500  0.544900  0.933800  1.0  -0.243
  N  N361  1  0.555300  0.649800  0.889900  1.0  0.0878
  N  N362  1  0.574300  0.730800  0.868900  1.0  -0.553
  N  N363  1  0.119700  0.876000  0.837500  1.0  -0.3464
  N  N364  1  0.974800  0.813200  0.758200  1.0  -0.3596
  N  N365  1  0.513000  0.554100  0.105200  1.0  -0.2938
  N  N366  1  0.544900  0.492500  0.066200  1.0  -0.2447
  N  N367  1  0.649800  0.555300  0.110100  1.0  0.0886
  N  N368  1  0.730800  0.574300  0.131100  1.0  -0.5518
  N  N369  1  0.876000  0.119700  0.162500  1.0  -0.3461
  N  N370  1  0.813200  0.974800  0.241800  1.0  -0.3611
  N  N371  1  0.487000  0.445900  0.605200  1.0  -0.2944
  N  N372  1  0.455100  0.507500  0.566200  1.0  -0.2451
  N  N373  1  0.350200  0.444700  0.610100  1.0  0.0884
  N  N374  1  0.269200  0.425700  0.631100  1.0  -0.5519
  N  N375  1  0.124000  0.880300  0.662500  1.0  -0.3478
  N  N376  1  0.186800  0.025200  0.741800  1.0  -0.3601
  N  N377  1  0.054100  0.987000  0.355200  1.0  -0.2926
  N  N378  1  0.992500  0.955100  0.316200  1.0  -0.2437
  N  N379  1  0.055300  0.850200  0.360100  1.0  0.0881
  N  N380  1  0.074300  0.769200  0.381100  1.0  -0.5526
  N  N381  1  0.619700  0.624000  0.412500  1.0  -0.3462
  N  N382  1  0.474800  0.686800  0.491800  1.0  -0.3599
  N  N383  1  0.945900  0.013000  0.855200  1.0  -0.2933
  N  N384  1  0.007500  0.044900  0.816200  1.0  -0.2438
  N  N385  1  0.944700  0.149800  0.860100  1.0  0.0882
  N  N386  1  0.925700  0.230800  0.881100  1.0  -0.5529
  N  N387  1  0.380300  0.376000  0.912500  1.0  -0.3458
  N  N388  1  0.525200  0.313200  0.991800  1.0  -0.3604
  Cl  Cl389  1  0.732200  0.732200  0.000000  1.0  1.3725
  Cl  Cl390  1  0.122640  0.122640  0.000000  1.0  1.2283
  Cl  Cl391  1  0.267800  0.267800  0.500000  1.0  1.373
  Cl  Cl392  1  0.877360  0.877360  0.500000  1.0  1.2294
  Cl  Cl393  1  0.767800  0.232200  0.750000  1.0  1.373
  Cl  Cl394  1  0.377360  0.622640  0.750000  1.0  1.2305
  Cl  Cl395  1  0.232200  0.767800  0.250000  1.0  1.3724
  Cl  Cl396  1  0.622640  0.377360  0.250000  1.0  1.2274
  O  O397  1  0.778700  0.655000  0.980100  1.0  -0.5257
  O  O398  1  0.775600  0.754900  0.052500  1.0  -0.562
  O  O399  1  0.655000  0.778700  0.019900  1.0  -0.5257
  O  O400  1  0.754900  0.775600  0.947500  1.0  -0.5618
  O  O401  1  0.097800  0.179400  0.051100  1.0  -0.4969
  O  O402  1  0.107100  0.045800  0.026400  1.0  -0.5228
  O  O403  1  0.179400  0.097800  0.948900  1.0  -0.4914
  O  O404  1  0.045800  0.107100  0.973600  1.0  -0.5215
  O  O405  1  0.221300  0.345000  0.480100  1.0  -0.5258
  O  O406  1  0.224400  0.245100  0.552500  1.0  -0.5632
  O  O407  1  0.345000  0.221300  0.519900  1.0  -0.5265
  O  O408  1  0.245100  0.224400  0.447500  1.0  -0.5617
  O  O409  1  0.902200  0.820600  0.551100  1.0  -0.4947
  O  O410  1  0.892900  0.954200  0.526400  1.0  -0.5229
  O  O411  1  0.820600  0.902200  0.448900  1.0  -0.4895
  O  O412  1  0.954200  0.892900  0.473600  1.0  -0.5235
  O  O413  1  0.845000  0.278700  0.730100  1.0  -0.526
  O  O414  1  0.745100  0.275600  0.802500  1.0  -0.5603
  O  O415  1  0.721300  0.155000  0.769900  1.0  -0.5256
  O  O416  1  0.724400  0.254900  0.697500  1.0  -0.5623
  O  O417  1  0.320600  0.597800  0.801100  1.0  -0.4914
  O  O418  1  0.454200  0.607100  0.776400  1.0  -0.5232
  O  O419  1  0.402200  0.679400  0.698900  1.0  -0.4951
  O  O420  1  0.392900  0.545800  0.723600  1.0  -0.5228
  O  O421  1  0.155000  0.721300  0.230100  1.0  -0.5253
  O  O422  1  0.254900  0.724400  0.302500  1.0  -0.5605
  O  O423  1  0.278700  0.845000  0.269900  1.0  -0.5261
  O  O424  1  0.275600  0.745100  0.197500  1.0  -0.5622
  O  O425  1  0.679400  0.402200  0.301100  1.0  -0.493
  O  O426  1  0.545800  0.392900  0.276400  1.0  -0.5229
  O  O427  1  0.597800  0.320600  0.198900  1.0  -0.4918
  O  O428  1  0.607100  0.454200  0.223600  1.0  -0.5218
