# generated using pymatgen
data_CdH36C48N12ClO4
_symmetry_space_group_name_H-M   'P 1'
_cell_length_a   15.85910000
_cell_length_b   15.85910000
_cell_length_c   21.68500000
_cell_angle_alpha   90.00000000
_cell_angle_beta   90.00000000
_cell_angle_gamma   90.00000000
_symmetry_Int_Tables_number   1
_chemical_formula_structural   CdH36C48N12ClO4
_chemical_formula_sum   'Cd4 H144 C192 N48 Cl4 O16'
_cell_volume   5454.01718018
_cell_formula_units_Z   4
loop_
 _symmetry_equiv_pos_site_id
 _symmetry_equiv_pos_as_xyz
  1  'x, y, z'
loop_
 _atom_site_type_symbol
 _atom_site_label
 _atom_site_symmetry_multiplicity
 _atom_site_fract_x
 _atom_site_fract_y
 _atom_site_fract_z
 _atom_site_occupancy
 _atom_site_charge
  Cd  Cd1  1  0.441370  0.441370  0.000000  1.0  0.7929
  Cd  Cd2  1  0.558630  0.558630  0.500000  1.0  0.7925
  Cd  Cd3  1  0.058630  0.941370  0.250000  1.0  0.7926
  Cd  Cd4  1  0.941370  0.058630  0.750000  1.0  0.7928
  H  H5  1  0.340200  0.559700  0.908500  1.0  0.0487
  H  H6  1  0.233600  0.654300  0.893800  1.0  0.126
  H  H7  1  0.151800  0.599200  0.063700  1.0  0.1235
  H  H8  1  0.263900  0.509100  0.074400  1.0  0.0613
  H  H9  1  0.032300  0.662700  0.037400  1.0  0.1015
  H  H10  1  0.934100  0.768600  0.029300  1.0  0.0982
  H  H11  1  0.951500  0.875800  0.959300  1.0  0.107
  H  H12  1  0.172900  0.777900  0.907100  1.0  0.0918
  H  H13  1  0.200500  0.992800  0.710100  1.0  0.1019
  H  H14  1  0.297600  0.085900  0.666400  1.0  0.0964
  H  H15  1  0.349800  0.198600  0.721700  1.0  0.0781
  H  H16  1  0.198600  0.138100  0.862800  1.0  0.1155
  H  H17  1  0.410600  0.287900  0.784000  1.0  0.1206
  H  H18  1  0.459500  0.389600  0.850000  1.0  0.0687
  H  H19  1  0.268700  0.360100  0.958700  1.0  0.0704
  H  H20  1  0.215400  0.255600  0.898300  1.0  0.1228
  H  H21  1  0.233000  0.935200  0.923100  1.0  0.3297
  H  H22  1  0.267000  0.954900  0.862500  1.0  0.3288
  H  H23  1  0.659800  0.440300  0.408500  1.0  0.0486
  H  H24  1  0.766400  0.345700  0.393800  1.0  0.1261
  H  H25  1  0.848200  0.400800  0.563700  1.0  0.1227
  H  H26  1  0.736100  0.490900  0.574400  1.0  0.0606
  H  H27  1  0.967700  0.337300  0.537400  1.0  0.1014
  H  H28  1  0.065900  0.231400  0.529300  1.0  0.0986
  H  H29  1  0.048500  0.124200  0.459300  1.0  0.1067
  H  H30  1  0.827100  0.222100  0.407100  1.0  0.0924
  H  H31  1  0.799500  0.007200  0.210100  1.0  0.1015
  H  H32  1  0.702400  0.914100  0.166400  1.0  0.0963
  H  H33  1  0.650200  0.801400  0.221700  1.0  0.0779
  H  H34  1  0.801400  0.861900  0.362800  1.0  0.1159
  H  H35  1  0.589400  0.712100  0.284000  1.0  0.1207
  H  H36  1  0.540500  0.610400  0.350000  1.0  0.069
  H  H37  1  0.731300  0.639900  0.458700  1.0  0.0708
  H  H38  1  0.784600  0.744400  0.398300  1.0  0.123
  H  H39  1  0.767000  0.064800  0.423100  1.0  0.3292
  H  H40  1  0.733000  0.045100  0.362500  1.0  0.3278
  H  H41  1  0.940300  0.840200  0.158500  1.0  0.0488
  H  H42  1  0.845700  0.733600  0.143800  1.0  0.1248
  H  H43  1  0.900800  0.651800  0.313700  1.0  0.1223
  H  H44  1  0.990900  0.763900  0.324400  1.0  0.0606
  H  H45  1  0.837300  0.532300  0.287400  1.0  0.1017
  H  H46  1  0.731400  0.434100  0.279300  1.0  0.0984
  H  H47  1  0.624200  0.451500  0.209300  1.0  0.106
  H  H48  1  0.722100  0.672900  0.157100  1.0  0.0926
  H  H49  1  0.507200  0.700500  0.960100  1.0  0.1015
  H  H50  1  0.414100  0.797600  0.916400  1.0  0.0972
  H  H51  1  0.301400  0.849800  0.971700  1.0  0.0785
  H  H52  1  0.361900  0.698600  0.112800  1.0  0.1155
  H  H53  1  0.212100  0.910600  0.034000  1.0  0.121
  H  H54  1  0.110400  0.959500  0.100000  1.0  0.07
  H  H55  1  0.139900  0.768700  0.208700  1.0  0.0709
  H  H56  1  0.244400  0.715400  0.148300  1.0  0.1232
  H  H57  1  0.564800  0.733000  0.173100  1.0  0.328
  H  H58  1  0.545100  0.767000  0.112500  1.0  0.3279
  H  H59  1  0.059700  0.159800  0.658500  1.0  0.0496
  H  H60  1  0.154300  0.266400  0.643800  1.0  0.1249
  H  H61  1  0.099200  0.348200  0.813700  1.0  0.1223
  H  H62  1  0.009100  0.236100  0.824400  1.0  0.0613
  H  H63  1  0.162700  0.467700  0.787400  1.0  0.1018
  H  H64  1  0.268600  0.565900  0.779300  1.0  0.0985
  H  H65  1  0.375800  0.548500  0.709300  1.0  0.1054
  H  H66  1  0.277900  0.327100  0.657100  1.0  0.0925
  H  H67  1  0.492800  0.299500  0.460100  1.0  0.1011
  H  H68  1  0.585900  0.202400  0.416400  1.0  0.0973
  H  H69  1  0.698600  0.150200  0.471700  1.0  0.0786
  H  H70  1  0.638100  0.301400  0.612800  1.0  0.1155
  H  H71  1  0.787900  0.089400  0.534000  1.0  0.1207
  H  H72  1  0.889600  0.040500  0.600000  1.0  0.0695
  H  H73  1  0.860100  0.231300  0.708700  1.0  0.0709
  H  H74  1  0.755600  0.284600  0.648300  1.0  0.1235
  H  H75  1  0.435200  0.267000  0.673100  1.0  0.3282
  H  H76  1  0.454900  0.233000  0.612500  1.0  0.3272
  H  H77  1  0.159800  0.059700  0.341500  1.0  0.0488
  H  H78  1  0.266400  0.154300  0.356200  1.0  0.1267
  H  H79  1  0.348200  0.099200  0.186300  1.0  0.1227
  H  H80  1  0.236100  0.009100  0.175600  1.0  0.0605
  H  H81  1  0.467700  0.162700  0.212600  1.0  0.1018
  H  H82  1  0.565900  0.268600  0.220700  1.0  0.0989
  H  H83  1  0.548500  0.375800  0.290700  1.0  0.1061
  H  H84  1  0.327100  0.277900  0.342900  1.0  0.092
  H  H85  1  0.299500  0.492800  0.539900  1.0  0.1018
  H  H86  1  0.202400  0.585900  0.583600  1.0  0.0968
  H  H87  1  0.150200  0.698600  0.528300  1.0  0.078
  H  H88  1  0.301400  0.638100  0.387200  1.0  0.1162
  H  H89  1  0.089400  0.787900  0.466000  1.0  0.1201
  H  H90  1  0.040500  0.889600  0.400000  1.0  0.0689
  H  H91  1  0.231300  0.860100  0.291300  1.0  0.0722
  H  H92  1  0.284600  0.755600  0.351700  1.0  0.1231
  H  H93  1  0.267000  0.435200  0.326900  1.0  0.3298
  H  H94  1  0.233000  0.454900  0.387500  1.0  0.3278
  H  H95  1  0.840200  0.940300  0.841500  1.0  0.0487
  H  H96  1  0.733600  0.845700  0.856200  1.0  0.1264
  H  H97  1  0.651800  0.900800  0.686300  1.0  0.1231
  H  H98  1  0.763900  0.990900  0.675600  1.0  0.061
  H  H99  1  0.532300  0.837300  0.712600  1.0  0.1023
  H  H100  1  0.434100  0.731400  0.720700  1.0  0.0984
  H  H101  1  0.451500  0.624200  0.790700  1.0  0.1068
  H  H102  1  0.672900  0.722100  0.842900  1.0  0.0921
  H  H103  1  0.700500  0.507200  0.039900  1.0  0.1023
  H  H104  1  0.797600  0.414100  0.083600  1.0  0.0961
  H  H105  1  0.849800  0.301400  0.028300  1.0  0.0785
  H  H106  1  0.698600  0.361900  0.887200  1.0  0.1158
  H  H107  1  0.910600  0.212100  0.966000  1.0  0.1207
  H  H108  1  0.959500  0.110400  0.900000  1.0  0.069
  H  H109  1  0.768700  0.139900  0.791300  1.0  0.0717
  H  H110  1  0.715400  0.244400  0.851700  1.0  0.1226
  H  H111  1  0.733000  0.564800  0.826900  1.0  0.3295
  H  H112  1  0.767000  0.545100  0.887500  1.0  0.328
  H  H113  1  0.559700  0.340200  0.091500  1.0  0.049
  H  H114  1  0.654300  0.233600  0.106200  1.0  0.1254
  H  H115  1  0.599200  0.151800  0.936300  1.0  0.1224
  H  H116  1  0.509100  0.263900  0.925600  1.0  0.0608
  H  H117  1  0.662700  0.032300  0.962600  1.0  0.1016
  H  H118  1  0.768600  0.934100  0.970700  1.0  0.0984
  H  H119  1  0.875800  0.951500  0.040700  1.0  0.1052
  H  H120  1  0.777900  0.172900  0.092900  1.0  0.0924
  H  H121  1  0.992800  0.200500  0.289900  1.0  0.1013
  H  H122  1  0.085900  0.297600  0.333600  1.0  0.0973
  H  H123  1  0.198600  0.349800  0.278300  1.0  0.0791
  H  H124  1  0.138100  0.198600  0.137200  1.0  0.116
  H  H125  1  0.287900  0.410600  0.216000  1.0  0.1207
  H  H126  1  0.389600  0.459500  0.150000  1.0  0.0697
  H  H127  1  0.360100  0.268700  0.041300  1.0  0.072
  H  H128  1  0.255600  0.215400  0.101700  1.0  0.1231
  H  H129  1  0.935200  0.233000  0.076900  1.0  0.3279
  H  H130  1  0.954900  0.267000  0.137500  1.0  0.3271
  H  H131  1  0.440300  0.659800  0.591500  1.0  0.0494
  H  H132  1  0.345700  0.766400  0.606200  1.0  0.1252
  H  H133  1  0.400800  0.848200  0.436300  1.0  0.1221
  H  H134  1  0.490900  0.736100  0.425600  1.0  0.0609
  H  H135  1  0.337300  0.967700  0.462600  1.0  0.1024
  H  H136  1  0.231400  0.065900  0.470700  1.0  0.099
  H  H137  1  0.124200  0.048500  0.540700  1.0  0.1061
  H  H138  1  0.222100  0.827100  0.592900  1.0  0.0928
  H  H139  1  0.007200  0.799500  0.789900  1.0  0.1019
  H  H140  1  0.914100  0.702400  0.833600  1.0  0.0972
  H  H141  1  0.801400  0.650200  0.778300  1.0  0.078
  H  H142  1  0.861900  0.801400  0.637200  1.0  0.1159
  H  H143  1  0.712100  0.589400  0.716000  1.0  0.1203
  H  H144  1  0.610400  0.540500  0.650000  1.0  0.0697
  H  H145  1  0.639900  0.731300  0.541300  1.0  0.0724
  H  H146  1  0.744400  0.784600  0.601700  1.0  0.1232
  H  H147  1  0.064800  0.767000  0.576900  1.0  0.3286
  H  H148  1  0.045100  0.733000  0.637500  1.0  0.327
  C  C149  1  0.302100  0.568500  0.940400  1.0  0.1736
  C  C150  1  0.238300  0.625700  0.931100  1.0  -0.2242
  C  C151  1  0.180500  0.640500  0.978800  1.0  0.0903
  C  C152  1  0.190300  0.593600  0.031600  1.0  -0.2098
  C  C153  1  0.257400  0.538000  0.037400  1.0  0.1723
  C  C154  1  0.114300  0.707100  0.972200  1.0  0.0085
  C  C155  1  0.040800  0.706300  0.009400  1.0  -0.1216
  C  C156  1  0.981800  0.769700  0.004400  1.0  -0.0857
  C  C157  1  0.992600  0.834300  0.963300  1.0  -0.1009
  C  C158  1  0.066100  0.837500  0.926900  1.0  -0.0092
  C  C159  1  0.124800  0.775300  0.931500  1.0  -0.1296
  C  C160  1  0.074200  0.907300  0.883200  1.0  0.2234
  C  C161  1  0.126300  0.002200  0.820700  1.0  0.2378
  C  C162  1  0.188100  0.058200  0.790600  1.0  -0.0339
  C  C163  1  0.218900  0.040000  0.731600  1.0  -0.1182
  C  C164  1  0.278300  0.095300  0.706200  1.0  -0.0939
  C  C165  1  0.309000  0.163900  0.739200  1.0  -0.0976
  C  C166  1  0.279300  0.180900  0.797800  1.0  0.0156
  C  C167  1  0.218800  0.127400  0.823300  1.0  -0.1256
  C  C168  1  0.309300  0.254300  0.835300  1.0  0.0843
  C  C169  1  0.381800  0.299000  0.820400  1.0  -0.2062
  C  C170  1  0.410600  0.360600  0.860700  1.0  0.1705
  C  C171  1  0.299300  0.342900  0.924300  1.0  0.1398
  C  C172  1  0.266500  0.280500  0.887800  1.0  -0.1874
  C  C173  1  0.697900  0.431500  0.440400  1.0  0.1728
  C  C174  1  0.761700  0.374300  0.431100  1.0  -0.2248
  C  C175  1  0.819500  0.359500  0.478800  1.0  0.0902
  C  C176  1  0.809700  0.406400  0.531600  1.0  -0.2102
  C  C177  1  0.742600  0.462000  0.537400  1.0  0.1724
  C  C178  1  0.885700  0.292900  0.472200  1.0  0.0074
  C  C179  1  0.959200  0.293700  0.509400  1.0  -0.121
  C  C180  1  0.018200  0.230300  0.504400  1.0  -0.0845
  C  C181  1  0.007400  0.165700  0.463300  1.0  -0.1016
  C  C182  1  0.933900  0.162500  0.426900  1.0  -0.0097
  C  C183  1  0.875200  0.224700  0.431500  1.0  -0.1294
  C  C184  1  0.925800  0.092700  0.383200  1.0  0.2233
  C  C185  1  0.873700  0.997800  0.320700  1.0  0.2364
  C  C186  1  0.811900  0.941800  0.290600  1.0  -0.0335
  C  C187  1  0.781100  0.960000  0.231600  1.0  -0.118
  C  C188  1  0.721700  0.904700  0.206200  1.0  -0.0939
  C  C189  1  0.691000  0.836100  0.239200  1.0  -0.0986
  C  C190  1  0.720700  0.819100  0.297800  1.0  0.015
  C  C191  1  0.781200  0.872600  0.323300  1.0  -0.1259
  C  C192  1  0.690700  0.745700  0.335300  1.0  0.0842
  C  C193  1  0.618200  0.701000  0.320400  1.0  -0.2059
  C  C194  1  0.589400  0.639400  0.360700  1.0  0.1705
  C  C195  1  0.700700  0.657100  0.424300  1.0  0.14
  C  C196  1  0.733500  0.719500  0.387800  1.0  -0.1892
  C  C197  1  0.931500  0.802100  0.190400  1.0  0.1725
  C  C198  1  0.874300  0.738300  0.181100  1.0  -0.226
  C  C199  1  0.859500  0.680500  0.228800  1.0  0.0901
  C  C200  1  0.906400  0.690300  0.281600  1.0  -0.21
  C  C201  1  0.962000  0.757400  0.287400  1.0  0.1712
  C  C202  1  0.792900  0.614300  0.222200  1.0  0.009
  C  C203  1  0.793700  0.540800  0.259400  1.0  -0.1204
  C  C204  1  0.730300  0.481800  0.254400  1.0  -0.0841
  C  C205  1  0.665700  0.492600  0.213300  1.0  -0.1019
  C  C206  1  0.662500  0.566100  0.176900  1.0  -0.0097
  C  C207  1  0.724700  0.624800  0.181500  1.0  -0.1284
  C  C208  1  0.592700  0.574200  0.133200  1.0  0.2223
  C  C209  1  0.497800  0.626300  0.070700  1.0  0.2363
  C  C210  1  0.441800  0.688100  0.040600  1.0  -0.0331
  C  C211  1  0.460000  0.718900  0.981600  1.0  -0.1188
  C  C212  1  0.404700  0.778300  0.956200  1.0  -0.0924
  C  C213  1  0.336100  0.809000  0.989200  1.0  -0.0959
  C  C214  1  0.319100  0.779300  0.047800  1.0  0.0154
  C  C215  1  0.372600  0.718800  0.073300  1.0  -0.1274
  C  C216  1  0.245700  0.809300  0.085300  1.0  0.084
  C  C217  1  0.201000  0.881800  0.070400  1.0  -0.208
  C  C218  1  0.139400  0.910600  0.110700  1.0  0.1697
  C  C219  1  0.157100  0.799300  0.174300  1.0  0.138
  C  C220  1  0.219500  0.766500  0.137800  1.0  -0.1867
  C  C221  1  0.068500  0.197900  0.690400  1.0  0.1719
  C  C222  1  0.125700  0.261700  0.681100  1.0  -0.2261
  C  C223  1  0.140500  0.319500  0.728800  1.0  0.0909
  C  C224  1  0.093600  0.309700  0.781600  1.0  -0.2105
  C  C225  1  0.038000  0.242600  0.787400  1.0  0.1711
  C  C226  1  0.207100  0.385700  0.722200  1.0  0.0089
  C  C227  1  0.206300  0.459200  0.759400  1.0  -0.1227
  C  C228  1  0.269700  0.518200  0.754400  1.0  -0.0835
  C  C229  1  0.334300  0.507400  0.713300  1.0  -0.102
  C  C230  1  0.337500  0.433900  0.676900  1.0  -0.0098
  C  C231  1  0.275300  0.375200  0.681500  1.0  -0.1273
  C  C232  1  0.407300  0.425800  0.633200  1.0  0.2226
  C  C233  1  0.502200  0.373700  0.570700  1.0  0.2358
  C  C234  1  0.558200  0.311900  0.540600  1.0  -0.0336
  C  C235  1  0.540000  0.281100  0.481600  1.0  -0.1169
  C  C236  1  0.595300  0.221700  0.456200  1.0  -0.0906
  C  C237  1  0.663900  0.191000  0.489200  1.0  -0.0967
  C  C238  1  0.680900  0.220700  0.547800  1.0  0.0146
  C  C239  1  0.627400  0.281200  0.573300  1.0  -0.1271
  C  C240  1  0.754300  0.190700  0.585300  1.0  0.0836
  C  C241  1  0.799000  0.118200  0.570400  1.0  -0.2076
  C  C242  1  0.860600  0.089400  0.610700  1.0  0.1699
  C  C243  1  0.842900  0.200700  0.674300  1.0  0.1396
  C  C244  1  0.780500  0.233500  0.637800  1.0  -0.1872
  C  C245  1  0.197900  0.068500  0.309600  1.0  0.1739
  C  C246  1  0.261700  0.125700  0.318900  1.0  -0.225
  C  C247  1  0.319500  0.140500  0.271200  1.0  0.0898
  C  C248  1  0.309700  0.093600  0.218400  1.0  -0.2105
  C  C249  1  0.242600  0.038000  0.212600  1.0  0.1721
  C  C250  1  0.385700  0.207100  0.277800  1.0  0.0081
  C  C251  1  0.459200  0.206300  0.240600  1.0  -0.1216
  C  C252  1  0.518200  0.269700  0.245600  1.0  -0.0844
  C  C253  1  0.507400  0.334300  0.286700  1.0  -0.1021
  C  C254  1  0.433900  0.337500  0.323100  1.0  -0.0094
  C  C255  1  0.375200  0.275300  0.318500  1.0  -0.1291
  C  C256  1  0.425800  0.407300  0.366800  1.0  0.2229
  C  C257  1  0.373700  0.502200  0.429300  1.0  0.236
  C  C258  1  0.311900  0.558200  0.459400  1.0  -0.033
  C  C259  1  0.281100  0.540000  0.518400  1.0  -0.1182
  C  C260  1  0.221700  0.595300  0.543800  1.0  -0.0938
  C  C261  1  0.191000  0.663900  0.510800  1.0  -0.0975
  C  C262  1  0.220700  0.680900  0.452200  1.0  0.0146
  C  C263  1  0.281200  0.627400  0.426700  1.0  -0.1271
  C  C264  1  0.190700  0.754300  0.414700  1.0  0.0843
  C  C265  1  0.118200  0.799000  0.429600  1.0  -0.206
  C  C266  1  0.089400  0.860600  0.389300  1.0  0.17
  C  C267  1  0.200700  0.842900  0.325700  1.0  0.1397
  C  C268  1  0.233500  0.780500  0.362200  1.0  -0.1891
  C  C269  1  0.802100  0.931500  0.809600  1.0  0.1733
  C  C270  1  0.738300  0.874300  0.818900  1.0  -0.2247
  C  C271  1  0.680500  0.859500  0.771200  1.0  0.0905
  C  C272  1  0.690300  0.906400  0.718400  1.0  -0.2102
  C  C273  1  0.757400  0.962000  0.712600  1.0  0.172
  C  C274  1  0.614300  0.792900  0.777800  1.0  0.0077
  C  C275  1  0.540800  0.793700  0.740600  1.0  -0.1221
  C  C276  1  0.481800  0.730300  0.745600  1.0  -0.0854
  C  C277  1  0.492600  0.665700  0.786700  1.0  -0.1012
  C  C278  1  0.566100  0.662500  0.823100  1.0  -0.0095
  C  C279  1  0.624800  0.724700  0.818500  1.0  -0.1284
  C  C280  1  0.574200  0.592700  0.866800  1.0  0.2234
  C  C281  1  0.626300  0.497800  0.929300  1.0  0.2373
  C  C282  1  0.688100  0.441800  0.959400  1.0  -0.0336
  C  C283  1  0.718900  0.460000  0.018400  1.0  -0.1165
  C  C284  1  0.778300  0.404700  0.043800  1.0  -0.0933
  C  C285  1  0.809000  0.336100  0.010800  1.0  -0.0983
  C  C286  1  0.779300  0.319100  0.952200  1.0  0.0153
  C  C287  1  0.718800  0.372600  0.926700  1.0  -0.1259
  C  C288  1  0.809300  0.245700  0.914700  1.0  0.0845
  C  C289  1  0.881800  0.201000  0.929600  1.0  -0.2062
  C  C290  1  0.910600  0.139400  0.889300  1.0  0.1703
  C  C291  1  0.799300  0.157100  0.825700  1.0  0.1398
  C  C292  1  0.766500  0.219500  0.862200  1.0  -0.1873
  C  C293  1  0.568500  0.302100  0.059600  1.0  0.1724
  C  C294  1  0.625700  0.238300  0.068900  1.0  -0.2261
  C  C295  1  0.640500  0.180500  0.021200  1.0  0.0908
  C  C296  1  0.593600  0.190300  0.968400  1.0  -0.211
  C  C297  1  0.538000  0.257400  0.962600  1.0  0.1707
  C  C298  1  0.707100  0.114300  0.027800  1.0  0.0084
  C  C299  1  0.706300  0.040800  0.990600  1.0  -0.1213
  C  C300  1  0.769700  0.981800  0.995600  1.0  -0.0835
  C  C301  1  0.834300  0.992600  0.036700  1.0  -0.1022
  C  C302  1  0.837500  0.066100  0.073100  1.0  -0.0097
  C  C303  1  0.775300  0.124800  0.068500  1.0  -0.1272
  C  C304  1  0.907300  0.074200  0.116800  1.0  0.2221
  C  C305  1  0.002200  0.126300  0.179300  1.0  0.2352
  C  C306  1  0.058200  0.188100  0.209400  1.0  -0.0337
  C  C307  1  0.040000  0.218900  0.268400  1.0  -0.1168
  C  C308  1  0.095300  0.278300  0.293800  1.0  -0.0909
  C  C309  1  0.163900  0.309000  0.260800  1.0  -0.0965
  C  C310  1  0.180900  0.279300  0.202200  1.0  0.015
  C  C311  1  0.127400  0.218800  0.176700  1.0  -0.1275
  C  C312  1  0.254300  0.309300  0.164700  1.0  0.0841
  C  C313  1  0.299000  0.381800  0.179600  1.0  -0.208
  C  C314  1  0.360600  0.410600  0.139300  1.0  0.1697
  C  C315  1  0.342900  0.299300  0.075700  1.0  0.1393
  C  C316  1  0.280500  0.266500  0.112200  1.0  -0.1869
  C  C317  1  0.431500  0.697900  0.559600  1.0  0.1727
  C  C318  1  0.374300  0.761700  0.568900  1.0  -0.2257
  C  C319  1  0.359500  0.819500  0.521200  1.0  0.0896
  C  C320  1  0.406400  0.809700  0.468400  1.0  -0.21
  C  C321  1  0.462000  0.742600  0.462600  1.0  0.1711
  C  C322  1  0.292900  0.885700  0.527800  1.0  0.0084
  C  C323  1  0.293700  0.959200  0.490600  1.0  -0.1214
  C  C324  1  0.230300  0.018200  0.495600  1.0  -0.0832
  C  C325  1  0.165700  0.007400  0.536700  1.0  -0.1018
  C  C326  1  0.162500  0.933900  0.573100  1.0  -0.0095
  C  C327  1  0.224700  0.875200  0.568500  1.0  -0.1271
  C  C328  1  0.092700  0.925800  0.616800  1.0  0.2216
  C  C329  1  0.997800  0.873700  0.679300  1.0  0.236
  C  C330  1  0.941800  0.811900  0.709400  1.0  -0.0329
  C  C331  1  0.960000  0.781100  0.768400  1.0  -0.1182
  C  C332  1  0.904700  0.721700  0.793800  1.0  -0.092
  C  C333  1  0.836100  0.691000  0.760800  1.0  -0.0968
  C  C334  1  0.819100  0.720700  0.702200  1.0  0.0147
  C  C335  1  0.872600  0.781200  0.676700  1.0  -0.1288
  C  C336  1  0.745700  0.690700  0.664700  1.0  0.0841
  C  C337  1  0.701000  0.618200  0.679600  1.0  -0.2072
  C  C338  1  0.639400  0.589400  0.639300  1.0  0.1695
  C  C339  1  0.657100  0.700700  0.575700  1.0  0.1381
  C  C340  1  0.719500  0.733500  0.612200  1.0  -0.1867
  N  N341  1  0.312700  0.524300  0.992600  1.0  -0.371
  N  N342  1  0.010500  0.944500  0.855700  1.0  -0.2915
  N  N343  1  0.043300  0.004800  0.816600  1.0  -0.234
  N  N344  1  0.147300  0.943700  0.862200  1.0  0.1258
  N  N345  1  0.229600  0.923800  0.882900  1.0  -0.6057
  N  N346  1  0.374000  0.380800  0.912700  1.0  -0.3522
  N  N347  1  0.687300  0.475700  0.492600  1.0  -0.3708
  N  N348  1  0.989500  0.055500  0.355700  1.0  -0.2926
  N  N349  1  0.956700  0.995200  0.316600  1.0  -0.235
  N  N350  1  0.852700  0.056300  0.362200  1.0  0.1259
  N  N351  1  0.770400  0.076200  0.382900  1.0  -0.6064
  N  N352  1  0.626000  0.619200  0.412700  1.0  -0.3512
  N  N353  1  0.975700  0.812700  0.242600  1.0  -0.3704
  N  N354  1  0.555500  0.510500  0.105700  1.0  -0.2919
  N  N355  1  0.495200  0.543300  0.066600  1.0  -0.2349
  N  N356  1  0.556300  0.647300  0.112200  1.0  0.1255
  N  N357  1  0.576200  0.729600  0.132900  1.0  -0.6052
  N  N358  1  0.119200  0.874000  0.162700  1.0  -0.3509
  N  N359  1  0.024300  0.187300  0.742600  1.0  -0.3709
  N  N360  1  0.444500  0.489500  0.605700  1.0  -0.2921
  N  N361  1  0.504800  0.456700  0.566600  1.0  -0.2349
  N  N362  1  0.443700  0.352700  0.612200  1.0  0.1257
  N  N363  1  0.423800  0.270400  0.632900  1.0  -0.6054
  N  N364  1  0.880800  0.126000  0.662700  1.0  -0.35
  N  N365  1  0.187300  0.024300  0.257400  1.0  -0.3702
  N  N366  1  0.489500  0.444500  0.394300  1.0  -0.292
  N  N367  1  0.456700  0.504800  0.433400  1.0  -0.235
  N  N368  1  0.352700  0.443700  0.387800  1.0  0.1254
  N  N369  1  0.270400  0.423800  0.367100  1.0  -0.605
  N  N370  1  0.126000  0.880800  0.337300  1.0  -0.3522
  N  N371  1  0.812700  0.975700  0.757400  1.0  -0.3715
  N  N372  1  0.510500  0.555500  0.894300  1.0  -0.2914
  N  N373  1  0.543300  0.495200  0.933400  1.0  -0.2345
  N  N374  1  0.647300  0.556300  0.887800  1.0  0.1256
  N  N375  1  0.729600  0.576200  0.867100  1.0  -0.6053
  N  N376  1  0.874000  0.119200  0.837300  1.0  -0.3514
  N  N377  1  0.524300  0.312700  0.007400  1.0  -0.3708
  N  N378  1  0.944500  0.010500  0.144300  1.0  -0.292
  N  N379  1  0.004800  0.043300  0.183400  1.0  -0.2348
  N  N380  1  0.943700  0.147300  0.137800  1.0  0.1257
  N  N381  1  0.923800  0.229600  0.117100  1.0  -0.605
  N  N382  1  0.380800  0.374000  0.087300  1.0  -0.3503
  N  N383  1  0.475700  0.687300  0.507400  1.0  -0.3705
  N  N384  1  0.055500  0.989500  0.644300  1.0  -0.2916
  N  N385  1  0.995200  0.956700  0.683400  1.0  -0.2349
  N  N386  1  0.056300  0.852700  0.637800  1.0  0.1254
  N  N387  1  0.076200  0.770400  0.617100  1.0  -0.6035
  N  N388  1  0.619200  0.626000  0.587300  1.0  -0.3511
  Cl  Cl389  1  0.118840  0.118840  0.000000  1.0  1.7474
  Cl  Cl390  1  0.881160  0.881160  0.500000  1.0  1.7472
  Cl  Cl391  1  0.381160  0.618840  0.250000  1.0  1.7474
  Cl  Cl392  1  0.618840  0.381160  0.750000  1.0  1.7473
  O  O393  1  0.188700  0.101600  0.031600  1.0  -0.6597
  O  O394  1  0.131000  0.064500  0.954500  1.0  -0.6396
  O  O395  1  0.101600  0.188700  0.968400  1.0  -0.6588
  O  O396  1  0.064500  0.131000  0.045500  1.0  -0.6408
  O  O397  1  0.811300  0.898400  0.531600  1.0  -0.6598
  O  O398  1  0.869000  0.935500  0.454500  1.0  -0.6398
  O  O399  1  0.898400  0.811300  0.468400  1.0  -0.6591
  O  O400  1  0.935500  0.869000  0.545500  1.0  -0.6411
  O  O401  1  0.398400  0.688700  0.281600  1.0  -0.6588
  O  O402  1  0.435500  0.631000  0.204500  1.0  -0.6405
  O  O403  1  0.311300  0.601600  0.218400  1.0  -0.6604
  O  O404  1  0.369000  0.564500  0.295500  1.0  -0.64
  O  O405  1  0.601600  0.311300  0.781600  1.0  -0.6587
  O  O406  1  0.564500  0.369000  0.704500  1.0  -0.6406
  O  O407  1  0.688700  0.398400  0.718400  1.0  -0.66
  O  O408  1  0.631000  0.435500  0.795500  1.0  -0.6398
