# generated using pymatgen
data_CdH36C48N12ClO4
_symmetry_space_group_name_H-M   'P 1'
_cell_length_a   15.82670000
_cell_length_b   15.82670000
_cell_length_c   21.77800000
_cell_angle_alpha   90.00000000
_cell_angle_beta   90.00000000
_cell_angle_gamma   90.00000000
_symmetry_Int_Tables_number   1
_chemical_formula_structural   CdH36C48N12ClO4
_chemical_formula_sum   'Cd4 H144 C192 N48 Cl4 O16'
_cell_volume   5455.04997948
_cell_formula_units_Z   4
loop_
 _symmetry_equiv_pos_site_id
 _symmetry_equiv_pos_as_xyz
  1  'x, y, z'
loop_
 _atom_site_type_symbol
 _atom_site_label
 _atom_site_symmetry_multiplicity
 _atom_site_fract_x
 _atom_site_fract_y
 _atom_site_fract_z
 _atom_site_occupancy
 _atom_site_charge
  Cd  Cd1  1  0.060120  0.939880  0.250000  1.0  0.7919
  Cd  Cd2  1  0.939880  0.060120  0.750000  1.0  0.792
  Cd  Cd3  1  0.560120  0.560120  0.500000  1.0  0.7917
  Cd  Cd4  1  0.439880  0.439880  0.000000  1.0  0.7922
  H  H5  1  0.359300  0.268700  0.042400  1.0  0.0683
  H  H6  1  0.263300  0.209400  0.106500  1.0  0.1191
  H  H7  1  0.286100  0.413000  0.215000  1.0  0.124
  H  H8  1  0.385300  0.463800  0.148400  1.0  0.0597
  H  H9  1  0.205800  0.342800  0.282100  1.0  0.0764
  H  H10  1  0.091700  0.291900  0.336300  1.0  0.0964
  H  H11  1  0.998100  0.198600  0.291900  1.0  0.0913
  H  H12  1  0.140000  0.196200  0.139600  1.0  0.1145
  H  H13  1  0.879200  0.953900  0.042300  1.0  0.0984
  H  H14  1  0.767600  0.931300  0.977200  1.0  0.1024
  H  H15  1  0.661200  0.029900  0.969200  1.0  0.1011
  H  H16  1  0.775500  0.171800  0.097100  1.0  0.0898
  H  H17  1  0.597200  0.146200  0.941000  1.0  0.127
  H  H18  1  0.505500  0.257500  0.929900  1.0  0.0566
  H  H19  1  0.558000  0.340000  0.092300  1.0  0.0517
  H  H20  1  0.651600  0.232600  0.108400  1.0  0.1221
  H  H21  1  0.973900  0.241500  0.102300  1.0  0.3429
  H  H22  1  0.903000  0.256200  0.153800  1.0  0.3279
  H  H23  1  0.640700  0.731300  0.542400  1.0  0.0684
  H  H24  1  0.736700  0.790600  0.606500  1.0  0.1196
  H  H25  1  0.713900  0.587000  0.715000  1.0  0.124
  H  H26  1  0.614700  0.536200  0.648400  1.0  0.0605
  H  H27  1  0.794200  0.657200  0.782100  1.0  0.0756
  H  H28  1  0.908300  0.708100  0.836300  1.0  0.0965
  H  H29  1  0.001900  0.801400  0.791900  1.0  0.0912
  H  H30  1  0.860000  0.803800  0.639600  1.0  0.1145
  H  H31  1  0.120800  0.046100  0.542300  1.0  0.0986
  H  H32  1  0.232400  0.068700  0.477200  1.0  0.1024
  H  H33  1  0.338800  0.970100  0.469200  1.0  0.1015
  H  H34  1  0.224500  0.828200  0.597100  1.0  0.0901
  H  H35  1  0.402800  0.853800  0.441000  1.0  0.1263
  H  H36  1  0.494500  0.742500  0.429900  1.0  0.0568
  H  H37  1  0.442000  0.660000  0.592300  1.0  0.0522
  H  H38  1  0.348400  0.767400  0.608400  1.0  0.1221
  H  H39  1  0.026100  0.758500  0.602300  1.0  0.3464
  H  H40  1  0.097000  0.743800  0.653800  1.0  0.328
  H  H41  1  0.231300  0.859300  0.292400  1.0  0.069
  H  H42  1  0.290600  0.763300  0.356500  1.0  0.1193
  H  H43  1  0.087000  0.786100  0.465000  1.0  0.1232
  H  H44  1  0.036200  0.885300  0.398400  1.0  0.0605
  H  H45  1  0.157200  0.705800  0.532100  1.0  0.0757
  H  H46  1  0.208100  0.591700  0.586300  1.0  0.0961
  H  H47  1  0.301400  0.498100  0.541900  1.0  0.0915
  H  H48  1  0.303800  0.640000  0.389600  1.0  0.1148
  H  H49  1  0.546100  0.379200  0.292300  1.0  0.0983
  H  H50  1  0.568700  0.267600  0.227200  1.0  0.1032
  H  H51  1  0.470100  0.161200  0.219200  1.0  0.1015
  H  H52  1  0.328200  0.275500  0.347100  1.0  0.0898
  H  H53  1  0.353800  0.097200  0.191000  1.0  0.127
  H  H54  1  0.242500  0.005500  0.179900  1.0  0.0566
  H  H55  1  0.160000  0.058000  0.342300  1.0  0.0509
  H  H56  1  0.267400  0.151600  0.358400  1.0  0.1224
  H  H57  1  0.258500  0.473900  0.352300  1.0  0.3468
  H  H58  1  0.243800  0.403000  0.403800  1.0  0.3272
  H  H59  1  0.768700  0.140700  0.792400  1.0  0.0689
  H  H60  1  0.709400  0.236700  0.856500  1.0  0.1192
  H  H61  1  0.913000  0.213900  0.965000  1.0  0.1231
  H  H62  1  0.963800  0.114700  0.898400  1.0  0.0606
  H  H63  1  0.842800  0.294200  0.032100  1.0  0.0762
  H  H64  1  0.791900  0.408300  0.086300  1.0  0.0957
  H  H65  1  0.698600  0.501900  0.041900  1.0  0.0921
  H  H66  1  0.696200  0.360000  0.889600  1.0  0.1143
  H  H67  1  0.453900  0.620800  0.792300  1.0  0.0988
  H  H68  1  0.431300  0.732400  0.727200  1.0  0.1029
  H  H69  1  0.529900  0.838800  0.719200  1.0  0.1019
  H  H70  1  0.671800  0.724500  0.847100  1.0  0.0896
  H  H71  1  0.646200  0.902800  0.691000  1.0  0.1272
  H  H72  1  0.757500  0.994500  0.679900  1.0  0.0564
  H  H73  1  0.840000  0.942000  0.842300  1.0  0.0509
  H  H74  1  0.732600  0.848400  0.858400  1.0  0.1222
  H  H75  1  0.741500  0.526100  0.852300  1.0  0.3471
  H  H76  1  0.756200  0.597000  0.903800  1.0  0.3273
  H  H77  1  0.140700  0.768700  0.207600  1.0  0.0692
  H  H78  1  0.236700  0.709400  0.143500  1.0  0.1199
  H  H79  1  0.213900  0.913000  0.035000  1.0  0.1243
  H  H80  1  0.114700  0.963800  0.101600  1.0  0.0606
  H  H81  1  0.294200  0.842800  0.967900  1.0  0.0761
  H  H82  1  0.408300  0.791900  0.913700  1.0  0.0963
  H  H83  1  0.501900  0.698600  0.958100  1.0  0.0905
  H  H84  1  0.360000  0.696200  0.110400  1.0  0.1139
  H  H85  1  0.620800  0.453900  0.207700  1.0  0.0986
  H  H86  1  0.732400  0.431300  0.272800  1.0  0.1026
  H  H87  1  0.838800  0.529900  0.280800  1.0  0.1007
  H  H88  1  0.724500  0.671800  0.152900  1.0  0.0885
  H  H89  1  0.902800  0.646200  0.309000  1.0  0.127
  H  H90  1  0.994500  0.757500  0.320100  1.0  0.0555
  H  H91  1  0.942000  0.840000  0.157700  1.0  0.0518
  H  H92  1  0.848400  0.732600  0.141600  1.0  0.1218
  H  H93  1  0.526100  0.741500  0.147700  1.0  0.346
  H  H94  1  0.597000  0.756200  0.096200  1.0  0.3281
  H  H95  1  0.859300  0.231300  0.707600  1.0  0.0689
  H  H96  1  0.763300  0.290600  0.643500  1.0  0.1195
  H  H97  1  0.786100  0.087000  0.535000  1.0  0.1245
  H  H98  1  0.885300  0.036200  0.601600  1.0  0.0603
  H  H99  1  0.705800  0.157200  0.467900  1.0  0.0752
  H  H100  1  0.591700  0.208100  0.413700  1.0  0.0962
  H  H101  1  0.498100  0.301400  0.458100  1.0  0.0904
  H  H102  1  0.640000  0.303800  0.610400  1.0  0.114
  H  H103  1  0.379200  0.546100  0.707700  1.0  0.0981
  H  H104  1  0.267600  0.568700  0.772800  1.0  0.1025
  H  H105  1  0.161200  0.470100  0.780800  1.0  0.1005
  H  H106  1  0.275500  0.328200  0.652900  1.0  0.0887
  H  H107  1  0.097200  0.353800  0.809000  1.0  0.1268
  H  H108  1  0.005500  0.242500  0.820100  1.0  0.056
  H  H109  1  0.058000  0.160000  0.657700  1.0  0.052
  H  H110  1  0.151600  0.267400  0.641600  1.0  0.1214
  H  H111  1  0.473900  0.258500  0.647700  1.0  0.344
  H  H112  1  0.403000  0.243800  0.596200  1.0  0.3279
  H  H113  1  0.268700  0.359300  0.957600  1.0  0.0696
  H  H114  1  0.209400  0.263300  0.893500  1.0  0.1195
  H  H115  1  0.413000  0.286100  0.785000  1.0  0.1234
  H  H116  1  0.463800  0.385300  0.851600  1.0  0.0602
  H  H117  1  0.342800  0.205800  0.717900  1.0  0.0757
  H  H118  1  0.291900  0.091700  0.663700  1.0  0.0957
  H  H119  1  0.198600  0.998100  0.708100  1.0  0.0912
  H  H120  1  0.196200  0.140000  0.860400  1.0  0.114
  H  H121  1  0.953900  0.879200  0.957700  1.0  0.0987
  H  H122  1  0.931300  0.767600  0.022800  1.0  0.1027
  H  H123  1  0.029900  0.661200  0.030800  1.0  0.1008
  H  H124  1  0.171800  0.775500  0.902900  1.0  0.0882
  H  H125  1  0.146200  0.597200  0.059000  1.0  0.1276
  H  H126  1  0.257500  0.505500  0.070100  1.0  0.0555
  H  H127  1  0.340000  0.558000  0.907700  1.0  0.0508
  H  H128  1  0.232600  0.651600  0.891600  1.0  0.1219
  H  H129  1  0.241500  0.973900  0.897700  1.0  0.3462
  H  H130  1  0.256200  0.903000  0.846200  1.0  0.3278
  H  H131  1  0.731300  0.640700  0.457600  1.0  0.0696
  H  H132  1  0.790600  0.736700  0.393500  1.0  0.1197
  H  H133  1  0.587000  0.713900  0.285000  1.0  0.1234
  H  H134  1  0.536200  0.614700  0.351600  1.0  0.0611
  H  H135  1  0.657200  0.794200  0.217900  1.0  0.0756
  H  H136  1  0.708100  0.908300  0.163700  1.0  0.0956
  H  H137  1  0.801400  0.001900  0.208100  1.0  0.0906
  H  H138  1  0.803800  0.860000  0.360400  1.0  0.1145
  H  H139  1  0.046100  0.120800  0.457700  1.0  0.0989
  H  H140  1  0.068700  0.232400  0.522800  1.0  0.1035
  H  H141  1  0.970100  0.338800  0.530800  1.0  0.1005
  H  H142  1  0.828200  0.224500  0.402900  1.0  0.0891
  H  H143  1  0.853800  0.402800  0.559000  1.0  0.1266
  H  H144  1  0.742500  0.494500  0.570100  1.0  0.0557
  H  H145  1  0.660000  0.442000  0.407700  1.0  0.0509
  H  H146  1  0.767400  0.348400  0.391600  1.0  0.1219
  H  H147  1  0.758500  0.026100  0.397700  1.0  0.3472
  H  H148  1  0.743800  0.097000  0.346200  1.0  0.3266
  C  C149  1  0.343200  0.298800  0.077220  1.0  0.1487
  C  C150  1  0.284700  0.262800  0.115240  1.0  -0.2003
  C  C151  1  0.257300  0.306200  0.166850  1.0  0.0941
  C  C152  1  0.298800  0.382900  0.179440  1.0  -0.2048
  C  C153  1  0.358200  0.413400  0.138890  1.0  0.1657
  C  C154  1  0.185800  0.275100  0.204260  1.0  0.0149
  C  C155  1  0.169900  0.303500  0.264000  1.0  -0.0905
  C  C156  1  0.100800  0.273500  0.296300  1.0  -0.0866
  C  C157  1  0.045400  0.216700  0.270300  1.0  -0.1146
  C  C158  1  0.061100  0.186800  0.211100  1.0  -0.058
  C  C159  1  0.130100  0.216200  0.179160  1.0  -0.1172
  C  C160  1  0.004800  0.125100  0.181130  1.0  0.2332
  C  C161  1  0.909200  0.074600  0.119180  1.0  0.2344
  C  C162  1  0.838600  0.066300  0.075620  1.0  -0.018
  C  C163  1  0.835900  0.993400  0.039700  1.0  -0.1022
  C  C164  1  0.769700  0.980200  0.000800  1.0  -0.0865
  C  C165  1  0.705700  0.039200  0.996300  1.0  -0.1183
  C  C166  1  0.706900  0.112100  0.031500  1.0  0.0155
  C  C167  1  0.774300  0.124100  0.072210  1.0  -0.1183
  C  C168  1  0.639000  0.178200  0.024690  1.0  0.0924
  C  C169  1  0.591900  0.185800  0.972300  1.0  -0.2101
  C  C170  1  0.535900  0.252900  0.966200  1.0  0.1683
  C  C171  1  0.566600  0.301100  0.060940  1.0  0.1768
  C  C172  1  0.623700  0.236800  0.070990  1.0  -0.2313
  C  C173  1  0.656800  0.701200  0.577220  1.0  0.1476
  C  C174  1  0.715300  0.737200  0.615240  1.0  -0.1995
  C  C175  1  0.742700  0.693800  0.666850  1.0  0.0935
  C  C176  1  0.701200  0.617100  0.679440  1.0  -0.2038
  C  C177  1  0.641800  0.586600  0.638890  1.0  0.1653
  C  C178  1  0.814200  0.724900  0.704260  1.0  0.0148
  C  C179  1  0.830100  0.696500  0.764000  1.0  -0.0915
  C  C180  1  0.899200  0.726500  0.796300  1.0  -0.0886
  C  C181  1  0.954600  0.783300  0.770300  1.0  -0.1156
  C  C182  1  0.938900  0.813200  0.711100  1.0  -0.0584
  C  C183  1  0.869900  0.783800  0.679160  1.0  -0.1176
  C  C184  1  0.995200  0.874900  0.681130  1.0  0.2335
  C  C185  1  0.090800  0.925400  0.619180  1.0  0.2347
  C  C186  1  0.161400  0.933700  0.575620  1.0  -0.0178
  C  C187  1  0.164100  0.006600  0.539700  1.0  -0.1003
  C  C188  1  0.230300  0.019800  0.500800  1.0  -0.0865
  C  C189  1  0.294300  0.960800  0.496300  1.0  -0.1196
  C  C190  1  0.293100  0.887900  0.531500  1.0  0.0154
  C  C191  1  0.225700  0.875900  0.572210  1.0  -0.1178
  C  C192  1  0.361000  0.821800  0.524690  1.0  0.0903
  C  C193  1  0.408100  0.814200  0.472300  1.0  -0.21
  C  C194  1  0.464100  0.747100  0.466200  1.0  0.1697
  C  C195  1  0.433400  0.698900  0.560940  1.0  0.1778
  C  C196  1  0.376300  0.763200  0.570990  1.0  -0.2309
  C  C197  1  0.201200  0.843200  0.327220  1.0  0.1493
  C  C198  1  0.237200  0.784700  0.365240  1.0  -0.2013
  C  C199  1  0.193800  0.757300  0.416850  1.0  0.0937
  C  C200  1  0.117100  0.798800  0.429440  1.0  -0.2028
  C  C201  1  0.086600  0.858200  0.388890  1.0  0.1666
  C  C202  1  0.224900  0.685800  0.454260  1.0  0.0156
  C  C203  1  0.196500  0.669900  0.514000  1.0  -0.0891
  C  C204  1  0.226500  0.600800  0.546300  1.0  -0.0881
  C  C205  1  0.283300  0.545400  0.520300  1.0  -0.1145
  C  C206  1  0.313200  0.561100  0.461100  1.0  -0.0593
  C  C207  1  0.283800  0.630100  0.429160  1.0  -0.1168
  C  C208  1  0.374900  0.504800  0.431130  1.0  0.2335
  C  C209  1  0.425400  0.409200  0.369180  1.0  0.2352
  C  C210  1  0.433700  0.338600  0.325620  1.0  -0.0183
  C  C211  1  0.506600  0.335900  0.289700  1.0  -0.1008
  C  C212  1  0.519800  0.269700  0.250800  1.0  -0.0886
  C  C213  1  0.460800  0.205700  0.246300  1.0  -0.1189
  C  C214  1  0.387900  0.206900  0.281500  1.0  0.0148
  C  C215  1  0.375900  0.274300  0.322210  1.0  -0.1193
  C  C216  1  0.321800  0.139000  0.274690  1.0  0.0906
  C  C217  1  0.314200  0.091900  0.222300  1.0  -0.2104
  C  C218  1  0.247100  0.035900  0.216200  1.0  0.1702
  C  C219  1  0.198900  0.066600  0.310940  1.0  0.1794
  C  C220  1  0.263200  0.123700  0.320990  1.0  -0.2299
  C  C221  1  0.798800  0.156800  0.827220  1.0  0.1495
  C  C222  1  0.762800  0.215300  0.865240  1.0  -0.2005
  C  C223  1  0.806200  0.242700  0.916850  1.0  0.0943
  C  C224  1  0.882900  0.201200  0.929440  1.0  -0.2028
  C  C225  1  0.913400  0.141800  0.888890  1.0  0.1659
  C  C226  1  0.775100  0.314200  0.954260  1.0  0.0155
  C  C227  1  0.803500  0.330100  0.014000  1.0  -0.0898
  C  C228  1  0.773500  0.399200  0.046300  1.0  -0.0878
  C  C229  1  0.716700  0.454600  0.020300  1.0  -0.1126
  C  C230  1  0.686800  0.438900  0.961100  1.0  -0.0583
  C  C231  1  0.716200  0.369900  0.929160  1.0  -0.1157
  C  C232  1  0.625100  0.495200  0.931130  1.0  0.2338
  C  C233  1  0.574600  0.590800  0.869180  1.0  0.2351
  C  C234  1  0.566300  0.661400  0.825620  1.0  -0.018
  C  C235  1  0.493400  0.664100  0.789700  1.0  -0.0998
  C  C236  1  0.480200  0.730300  0.750800  1.0  -0.0904
  C  C237  1  0.539200  0.794300  0.746300  1.0  -0.1192
  C  C238  1  0.612100  0.793100  0.781500  1.0  0.0153
  C  C239  1  0.624100  0.725700  0.822210  1.0  -0.1199
  C  C240  1  0.678200  0.861000  0.774690  1.0  0.0913
  C  C241  1  0.685800  0.908100  0.722300  1.0  -0.2095
  C  C242  1  0.752900  0.964100  0.716200  1.0  0.1707
  C  C243  1  0.801100  0.933400  0.810940  1.0  0.1783
  C  C244  1  0.736800  0.876300  0.820990  1.0  -0.2305
  C  C245  1  0.156800  0.798800  0.172780  1.0  0.1479
  C  C246  1  0.215300  0.762800  0.134760  1.0  -0.1996
  C  C247  1  0.242700  0.806200  0.083150  1.0  0.0938
  C  C248  1  0.201200  0.882900  0.070560  1.0  -0.2053
  C  C249  1  0.141800  0.913400  0.111110  1.0  0.1656
  C  C250  1  0.314200  0.775100  0.045740  1.0  0.0148
  C  C251  1  0.330100  0.803500  0.986000  1.0  -0.0908
  C  C252  1  0.399200  0.773500  0.953700  1.0  -0.0879
  C  C253  1  0.454600  0.716700  0.979700  1.0  -0.1159
  C  C254  1  0.438900  0.686800  0.038900  1.0  -0.0584
  C  C255  1  0.369900  0.716200  0.070840  1.0  -0.117
  C  C256  1  0.495200  0.625100  0.068870  1.0  0.2343
  C  C257  1  0.590800  0.574600  0.130820  1.0  0.2349
  C  C258  1  0.661400  0.566300  0.174380  1.0  -0.018
  C  C259  1  0.664100  0.493400  0.210300  1.0  -0.1002
  C  C260  1  0.730300  0.480200  0.249200  1.0  -0.0863
  C  C261  1  0.794300  0.539200  0.253700  1.0  -0.119
  C  C262  1  0.793100  0.612100  0.218500  1.0  0.0151
  C  C263  1  0.725700  0.624100  0.177790  1.0  -0.1195
  C  C264  1  0.861000  0.678200  0.225310  1.0  0.0905
  C  C265  1  0.908100  0.685800  0.277700  1.0  -0.2096
  C  C266  1  0.964100  0.752900  0.283800  1.0  0.1692
  C  C267  1  0.933400  0.801100  0.189060  1.0  0.177
  C  C268  1  0.876300  0.736800  0.179010  1.0  -0.2313
  C  C269  1  0.843200  0.201200  0.672780  1.0  0.1489
  C  C270  1  0.784700  0.237200  0.634760  1.0  -0.2002
  C  C271  1  0.757300  0.193800  0.583150  1.0  0.0941
  C  C272  1  0.798800  0.117100  0.570560  1.0  -0.2049
  C  C273  1  0.858200  0.086600  0.611110  1.0  0.1657
  C  C274  1  0.685800  0.224900  0.545740  1.0  0.0145
  C  C275  1  0.669900  0.196500  0.486000  1.0  -0.0908
  C  C276  1  0.600800  0.226500  0.453700  1.0  -0.0883
  C  C277  1  0.545400  0.283300  0.479700  1.0  -0.1154
  C  C278  1  0.561100  0.313200  0.538900  1.0  -0.0584
  C  C279  1  0.630100  0.283800  0.570840  1.0  -0.1172
  C  C280  1  0.504800  0.374900  0.568870  1.0  0.2336
  C  C281  1  0.409200  0.425400  0.630820  1.0  0.2347
  C  C282  1  0.338600  0.433700  0.674380  1.0  -0.0177
  C  C283  1  0.335900  0.506600  0.710300  1.0  -0.1029
  C  C284  1  0.269700  0.519800  0.749200  1.0  -0.0865
  C  C285  1  0.205700  0.460800  0.753700  1.0  -0.1191
  C  C286  1  0.206900  0.387900  0.718500  1.0  0.0156
  C  C287  1  0.274300  0.375900  0.677790  1.0  -0.1186
  C  C288  1  0.139000  0.321800  0.725310  1.0  0.091
  C  C289  1  0.091900  0.314200  0.777700  1.0  -0.209
  C  C290  1  0.035900  0.247100  0.783800  1.0  0.1687
  C  C291  1  0.066600  0.198900  0.689060  1.0  0.1766
  C  C292  1  0.123700  0.263200  0.679010  1.0  -0.2313
  C  C293  1  0.298800  0.343200  0.922780  1.0  0.1498
  C  C294  1  0.262800  0.284700  0.884760  1.0  -0.2004
  C  C295  1  0.306200  0.257300  0.833150  1.0  0.0941
  C  C296  1  0.382900  0.298800  0.820560  1.0  -0.2025
  C  C297  1  0.413400  0.358200  0.861110  1.0  0.1661
  C  C298  1  0.275100  0.185800  0.795740  1.0  0.0152
  C  C299  1  0.303500  0.169900  0.736000  1.0  -0.0894
  C  C300  1  0.273500  0.100800  0.703700  1.0  -0.0881
  C  C301  1  0.216700  0.045400  0.729700  1.0  -0.1146
  C  C302  1  0.186800  0.061100  0.788900  1.0  -0.059
  C  C303  1  0.216200  0.130100  0.820840  1.0  -0.1163
  C  C304  1  0.125100  0.004800  0.818870  1.0  0.2344
  C  C305  1  0.074600  0.909200  0.880820  1.0  0.2349
  C  C306  1  0.066300  0.838600  0.924380  1.0  -0.0179
  C  C307  1  0.993400  0.835900  0.960300  1.0  -0.0994
  C  C308  1  0.980200  0.769700  0.999200  1.0  -0.0893
  C  C309  1  0.039200  0.705700  0.003700  1.0  -0.1186
  C  C310  1  0.112100  0.706900  0.968500  1.0  0.0148
  C  C311  1  0.124100  0.774300  0.927790  1.0  -0.121
  C  C312  1  0.178200  0.639000  0.975310  1.0  0.0907
  C  C313  1  0.185800  0.591900  0.027700  1.0  -0.2088
  C  C314  1  0.252900  0.535900  0.033800  1.0  0.1704
  C  C315  1  0.301100  0.566600  0.939060  1.0  0.1782
  C  C316  1  0.236800  0.623700  0.929010  1.0  -0.2296
  C  C317  1  0.701200  0.656800  0.422780  1.0  0.15
  C  C318  1  0.737200  0.715300  0.384760  1.0  -0.2015
  C  C319  1  0.693800  0.742700  0.333150  1.0  0.0942
  C  C320  1  0.617100  0.701200  0.320560  1.0  -0.2038
  C  C321  1  0.586600  0.641800  0.361110  1.0  0.1666
  C  C322  1  0.724900  0.814200  0.295740  1.0  0.0151
  C  C323  1  0.696500  0.830100  0.236000  1.0  -0.0902
  C  C324  1  0.726500  0.899200  0.203700  1.0  -0.088
  C  C325  1  0.783300  0.954600  0.229700  1.0  -0.1138
  C  C326  1  0.813200  0.938900  0.288900  1.0  -0.0587
  C  C327  1  0.783800  0.869900  0.320840  1.0  -0.1162
  C  C328  1  0.874900  0.995200  0.318870  1.0  0.2339
  C  C329  1  0.925400  0.090800  0.380820  1.0  0.2348
  C  C330  1  0.933700  0.161400  0.424380  1.0  -0.0181
  C  C331  1  0.006600  0.164100  0.460300  1.0  -0.1014
  C  C332  1  0.019800  0.230300  0.499200  1.0  -0.0884
  C  C333  1  0.960800  0.294300  0.503700  1.0  -0.1194
  C  C334  1  0.887900  0.293100  0.468500  1.0  0.0149
  C  C335  1  0.875900  0.225700  0.427790  1.0  -0.1203
  C  C336  1  0.821800  0.361000  0.475310  1.0  0.0894
  C  C337  1  0.814200  0.408100  0.527700  1.0  -0.21
  C  C338  1  0.747100  0.464100  0.533800  1.0  0.1706
  C  C339  1  0.698900  0.433400  0.439060  1.0  0.1782
  C  C340  1  0.763200  0.376300  0.429010  1.0  -0.2305
  N  N341  1  0.946600  0.010690  0.145390  1.0  -0.2958
  N  N342  1  0.007440  0.042920  0.184340  1.0  -0.2181
  N  N343  1  0.943800  0.147480  0.140050  1.0  0.0712
  N  N344  1  0.924100  0.230200  0.120140  1.0  -0.5757
  N  N345  1  0.523200  0.311000  0.009350  1.0  -0.3649
  N  N346  1  0.379100  0.374200  0.086630  1.0  -0.3575
  N  N347  1  0.053400  0.989310  0.645390  1.0  -0.2958
  N  N348  1  0.992560  0.957080  0.684340  1.0  -0.2186
  N  N349  1  0.056200  0.852520  0.640050  1.0  0.0721
  N  N350  1  0.075900  0.769800  0.620140  1.0  -0.577
  N  N351  1  0.476800  0.689000  0.509350  1.0  -0.3653
  N  N352  1  0.620900  0.625800  0.586630  1.0  -0.3577
  N  N353  1  0.489310  0.446600  0.395390  1.0  -0.2966
  N  N354  1  0.457080  0.507440  0.434340  1.0  -0.2183
  N  N355  1  0.352520  0.443800  0.390050  1.0  0.0722
  N  N356  1  0.269800  0.424100  0.370140  1.0  -0.576
  N  N357  1  0.189000  0.023200  0.259350  1.0  -0.3647
  N  N358  1  0.125800  0.879100  0.336630  1.0  -0.3585
  N  N359  1  0.510690  0.553400  0.895390  1.0  -0.2962
  N  N360  1  0.542920  0.492560  0.934340  1.0  -0.2187
  N  N361  1  0.647480  0.556200  0.890050  1.0  0.0718
  N  N362  1  0.730200  0.575900  0.870140  1.0  -0.5742
  N  N363  1  0.811000  0.976800  0.759350  1.0  -0.3656
  N  N364  1  0.874200  0.120900  0.836630  1.0  -0.3582
  N  N365  1  0.553400  0.510690  0.104610  1.0  -0.2952
  N  N366  1  0.492560  0.542920  0.065660  1.0  -0.2185
  N  N367  1  0.556200  0.647480  0.109950  1.0  0.0718
  N  N368  1  0.575900  0.730200  0.129860  1.0  -0.5756
  N  N369  1  0.976800  0.811000  0.240650  1.0  -0.3649
  N  N370  1  0.120900  0.874200  0.163370  1.0  -0.3569
  N  N371  1  0.446600  0.489310  0.604610  1.0  -0.2956
  N  N372  1  0.507440  0.457080  0.565660  1.0  -0.2189
  N  N373  1  0.443800  0.352520  0.609950  1.0  0.0716
  N  N374  1  0.424100  0.269800  0.629860  1.0  -0.576
  N  N375  1  0.023200  0.189000  0.740650  1.0  -0.3654
  N  N376  1  0.879100  0.125800  0.663370  1.0  -0.3571
  N  N377  1  0.010690  0.946600  0.854610  1.0  -0.2959
  N  N378  1  0.042920  0.007440  0.815660  1.0  -0.218
  N  N379  1  0.147480  0.943800  0.859950  1.0  0.0724
  N  N380  1  0.230200  0.924100  0.879860  1.0  -0.5749
  N  N381  1  0.311000  0.523200  0.990650  1.0  -0.3653
  N  N382  1  0.374200  0.379100  0.913370  1.0  -0.3578
  N  N383  1  0.989310  0.053400  0.354610  1.0  -0.2963
  N  N384  1  0.957080  0.992560  0.315660  1.0  -0.2184
  N  N385  1  0.852520  0.056200  0.359950  1.0  0.072
  N  N386  1  0.769800  0.075900  0.379860  1.0  -0.576
  N  N387  1  0.689000  0.476800  0.490650  1.0  -0.365
  N  N388  1  0.625800  0.620900  0.413370  1.0  -0.3573
  Cl  Cl389  1  0.127130  0.127130  0.000000  1.0  1.5563
  Cl  Cl390  1  0.872870  0.872870  0.500000  1.0  1.5566
  Cl  Cl391  1  0.372870  0.627130  0.250000  1.0  1.5569
  Cl  Cl392  1  0.627130  0.372870  0.750000  1.0  1.5559
  O  O393  1  0.117900  0.084100  0.946500  1.0  -0.5514
  O  O394  1  0.105800  0.213500  0.010000  1.0  -0.6414
  O  O395  1  0.084100  0.117900  0.053500  1.0  -0.5522
  O  O396  1  0.213500  0.105800  0.990000  1.0  -0.6413
  O  O397  1  0.882100  0.915900  0.446500  1.0  -0.5519
  O  O398  1  0.894200  0.786500  0.510000  1.0  -0.6405
  O  O399  1  0.915900  0.882100  0.553500  1.0  -0.5529
  O  O400  1  0.786500  0.894200  0.490000  1.0  -0.6399
  O  O401  1  0.415900  0.617900  0.196500  1.0  -0.5532
  O  O402  1  0.286500  0.605800  0.260000  1.0  -0.6405
  O  O403  1  0.382100  0.584100  0.303500  1.0  -0.552
  O  O404  1  0.394200  0.713500  0.240000  1.0  -0.6413
  O  O405  1  0.584100  0.382100  0.696500  1.0  -0.5519
  O  O406  1  0.713500  0.394200  0.760000  1.0  -0.6414
  O  O407  1  0.617900  0.415900  0.803500  1.0  -0.5519
  O  O408  1  0.605800  0.286500  0.740000  1.0  -0.6403
