# generated using pymatgen
data_CdH36(C4N)12
_symmetry_space_group_name_H-M   'P 1'
_cell_length_a   15.90500000
_cell_length_b   15.90500000
_cell_length_c   21.54800000
_cell_angle_alpha   90.00000000
_cell_angle_beta   90.00000000
_cell_angle_gamma   90.00000000
_symmetry_Int_Tables_number   1
_chemical_formula_structural   CdH36(C4N)12
_chemical_formula_sum   'Cd4 H144 C192 N48'
_cell_volume   5450.97655070
_cell_formula_units_Z   4
loop_
 _symmetry_equiv_pos_site_id
 _symmetry_equiv_pos_as_xyz
  1  'x, y, z'
loop_
 _atom_site_type_symbol
 _atom_site_label
 _atom_site_symmetry_multiplicity
 _atom_site_fract_x
 _atom_site_fract_y
 _atom_site_fract_z
 _atom_site_occupancy
 _atom_site_charge
  Cd  Cd1  1  0.941130  0.941130  0.500000  1.0  0.7718
  Cd  Cd2  1  0.058870  0.058870  0.000000  1.0  0.7715
  Cd  Cd3  1  0.558870  0.441130  0.250000  1.0  0.7716
  Cd  Cd4  1  0.441130  0.558870  0.750000  1.0  0.7719
  H  H5  1  0.005000  0.760700  0.573100  1.0  0.0465
  H  H6  1  0.100700  0.650800  0.563800  1.0  0.1179
  H  H7  1  0.155300  0.736500  0.391900  1.0  0.1049
  H  H8  1  0.061200  0.844800  0.407600  1.0  0.054
  H  H9  1  0.161600  0.535100  0.534900  1.0  0.0901
  H  H10  1  0.267200  0.435300  0.527100  1.0  0.0899
  H  H11  1  0.377100  0.454000  0.458200  1.0  0.0973
  H  H12  1  0.277400  0.675900  0.405300  1.0  0.0784
  H  H13  1  0.200000  0.004300  0.457100  1.0  0.0848
  H  H14  1  0.295900  0.909800  0.412400  1.0  0.0883
  H  H15  1  0.347200  0.796000  0.468800  1.0  0.0688
  H  H16  1  0.197200  0.860400  0.612900  1.0  0.1149
  H  H17  1  0.211900  0.740000  0.646500  1.0  0.117
  H  H18  1  0.270300  0.639900  0.710000  1.0  0.0556
  H  H19  1  0.463300  0.612000  0.599700  1.0  0.0648
  H  H20  1  0.413300  0.713900  0.532900  1.0  0.1109
  H  H21  1  0.473500  0.758600  0.390300  1.0  0.3056
  H  H22  1  0.397400  0.759200  0.350200  1.0  0.2904
  H  H23  1  0.995000  0.239300  0.073100  1.0  0.0467
  H  H24  1  0.899300  0.349200  0.063800  1.0  0.1188
  H  H25  1  0.844700  0.263500  0.891900  1.0  0.1051
  H  H26  1  0.938800  0.155200  0.907600  1.0  0.0546
  H  H27  1  0.838400  0.464900  0.034900  1.0  0.0897
  H  H28  1  0.732800  0.564700  0.027100  1.0  0.0894
  H  H29  1  0.622900  0.546000  0.958200  1.0  0.0971
  H  H30  1  0.722600  0.324100  0.905300  1.0  0.0779
  H  H31  1  0.800000  0.995700  0.957100  1.0  0.0844
  H  H32  1  0.704100  0.090200  0.912400  1.0  0.0866
  H  H33  1  0.652800  0.204000  0.968800  1.0  0.0688
  H  H34  1  0.802800  0.139600  0.112900  1.0  0.115
  H  H35  1  0.788100  0.260000  0.146500  1.0  0.1175
  H  H36  1  0.729700  0.360100  0.210000  1.0  0.0568
  H  H37  1  0.536700  0.388000  0.099700  1.0  0.0643
  H  H38  1  0.586700  0.286100  0.032900  1.0  0.1101
  H  H39  1  0.526500  0.241400  0.890300  1.0  0.3042
  H  H40  1  0.602600  0.240800  0.850200  1.0  0.2907
  H  H41  1  0.739300  0.505000  0.323100  1.0  0.0452
  H  H42  1  0.849200  0.600700  0.313800  1.0  0.1194
  H  H43  1  0.763500  0.655300  0.141900  1.0  0.1051
  H  H44  1  0.655200  0.561200  0.157600  1.0  0.0538
  H  H45  1  0.964900  0.661600  0.284900  1.0  0.0902
  H  H46  1  0.064700  0.767200  0.277100  1.0  0.0899
  H  H47  1  0.046000  0.877100  0.208200  1.0  0.0974
  H  H48  1  0.824100  0.777400  0.155300  1.0  0.0778
  H  H49  1  0.495700  0.700000  0.207100  1.0  0.083
  H  H50  1  0.590200  0.795900  0.162400  1.0  0.0872
  H  H51  1  0.704000  0.847200  0.218800  1.0  0.0698
  H  H52  1  0.639600  0.697200  0.362900  1.0  0.1139
  H  H53  1  0.760000  0.711900  0.396500  1.0  0.1163
  H  H54  1  0.860100  0.770300  0.460000  1.0  0.0565
  H  H55  1  0.888000  0.963300  0.349700  1.0  0.0641
  H  H56  1  0.786100  0.913300  0.282900  1.0  0.1113
  H  H57  1  0.741400  0.973500  0.140300  1.0  0.3035
  H  H58  1  0.740800  0.897400  0.100200  1.0  0.2909
  H  H59  1  0.260700  0.495000  0.823100  1.0  0.0464
  H  H60  1  0.150800  0.399300  0.813800  1.0  0.1175
  H  H61  1  0.236500  0.344700  0.641900  1.0  0.105
  H  H62  1  0.344800  0.438800  0.657600  1.0  0.0536
  H  H63  1  0.035100  0.338400  0.784900  1.0  0.0901
  H  H64  1  0.935300  0.232800  0.777100  1.0  0.0897
  H  H65  1  0.954000  0.122900  0.708200  1.0  0.0972
  H  H66  1  0.175900  0.222600  0.655300  1.0  0.0773
  H  H67  1  0.504300  0.300000  0.707100  1.0  0.0833
  H  H68  1  0.409800  0.204100  0.662400  1.0  0.0889
  H  H69  1  0.296000  0.152800  0.718800  1.0  0.0698
  H  H70  1  0.360400  0.302800  0.862900  1.0  0.1141
  H  H71  1  0.240000  0.288100  0.896500  1.0  0.1173
  H  H72  1  0.139900  0.229700  0.960000  1.0  0.0559
  H  H73  1  0.112000  0.036700  0.849700  1.0  0.064
  H  H74  1  0.213900  0.086700  0.782900  1.0  0.1112
  H  H75  1  0.258600  0.026500  0.640300  1.0  0.3038
  H  H76  1  0.259200  0.102600  0.600200  1.0  0.2913
  H  H77  1  0.495000  0.260700  0.176900  1.0  0.0454
  H  H78  1  0.399300  0.150800  0.186200  1.0  0.1166
  H  H79  1  0.344700  0.236500  0.358100  1.0  0.1053
  H  H80  1  0.438800  0.344800  0.342400  1.0  0.0541
  H  H81  1  0.338400  0.035100  0.215100  1.0  0.0903
  H  H82  1  0.232800  0.935300  0.222900  1.0  0.0898
  H  H83  1  0.122900  0.954000  0.291800  1.0  0.0969
  H  H84  1  0.222600  0.175900  0.344700  1.0  0.0775
  H  H85  1  0.300000  0.504300  0.292900  1.0  0.0841
  H  H86  1  0.204100  0.409800  0.337600  1.0  0.0884
  H  H87  1  0.152800  0.296000  0.281200  1.0  0.0683
  H  H88  1  0.302800  0.360400  0.137100  1.0  0.1154
  H  H89  1  0.288100  0.240000  0.103500  1.0  0.1171
  H  H90  1  0.229700  0.139900  0.040000  1.0  0.0573
  H  H91  1  0.036700  0.112000  0.150300  1.0  0.0643
  H  H92  1  0.086700  0.213900  0.217100  1.0  0.1108
  H  H93  1  0.026500  0.258600  0.359700  1.0  0.3045
  H  H94  1  0.102600  0.259200  0.399800  1.0  0.2906
  H  H95  1  0.505000  0.739300  0.676900  1.0  0.0454
  H  H96  1  0.600700  0.849200  0.686200  1.0  0.1173
  H  H97  1  0.655300  0.763500  0.858100  1.0  0.1049
  H  H98  1  0.561200  0.655200  0.842400  1.0  0.0544
  H  H99  1  0.661600  0.964900  0.715100  1.0  0.0906
  H  H100  1  0.767200  0.064700  0.722900  1.0  0.0902
  H  H101  1  0.877100  0.046000  0.791800  1.0  0.0972
  H  H102  1  0.777400  0.824100  0.844700  1.0  0.078
  H  H103  1  0.700000  0.495700  0.792900  1.0  0.0852
  H  H104  1  0.795900  0.590200  0.837600  1.0  0.0856
  H  H105  1  0.847200  0.704000  0.781200  1.0  0.0691
  H  H106  1  0.697200  0.639600  0.637100  1.0  0.116
  H  H107  1  0.711900  0.760000  0.603500  1.0  0.1151
  H  H108  1  0.770300  0.860100  0.540000  1.0  0.0549
  H  H109  1  0.963300  0.888000  0.650300  1.0  0.065
  H  H110  1  0.913300  0.786100  0.717100  1.0  0.1107
  H  H111  1  0.973500  0.741400  0.859700  1.0  0.3047
  H  H112  1  0.897400  0.740800  0.899800  1.0  0.2912
  H  H113  1  0.760700  0.005000  0.426900  1.0  0.0452
  H  H114  1  0.650800  0.100700  0.436200  1.0  0.1165
  H  H115  1  0.736500  0.155300  0.608100  1.0  0.105
  H  H116  1  0.844800  0.061200  0.592400  1.0  0.0535
  H  H117  1  0.535100  0.161600  0.465100  1.0  0.0904
  H  H118  1  0.435300  0.267200  0.472900  1.0  0.0895
  H  H119  1  0.454000  0.377100  0.541800  1.0  0.0973
  H  H120  1  0.675900  0.277400  0.594700  1.0  0.0772
  H  H121  1  0.004300  0.200000  0.542900  1.0  0.0824
  H  H122  1  0.909800  0.295900  0.587600  1.0  0.0889
  H  H123  1  0.796000  0.347200  0.531200  1.0  0.07
  H  H124  1  0.860400  0.197200  0.387100  1.0  0.1151
  H  H125  1  0.740000  0.211900  0.353500  1.0  0.1167
  H  H126  1  0.639900  0.270300  0.290000  1.0  0.0562
  H  H127  1  0.612000  0.463300  0.400300  1.0  0.0646
  H  H128  1  0.713900  0.413300  0.467100  1.0  0.1114
  H  H129  1  0.758600  0.473500  0.609700  1.0  0.3038
  H  H130  1  0.759200  0.397400  0.649800  1.0  0.2917
  H  H131  1  0.239300  0.995000  0.926900  1.0  0.0459
  H  H132  1  0.349200  0.899300  0.936200  1.0  0.1175
  H  H133  1  0.263500  0.844700  0.108100  1.0  0.105
  H  H134  1  0.155200  0.938800  0.092400  1.0  0.0538
  H  H135  1  0.464900  0.838400  0.965100  1.0  0.0907
  H  H136  1  0.564700  0.732800  0.972900  1.0  0.0904
  H  H137  1  0.546000  0.622900  0.041800  1.0  0.0976
  H  H138  1  0.324100  0.722600  0.094700  1.0  0.0776
  H  H139  1  0.995700  0.800000  0.042900  1.0  0.0836
  H  H140  1  0.090200  0.704100  0.087600  1.0  0.0876
  H  H141  1  0.204000  0.652800  0.031200  1.0  0.069
  H  H142  1  0.139600  0.802800  0.887100  1.0  0.1143
  H  H143  1  0.260000  0.788100  0.853500  1.0  0.1167
  H  H144  1  0.360100  0.729700  0.790000  1.0  0.0559
  H  H145  1  0.388000  0.536700  0.900300  1.0  0.0648
  H  H146  1  0.286100  0.586700  0.967100  1.0  0.1124
  H  H147  1  0.241400  0.526500  0.109700  1.0  0.3016
  H  H148  1  0.240800  0.602600  0.149800  1.0  0.2915
  C  C149  1  0.037000  0.756400  0.536000  1.0  0.1594
  C  C150  1  0.094300  0.690000  0.530900  1.0  -0.2156
  C  C151  1  0.142200  0.681900  0.476600  1.0  0.0898
  C  C152  1  0.126500  0.740600  0.430500  1.0  -0.2234
  C  C153  1  0.069300  0.804800  0.439800  1.0  0.1526
  C  C154  1  0.207800  0.616800  0.470800  1.0  0.0347
  C  C155  1  0.206600  0.543900  0.506700  1.0  -0.129
  C  C156  1  0.269300  0.484400  0.502000  1.0  -0.0906
  C  C157  1  0.334500  0.495600  0.461600  1.0  -0.0958
  C  C158  1  0.338500  0.567900  0.425400  1.0  -0.0308
  C  C159  1  0.275000  0.626800  0.430400  1.0  -0.1415
  C  C160  1  0.408300  0.576600  0.381700  1.0  0.2482
  C  C161  1  0.126300  0.995100  0.569800  1.0  0.2407
  C  C162  1  0.188400  0.939800  0.539800  1.0  -0.0333
  C  C163  1  0.218700  0.956400  0.479500  1.0  -0.092
  C  C164  1  0.276700  0.900800  0.453600  1.0  -0.1075
  C  C165  1  0.306700  0.832400  0.487000  1.0  -0.1205
  C  C166  1  0.278100  0.816700  0.546800  1.0  -0.0026
  C  C167  1  0.218000  0.871100  0.572300  1.0  -0.1331
  C  C168  1  0.308000  0.744200  0.583500  1.0  0.0858
  C  C169  1  0.265300  0.716800  0.636500  1.0  -0.2315
  C  C170  1  0.300400  0.656600  0.674000  1.0  0.1382
  C  C171  1  0.412800  0.640500  0.610200  1.0  0.1468
  C  C172  1  0.383100  0.701300  0.569800  1.0  -0.2098
  C  C173  1  0.963000  0.243600  0.036000  1.0  0.1599
  C  C174  1  0.905700  0.310000  0.030900  1.0  -0.2157
  C  C175  1  0.857800  0.318100  0.976600  1.0  0.0897
  C  C176  1  0.873500  0.259400  0.930500  1.0  -0.2236
  C  C177  1  0.930700  0.195200  0.939800  1.0  0.1528
  C  C178  1  0.792200  0.383200  0.970800  1.0  0.0346
  C  C179  1  0.793400  0.456100  0.006700  1.0  -0.1298
  C  C180  1  0.730700  0.515600  0.002000  1.0  -0.09
  C  C181  1  0.665500  0.504400  0.961600  1.0  -0.1013
  C  C182  1  0.661500  0.432100  0.925400  1.0  -0.0307
  C  C183  1  0.725000  0.373200  0.930400  1.0  -0.1403
  C  C184  1  0.591700  0.423400  0.881700  1.0  0.2449
  C  C185  1  0.873700  0.004900  0.069800  1.0  0.2404
  C  C186  1  0.811600  0.060200  0.039800  1.0  -0.035
  C  C187  1  0.781300  0.043600  0.979500  1.0  -0.0936
  C  C188  1  0.723300  0.099200  0.953600  1.0  -0.111
  C  C189  1  0.693300  0.167600  0.987000  1.0  -0.1185
  C  C190  1  0.721900  0.183300  0.046800  1.0  -0.0021
  C  C191  1  0.782000  0.128900  0.072300  1.0  -0.1332
  C  C192  1  0.692000  0.255800  0.083500  1.0  0.0856
  C  C193  1  0.734700  0.283200  0.136500  1.0  -0.233
  C  C194  1  0.699600  0.343400  0.174000  1.0  0.1382
  C  C195  1  0.587200  0.359500  0.110200  1.0  0.1484
  C  C196  1  0.616900  0.298700  0.069800  1.0  -0.2099
  C  C197  1  0.743600  0.537000  0.286000  1.0  0.1609
  C  C198  1  0.810000  0.594300  0.280900  1.0  -0.2157
  C  C199  1  0.818100  0.642200  0.226600  1.0  0.0901
  C  C200  1  0.759400  0.626500  0.180500  1.0  -0.2222
  C  C201  1  0.695200  0.569300  0.189800  1.0  0.1534
  C  C202  1  0.883200  0.707800  0.220800  1.0  0.0333
  C  C203  1  0.956100  0.706600  0.256700  1.0  -0.1298
  C  C204  1  0.015600  0.769300  0.252000  1.0  -0.0899
  C  C205  1  0.004400  0.834500  0.211600  1.0  -0.0944
  C  C206  1  0.932100  0.838500  0.175400  1.0  -0.0318
  C  C207  1  0.873200  0.775000  0.180400  1.0  -0.1414
  C  C208  1  0.923400  0.908300  0.131700  1.0  0.2461
  C  C209  1  0.504900  0.626300  0.319800  1.0  0.2414
  C  C210  1  0.560200  0.688400  0.289800  1.0  -0.0327
  C  C211  1  0.543600  0.718700  0.229500  1.0  -0.092
  C  C212  1  0.599200  0.776700  0.203600  1.0  -0.1081
  C  C213  1  0.667600  0.806700  0.237000  1.0  -0.118
  C  C214  1  0.683300  0.778100  0.296800  1.0  -0.0022
  C  C215  1  0.628900  0.718000  0.322300  1.0  -0.133
  C  C216  1  0.755800  0.808000  0.333500  1.0  0.0856
  C  C217  1  0.783200  0.765300  0.386500  1.0  -0.2332
  C  C218  1  0.843400  0.800400  0.424000  1.0  0.1372
  C  C219  1  0.859500  0.912800  0.360200  1.0  0.1455
  C  C220  1  0.798700  0.883100  0.319800  1.0  -0.2126
  C  C221  1  0.256400  0.463000  0.786000  1.0  0.1599
  C  C222  1  0.190000  0.405700  0.780900  1.0  -0.2165
  C  C223  1  0.181900  0.357800  0.726600  1.0  0.0908
  C  C224  1  0.240600  0.373500  0.680500  1.0  -0.2223
  C  C225  1  0.304800  0.430700  0.689800  1.0  0.1532
  C  C226  1  0.116800  0.292200  0.720800  1.0  0.0344
  C  C227  1  0.043900  0.293400  0.756700  1.0  -0.1302
  C  C228  1  0.984400  0.230700  0.752000  1.0  -0.0924
  C  C229  1  0.995600  0.165500  0.711600  1.0  -0.099
  C  C230  1  0.067900  0.161500  0.675400  1.0  -0.0315
  C  C231  1  0.126800  0.225000  0.680400  1.0  -0.1418
  C  C232  1  0.076600  0.091700  0.631700  1.0  0.2448
  C  C233  1  0.495100  0.373700  0.819800  1.0  0.2418
  C  C234  1  0.439800  0.311600  0.789800  1.0  -0.0331
  C  C235  1  0.456400  0.281300  0.729500  1.0  -0.0937
  C  C236  1  0.400800  0.223300  0.703600  1.0  -0.1091
  C  C237  1  0.332400  0.193300  0.737000  1.0  -0.118
  C  C238  1  0.316700  0.221900  0.796800  1.0  -0.0018
  C  C239  1  0.371100  0.282000  0.822300  1.0  -0.1329
  C  C240  1  0.244200  0.192000  0.833500  1.0  0.0852
  C  C241  1  0.216800  0.234700  0.886500  1.0  -0.2335
  C  C242  1  0.156600  0.199600  0.924000  1.0  0.1354
  C  C243  1  0.140500  0.087200  0.860200  1.0  0.1414
  C  C244  1  0.201300  0.116900  0.819800  1.0  -0.2127
  C  C245  1  0.463000  0.256400  0.214000  1.0  0.1594
  C  C246  1  0.405700  0.190000  0.219100  1.0  -0.2141
  C  C247  1  0.357800  0.181900  0.273400  1.0  0.0901
  C  C248  1  0.373500  0.240600  0.319500  1.0  -0.2245
  C  C249  1  0.430700  0.304800  0.310200  1.0  0.153
  C  C250  1  0.292200  0.116800  0.279200  1.0  0.0341
  C  C251  1  0.293400  0.043900  0.243300  1.0  -0.1295
  C  C252  1  0.230700  0.984400  0.248000  1.0  -0.0902
  C  C253  1  0.165500  0.995600  0.288400  1.0  -0.0987
  C  C254  1  0.161500  0.067900  0.324600  1.0  -0.0308
  C  C255  1  0.225000  0.126800  0.319600  1.0  -0.1403
  C  C256  1  0.091700  0.076600  0.368300  1.0  0.245
  C  C257  1  0.373700  0.495100  0.180200  1.0  0.2402
  C  C258  1  0.311600  0.439800  0.210200  1.0  -0.0341
  C  C259  1  0.281300  0.456400  0.270500  1.0  -0.092
  C  C260  1  0.223300  0.400800  0.296400  1.0  -0.1091
  C  C261  1  0.193300  0.332400  0.263000  1.0  -0.1172
  C  C262  1  0.221900  0.316700  0.203200  1.0  -0.0018
  C  C263  1  0.282000  0.371100  0.177700  1.0  -0.1339
  C  C264  1  0.192000  0.244200  0.166500  1.0  0.087
  C  C265  1  0.234700  0.216800  0.113500  1.0  -0.2328
  C  C266  1  0.199600  0.156600  0.076000  1.0  0.139
  C  C267  1  0.087200  0.140500  0.139800  1.0  0.1441
  C  C268  1  0.116900  0.201300  0.180200  1.0  -0.2092
  C  C269  1  0.537000  0.743600  0.714000  1.0  0.1599
  C  C270  1  0.594300  0.810000  0.719100  1.0  -0.2137
  C  C271  1  0.642200  0.818100  0.773400  1.0  0.09
  C  C272  1  0.626500  0.759400  0.819500  1.0  -0.2241
  C  C273  1  0.569300  0.695200  0.810200  1.0  0.1526
  C  C274  1  0.707800  0.883200  0.779200  1.0  0.0357
  C  C275  1  0.706600  0.956100  0.743300  1.0  -0.1301
  C  C276  1  0.769300  0.015600  0.748000  1.0  -0.0907
  C  C277  1  0.834500  0.004400  0.788400  1.0  -0.0952
  C  C278  1  0.838500  0.932100  0.824600  1.0  -0.031
  C  C279  1  0.775000  0.873200  0.819600  1.0  -0.1408
  C  C280  1  0.908300  0.923400  0.868300  1.0  0.248
  C  C281  1  0.626300  0.504900  0.680200  1.0  0.2405
  C  C282  1  0.688400  0.560200  0.710200  1.0  -0.0347
  C  C283  1  0.718700  0.543600  0.770500  1.0  -0.0931
  C  C284  1  0.776700  0.599200  0.796400  1.0  -0.1092
  C  C285  1  0.806700  0.667600  0.763000  1.0  -0.1217
  C  C286  1  0.778100  0.683300  0.703200  1.0  -0.0026
  C  C287  1  0.718000  0.628900  0.677700  1.0  -0.1342
  C  C288  1  0.808000  0.755800  0.666500  1.0  0.0866
  C  C289  1  0.765300  0.783200  0.613500  1.0  -0.2306
  C  C290  1  0.800400  0.843400  0.576000  1.0  0.1388
  C  C291  1  0.912800  0.859500  0.639800  1.0  0.147
  C  C292  1  0.883100  0.798700  0.680200  1.0  -0.2088
  C  C293  1  0.756400  0.037000  0.464000  1.0  0.16
  C  C294  1  0.690000  0.094300  0.469100  1.0  -0.2143
  C  C295  1  0.681900  0.142200  0.523400  1.0  0.0909
  C  C296  1  0.740600  0.126500  0.569500  1.0  -0.2227
  C  C297  1  0.804800  0.069300  0.560200  1.0  0.1531
  C  C298  1  0.616800  0.207800  0.529200  1.0  0.0342
  C  C299  1  0.543900  0.206600  0.493300  1.0  -0.13
  C  C300  1  0.484400  0.269300  0.498000  1.0  -0.0942
  C  C301  1  0.495600  0.334500  0.538400  1.0  -0.0922
  C  C302  1  0.567900  0.338500  0.574600  1.0  -0.0319
  C  C303  1  0.626800  0.275000  0.569600  1.0  -0.1419
  C  C304  1  0.576600  0.408300  0.618300  1.0  0.247
  C  C305  1  0.995100  0.126300  0.430200  1.0  0.2416
  C  C306  1  0.939800  0.188400  0.460200  1.0  -0.0326
  C  C307  1  0.956400  0.218700  0.520500  1.0  -0.0935
  C  C308  1  0.900800  0.276700  0.546400  1.0  -0.1084
  C  C309  1  0.832400  0.306700  0.513000  1.0  -0.1191
  C  C310  1  0.816700  0.278100  0.453200  1.0  -0.0019
  C  C311  1  0.871100  0.218000  0.427700  1.0  -0.1335
  C  C312  1  0.744200  0.308000  0.416500  1.0  0.0867
  C  C313  1  0.716800  0.265300  0.363500  1.0  -0.2344
  C  C314  1  0.656600  0.300400  0.326000  1.0  0.1362
  C  C315  1  0.640500  0.412800  0.389800  1.0  0.1449
  C  C316  1  0.701300  0.383100  0.430200  1.0  -0.2115
  C  C317  1  0.243600  0.963000  0.964000  1.0  0.1607
  C  C318  1  0.310000  0.905700  0.969100  1.0  -0.2158
  C  C319  1  0.318100  0.857800  0.023400  1.0  0.0901
  C  C320  1  0.259400  0.873500  0.069500  1.0  -0.2237
  C  C321  1  0.195200  0.930700  0.060200  1.0  0.1533
  C  C322  1  0.383200  0.792200  0.029200  1.0  0.0334
  C  C323  1  0.456100  0.793400  0.993300  1.0  -0.1299
  C  C324  1  0.515600  0.730700  0.998000  1.0  -0.0908
  C  C325  1  0.504400  0.665500  0.038400  1.0  -0.0941
  C  C326  1  0.432100  0.661500  0.074600  1.0  -0.0315
  C  C327  1  0.373200  0.725000  0.069600  1.0  -0.1418
  C  C328  1  0.423400  0.591700  0.118300  1.0  0.2432
  C  C329  1  0.004900  0.873700  0.930200  1.0  0.2417
  C  C330  1  0.060200  0.811600  0.960200  1.0  -0.0342
  C  C331  1  0.043600  0.781300  0.020500  1.0  -0.0917
  C  C332  1  0.099200  0.723300  0.046400  1.0  -0.1107
  C  C333  1  0.167600  0.693300  0.013000  1.0  -0.1191
  C  C334  1  0.183300  0.721900  0.953200  1.0  -0.0019
  C  C335  1  0.128900  0.782000  0.927700  1.0  -0.1338
  C  C336  1  0.255800  0.692000  0.916500  1.0  0.0864
  C  C337  1  0.283200  0.734700  0.863500  1.0  -0.2326
  C  C338  1  0.343400  0.699600  0.826000  1.0  0.1379
  C  C339  1  0.359500  0.587200  0.889800  1.0  0.1464
  C  C340  1  0.298700  0.616900  0.930200  1.0  -0.2115
  N  N341  1  0.024600  0.813300  0.492400  1.0  -0.3718
  N  N342  1  0.446000  0.512200  0.355300  1.0  -0.3196
  N  N343  1  0.044600  0.993100  0.566400  1.0  -0.2278
  N  N344  1  0.443600  0.649000  0.360300  1.0  0.0642
  N  N345  1  0.425000  0.731100  0.381000  1.0  -0.5802
  N  N346  1  0.880000  0.874600  0.412700  1.0  -0.3608
  N  N347  1  0.975400  0.186700  0.992400  1.0  -0.3717
  N  N348  1  0.554000  0.487800  0.855300  1.0  -0.3167
  N  N349  1  0.955400  0.006900  0.066400  1.0  -0.2271
  N  N350  1  0.556400  0.351000  0.860300  1.0  0.0642
  N  N351  1  0.575000  0.268900  0.881000  1.0  -0.5789
  N  N352  1  0.120000  0.125400  0.912700  1.0  -0.3608
  N  N353  1  0.686700  0.524600  0.242400  1.0  -0.3715
  N  N354  1  0.987800  0.946000  0.105300  1.0  -0.3192
  N  N355  1  0.506900  0.544600  0.316400  1.0  -0.2278
  N  N356  1  0.851000  0.943600  0.110300  1.0  0.0639
  N  N357  1  0.768900  0.925000  0.131000  1.0  -0.5788
  N  N358  1  0.625400  0.380000  0.162700  1.0  -0.3598
  N  N359  1  0.313300  0.475400  0.742400  1.0  -0.3726
  N  N360  1  0.012200  0.054000  0.605300  1.0  -0.322
  N  N361  1  0.493100  0.455400  0.816400  1.0  -0.2277
  N  N362  1  0.149000  0.056400  0.610300  1.0  0.0664
  N  N363  1  0.231100  0.075000  0.631000  1.0  -0.5783
  N  N364  1  0.374600  0.620000  0.662700  1.0  -0.3593
  N  N365  1  0.475400  0.313300  0.257600  1.0  -0.3717
  N  N366  1  0.054000  0.012200  0.394700  1.0  -0.3185
  N  N367  1  0.455400  0.493100  0.183600  1.0  -0.2274
  N  N368  1  0.056400  0.149000  0.389700  1.0  0.064
  N  N369  1  0.075000  0.231100  0.369000  1.0  -0.5794
  N  N370  1  0.620000  0.374600  0.337300  1.0  -0.3612
  N  N371  1  0.524600  0.686700  0.757600  1.0  -0.3721
  N  N372  1  0.946000  0.987800  0.894700  1.0  -0.32
  N  N373  1  0.544600  0.506900  0.683600  1.0  -0.2278
  N  N374  1  0.943600  0.851000  0.889700  1.0  0.0639
  N  N375  1  0.925000  0.768900  0.869000  1.0  -0.5799
  N  N376  1  0.380000  0.625400  0.837300  1.0  -0.3614
  N  N377  1  0.813300  0.024600  0.507600  1.0  -0.372
  N  N378  1  0.512200  0.446000  0.644700  1.0  -0.3225
  N  N379  1  0.993100  0.044600  0.433600  1.0  -0.2274
  N  N380  1  0.649000  0.443600  0.639700  1.0  0.0644
  N  N381  1  0.731100  0.425000  0.619000  1.0  -0.5792
  N  N382  1  0.874600  0.880000  0.587300  1.0  -0.3601
  N  N383  1  0.186700  0.975400  0.007600  1.0  -0.3721
  N  N384  1  0.487800  0.554000  0.144700  1.0  -0.3186
  N  N385  1  0.006900  0.955400  0.933600  1.0  -0.2282
  N  N386  1  0.351000  0.556400  0.139700  1.0  0.0638
  N  N387  1  0.268900  0.575000  0.119000  1.0  -0.5779
  N  N388  1  0.125400  0.120000  0.087300  1.0  -0.3602
