# generated using pymatgen
data_CdH36(C4N)12
_symmetry_space_group_name_H-M   'P 1'
_cell_length_a   15.88400000
_cell_length_b   15.88400000
_cell_length_c   21.44000000
_cell_angle_alpha   90.00000000
_cell_angle_beta   90.00000000
_cell_angle_gamma   90.00000000
_symmetry_Int_Tables_number   1
_chemical_formula_structural   CdH36(C4N)12
_chemical_formula_sum   'Cd4 H144 C192 N48'
_cell_volume   5409.34321664
_cell_formula_units_Z   4
loop_
 _symmetry_equiv_pos_site_id
 _symmetry_equiv_pos_as_xyz
  1  'x, y, z'
loop_
 _atom_site_type_symbol
 _atom_site_label
 _atom_site_symmetry_multiplicity
 _atom_site_fract_x
 _atom_site_fract_y
 _atom_site_fract_z
 _atom_site_occupancy
 _atom_site_charge
  Cd  Cd1  1  0.440410  0.440410  0.000000  1.0  0.7722
  Cd  Cd2  1  0.559590  0.559590  0.500000  1.0  0.772
  Cd  Cd3  1  0.059590  0.940410  0.750000  1.0  0.7719
  Cd  Cd4  1  0.940410  0.059590  0.250000  1.0  0.7724
  H  H5  1  0.939700  0.841400  0.841900  1.0  0.0448
  H  H6  1  0.846500  0.735100  0.857200  1.0  0.104
  H  H7  1  0.902200  0.649800  0.687200  1.0  0.1117
  H  H8  1  0.995100  0.759700  0.677200  1.0  0.0485
  H  H9  1  0.834600  0.535200  0.711500  1.0  0.09
  H  H10  1  0.733500  0.433400  0.724200  1.0  0.0878
  H  H11  1  0.620700  0.455600  0.790000  1.0  0.0964
  H  H12  1  0.723700  0.673900  0.844200  1.0  0.0762
  H  H13  1  0.506400  0.702600  0.041800  1.0  0.0946
  H  H14  1  0.413600  0.798200  0.087000  1.0  0.087
  H  H15  1  0.298100  0.846700  0.031900  1.0  0.0698
  H  H16  1  0.359500  0.694300  0.890100  1.0  0.0914
  H  H17  1  0.214200  0.912800  0.966700  1.0  0.1043
  H  H18  1  0.112900  0.962500  0.900900  1.0  0.0642
  H  H19  1  0.139600  0.769800  0.791700  1.0  0.0526
  H  H20  1  0.238900  0.712800  0.854400  1.0  0.1107
  H  H21  1  0.533000  0.753100  0.850900  1.0  0.3143
  H  H22  1  0.591100  0.761900  0.902900  1.0  0.3
  H  H23  1  0.060300  0.158600  0.341900  1.0  0.0454
  H  H24  1  0.153500  0.264900  0.357200  1.0  0.104
  H  H25  1  0.097800  0.350200  0.187200  1.0  0.1115
  H  H26  1  0.004900  0.240300  0.177200  1.0  0.048
  H  H27  1  0.165400  0.464800  0.211500  1.0  0.0904
  H  H28  1  0.266500  0.566600  0.224200  1.0  0.0884
  H  H29  1  0.379300  0.544400  0.290000  1.0  0.0964
  H  H30  1  0.276300  0.326100  0.344200  1.0  0.0768
  H  H31  1  0.493600  0.297400  0.541800  1.0  0.0945
  H  H32  1  0.586400  0.201800  0.587000  1.0  0.0875
  H  H33  1  0.701900  0.153300  0.531900  1.0  0.0697
  H  H34  1  0.640500  0.305700  0.390100  1.0  0.091
  H  H35  1  0.785800  0.087200  0.466700  1.0  0.1046
  H  H36  1  0.887100  0.037500  0.400900  1.0  0.0645
  H  H37  1  0.860400  0.230200  0.291700  1.0  0.0524
  H  H38  1  0.761100  0.287200  0.354400  1.0  0.1109
  H  H39  1  0.467000  0.246900  0.350900  1.0  0.3142
  H  H40  1  0.408900  0.238100  0.402900  1.0  0.2997
  H  H41  1  0.658600  0.439700  0.591900  1.0  0.0448
  H  H42  1  0.764900  0.346500  0.607200  1.0  0.1042
  H  H43  1  0.850200  0.402200  0.437200  1.0  0.1103
  H  H44  1  0.740300  0.495100  0.427200  1.0  0.0479
  H  H45  1  0.964800  0.334600  0.461500  1.0  0.0902
  H  H46  1  0.066600  0.233500  0.474200  1.0  0.0883
  H  H47  1  0.044400  0.120700  0.540000  1.0  0.0972
  H  H48  1  0.826100  0.223700  0.594200  1.0  0.0758
  H  H49  1  0.797400  0.006400  0.791800  1.0  0.095
  H  H50  1  0.701800  0.913600  0.837000  1.0  0.0865
  H  H51  1  0.653300  0.798100  0.781900  1.0  0.0715
  H  H52  1  0.805700  0.859500  0.640100  1.0  0.0911
  H  H53  1  0.587200  0.714200  0.716700  1.0  0.1024
  H  H54  1  0.537500  0.612900  0.650900  1.0  0.0643
  H  H55  1  0.730200  0.639600  0.541700  1.0  0.0534
  H  H56  1  0.787200  0.738900  0.604400  1.0  0.1115
  H  H57  1  0.746900  0.033000  0.600900  1.0  0.3153
  H  H58  1  0.738100  0.091100  0.652900  1.0  0.2999
  H  H59  1  0.341400  0.560300  0.091900  1.0  0.045
  H  H60  1  0.235100  0.653500  0.107200  1.0  0.1038
  H  H61  1  0.149800  0.597800  0.937200  1.0  0.1108
  H  H62  1  0.259700  0.504900  0.927200  1.0  0.048
  H  H63  1  0.035200  0.665400  0.961500  1.0  0.0905
  H  H64  1  0.933400  0.766500  0.974200  1.0  0.0873
  H  H65  1  0.955600  0.879300  0.040000  1.0  0.097
  H  H66  1  0.173900  0.776300  0.094200  1.0  0.0759
  H  H67  1  0.202600  0.993600  0.291800  1.0  0.0952
  H  H68  1  0.298200  0.086400  0.337000  1.0  0.086
  H  H69  1  0.346700  0.201900  0.281900  1.0  0.0727
  H  H70  1  0.194300  0.140500  0.140100  1.0  0.0912
  H  H71  1  0.412800  0.285800  0.216700  1.0  0.1029
  H  H72  1  0.462500  0.387100  0.150900  1.0  0.0651
  H  H73  1  0.269800  0.360400  0.041700  1.0  0.051
  H  H74  1  0.212800  0.261100  0.104400  1.0  0.1109
  H  H75  1  0.253100  0.967000  0.100900  1.0  0.3152
  H  H76  1  0.261900  0.908900  0.152900  1.0  0.2996
  H  H77  1  0.560300  0.341400  0.908100  1.0  0.0447
  H  H78  1  0.653500  0.235100  0.892800  1.0  0.1044
  H  H79  1  0.597800  0.149800  0.062800  1.0  0.112
  H  H80  1  0.504900  0.259700  0.072800  1.0  0.0485
  H  H81  1  0.665400  0.035200  0.038500  1.0  0.0904
  H  H82  1  0.766500  0.933400  0.025800  1.0  0.0883
  H  H83  1  0.879300  0.955600  0.960000  1.0  0.0968
  H  H84  1  0.776300  0.173900  0.905800  1.0  0.0767
  H  H85  1  0.993600  0.202600  0.708200  1.0  0.0938
  H  H86  1  0.086400  0.298200  0.663000  1.0  0.087
  H  H87  1  0.201900  0.346700  0.718100  1.0  0.0702
  H  H88  1  0.140500  0.194300  0.859900  1.0  0.0915
  H  H89  1  0.285800  0.412800  0.783300  1.0  0.1041
  H  H90  1  0.387100  0.462500  0.849100  1.0  0.0641
  H  H91  1  0.360400  0.269800  0.958300  1.0  0.0526
  H  H92  1  0.261100  0.212800  0.895600  1.0  0.1114
  H  H93  1  0.967000  0.253100  0.899100  1.0  0.3149
  H  H94  1  0.908900  0.261900  0.847100  1.0  0.3002
  H  H95  1  0.439700  0.658600  0.408100  1.0  0.0449
  H  H96  1  0.346500  0.764900  0.392800  1.0  0.1044
  H  H97  1  0.402200  0.850200  0.562800  1.0  0.1111
  H  H98  1  0.495100  0.740300  0.572800  1.0  0.049
  H  H99  1  0.334600  0.964800  0.538500  1.0  0.0899
  H  H100  1  0.233500  0.066600  0.525800  1.0  0.0882
  H  H101  1  0.120700  0.044400  0.460000  1.0  0.0964
  H  H102  1  0.223700  0.826100  0.405800  1.0  0.0766
  H  H103  1  0.006400  0.797400  0.208200  1.0  0.0946
  H  H104  1  0.913600  0.701800  0.163000  1.0  0.0869
  H  H105  1  0.798100  0.653300  0.218100  1.0  0.0695
  H  H106  1  0.859500  0.805700  0.359900  1.0  0.0914
  H  H107  1  0.714200  0.587200  0.283300  1.0  0.104
  H  H108  1  0.612900  0.537500  0.349100  1.0  0.0641
  H  H109  1  0.639600  0.730200  0.458300  1.0  0.052
  H  H110  1  0.738900  0.787200  0.395600  1.0  0.111
  H  H111  1  0.033000  0.746900  0.399100  1.0  0.315
  H  H112  1  0.091100  0.738100  0.347100  1.0  0.2996
  H  H113  1  0.841400  0.939700  0.158100  1.0  0.0447
  H  H114  1  0.735100  0.846500  0.142800  1.0  0.1046
  H  H115  1  0.649800  0.902200  0.312800  1.0  0.1108
  H  H116  1  0.759700  0.995100  0.322800  1.0  0.0483
  H  H117  1  0.535200  0.834600  0.288500  1.0  0.0905
  H  H118  1  0.433400  0.733500  0.275800  1.0  0.0877
  H  H119  1  0.455600  0.620700  0.210000  1.0  0.0971
  H  H120  1  0.673900  0.723700  0.155800  1.0  0.0759
  H  H121  1  0.702600  0.506400  0.958200  1.0  0.0954
  H  H122  1  0.798200  0.413600  0.913000  1.0  0.0862
  H  H123  1  0.846700  0.298100  0.968100  1.0  0.0718
  H  H124  1  0.694300  0.359500  0.109900  1.0  0.0917
  H  H125  1  0.912800  0.214200  0.033300  1.0  0.1032
  H  H126  1  0.962500  0.112900  0.099100  1.0  0.065
  H  H127  1  0.769800  0.139600  0.208300  1.0  0.0515
  H  H128  1  0.712800  0.238900  0.145600  1.0  0.1114
  H  H129  1  0.753100  0.533000  0.149100  1.0  0.3167
  H  H130  1  0.761900  0.591100  0.097100  1.0  0.2995
  H  H131  1  0.158600  0.060300  0.658100  1.0  0.0445
  H  H132  1  0.264900  0.153500  0.642800  1.0  0.1047
  H  H133  1  0.350200  0.097800  0.812800  1.0  0.1106
  H  H134  1  0.240300  0.004900  0.822800  1.0  0.0477
  H  H135  1  0.464800  0.165400  0.788500  1.0  0.09
  H  H136  1  0.566600  0.266500  0.775800  1.0  0.0881
  H  H137  1  0.544400  0.379300  0.710000  1.0  0.097
  H  H138  1  0.326100  0.276300  0.655800  1.0  0.0761
  H  H139  1  0.297400  0.493600  0.458200  1.0  0.0944
  H  H140  1  0.201800  0.586400  0.413000  1.0  0.0863
  H  H141  1  0.153300  0.701900  0.468100  1.0  0.0716
  H  H142  1  0.305700  0.640500  0.609900  1.0  0.0915
  H  H143  1  0.087200  0.785800  0.533300  1.0  0.1015
  H  H144  1  0.037500  0.887100  0.599100  1.0  0.0645
  H  H145  1  0.230200  0.860400  0.708300  1.0  0.0529
  H  H146  1  0.287200  0.761100  0.645600  1.0  0.112
  H  H147  1  0.246900  0.467000  0.649100  1.0  0.3169
  H  H148  1  0.238100  0.408900  0.597100  1.0  0.2998
  C  C149  1  0.931700  0.802600  0.809900  1.0  0.1668
  C  C150  1  0.874800  0.738900  0.819300  1.0  -0.2257
  C  C151  1  0.859000  0.680200  0.772900  1.0  0.0729
  C  C152  1  0.907500  0.688700  0.719400  1.0  -0.2219
  C  C153  1  0.964100  0.755300  0.713900  1.0  0.1545
  C  C154  1  0.793800  0.614400  0.778600  1.0  0.0337
  C  C155  1  0.792600  0.542700  0.741200  1.0  -0.1175
  C  C156  1  0.730400  0.482700  0.747400  1.0  -0.1038
  C  C157  1  0.663800  0.495100  0.787400  1.0  -0.1324
  C  C158  1  0.661600  0.567200  0.823700  1.0  -0.0303
  C  C159  1  0.725800  0.625800  0.819400  1.0  -0.1214
  C  C160  1  0.592100  0.575600  0.868100  1.0  0.2403
  C  C161  1  0.495200  0.625700  0.931000  1.0  0.2409
  C  C162  1  0.440000  0.688300  0.961200  1.0  -0.0678
  C  C163  1  0.458500  0.720000  0.020500  1.0  -0.0993
  C  C164  1  0.403600  0.778300  0.046900  1.0  -0.097
  C  C165  1  0.333800  0.807200  0.013800  1.0  -0.0922
  C  C166  1  0.317000  0.778400  0.955000  1.0  0.0184
  C  C167  1  0.371200  0.716300  0.929300  1.0  -0.1325
  C  C168  1  0.245500  0.808800  0.917100  1.0  0.0764
  C  C169  1  0.201800  0.883100  0.930400  1.0  -0.201
  C  C170  1  0.140800  0.912900  0.890600  1.0  0.1508
  C  C171  1  0.156300  0.799800  0.826900  1.0  0.1386
  C  C172  1  0.216600  0.765300  0.864100  1.0  -0.2294
  C  C173  1  0.068300  0.197400  0.309900  1.0  0.1662
  C  C174  1  0.125200  0.261100  0.319300  1.0  -0.225
  C  C175  1  0.141000  0.319800  0.272900  1.0  0.0736
  C  C176  1  0.092500  0.311300  0.219400  1.0  -0.2215
  C  C177  1  0.035900  0.244700  0.213900  1.0  0.1553
  C  C178  1  0.206200  0.385600  0.278600  1.0  0.0352
  C  C179  1  0.207400  0.457300  0.241200  1.0  -0.1173
  C  C180  1  0.269600  0.517300  0.247400  1.0  -0.1023
  C  C181  1  0.336200  0.504900  0.287400  1.0  -0.1327
  C  C182  1  0.338400  0.432800  0.323700  1.0  -0.0306
  C  C183  1  0.274200  0.374200  0.319400  1.0  -0.1213
  C  C184  1  0.407900  0.424400  0.368100  1.0  0.2401
  C  C185  1  0.504800  0.374300  0.431000  1.0  0.2411
  C  C186  1  0.560000  0.311700  0.461200  1.0  -0.0691
  C  C187  1  0.541500  0.280000  0.520500  1.0  -0.0981
  C  C188  1  0.596400  0.221700  0.546900  1.0  -0.0962
  C  C189  1  0.666200  0.192800  0.513800  1.0  -0.0934
  C  C190  1  0.683000  0.221600  0.455000  1.0  0.018
  C  C191  1  0.628800  0.283700  0.429300  1.0  -0.132
  C  C192  1  0.754500  0.191200  0.417100  1.0  0.0761
  C  C193  1  0.798200  0.116900  0.430400  1.0  -0.2013
  C  C194  1  0.859200  0.087100  0.390600  1.0  0.152
  C  C195  1  0.843700  0.200200  0.326900  1.0  0.1401
  C  C196  1  0.783400  0.234700  0.364100  1.0  -0.2296
  C  C197  1  0.697400  0.431700  0.559900  1.0  0.1677
  C  C198  1  0.761100  0.374800  0.569300  1.0  -0.2239
  C  C199  1  0.819800  0.359000  0.522900  1.0  0.0727
  C  C200  1  0.811300  0.407500  0.469400  1.0  -0.2216
  C  C201  1  0.744700  0.464100  0.463900  1.0  0.1569
  C  C202  1  0.885600  0.293800  0.528600  1.0  0.0328
  C  C203  1  0.957300  0.292600  0.491200  1.0  -0.1174
  C  C204  1  0.017300  0.230400  0.497400  1.0  -0.1045
  C  C205  1  0.004900  0.163800  0.537400  1.0  -0.1297
  C  C206  1  0.932800  0.161600  0.573700  1.0  -0.0313
  C  C207  1  0.874200  0.225800  0.569400  1.0  -0.1223
  C  C208  1  0.924400  0.092100  0.618100  1.0  0.2406
  C  C209  1  0.874300  0.995200  0.681000  1.0  0.2396
  C  C210  1  0.811700  0.940000  0.711200  1.0  -0.0683
  C  C211  1  0.780000  0.958500  0.770500  1.0  -0.0993
  C  C212  1  0.721700  0.903600  0.796900  1.0  -0.098
  C  C213  1  0.692800  0.833800  0.763800  1.0  -0.09
  C  C214  1  0.721600  0.817000  0.705000  1.0  0.0178
  C  C215  1  0.783700  0.871200  0.679300  1.0  -0.1316
  C  C216  1  0.691200  0.745500  0.667100  1.0  0.0768
  C  C217  1  0.616900  0.701800  0.680400  1.0  -0.1972
  C  C218  1  0.587100  0.640800  0.640600  1.0  0.1533
  C  C219  1  0.700200  0.656300  0.576900  1.0  0.1411
  C  C220  1  0.734700  0.716600  0.614100  1.0  -0.2277
  C  C221  1  0.302600  0.568300  0.059900  1.0  0.1674
  C  C222  1  0.238900  0.625200  0.069300  1.0  -0.224
  C  C223  1  0.180200  0.641000  0.022900  1.0  0.0741
  C  C224  1  0.188700  0.592500  0.969400  1.0  -0.2219
  C  C225  1  0.255300  0.535900  0.963900  1.0  0.1557
  C  C226  1  0.114400  0.706200  0.028600  1.0  0.034
  C  C227  1  0.042700  0.707400  0.991200  1.0  -0.1174
  C  C228  1  0.982700  0.769600  0.997400  1.0  -0.1062
  C  C229  1  0.995100  0.836200  0.037400  1.0  -0.1291
  C  C230  1  0.067200  0.838400  0.073700  1.0  -0.0315
  C  C231  1  0.125800  0.774200  0.069400  1.0  -0.122
  C  C232  1  0.075600  0.907900  0.118100  1.0  0.2406
  C  C233  1  0.125700  0.004800  0.181000  1.0  0.2396
  C  C234  1  0.188300  0.060000  0.211200  1.0  -0.0688
  C  C235  1  0.220000  0.041500  0.270500  1.0  -0.0987
  C  C236  1  0.278300  0.096400  0.296900  1.0  -0.0976
  C  C237  1  0.307200  0.166200  0.263800  1.0  -0.0907
  C  C238  1  0.278400  0.183000  0.205000  1.0  0.0182
  C  C239  1  0.216300  0.128800  0.179300  1.0  -0.1317
  C  C240  1  0.308800  0.254500  0.167100  1.0  0.0768
  C  C241  1  0.383100  0.298200  0.180400  1.0  -0.1964
  C  C242  1  0.412900  0.359200  0.140600  1.0  0.1528
  C  C243  1  0.299800  0.343700  0.076900  1.0  0.1411
  C  C244  1  0.265300  0.283400  0.114100  1.0  -0.2265
  C  C245  1  0.568300  0.302600  0.940100  1.0  0.1654
  C  C246  1  0.625200  0.238900  0.930700  1.0  -0.2251
  C  C247  1  0.641000  0.180200  0.977100  1.0  0.0737
  C  C248  1  0.592500  0.188700  0.030600  1.0  -0.2208
  C  C249  1  0.535900  0.255300  0.036100  1.0  0.1551
  C  C250  1  0.706200  0.114400  0.971400  1.0  0.0336
  C  C251  1  0.707400  0.042700  0.008800  1.0  -0.1166
  C  C252  1  0.769600  0.982700  0.002600  1.0  -0.1033
  C  C253  1  0.836200  0.995100  0.962600  1.0  -0.1327
  C  C254  1  0.838400  0.067200  0.926300  1.0  -0.0304
  C  C255  1  0.774200  0.125800  0.930600  1.0  -0.1217
  C  C256  1  0.907900  0.075600  0.881900  1.0  0.2408
  C  C257  1  0.004800  0.125700  0.819000  1.0  0.2407
  C  C258  1  0.060000  0.188300  0.788800  1.0  -0.0685
  C  C259  1  0.041500  0.220000  0.729500  1.0  -0.0978
  C  C260  1  0.096400  0.278300  0.703100  1.0  -0.0969
  C  C261  1  0.166200  0.307200  0.736200  1.0  -0.0936
  C  C262  1  0.183000  0.278400  0.795000  1.0  0.0175
  C  C263  1  0.128800  0.216300  0.820700  1.0  -0.1303
  C  C264  1  0.254500  0.308800  0.832900  1.0  0.0755
  C  C265  1  0.298200  0.383100  0.819600  1.0  -0.2015
  C  C266  1  0.359200  0.412900  0.859400  1.0  0.1517
  C  C267  1  0.343700  0.299800  0.923100  1.0  0.1395
  C  C268  1  0.283400  0.265300  0.885900  1.0  -0.2293
  C  C269  1  0.431700  0.697400  0.440100  1.0  0.166
  C  C270  1  0.374800  0.761100  0.430700  1.0  -0.2254
  C  C271  1  0.359000  0.819800  0.477100  1.0  0.0736
  C  C272  1  0.407500  0.811300  0.530600  1.0  -0.2214
  C  C273  1  0.464100  0.744700  0.536100  1.0  0.1554
  C  C274  1  0.293800  0.885600  0.471400  1.0  0.0342
  C  C275  1  0.292600  0.957300  0.508800  1.0  -0.1183
  C  C276  1  0.230400  0.017300  0.502600  1.0  -0.1022
  C  C277  1  0.163800  0.004900  0.462600  1.0  -0.1325
  C  C278  1  0.161600  0.932800  0.426300  1.0  -0.0302
  C  C279  1  0.225800  0.874200  0.430600  1.0  -0.1218
  C  C280  1  0.092100  0.924400  0.381900  1.0  0.2401
  C  C281  1  0.995200  0.874300  0.319000  1.0  0.2412
  C  C282  1  0.940000  0.811700  0.288800  1.0  -0.0678
  C  C283  1  0.958500  0.780000  0.229500  1.0  -0.101
  C  C284  1  0.903600  0.721700  0.203100  1.0  -0.0979
  C  C285  1  0.833800  0.692800  0.236200  1.0  -0.093
  C  C286  1  0.817000  0.721600  0.295000  1.0  0.0178
  C  C287  1  0.871200  0.783700  0.320700  1.0  -0.1319
  C  C288  1  0.745500  0.691200  0.332900  1.0  0.0743
  C  C289  1  0.701800  0.616900  0.319600  1.0  -0.2014
  C  C290  1  0.640800  0.587100  0.359400  1.0  0.1515
  C  C291  1  0.656300  0.700200  0.423100  1.0  0.1382
  C  C292  1  0.716600  0.734700  0.385900  1.0  -0.2288
  C  C293  1  0.802600  0.931700  0.190100  1.0  0.1669
  C  C294  1  0.738900  0.874800  0.180700  1.0  -0.2238
  C  C295  1  0.680200  0.859000  0.227100  1.0  0.0744
  C  C296  1  0.688700  0.907500  0.280600  1.0  -0.2218
  C  C297  1  0.755300  0.964100  0.286100  1.0  0.1557
  C  C298  1  0.614400  0.793800  0.221400  1.0  0.0334
  C  C299  1  0.542700  0.792600  0.258800  1.0  -0.1176
  C  C300  1  0.482700  0.730400  0.252600  1.0  -0.1067
  C  C301  1  0.495100  0.663800  0.212600  1.0  -0.1288
  C  C302  1  0.567200  0.661600  0.176300  1.0  -0.0316
  C  C303  1  0.625800  0.725800  0.180600  1.0  -0.1225
  C  C304  1  0.575600  0.592100  0.131900  1.0  0.2408
  C  C305  1  0.625700  0.495200  0.069000  1.0  0.2396
  C  C306  1  0.688300  0.440000  0.038800  1.0  -0.0681
  C  C307  1  0.720000  0.458500  0.979500  1.0  -0.0983
  C  C308  1  0.778300  0.403600  0.953100  1.0  -0.0988
  C  C309  1  0.807200  0.333800  0.986200  1.0  -0.0909
  C  C310  1  0.778400  0.317000  0.045000  1.0  0.0175
  C  C311  1  0.716300  0.371200  0.070700  1.0  -0.1305
  C  C312  1  0.808800  0.245500  0.082900  1.0  0.0755
  C  C313  1  0.883100  0.201800  0.069600  1.0  -0.1974
  C  C314  1  0.912900  0.140800  0.109400  1.0  0.1526
  C  C315  1  0.799800  0.156300  0.173100  1.0  0.1405
  C  C316  1  0.765300  0.216600  0.135900  1.0  -0.2262
  C  C317  1  0.197400  0.068300  0.690100  1.0  0.1677
  C  C318  1  0.261100  0.125200  0.680700  1.0  -0.2238
  C  C319  1  0.319800  0.141000  0.727100  1.0  0.0738
  C  C320  1  0.311300  0.092500  0.780600  1.0  -0.2214
  C  C321  1  0.244700  0.035900  0.786100  1.0  0.157
  C  C322  1  0.385600  0.206200  0.721400  1.0  0.0335
  C  C323  1  0.457300  0.207400  0.758800  1.0  -0.1178
  C  C324  1  0.517300  0.269600  0.752600  1.0  -0.1036
  C  C325  1  0.504900  0.336200  0.712600  1.0  -0.13
  C  C326  1  0.432800  0.338400  0.676300  1.0  -0.0314
  C  C327  1  0.374200  0.274200  0.680600  1.0  -0.1222
  C  C328  1  0.424400  0.407900  0.631900  1.0  0.2405
  C  C329  1  0.374300  0.504800  0.569000  1.0  0.2399
  C  C330  1  0.311700  0.560000  0.538800  1.0  -0.0685
  C  C331  1  0.280000  0.541500  0.479500  1.0  -0.1008
  C  C332  1  0.221700  0.596400  0.453100  1.0  -0.0984
  C  C333  1  0.192800  0.666200  0.486200  1.0  -0.0895
  C  C334  1  0.221600  0.683000  0.545000  1.0  0.018
  C  C335  1  0.283700  0.628800  0.570700  1.0  -0.1309
  C  C336  1  0.191200  0.754500  0.582900  1.0  0.0753
  C  C337  1  0.116900  0.798200  0.569600  1.0  -0.1973
  C  C338  1  0.087100  0.859200  0.609400  1.0  0.1536
  C  C339  1  0.200200  0.843700  0.673100  1.0  0.1409
  C  C340  1  0.234700  0.783400  0.635900  1.0  -0.2274
  N  N341  1  0.493100  0.544200  0.933500  1.0  -0.2047
  N  N342  1  0.553500  0.511400  0.894100  1.0  -0.3159
  N  N343  1  0.556700  0.649000  0.890200  1.0  0.0576
  N  N344  1  0.577300  0.730500  0.870000  1.0  -0.568
  N  N345  1  0.976300  0.812400  0.757700  1.0  -0.3743
  N  N346  1  0.119900  0.873700  0.837800  1.0  -0.3612
  N  N347  1  0.506900  0.455800  0.433500  1.0  -0.2054
  N  N348  1  0.446500  0.488600  0.394100  1.0  -0.3161
  N  N349  1  0.443300  0.351000  0.390200  1.0  0.0575
  N  N350  1  0.422700  0.269500  0.370000  1.0  -0.5675
  N  N351  1  0.023700  0.187600  0.257700  1.0  -0.3752
  N  N352  1  0.880100  0.126300  0.337800  1.0  -0.362
  N  N353  1  0.955800  0.993100  0.683500  1.0  -0.2044
  N  N354  1  0.988600  0.053500  0.644100  1.0  -0.3176
  N  N355  1  0.851000  0.056700  0.640200  1.0  0.0566
  N  N356  1  0.769500  0.077300  0.620000  1.0  -0.5643
  N  N357  1  0.687600  0.476300  0.507700  1.0  -0.3748
  N  N358  1  0.626300  0.619900  0.587800  1.0  -0.3599
  N  N359  1  0.044200  0.006900  0.183500  1.0  -0.2053
  N  N360  1  0.011400  0.946500  0.144100  1.0  -0.3168
  N  N361  1  0.149000  0.943300  0.140200  1.0  0.058
  N  N362  1  0.230500  0.922700  0.120000  1.0  -0.5666
  N  N363  1  0.312400  0.523700  0.007700  1.0  -0.3756
  N  N364  1  0.373700  0.380100  0.087800  1.0  -0.3599
  N  N365  1  0.006900  0.044200  0.816500  1.0  -0.2042
  N  N366  1  0.946500  0.011400  0.855900  1.0  -0.3148
  N  N367  1  0.943300  0.149000  0.859800  1.0  0.0577
  N  N368  1  0.922700  0.230500  0.880000  1.0  -0.5681
  N  N369  1  0.523700  0.312400  0.992300  1.0  -0.3747
  N  N370  1  0.380100  0.373700  0.912200  1.0  -0.3621
  N  N371  1  0.993100  0.955800  0.316500  1.0  -0.2048
  N  N372  1  0.053500  0.988600  0.355900  1.0  -0.3154
  N  N373  1  0.056700  0.851000  0.359800  1.0  0.0575
  N  N374  1  0.077300  0.769500  0.380000  1.0  -0.5676
  N  N375  1  0.476300  0.687600  0.492300  1.0  -0.3746
  N  N376  1  0.619900  0.626300  0.412200  1.0  -0.3613
  N  N377  1  0.544200  0.493100  0.066500  1.0  -0.2045
  N  N378  1  0.511400  0.553500  0.105900  1.0  -0.3161
  N  N379  1  0.649000  0.556700  0.109800  1.0  0.0577
  N  N380  1  0.730500  0.577300  0.130000  1.0  -0.5656
  N  N381  1  0.812400  0.976300  0.242300  1.0  -0.376
  N  N382  1  0.873700  0.119900  0.162200  1.0  -0.3597
  N  N383  1  0.455800  0.506900  0.566500  1.0  -0.2039
  N  N384  1  0.488600  0.446500  0.605900  1.0  -0.3165
  N  N385  1  0.351000  0.443300  0.609800  1.0  0.0568
  N  N386  1  0.269500  0.422700  0.630000  1.0  -0.5643
  N  N387  1  0.187600  0.023700  0.742300  1.0  -0.3745
  N  N388  1  0.126300  0.880100  0.662200  1.0  -0.3602
