# generated using pymatgen
data_CdH36(C4N)12
_symmetry_space_group_name_H-M   'P 1'
_cell_length_a   15.87740000
_cell_length_b   15.87740000
_cell_length_c   21.47400000
_cell_angle_alpha   90.00000000
_cell_angle_beta   90.00000000
_cell_angle_gamma   90.00000000
_symmetry_Int_Tables_number   1
_chemical_formula_structural   CdH36(C4N)12
_chemical_formula_sum   'Cd4 H144 C192 N48'
_cell_volume   5413.41997374
_cell_formula_units_Z   4
loop_
 _symmetry_equiv_pos_site_id
 _symmetry_equiv_pos_as_xyz
  1  'x, y, z'
loop_
 _atom_site_type_symbol
 _atom_site_label
 _atom_site_symmetry_multiplicity
 _atom_site_fract_x
 _atom_site_fract_y
 _atom_site_fract_z
 _atom_site_occupancy
 _atom_site_charge
  Cd  Cd1  1  0.940790  0.059210  0.750000  1.0  0.7906
  Cd  Cd2  1  0.059210  0.940790  0.250000  1.0  0.7902
  Cd  Cd3  1  0.440790  0.440790  0.500000  1.0  0.7908
  Cd  Cd4  1  0.559210  0.559210  0.000000  1.0  0.79
  H  H5  1  0.008000  0.237800  0.675100  1.0  0.0507
  H  H6  1  0.100400  0.349000  0.685300  1.0  0.1204
  H  H7  1  0.153100  0.267600  0.858300  1.0  0.1138
  H  H8  1  0.058900  0.158700  0.843000  1.0  0.0517
  H  H9  1  0.159100  0.468500  0.714100  1.0  0.1034
  H  H10  1  0.264900  0.568200  0.722500  1.0  0.0911
  H  H11  1  0.376900  0.548400  0.791300  1.0  0.1
  H  H12  1  0.275200  0.326700  0.845000  1.0  0.0823
  H  H13  1  0.492200  0.299200  0.041400  1.0  0.0815
  H  H14  1  0.585500  0.202300  0.086300  1.0  0.0842
  H  H15  1  0.699400  0.151700  0.031500  1.0  0.0775
  H  H16  1  0.638700  0.305200  0.887900  1.0  0.1
  H  H17  1  0.785800  0.088500  0.967500  1.0  0.1136
  H  H18  1  0.889200  0.039600  0.902000  1.0  0.0655
  H  H19  1  0.860600  0.231700  0.790400  1.0  0.0638
  H  H20  1  0.759300  0.289100  0.853500  1.0  0.1184
  H  H21  1  0.472100  0.243900  0.857300  1.0  0.2797
  H  H22  1  0.396800  0.242300  0.898500  1.0  0.2889
  H  H23  1  0.992000  0.762200  0.175100  1.0  0.0507
  H  H24  1  0.899600  0.651000  0.185300  1.0  0.1202
  H  H25  1  0.846900  0.732400  0.358300  1.0  0.114
  H  H26  1  0.941100  0.841300  0.343000  1.0  0.0511
  H  H27  1  0.840900  0.531500  0.214100  1.0  0.1027
  H  H28  1  0.735100  0.431800  0.222500  1.0  0.0907
  H  H29  1  0.623100  0.451600  0.291300  1.0  0.1004
  H  H30  1  0.724800  0.673300  0.345000  1.0  0.0817
  H  H31  1  0.507800  0.700800  0.541400  1.0  0.0812
  H  H32  1  0.414500  0.797700  0.586300  1.0  0.0843
  H  H33  1  0.300600  0.848300  0.531500  1.0  0.078
  H  H34  1  0.361300  0.694800  0.387900  1.0  0.1
  H  H35  1  0.214200  0.911500  0.467500  1.0  0.1131
  H  H36  1  0.110800  0.960400  0.402000  1.0  0.0651
  H  H37  1  0.139400  0.768300  0.290400  1.0  0.0644
  H  H38  1  0.240700  0.710900  0.353500  1.0  0.1184
  H  H39  1  0.527900  0.756100  0.357300  1.0  0.2808
  H  H40  1  0.603200  0.757700  0.398500  1.0  0.289
  H  H41  1  0.262200  0.508000  0.425100  1.0  0.0504
  H  H42  1  0.151000  0.600400  0.435300  1.0  0.1201
  H  H43  1  0.232400  0.653100  0.608300  1.0  0.1139
  H  H44  1  0.341300  0.558900  0.593000  1.0  0.051
  H  H45  1  0.031500  0.659100  0.464100  1.0  0.1029
  H  H46  1  0.931800  0.764900  0.472500  1.0  0.0902
  H  H47  1  0.951600  0.876900  0.541300  1.0  0.1004
  H  H48  1  0.173300  0.775200  0.595000  1.0  0.0816
  H  H49  1  0.200800  0.992200  0.791400  1.0  0.0826
  H  H50  1  0.297700  0.085500  0.836300  1.0  0.083
  H  H51  1  0.348300  0.199400  0.781500  1.0  0.077
  H  H52  1  0.194800  0.138700  0.637900  1.0  0.1009
  H  H53  1  0.411500  0.285800  0.717500  1.0  0.1123
  H  H54  1  0.460400  0.389200  0.652000  1.0  0.0654
  H  H55  1  0.268300  0.360600  0.540400  1.0  0.0628
  H  H56  1  0.210900  0.259300  0.603500  1.0  0.1182
  H  H57  1  0.256100  0.972100  0.607300  1.0  0.2795
  H  H58  1  0.257700  0.896800  0.648500  1.0  0.2894
  H  H59  1  0.737800  0.492000  0.925100  1.0  0.0502
  H  H60  1  0.849000  0.399600  0.935300  1.0  0.1203
  H  H61  1  0.767600  0.346900  0.108300  1.0  0.1142
  H  H62  1  0.658700  0.441100  0.093000  1.0  0.0512
  H  H63  1  0.968500  0.340900  0.964100  1.0  0.1036
  H  H64  1  0.068200  0.235100  0.972500  1.0  0.091
  H  H65  1  0.048400  0.123100  0.041300  1.0  0.1009
  H  H66  1  0.826700  0.224800  0.095000  1.0  0.0815
  H  H67  1  0.799200  0.007800  0.291400  1.0  0.0818
  H  H68  1  0.702300  0.914500  0.336300  1.0  0.0836
  H  H69  1  0.651700  0.800600  0.281500  1.0  0.0767
  H  H70  1  0.805200  0.861300  0.137900  1.0  0.1008
  H  H71  1  0.588500  0.714200  0.217500  1.0  0.1121
  H  H72  1  0.539600  0.610800  0.152000  1.0  0.0647
  H  H73  1  0.731700  0.639400  0.040400  1.0  0.0649
  H  H74  1  0.789100  0.740700  0.103500  1.0  0.1185
  H  H75  1  0.743900  0.027900  0.107300  1.0  0.2791
  H  H76  1  0.742300  0.103200  0.148500  1.0  0.2893
  H  H77  1  0.492000  0.737800  0.074900  1.0  0.0508
  H  H78  1  0.399600  0.849000  0.064700  1.0  0.1203
  H  H79  1  0.346900  0.767600  0.891700  1.0  0.1145
  H  H80  1  0.441100  0.658700  0.907000  1.0  0.0516
  H  H81  1  0.340900  0.968500  0.035900  1.0  0.1023
  H  H82  1  0.235100  0.068200  0.027500  1.0  0.0904
  H  H83  1  0.123100  0.048400  0.958700  1.0  0.1005
  H  H84  1  0.224800  0.826700  0.905000  1.0  0.0823
  H  H85  1  0.007800  0.799200  0.708600  1.0  0.0813
  H  H86  1  0.914500  0.702300  0.663700  1.0  0.0842
  H  H87  1  0.800600  0.651700  0.718500  1.0  0.0776
  H  H88  1  0.861300  0.805200  0.862100  1.0  0.0995
  H  H89  1  0.714200  0.588500  0.782500  1.0  0.1125
  H  H90  1  0.610800  0.539600  0.848000  1.0  0.0648
  H  H91  1  0.639400  0.731700  0.959600  1.0  0.0637
  H  H92  1  0.740700  0.789100  0.896500  1.0  0.1189
  H  H93  1  0.027900  0.743900  0.892700  1.0  0.2805
  H  H94  1  0.103200  0.742300  0.851500  1.0  0.2884
  H  H95  1  0.508000  0.262200  0.574900  1.0  0.0501
  H  H96  1  0.600400  0.151000  0.564700  1.0  0.1207
  H  H97  1  0.653100  0.232400  0.391700  1.0  0.1143
  H  H98  1  0.558900  0.341300  0.407000  1.0  0.0512
  H  H99  1  0.659100  0.031500  0.535900  1.0  0.1029
  H  H100  1  0.764900  0.931800  0.527500  1.0  0.091
  H  H101  1  0.876900  0.951600  0.458700  1.0  0.1005
  H  H102  1  0.775200  0.173300  0.405000  1.0  0.0828
  H  H103  1  0.992200  0.200800  0.208600  1.0  0.0812
  H  H104  1  0.085500  0.297700  0.163700  1.0  0.0844
  H  H105  1  0.199400  0.348300  0.218500  1.0  0.0781
  H  H106  1  0.138700  0.194800  0.362100  1.0  0.0996
  H  H107  1  0.285800  0.411500  0.282500  1.0  0.1126
  H  H108  1  0.389200  0.460400  0.348000  1.0  0.0647
  H  H109  1  0.360600  0.268300  0.459600  1.0  0.0644
  H  H110  1  0.259300  0.210900  0.396500  1.0  0.1193
  H  H111  1  0.972100  0.256100  0.392700  1.0  0.2805
  H  H112  1  0.896800  0.257700  0.351500  1.0  0.2886
  H  H113  1  0.237800  0.008000  0.324900  1.0  0.0494
  H  H114  1  0.349000  0.100400  0.314700  1.0  0.1207
  H  H115  1  0.267600  0.153100  0.141700  1.0  0.1145
  H  H116  1  0.158700  0.058900  0.157000  1.0  0.0509
  H  H117  1  0.468500  0.159100  0.285900  1.0  0.1027
  H  H118  1  0.568200  0.264900  0.277500  1.0  0.0909
  H  H119  1  0.548400  0.376900  0.208700  1.0  0.1006
  H  H120  1  0.326700  0.275200  0.155000  1.0  0.0822
  H  H121  1  0.299200  0.492200  0.958600  1.0  0.0819
  H  H122  1  0.202300  0.585500  0.913700  1.0  0.0834
  H  H123  1  0.151700  0.699400  0.968500  1.0  0.0767
  H  H124  1  0.305200  0.638700  0.112100  1.0  0.1003
  H  H125  1  0.088500  0.785800  0.032500  1.0  0.1114
  H  H126  1  0.039600  0.889200  0.098000  1.0  0.065
  H  H127  1  0.231700  0.860600  0.209600  1.0  0.0641
  H  H128  1  0.289100  0.759300  0.146500  1.0  0.1191
  H  H129  1  0.243900  0.472100  0.142700  1.0  0.2799
  H  H130  1  0.242300  0.396800  0.101500  1.0  0.2883
  H  H131  1  0.762200  0.992000  0.824900  1.0  0.0502
  H  H132  1  0.651000  0.899600  0.814700  1.0  0.1202
  H  H133  1  0.732400  0.846900  0.641700  1.0  0.1146
  H  H134  1  0.841300  0.941100  0.657000  1.0  0.0511
  H  H135  1  0.531500  0.840900  0.785900  1.0  0.1028
  H  H136  1  0.431800  0.735100  0.777500  1.0  0.0903
  H  H137  1  0.451600  0.623100  0.708700  1.0  0.1006
  H  H138  1  0.673300  0.724800  0.655000  1.0  0.0817
  H  H139  1  0.700800  0.507800  0.458600  1.0  0.0827
  H  H140  1  0.797700  0.414500  0.413700  1.0  0.0835
  H  H141  1  0.848300  0.300600  0.468500  1.0  0.0773
  H  H142  1  0.694800  0.361300  0.612100  1.0  0.1003
  H  H143  1  0.911500  0.214200  0.532500  1.0  0.1124
  H  H144  1  0.960400  0.110800  0.598000  1.0  0.0651
  H  H145  1  0.768300  0.139400  0.709600  1.0  0.0632
  H  H146  1  0.710900  0.240700  0.646500  1.0  0.1186
  H  H147  1  0.756100  0.527900  0.642700  1.0  0.2798
  H  H148  1  0.757700  0.603200  0.601500  1.0  0.2893
  C  C149  1  0.038100  0.243600  0.713100  1.0  0.1545
  C  C150  1  0.093900  0.310100  0.718600  1.0  -0.2241
  C  C151  1  0.139900  0.320000  0.772400  1.0  0.1065
  C  C152  1  0.124600  0.262600  0.819600  1.0  -0.233
  C  C153  1  0.067600  0.197900  0.810100  1.0  0.1581
  C  C154  1  0.206600  0.386400  0.778900  1.0  0.0256
  C  C155  1  0.204300  0.459700  0.742300  1.0  -0.1207
  C  C156  1  0.267200  0.518700  0.747300  1.0  -0.1049
  C  C157  1  0.334000  0.507000  0.787800  1.0  -0.1326
  C  C158  1  0.337400  0.434000  0.823300  1.0  -0.0012
  C  C159  1  0.273400  0.375400  0.819400  1.0  -0.13
  C  C160  1  0.407400  0.425800  0.867200  1.0  0.2465
  C  C161  1  0.503800  0.374700  0.930200  1.0  0.2389
  C  C162  1  0.559200  0.312400  0.960400  1.0  -0.0435
  C  C163  1  0.540800  0.281000  0.019400  1.0  -0.1263
  C  C164  1  0.595600  0.222400  0.045300  1.0  -0.0952
  C  C165  1  0.663900  0.192900  0.013100  1.0  -0.1234
  C  C166  1  0.681800  0.222800  0.953000  1.0  0.0202
  C  C167  1  0.627600  0.283400  0.928300  1.0  -0.1409
  C  C168  1  0.753900  0.192500  0.916100  1.0  0.0842
  C  C169  1  0.798200  0.118500  0.930400  1.0  -0.2224
  C  C170  1  0.859700  0.089300  0.890600  1.0  0.1446
  C  C171  1  0.843300  0.201200  0.826200  1.0  0.1417
  C  C172  1  0.782400  0.235600  0.863500  1.0  -0.2318
  C  C173  1  0.961900  0.756400  0.213100  1.0  0.1533
  C  C174  1  0.906100  0.689900  0.218600  1.0  -0.2251
  C  C175  1  0.860100  0.680000  0.272400  1.0  0.1061
  C  C176  1  0.875400  0.737400  0.319600  1.0  -0.2332
  C  C177  1  0.932400  0.802100  0.310100  1.0  0.1591
  C  C178  1  0.793400  0.613600  0.278900  1.0  0.0241
  C  C179  1  0.795700  0.540300  0.242300  1.0  -0.1207
  C  C180  1  0.732800  0.481300  0.247300  1.0  -0.105
  C  C181  1  0.666000  0.493000  0.287800  1.0  -0.1331
  C  C182  1  0.662600  0.566000  0.323300  1.0  -0.0009
  C  C183  1  0.726600  0.624600  0.319400  1.0  -0.1291
  C  C184  1  0.592600  0.574200  0.367200  1.0  0.2459
  C  C185  1  0.496200  0.625300  0.430200  1.0  0.2388
  C  C186  1  0.440800  0.687600  0.460400  1.0  -0.0429
  C  C187  1  0.459200  0.719000  0.519400  1.0  -0.1278
  C  C188  1  0.404400  0.777600  0.545300  1.0  -0.0957
  C  C189  1  0.336100  0.807100  0.513100  1.0  -0.1238
  C  C190  1  0.318200  0.777200  0.453000  1.0  0.0204
  C  C191  1  0.372400  0.716600  0.428300  1.0  -0.1416
  C  C192  1  0.246100  0.807500  0.416100  1.0  0.0843
  C  C193  1  0.201800  0.881500  0.430400  1.0  -0.2226
  C  C194  1  0.140300  0.910700  0.390600  1.0  0.1443
  C  C195  1  0.156700  0.798800  0.326200  1.0  0.1395
  C  C196  1  0.217600  0.764400  0.363500  1.0  -0.2328
  C  C197  1  0.256400  0.538100  0.463100  1.0  0.1551
  C  C198  1  0.189900  0.593900  0.468600  1.0  -0.2256
  C  C199  1  0.180000  0.639900  0.522400  1.0  0.1065
  C  C200  1  0.237400  0.624600  0.569600  1.0  -0.2321
  C  C201  1  0.302100  0.567600  0.560100  1.0  0.1593
  C  C202  1  0.113600  0.706600  0.528900  1.0  0.024
  C  C203  1  0.040300  0.704300  0.492300  1.0  -0.1207
  C  C204  1  0.981300  0.767200  0.497300  1.0  -0.109
  C  C205  1  0.993000  0.834000  0.537800  1.0  -0.1308
  C  C206  1  0.066000  0.837400  0.573300  1.0  -0.002
  C  C207  1  0.124600  0.773400  0.569400  1.0  -0.1309
  C  C208  1  0.074200  0.907400  0.617200  1.0  0.2452
  C  C209  1  0.125300  0.003800  0.680200  1.0  0.239
  C  C210  1  0.187600  0.059200  0.710400  1.0  -0.044
  C  C211  1  0.219000  0.040800  0.769400  1.0  -0.1285
  C  C212  1  0.277600  0.095600  0.795300  1.0  -0.0955
  C  C213  1  0.307100  0.163900  0.763100  1.0  -0.1217
  C  C214  1  0.277200  0.181800  0.703000  1.0  0.0204
  C  C215  1  0.216600  0.127600  0.678300  1.0  -0.1414
  C  C216  1  0.307500  0.253900  0.666100  1.0  0.0844
  C  C217  1  0.381500  0.298200  0.680400  1.0  -0.2191
  C  C218  1  0.410700  0.359700  0.640600  1.0  0.1457
  C  C219  1  0.298800  0.343300  0.576200  1.0  0.1424
  C  C220  1  0.264400  0.282400  0.613500  1.0  -0.2305
  C  C221  1  0.743600  0.461900  0.963100  1.0  0.1565
  C  C222  1  0.810100  0.406100  0.968600  1.0  -0.224
  C  C223  1  0.820000  0.360100  0.022400  1.0  0.1053
  C  C224  1  0.762600  0.375400  0.069600  1.0  -0.2322
  C  C225  1  0.697900  0.432400  0.060100  1.0  0.1594
  C  C226  1  0.886400  0.293400  0.028900  1.0  0.0231
  C  C227  1  0.959700  0.295700  0.992300  1.0  -0.1219
  C  C228  1  0.018700  0.232800  0.997300  1.0  -0.1078
  C  C229  1  0.007000  0.166000  0.037800  1.0  -0.1325
  C  C230  1  0.934000  0.162600  0.073300  1.0  -0.0022
  C  C231  1  0.875400  0.226600  0.069400  1.0  -0.1311
  C  C232  1  0.925800  0.092600  0.117200  1.0  0.246
  C  C233  1  0.874700  0.996200  0.180200  1.0  0.2388
  C  C234  1  0.812400  0.940800  0.210400  1.0  -0.0434
  C  C235  1  0.781000  0.959200  0.269400  1.0  -0.1284
  C  C236  1  0.722400  0.904400  0.295300  1.0  -0.0955
  C  C237  1  0.692900  0.836100  0.263100  1.0  -0.121
  C  C238  1  0.722800  0.818200  0.203000  1.0  0.0203
  C  C239  1  0.783400  0.872400  0.178300  1.0  -0.1415
  C  C240  1  0.692500  0.746100  0.166100  1.0  0.0843
  C  C241  1  0.618500  0.701800  0.180400  1.0  -0.2194
  C  C242  1  0.589300  0.640300  0.140600  1.0  0.1462
  C  C243  1  0.701200  0.656700  0.076200  1.0  0.1422
  C  C244  1  0.735600  0.717600  0.113500  1.0  -0.2311
  C  C245  1  0.461900  0.743600  0.036900  1.0  0.1546
  C  C246  1  0.406100  0.810100  0.031400  1.0  -0.2251
  C  C247  1  0.360100  0.820000  0.977600  1.0  0.1058
  C  C248  1  0.375400  0.762600  0.930400  1.0  -0.2334
  C  C249  1  0.432400  0.697900  0.939900  1.0  0.1586
  C  C250  1  0.293400  0.886400  0.971100  1.0  0.0244
  C  C251  1  0.295700  0.959700  0.007700  1.0  -0.1215
  C  C252  1  0.232800  0.018700  0.002700  1.0  -0.105
  C  C253  1  0.166000  0.007000  0.962200  1.0  -0.1335
  C  C254  1  0.162600  0.934000  0.926700  1.0  -0.0011
  C  C255  1  0.226600  0.875400  0.930600  1.0  -0.1288
  C  C256  1  0.092600  0.925800  0.882800  1.0  0.2461
  C  C257  1  0.996200  0.874700  0.819800  1.0  0.2391
  C  C258  1  0.940800  0.812400  0.789600  1.0  -0.0427
  C  C259  1  0.959200  0.781000  0.730600  1.0  -0.1281
  C  C260  1  0.904400  0.722400  0.704700  1.0  -0.0953
  C  C261  1  0.836100  0.692900  0.736900  1.0  -0.1231
  C  C262  1  0.818200  0.722800  0.797000  1.0  0.0211
  C  C263  1  0.872400  0.783400  0.821700  1.0  -0.1393
  C  C264  1  0.746100  0.692500  0.833900  1.0  0.0832
  C  C265  1  0.701800  0.618500  0.819600  1.0  -0.2226
  C  C266  1  0.640300  0.589300  0.859400  1.0  0.1443
  C  C267  1  0.656700  0.701200  0.923800  1.0  0.1393
  C  C268  1  0.717600  0.735600  0.886500  1.0  -0.2318
  C  C269  1  0.538100  0.256400  0.536900  1.0  0.1545
  C  C270  1  0.593900  0.189900  0.531400  1.0  -0.2237
  C  C271  1  0.639900  0.180000  0.477600  1.0  0.1063
  C  C272  1  0.624600  0.237400  0.430400  1.0  -0.233
  C  C273  1  0.567600  0.302100  0.439900  1.0  0.158
  C  C274  1  0.706600  0.113600  0.471100  1.0  0.0245
  C  C275  1  0.704300  0.040300  0.507700  1.0  -0.1195
  C  C276  1  0.767200  0.981300  0.502700  1.0  -0.1057
  C  C277  1  0.834000  0.993000  0.462200  1.0  -0.1335
  C  C278  1  0.837400  0.066000  0.426700  1.0  -0.001
  C  C279  1  0.773400  0.124600  0.430600  1.0  -0.1299
  C  C280  1  0.907400  0.074200  0.382800  1.0  0.2466
  C  C281  1  0.003800  0.125300  0.319800  1.0  0.2392
  C  C282  1  0.059200  0.187600  0.289600  1.0  -0.0425
  C  C283  1  0.040800  0.219000  0.230600  1.0  -0.1264
  C  C284  1  0.095600  0.277600  0.204700  1.0  -0.0946
  C  C285  1  0.163900  0.307100  0.236900  1.0  -0.1233
  C  C286  1  0.181800  0.277200  0.297000  1.0  0.0199
  C  C287  1  0.127600  0.216600  0.321700  1.0  -0.1394
  C  C288  1  0.253900  0.307500  0.333900  1.0  0.0842
  C  C289  1  0.298200  0.381500  0.319600  1.0  -0.2237
  C  C290  1  0.359700  0.410700  0.359400  1.0  0.1445
  C  C291  1  0.343300  0.298800  0.423800  1.0  0.1408
  C  C292  1  0.282400  0.264400  0.386500  1.0  -0.233
  C  C293  1  0.243600  0.038100  0.286900  1.0  0.1563
  C  C294  1  0.310100  0.093900  0.281400  1.0  -0.2254
  C  C295  1  0.320000  0.139900  0.227600  1.0  0.1057
  C  C296  1  0.262600  0.124600  0.180400  1.0  -0.2321
  C  C297  1  0.197900  0.067600  0.189900  1.0  0.1595
  C  C298  1  0.386400  0.206600  0.221100  1.0  0.0231
  C  C299  1  0.459700  0.204300  0.257700  1.0  -0.1212
  C  C300  1  0.518700  0.267200  0.252700  1.0  -0.1075
  C  C301  1  0.507000  0.334000  0.212200  1.0  -0.1327
  C  C302  1  0.434000  0.337400  0.176700  1.0  -0.0024
  C  C303  1  0.375400  0.273400  0.180600  1.0  -0.1304
  C  C304  1  0.425800  0.407400  0.132800  1.0  0.2458
  C  C305  1  0.374700  0.503800  0.069800  1.0  0.239
  C  C306  1  0.312400  0.559200  0.039600  1.0  -0.0431
  C  C307  1  0.281000  0.540800  0.980600  1.0  -0.129
  C  C308  1  0.222400  0.595600  0.954700  1.0  -0.0953
  C  C309  1  0.192900  0.663900  0.986900  1.0  -0.1199
  C  C310  1  0.222800  0.681800  0.047000  1.0  0.0208
  C  C311  1  0.283400  0.627600  0.071700  1.0  -0.1396
  C  C312  1  0.192500  0.753900  0.083900  1.0  0.0839
  C  C313  1  0.118500  0.798200  0.069600  1.0  -0.22
  C  C314  1  0.089300  0.859700  0.109400  1.0  0.1461
  C  C315  1  0.201200  0.843300  0.173800  1.0  0.1417
  C  C316  1  0.235600  0.782400  0.136500  1.0  -0.2316
  C  C317  1  0.756400  0.961900  0.786900  1.0  0.1562
  C  C318  1  0.689900  0.906100  0.781400  1.0  -0.2249
  C  C319  1  0.680000  0.860100  0.727600  1.0  0.1063
  C  C320  1  0.737400  0.875400  0.680400  1.0  -0.2322
  C  C321  1  0.802100  0.932400  0.689900  1.0  0.1591
  C  C322  1  0.613600  0.793400  0.721100  1.0  0.0238
  C  C323  1  0.540300  0.795700  0.757700  1.0  -0.1213
  C  C324  1  0.481300  0.732800  0.752700  1.0  -0.1091
  C  C325  1  0.493000  0.666000  0.712200  1.0  -0.1319
  C  C326  1  0.566000  0.662600  0.676700  1.0  -0.002
  C  C327  1  0.624600  0.726600  0.680600  1.0  -0.1306
  C  C328  1  0.574200  0.592600  0.632800  1.0  0.2454
  C  C329  1  0.625300  0.496200  0.569800  1.0  0.2396
  C  C330  1  0.687600  0.440800  0.539600  1.0  -0.0431
  C  C331  1  0.719000  0.459200  0.480600  1.0  -0.128
  C  C332  1  0.777600  0.404400  0.454700  1.0  -0.0946
  C  C333  1  0.807100  0.336100  0.486900  1.0  -0.1224
  C  C334  1  0.777200  0.318200  0.547000  1.0  0.0206
  C  C335  1  0.716600  0.372400  0.571700  1.0  -0.1396
  C  C336  1  0.807500  0.246100  0.583900  1.0  0.0839
  C  C337  1  0.881500  0.201800  0.569600  1.0  -0.22
  C  C338  1  0.910700  0.140300  0.609400  1.0  0.1455
  C  C339  1  0.798800  0.156700  0.673800  1.0  0.1421
  C  C340  1  0.764400  0.217600  0.636500  1.0  -0.2311
  N  N341  1  0.024100  0.187400  0.757600  1.0  -0.3702
  N  N342  1  0.445300  0.489900  0.894150  1.0  -0.308
  N  N343  1  0.506500  0.456900  0.933500  1.0  -0.242
  N  N344  1  0.443000  0.352500  0.888630  1.0  0.0646
  N  N345  1  0.423500  0.271100  0.867600  1.0  -0.5609
  N  N346  1  0.880000  0.126400  0.837600  1.0  -0.3534
  N  N347  1  0.975900  0.812600  0.257600  1.0  -0.3696
  N  N348  1  0.554700  0.510100  0.394150  1.0  -0.3076
  N  N349  1  0.493500  0.543100  0.433500  1.0  -0.2414
  N  N350  1  0.557000  0.647500  0.388630  1.0  0.0646
  N  N351  1  0.576500  0.728900  0.367600  1.0  -0.5617
  N  N352  1  0.120000  0.873600  0.337600  1.0  -0.3529
  N  N353  1  0.312600  0.524100  0.507600  1.0  -0.3701
  N  N354  1  0.010100  0.945300  0.644150  1.0  -0.3082
  N  N355  1  0.043100  0.006500  0.683500  1.0  -0.2412
  N  N356  1  0.147500  0.943000  0.638630  1.0  0.0644
  N  N357  1  0.228900  0.923500  0.617600  1.0  -0.5602
  N  N358  1  0.373600  0.380000  0.587600  1.0  -0.353
  N  N359  1  0.687400  0.475900  0.007600  1.0  -0.3698
  N  N360  1  0.989900  0.054700  0.144150  1.0  -0.3088
  N  N361  1  0.956900  0.993500  0.183500  1.0  -0.241
  N  N362  1  0.852500  0.057000  0.138630  1.0  0.064
  N  N363  1  0.771100  0.076500  0.117600  1.0  -0.5604
  N  N364  1  0.626400  0.620000  0.087600  1.0  -0.3534
  N  N365  1  0.475900  0.687400  0.992400  1.0  -0.3702
  N  N366  1  0.054700  0.989900  0.855850  1.0  -0.3067
  N  N367  1  0.993500  0.956900  0.816500  1.0  -0.2418
  N  N368  1  0.057000  0.852500  0.861370  1.0  0.0648
  N  N369  1  0.076500  0.771100  0.882400  1.0  -0.5612
  N  N370  1  0.620000  0.626400  0.912400  1.0  -0.3531
  N  N371  1  0.524100  0.312600  0.492400  1.0  -0.37
  N  N372  1  0.945300  0.010100  0.355850  1.0  -0.3061
  N  N373  1  0.006500  0.043100  0.316500  1.0  -0.2415
  N  N374  1  0.943000  0.147500  0.361370  1.0  0.0648
  N  N375  1  0.923500  0.228900  0.382400  1.0  -0.562
  N  N376  1  0.380000  0.373600  0.412400  1.0  -0.3531
  N  N377  1  0.187400  0.024100  0.242400  1.0  -0.3697
  N  N378  1  0.489900  0.445300  0.105850  1.0  -0.3069
  N  N379  1  0.456900  0.506500  0.066500  1.0  -0.2409
  N  N380  1  0.352500  0.443000  0.111370  1.0  0.0642
  N  N381  1  0.271100  0.423500  0.132400  1.0  -0.5605
  N  N382  1  0.126400  0.880000  0.162400  1.0  -0.3533
  N  N383  1  0.812600  0.975900  0.742400  1.0  -0.3707
  N  N384  1  0.510100  0.554700  0.605850  1.0  -0.3069
  N  N385  1  0.543100  0.493500  0.566500  1.0  -0.2415
  N  N386  1  0.647500  0.557000  0.611370  1.0  0.0644
  N  N387  1  0.728900  0.576500  0.632400  1.0  -0.56
  N  N388  1  0.873600  0.120000  0.662400  1.0  -0.3524
