# generated using pymatgen
data_CdH36(C4N)12
_symmetry_space_group_name_H-M   'P 1'
_cell_length_a   15.86980000
_cell_length_b   15.86980000
_cell_length_c   21.64100000
_cell_angle_alpha   90.00000000
_cell_angle_beta   90.00000000
_cell_angle_gamma   90.00000000
_symmetry_Int_Tables_number   1
_chemical_formula_structural   CdH36(C4N)12
_chemical_formula_sum   'Cd4 H144 C192 N48'
_cell_volume   5450.29779670
_cell_formula_units_Z   4
loop_
 _symmetry_equiv_pos_site_id
 _symmetry_equiv_pos_as_xyz
  1  'x, y, z'
loop_
 _atom_site_type_symbol
 _atom_site_label
 _atom_site_symmetry_multiplicity
 _atom_site_fract_x
 _atom_site_fract_y
 _atom_site_fract_z
 _atom_site_occupancy
 _atom_site_charge
  Cd  Cd1  1  0.940140  0.059860  0.750000  1.0  0.7825
  Cd  Cd2  1  0.059860  0.940140  0.250000  1.0  0.7822
  Cd  Cd3  1  0.440140  0.440140  0.500000  1.0  0.7827
  Cd  Cd4  1  0.559860  0.559860  0.000000  1.0  0.782
  H  H5  1  0.492600  0.740500  0.072600  1.0  0.0499
  H  H6  1  0.401100  0.851000  0.062400  1.0  0.118
  H  H7  1  0.348400  0.767900  0.892700  1.0  0.1078
  H  H8  1  0.442600  0.661100  0.908000  1.0  0.0449
  H  H9  1  0.337500  0.966900  0.035800  1.0  0.0956
  H  H10  1  0.233200  0.067000  0.026400  1.0  0.0913
  H  H11  1  0.122200  0.046300  0.959300  1.0  0.0931
  H  H12  1  0.224800  0.827600  0.905600  1.0  0.0846
  H  H13  1  0.004100  0.800000  0.708300  1.0  0.0953
  H  H14  1  0.911200  0.706200  0.664100  1.0  0.0896
  H  H15  1  0.796500  0.656900  0.718200  1.0  0.0731
  H  H16  1  0.859800  0.804700  0.860900  1.0  0.1139
  H  H17  1  0.738300  0.789900  0.894600  1.0  0.1129
  H  H18  1  0.641200  0.731900  0.958000  1.0  0.0659
  H  H19  1  0.613500  0.538700  0.849400  1.0  0.0655
  H  H20  1  0.714200  0.588800  0.783900  1.0  0.1147
  H  H21  1  0.096500  0.741400  0.848300  1.0  0.3228
  H  H22  1  0.031200  0.746100  0.895300  1.0  0.318
  H  H23  1  0.507400  0.259500  0.572600  1.0  0.0491
  H  H24  1  0.598900  0.149000  0.562400  1.0  0.119
  H  H25  1  0.651600  0.232100  0.392700  1.0  0.1073
  H  H26  1  0.557400  0.338900  0.408000  1.0  0.0446
  H  H27  1  0.662500  0.033100  0.535800  1.0  0.0958
  H  H28  1  0.766800  0.933000  0.526400  1.0  0.0919
  H  H29  1  0.877800  0.953700  0.459300  1.0  0.0935
  H  H30  1  0.775200  0.172400  0.405600  1.0  0.0854
  H  H31  1  0.995900  0.200000  0.208300  1.0  0.0947
  H  H32  1  0.088800  0.293800  0.164100  1.0  0.0896
  H  H33  1  0.203500  0.343100  0.218200  1.0  0.0736
  H  H34  1  0.140200  0.195300  0.360900  1.0  0.1142
  H  H35  1  0.261700  0.210100  0.394600  1.0  0.1131
  H  H36  1  0.358800  0.268100  0.458000  1.0  0.0664
  H  H37  1  0.386500  0.461300  0.349400  1.0  0.0664
  H  H38  1  0.285800  0.411200  0.283900  1.0  0.1151
  H  H39  1  0.903500  0.258600  0.348300  1.0  0.3225
  H  H40  1  0.968800  0.253900  0.395300  1.0  0.3182
  H  H41  1  0.759500  0.992600  0.822600  1.0  0.0492
  H  H42  1  0.649000  0.901100  0.812400  1.0  0.1189
  H  H43  1  0.732100  0.848400  0.642700  1.0  0.1079
  H  H44  1  0.838900  0.942600  0.658000  1.0  0.0445
  H  H45  1  0.533100  0.837500  0.785800  1.0  0.0961
  H  H46  1  0.433000  0.733200  0.776400  1.0  0.0912
  H  H47  1  0.453700  0.622200  0.709300  1.0  0.0939
  H  H48  1  0.672400  0.724800  0.655600  1.0  0.0844
  H  H49  1  0.700000  0.504100  0.458300  1.0  0.0957
  H  H50  1  0.793800  0.411200  0.414100  1.0  0.0893
  H  H51  1  0.843100  0.296500  0.468200  1.0  0.0732
  H  H52  1  0.695300  0.359800  0.610900  1.0  0.1143
  H  H53  1  0.710100  0.238300  0.644600  1.0  0.1132
  H  H54  1  0.768100  0.141200  0.708000  1.0  0.0665
  H  H55  1  0.961300  0.113500  0.599400  1.0  0.0667
  H  H56  1  0.911200  0.214200  0.533900  1.0  0.1154
  H  H57  1  0.758600  0.596500  0.598300  1.0  0.3253
  H  H58  1  0.753900  0.531200  0.645300  1.0  0.3168
  H  H59  1  0.240500  0.007400  0.322600  1.0  0.0482
  H  H60  1  0.351000  0.098900  0.312400  1.0  0.1187
  H  H61  1  0.267900  0.151600  0.142700  1.0  0.1081
  H  H62  1  0.161100  0.057400  0.158000  1.0  0.0444
  H  H63  1  0.466900  0.162500  0.285800  1.0  0.0958
  H  H64  1  0.567000  0.266800  0.276400  1.0  0.0917
  H  H65  1  0.546300  0.377800  0.209300  1.0  0.0937
  H  H66  1  0.327600  0.275200  0.155600  1.0  0.0847
  H  H67  1  0.300000  0.495900  0.958300  1.0  0.0949
  H  H68  1  0.206200  0.588800  0.914100  1.0  0.0893
  H  H69  1  0.156900  0.703500  0.968200  1.0  0.0722
  H  H70  1  0.304700  0.640200  0.110900  1.0  0.1147
  H  H71  1  0.289900  0.761700  0.144600  1.0  0.1134
  H  H72  1  0.231900  0.858800  0.208000  1.0  0.0668
  H  H73  1  0.038700  0.886500  0.099400  1.0  0.0667
  H  H74  1  0.088800  0.785800  0.033900  1.0  0.1139
  H  H75  1  0.241400  0.403500  0.098300  1.0  0.3257
  H  H76  1  0.246100  0.468800  0.145300  1.0  0.317
  H  H77  1  0.007400  0.240500  0.677400  1.0  0.0486
  H  H78  1  0.098900  0.351000  0.687600  1.0  0.1186
  H  H79  1  0.151600  0.267900  0.857300  1.0  0.107
  H  H80  1  0.057400  0.161100  0.842000  1.0  0.0453
  H  H81  1  0.162500  0.466900  0.714200  1.0  0.097
  H  H82  1  0.266800  0.567000  0.723600  1.0  0.0918
  H  H83  1  0.377800  0.546300  0.790700  1.0  0.0931
  H  H84  1  0.275200  0.327600  0.844400  1.0  0.0858
  H  H85  1  0.495900  0.300000  0.041700  1.0  0.0953
  H  H86  1  0.588800  0.206200  0.085900  1.0  0.09
  H  H87  1  0.703500  0.156900  0.031800  1.0  0.0733
  H  H88  1  0.640200  0.304700  0.889100  1.0  0.1134
  H  H89  1  0.761700  0.289900  0.855400  1.0  0.1127
  H  H90  1  0.858800  0.231900  0.792000  1.0  0.0669
  H  H91  1  0.886500  0.038700  0.900600  1.0  0.0666
  H  H92  1  0.785800  0.088800  0.966100  1.0  0.1154
  H  H93  1  0.403500  0.241400  0.901700  1.0  0.3228
  H  H94  1  0.468800  0.246100  0.854700  1.0  0.3181
  H  H95  1  0.992600  0.759500  0.177400  1.0  0.0486
  H  H96  1  0.901100  0.649000  0.187600  1.0  0.1189
  H  H97  1  0.848400  0.732100  0.357300  1.0  0.1072
  H  H98  1  0.942600  0.838900  0.342000  1.0  0.0445
  H  H99  1  0.837500  0.533100  0.214200  1.0  0.0961
  H  H100  1  0.733200  0.433000  0.223600  1.0  0.0916
  H  H101  1  0.622200  0.453700  0.290700  1.0  0.093
  H  H102  1  0.724800  0.672400  0.344400  1.0  0.0851
  H  H103  1  0.504100  0.700000  0.541700  1.0  0.0953
  H  H104  1  0.411200  0.793800  0.585900  1.0  0.0895
  H  H105  1  0.296500  0.843100  0.531800  1.0  0.0738
  H  H106  1  0.359800  0.695300  0.389100  1.0  0.1138
  H  H107  1  0.238300  0.710100  0.355400  1.0  0.1124
  H  H108  1  0.141200  0.768100  0.292000  1.0  0.0671
  H  H109  1  0.113500  0.961300  0.400600  1.0  0.0659
  H  H110  1  0.214200  0.911200  0.466100  1.0  0.1154
  H  H111  1  0.596500  0.758600  0.401700  1.0  0.3216
  H  H112  1  0.531200  0.753900  0.354700  1.0  0.318
  H  H113  1  0.740500  0.492600  0.927400  1.0  0.0482
  H  H114  1  0.851000  0.401100  0.937600  1.0  0.1184
  H  H115  1  0.767900  0.348400  0.107300  1.0  0.1073
  H  H116  1  0.661100  0.442600  0.092000  1.0  0.0447
  H  H117  1  0.966900  0.337500  0.964200  1.0  0.0969
  H  H118  1  0.067000  0.233200  0.973600  1.0  0.092
  H  H119  1  0.046300  0.122200  0.040700  1.0  0.0939
  H  H120  1  0.827600  0.224800  0.094400  1.0  0.085
  H  H121  1  0.800000  0.004100  0.291700  1.0  0.0951
  H  H122  1  0.706200  0.911200  0.335900  1.0  0.0895
  H  H123  1  0.656900  0.796500  0.281800  1.0  0.0726
  H  H124  1  0.804700  0.859800  0.139100  1.0  0.1138
  H  H125  1  0.789900  0.738300  0.105400  1.0  0.1136
  H  H126  1  0.731900  0.641200  0.042000  1.0  0.0685
  H  H127  1  0.538700  0.613500  0.150600  1.0  0.0661
  H  H128  1  0.588800  0.714200  0.216100  1.0  0.1148
  H  H129  1  0.741400  0.096500  0.151700  1.0  0.3247
  H  H130  1  0.746100  0.031200  0.104700  1.0  0.3173
  H  H131  1  0.259500  0.507400  0.427400  1.0  0.0481
  H  H132  1  0.149000  0.598900  0.437600  1.0  0.1188
  H  H133  1  0.232100  0.651600  0.607300  1.0  0.1073
  H  H134  1  0.338900  0.557400  0.592000  1.0  0.0447
  H  H135  1  0.033100  0.662500  0.464200  1.0  0.0966
  H  H136  1  0.933000  0.766800  0.473600  1.0  0.0909
  H  H137  1  0.953700  0.877800  0.540700  1.0  0.0938
  H  H138  1  0.172400  0.775200  0.594400  1.0  0.0851
  H  H139  1  0.200000  0.995900  0.791700  1.0  0.0957
  H  H140  1  0.293800  0.088800  0.835900  1.0  0.0892
  H  H141  1  0.343100  0.203500  0.781800  1.0  0.0732
  H  H142  1  0.195300  0.140200  0.639100  1.0  0.1141
  H  H143  1  0.210100  0.261700  0.605400  1.0  0.1127
  H  H144  1  0.268100  0.358800  0.542000  1.0  0.0669
  H  H145  1  0.461300  0.386500  0.650600  1.0  0.0669
  H  H146  1  0.411200  0.285800  0.716100  1.0  0.115
  H  H147  1  0.258600  0.903500  0.651700  1.0  0.3263
  H  H148  1  0.253900  0.968800  0.604700  1.0  0.3173
  C  C149  1  0.462900  0.745800  0.035800  1.0  0.1569
  C  C150  1  0.407000  0.812600  0.030300  1.0  -0.2245
  C  C151  1  0.360100  0.821800  0.976800  1.0  0.0892
  C  C152  1  0.376300  0.763600  0.930300  1.0  -0.2351
  C  C153  1  0.433700  0.699300  0.939900  1.0  0.1709
  C  C154  1  0.293600  0.887900  0.970600  1.0  0.0079
  C  C155  1  0.294200  0.959000  0.007400  1.0  -0.116
  C  C156  1  0.231100  0.018500  0.002400  1.0  -0.0941
  C  C157  1  0.165000  0.006400  0.962100  1.0  -0.1241
  C  C158  1  0.162200  0.934200  0.925500  1.0  -0.0843
  C  C159  1  0.226400  0.875800  0.930000  1.0  -0.131
  C  C160  1  0.092000  0.926000  0.881710  1.0  0.2521
  C  C161  1  0.995800  0.875200  0.819760  1.0  0.2418
  C  C162  1  0.940400  0.813200  0.789240  1.0  -0.0361
  C  C163  1  0.956700  0.782300  0.730000  1.0  -0.1193
  C  C164  1  0.901600  0.725400  0.704100  1.0  -0.0996
  C  C165  1  0.832400  0.696200  0.736300  1.0  -0.1084
  C  C166  1  0.816100  0.725400  0.796000  1.0  -0.0159
  C  C167  1  0.870400  0.784100  0.821400  1.0  -0.1291
  C  C168  1  0.743700  0.693400  0.833500  1.0  0.0835
  C  C169  1  0.716300  0.737000  0.885500  1.0  -0.2273
  C  C170  1  0.657200  0.702000  0.923000  1.0  0.1405
  C  C171  1  0.641200  0.588300  0.859800  1.0  0.156
  C  C172  1  0.701500  0.618300  0.819800  1.0  -0.2122
  C  C173  1  0.537100  0.254200  0.535800  1.0  0.1567
  C  C174  1  0.593000  0.187400  0.530300  1.0  -0.2242
  C  C175  1  0.639900  0.178200  0.476800  1.0  0.0895
  C  C176  1  0.623700  0.236400  0.430300  1.0  -0.2345
  C  C177  1  0.566300  0.300700  0.439900  1.0  0.1705
  C  C178  1  0.706400  0.112100  0.470600  1.0  0.0079
  C  C179  1  0.705800  0.041000  0.507400  1.0  -0.1152
  C  C180  1  0.768900  0.981500  0.502400  1.0  -0.0955
  C  C181  1  0.835000  0.993600  0.462100  1.0  -0.1237
  C  C182  1  0.837800  0.065800  0.425500  1.0  -0.0844
  C  C183  1  0.773600  0.124200  0.430000  1.0  -0.1314
  C  C184  1  0.908000  0.074000  0.381710  1.0  0.2525
  C  C185  1  0.004200  0.124800  0.319760  1.0  0.2418
  C  C186  1  0.059600  0.186800  0.289240  1.0  -0.036
  C  C187  1  0.043300  0.217700  0.230000  1.0  -0.1171
  C  C188  1  0.098400  0.274600  0.204100  1.0  -0.0981
  C  C189  1  0.167600  0.303800  0.236300  1.0  -0.1089
  C  C190  1  0.183900  0.274600  0.296000  1.0  -0.0165
  C  C191  1  0.129600  0.215900  0.321400  1.0  -0.1277
  C  C192  1  0.256300  0.306600  0.333500  1.0  0.084
  C  C193  1  0.283700  0.263000  0.385500  1.0  -0.2278
  C  C194  1  0.342800  0.298000  0.423000  1.0  0.1407
  C  C195  1  0.358800  0.411700  0.359800  1.0  0.1563
  C  C196  1  0.298500  0.381700  0.319800  1.0  -0.212
  C  C197  1  0.754200  0.962900  0.785800  1.0  0.1578
  C  C198  1  0.687400  0.907000  0.780300  1.0  -0.2246
  C  C199  1  0.678200  0.860100  0.726800  1.0  0.0899
  C  C200  1  0.736400  0.876300  0.680300  1.0  -0.2336
  C  C201  1  0.800700  0.933700  0.689900  1.0  0.1722
  C  C202  1  0.612100  0.793600  0.720600  1.0  0.0066
  C  C203  1  0.541000  0.794200  0.757400  1.0  -0.1165
  C  C204  1  0.481500  0.731100  0.752400  1.0  -0.0997
  C  C205  1  0.493600  0.665000  0.712100  1.0  -0.1193
  C  C206  1  0.565800  0.662200  0.675500  1.0  -0.0854
  C  C207  1  0.624200  0.726400  0.680000  1.0  -0.1328
  C  C208  1  0.574000  0.592000  0.631710  1.0  0.2513
  C  C209  1  0.624800  0.495800  0.569760  1.0  0.241
  C  C210  1  0.686800  0.440400  0.539240  1.0  -0.0364
  C  C211  1  0.717700  0.456700  0.480000  1.0  -0.1165
  C  C212  1  0.774600  0.401600  0.454100  1.0  -0.0996
  C  C213  1  0.803800  0.332400  0.486300  1.0  -0.1073
  C  C214  1  0.774600  0.316100  0.546000  1.0  -0.0164
  C  C215  1  0.715900  0.370400  0.571400  1.0  -0.1273
  C  C216  1  0.806600  0.243700  0.583500  1.0  0.084
  C  C217  1  0.763000  0.216300  0.635500  1.0  -0.2261
  C  C218  1  0.798000  0.157200  0.673000  1.0  0.1425
  C  C219  1  0.911700  0.141200  0.609800  1.0  0.1583
  C  C220  1  0.881700  0.201500  0.569800  1.0  -0.2083
  C  C221  1  0.245800  0.037100  0.285800  1.0  0.1586
  C  C222  1  0.312600  0.093000  0.280300  1.0  -0.2244
  C  C223  1  0.321800  0.139900  0.226800  1.0  0.0892
  C  C224  1  0.263600  0.123700  0.180300  1.0  -0.2336
  C  C225  1  0.199300  0.066300  0.189900  1.0  0.1723
  C  C226  1  0.387900  0.206400  0.220600  1.0  0.0074
  C  C227  1  0.459000  0.205800  0.257400  1.0  -0.1159
  C  C228  1  0.518500  0.268900  0.252400  1.0  -0.0978
  C  C229  1  0.506400  0.335000  0.212100  1.0  -0.1214
  C  C230  1  0.434200  0.337800  0.175500  1.0  -0.0856
  C  C231  1  0.375800  0.273600  0.180000  1.0  -0.1317
  C  C232  1  0.426000  0.408000  0.131710  1.0  0.2514
  C  C233  1  0.375200  0.504200  0.069760  1.0  0.2407
  C  C234  1  0.313200  0.559600  0.039240  1.0  -0.0375
  C  C235  1  0.282300  0.543300  0.980000  1.0  -0.1175
  C  C236  1  0.225400  0.598400  0.954100  1.0  -0.0995
  C  C237  1  0.196200  0.667600  0.986300  1.0  -0.1063
  C  C238  1  0.225400  0.683900  0.046000  1.0  -0.0157
  C  C239  1  0.284100  0.629600  0.071400  1.0  -0.1282
  C  C240  1  0.193400  0.756300  0.083500  1.0  0.084
  C  C241  1  0.237000  0.783700  0.135500  1.0  -0.2278
  C  C242  1  0.202000  0.842800  0.173000  1.0  0.1425
  C  C243  1  0.088300  0.858800  0.109800  1.0  0.1585
  C  C244  1  0.118300  0.798500  0.069800  1.0  -0.2078
  C  C245  1  0.037100  0.245800  0.714200  1.0  0.1573
  C  C246  1  0.093000  0.312600  0.719700  1.0  -0.2249
  C  C247  1  0.139900  0.321800  0.773200  1.0  0.0893
  C  C248  1  0.123700  0.263600  0.819700  1.0  -0.2355
  C  C249  1  0.066300  0.199300  0.810100  1.0  0.1703
  C  C250  1  0.206400  0.387900  0.779400  1.0  0.0087
  C  C251  1  0.205800  0.459000  0.742600  1.0  -0.1152
  C  C252  1  0.268900  0.518500  0.747600  1.0  -0.095
  C  C253  1  0.335000  0.506400  0.787900  1.0  -0.1242
  C  C254  1  0.337800  0.434200  0.824500  1.0  -0.0846
  C  C255  1  0.273600  0.375800  0.820000  1.0  -0.1309
  C  C256  1  0.408000  0.426000  0.868290  1.0  0.2523
  C  C257  1  0.504200  0.375200  0.930240  1.0  0.2419
  C  C258  1  0.559600  0.313200  0.960760  1.0  -0.0368
  C  C259  1  0.543300  0.282300  0.020000  1.0  -0.1173
  C  C260  1  0.598400  0.225400  0.045900  1.0  -0.0984
  C  C261  1  0.667600  0.196200  0.013700  1.0  -0.1087
  C  C262  1  0.683900  0.225400  0.954000  1.0  -0.0156
  C  C263  1  0.629600  0.284100  0.928600  1.0  -0.1287
  C  C264  1  0.756300  0.193400  0.916500  1.0  0.0843
  C  C265  1  0.783700  0.237000  0.864500  1.0  -0.2304
  C  C266  1  0.842800  0.202000  0.827000  1.0  0.1411
  C  C267  1  0.858800  0.088300  0.890200  1.0  0.1568
  C  C268  1  0.798500  0.118300  0.930200  1.0  -0.2118
  C  C269  1  0.962900  0.754200  0.214200  1.0  0.1567
  C  C270  1  0.907000  0.687400  0.219700  1.0  -0.2242
  C  C271  1  0.860100  0.678200  0.273200  1.0  0.0899
  C  C272  1  0.876300  0.736400  0.319700  1.0  -0.2354
  C  C273  1  0.933700  0.800700  0.310100  1.0  0.1713
  C  C274  1  0.793600  0.612100  0.279400  1.0  0.0072
  C  C275  1  0.794200  0.541000  0.242600  1.0  -0.1162
  C  C276  1  0.731100  0.481500  0.247600  1.0  -0.0946
  C  C277  1  0.665000  0.493600  0.287900  1.0  -0.1227
  C  C278  1  0.662200  0.565800  0.324500  1.0  -0.0841
  C  C279  1  0.726400  0.624200  0.320000  1.0  -0.1308
  C  C280  1  0.592000  0.574000  0.368290  1.0  0.252
  C  C281  1  0.495800  0.624800  0.430240  1.0  0.2416
  C  C282  1  0.440400  0.686800  0.460760  1.0  -0.0359
  C  C283  1  0.456700  0.717700  0.520000  1.0  -0.1189
  C  C284  1  0.401600  0.774600  0.545900  1.0  -0.0992
  C  C285  1  0.332400  0.803800  0.513700  1.0  -0.1085
  C  C286  1  0.316100  0.774600  0.454000  1.0  -0.0156
  C  C287  1  0.370400  0.715900  0.428600  1.0  -0.1294
  C  C288  1  0.243700  0.806600  0.416500  1.0  0.0838
  C  C289  1  0.216300  0.763000  0.364500  1.0  -0.2304
  C  C290  1  0.157200  0.798000  0.327000  1.0  0.1403
  C  C291  1  0.141200  0.911700  0.390200  1.0  0.1564
  C  C292  1  0.201500  0.881700  0.430200  1.0  -0.2121
  C  C293  1  0.745800  0.462900  0.964200  1.0  0.1591
  C  C294  1  0.812600  0.407000  0.969700  1.0  -0.2241
  C  C295  1  0.821800  0.360100  0.023200  1.0  0.0886
  C  C296  1  0.763600  0.376300  0.069700  1.0  -0.2341
  C  C297  1  0.699300  0.433700  0.060100  1.0  0.1717
  C  C298  1  0.887900  0.293600  0.029400  1.0  0.0057
  C  C299  1  0.959000  0.294200  0.992600  1.0  -0.1163
  C  C300  1  0.018500  0.231100  0.997600  1.0  -0.0983
  C  C301  1  0.006400  0.165000  0.037900  1.0  -0.1205
  C  C302  1  0.934200  0.162200  0.074500  1.0  -0.0855
  C  C303  1  0.875800  0.226400  0.070000  1.0  -0.1321
  C  C304  1  0.926000  0.092000  0.118290  1.0  0.2513
  C  C305  1  0.875200  0.995800  0.180240  1.0  0.2407
  C  C306  1  0.813200  0.940400  0.210760  1.0  -0.0371
  C  C307  1  0.782300  0.956700  0.270000  1.0  -0.1166
  C  C308  1  0.725400  0.901600  0.295900  1.0  -0.0995
  C  C309  1  0.696200  0.832400  0.263700  1.0  -0.1068
  C  C310  1  0.725400  0.816100  0.204000  1.0  -0.0157
  C  C311  1  0.784100  0.870400  0.178600  1.0  -0.1284
  C  C312  1  0.693400  0.743700  0.166500  1.0  0.0845
  C  C313  1  0.737000  0.716300  0.114500  1.0  -0.2304
  C  C314  1  0.702000  0.657200  0.077000  1.0  0.1424
  C  C315  1  0.588300  0.641200  0.140200  1.0  0.1588
  C  C316  1  0.618300  0.701500  0.180200  1.0  -0.2084
  C  C317  1  0.254200  0.537100  0.464200  1.0  0.158
  C  C318  1  0.187400  0.593000  0.469700  1.0  -0.2249
  C  C319  1  0.178200  0.639900  0.523200  1.0  0.0903
  C  C320  1  0.236400  0.623700  0.569700  1.0  -0.2344
  C  C321  1  0.300700  0.566300  0.560100  1.0  0.1727
  C  C322  1  0.112100  0.706400  0.529400  1.0  0.0076
  C  C323  1  0.041000  0.705800  0.492600  1.0  -0.116
  C  C324  1  0.981500  0.768900  0.497600  1.0  -0.0994
  C  C325  1  0.993600  0.835000  0.537900  1.0  -0.1196
  C  C326  1  0.065800  0.837800  0.574500  1.0  -0.0852
  C  C327  1  0.124200  0.773600  0.570000  1.0  -0.1321
  C  C328  1  0.074000  0.908000  0.618290  1.0  0.2516
  C  C329  1  0.124800  0.004200  0.680240  1.0  0.2408
  C  C330  1  0.186800  0.059600  0.710760  1.0  -0.037
  C  C331  1  0.217700  0.043300  0.770000  1.0  -0.1174
  C  C332  1  0.274600  0.098400  0.795900  1.0  -0.0996
  C  C333  1  0.303800  0.167600  0.763700  1.0  -0.1069
  C  C334  1  0.274600  0.183900  0.704000  1.0  -0.0156
  C  C335  1  0.215900  0.129600  0.678600  1.0  -0.1283
  C  C336  1  0.306600  0.256300  0.666500  1.0  0.0842
  C  C337  1  0.263000  0.283700  0.614500  1.0  -0.2286
  C  C338  1  0.298000  0.342800  0.577000  1.0  0.1423
  C  C339  1  0.411700  0.358800  0.640200  1.0  0.1584
  C  C340  1  0.381700  0.298500  0.680200  1.0  -0.2077
  N  N341  1  0.053700  0.989900  0.855550  1.0  -0.3008
  N  N342  1  0.993300  0.957700  0.816310  1.0  -0.2421
  N  N343  1  0.057100  0.852900  0.860480  1.0  0.0617
  N  N344  1  0.077200  0.770900  0.880300  1.0  -0.5873
  N  N345  1  0.476700  0.688700  0.991750  1.0  -0.3688
  N  N346  1  0.620100  0.626500  0.912760  1.0  -0.361
  N  N347  1  0.946300  0.010100  0.355550  1.0  -0.3003
  N  N348  1  0.006700  0.042300  0.316310  1.0  -0.2423
  N  N349  1  0.942900  0.147100  0.360480  1.0  0.0616
  N  N350  1  0.922800  0.229100  0.380300  1.0  -0.5864
  N  N351  1  0.523300  0.311300  0.491750  1.0  -0.3691
  N  N352  1  0.379900  0.373500  0.412760  1.0  -0.3612
  N  N353  1  0.510100  0.553700  0.605550  1.0  -0.3013
  N  N354  1  0.542300  0.493300  0.566310  1.0  -0.2422
  N  N355  1  0.647100  0.557100  0.610480  1.0  0.0613
  N  N356  1  0.729100  0.577200  0.630300  1.0  -0.5861
  N  N357  1  0.811300  0.976700  0.741750  1.0  -0.3703
  N  N358  1  0.873500  0.120100  0.662760  1.0  -0.36
  N  N359  1  0.489900  0.446300  0.105550  1.0  -0.3013
  N  N360  1  0.457700  0.506700  0.066310  1.0  -0.2415
  N  N361  1  0.352900  0.442900  0.110480  1.0  0.0608
  N  N362  1  0.270900  0.422800  0.130300  1.0  -0.5863
  N  N363  1  0.188700  0.023300  0.241750  1.0  -0.3693
  N  N364  1  0.126500  0.879900  0.162760  1.0  -0.361
  N  N365  1  0.446300  0.489900  0.894450  1.0  -0.3018
  N  N366  1  0.506700  0.457700  0.933690  1.0  -0.2425
  N  N367  1  0.442900  0.352900  0.889520  1.0  0.0615
  N  N368  1  0.422800  0.270900  0.869700  1.0  -0.5871
  N  N369  1  0.023300  0.188700  0.758250  1.0  -0.3692
  N  N370  1  0.879900  0.126500  0.837240  1.0  -0.3617
  N  N371  1  0.553700  0.510100  0.394450  1.0  -0.3014
  N  N372  1  0.493300  0.542300  0.433690  1.0  -0.2417
  N  N373  1  0.557100  0.647100  0.389520  1.0  0.0617
  N  N374  1  0.577200  0.729100  0.369700  1.0  -0.5882
  N  N375  1  0.976700  0.811300  0.258250  1.0  -0.3688
  N  N376  1  0.120100  0.873500  0.337240  1.0  -0.3614
  N  N377  1  0.989900  0.053700  0.144450  1.0  -0.3024
  N  N378  1  0.957700  0.993300  0.183690  1.0  -0.2417
  N  N379  1  0.852900  0.057100  0.139520  1.0  0.0604
  N  N380  1  0.770900  0.077200  0.119700  1.0  -0.5867
  N  N381  1  0.688700  0.476700  0.008250  1.0  -0.3694
  N  N382  1  0.626500  0.620100  0.087240  1.0  -0.3617
  N  N383  1  0.010100  0.946300  0.644450  1.0  -0.3022
  N  N384  1  0.042300  0.006700  0.683690  1.0  -0.2416
  N  N385  1  0.147100  0.942900  0.639520  1.0  0.0617
  N  N386  1  0.229100  0.922800  0.619700  1.0  -0.5887
  N  N387  1  0.311300  0.523300  0.508250  1.0  -0.3693
  N  N388  1  0.373500  0.379900  0.587240  1.0  -0.3608
