# generated using pymatgen
data_CdH36C48N12ClO4
_symmetry_space_group_name_H-M   'P 1'
_cell_length_a   15.84710000
_cell_length_b   15.84710000
_cell_length_c   21.76700000
_cell_angle_alpha   90.00000000
_cell_angle_beta   90.00000000
_cell_angle_gamma   90.00000000
_symmetry_Int_Tables_number   1
_chemical_formula_structural   CdH36C48N12ClO4
_chemical_formula_sum   'Cd4 H144 C192 N48 Cl4 O16'
_cell_volume   5466.35930025
_cell_formula_units_Z   4
loop_
 _symmetry_equiv_pos_site_id
 _symmetry_equiv_pos_as_xyz
  1  'x, y, z'
loop_
 _atom_site_type_symbol
 _atom_site_label
 _atom_site_symmetry_multiplicity
 _atom_site_fract_x
 _atom_site_fract_y
 _atom_site_fract_z
 _atom_site_occupancy
 _atom_site_charge
  Cd  Cd1  1  0.059860  0.940140  0.250000  1.0  0.7891
  Cd  Cd2  1  0.940140  0.059860  0.750000  1.0  0.7891
  Cd  Cd3  1  0.559860  0.559860  0.500000  1.0  0.7886
  Cd  Cd4  1  0.440140  0.440140  0.000000  1.0  0.7896
  H  H5  1  0.385000  0.463100  0.149000  1.0  0.0735
  H  H6  1  0.286800  0.411700  0.215500  1.0  0.1198
  H  H7  1  0.263100  0.210000  0.106300  1.0  0.125
  H  H8  1  0.358400  0.268600  0.041800  1.0  0.0673
  H  H9  1  0.205200  0.343100  0.281700  1.0  0.076
  H  H10  1  0.090400  0.293600  0.335600  1.0  0.0984
  H  H11  1  0.997800  0.198800  0.291300  1.0  0.0901
  H  H12  1  0.141500  0.194700  0.139800  1.0  0.1151
  H  H13  1  0.878600  0.954100  0.042000  1.0  0.0959
  H  H14  1  0.766600  0.931300  0.976400  1.0  0.1057
  H  H15  1  0.663200  0.033200  0.965800  1.0  0.103
  H  H16  1  0.775200  0.172300  0.096100  1.0  0.087
  H  H17  1  0.598000  0.147900  0.939700  1.0  0.1289
  H  H18  1  0.559300  0.339800  0.092300  1.0  0.0542
  H  H19  1  0.651700  0.232100  0.108000  1.0  0.1182
  H  H20  1  0.506300  0.257900  0.929100  1.0  0.0578
  H  H21  1  0.970700  0.255800  0.108300  1.0  0.3235
  H  H22  1  0.899900  0.258400  0.150700  1.0  0.3243
  H  H23  1  0.615000  0.536900  0.649000  1.0  0.0738
  H  H24  1  0.713200  0.588300  0.715500  1.0  0.1197
  H  H25  1  0.736900  0.790000  0.606300  1.0  0.1254
  H  H26  1  0.641600  0.731400  0.541800  1.0  0.0671
  H  H27  1  0.794800  0.656900  0.781700  1.0  0.0749
  H  H28  1  0.909600  0.706400  0.835600  1.0  0.0985
  H  H29  1  0.002200  0.801200  0.791300  1.0  0.091
  H  H30  1  0.858500  0.805300  0.639800  1.0  0.1148
  H  H31  1  0.121400  0.045900  0.542000  1.0  0.0963
  H  H32  1  0.233400  0.068700  0.476400  1.0  0.1059
  H  H33  1  0.336800  0.966800  0.465800  1.0  0.1033
  H  H34  1  0.224800  0.827700  0.596100  1.0  0.0873
  H  H35  1  0.402000  0.852100  0.439700  1.0  0.1287
  H  H36  1  0.440700  0.660200  0.592300  1.0  0.0549
  H  H37  1  0.348300  0.767900  0.608000  1.0  0.118
  H  H38  1  0.493700  0.742100  0.429100  1.0  0.0579
  H  H39  1  0.029300  0.744200  0.608300  1.0  0.3218
  H  H40  1  0.100100  0.741600  0.650700  1.0  0.3243
  H  H41  1  0.036900  0.885000  0.399000  1.0  0.0735
  H  H42  1  0.088300  0.786800  0.465500  1.0  0.1187
  H  H43  1  0.290000  0.763100  0.356300  1.0  0.1247
  H  H44  1  0.231400  0.858400  0.291800  1.0  0.0671
  H  H45  1  0.156900  0.705200  0.531700  1.0  0.0755
  H  H46  1  0.206400  0.590400  0.585600  1.0  0.0982
  H  H47  1  0.301200  0.497800  0.541300  1.0  0.0901
  H  H48  1  0.305300  0.641500  0.389800  1.0  0.1148
  H  H49  1  0.545900  0.378600  0.292000  1.0  0.096
  H  H50  1  0.568700  0.266600  0.226400  1.0  0.106
  H  H51  1  0.466800  0.163200  0.215800  1.0  0.1032
  H  H52  1  0.327700  0.275200  0.346100  1.0  0.0868
  H  H53  1  0.352100  0.098000  0.189700  1.0  0.129
  H  H54  1  0.160200  0.059300  0.342300  1.0  0.054
  H  H55  1  0.267900  0.151700  0.358000  1.0  0.1184
  H  H56  1  0.242100  0.006300  0.179100  1.0  0.0579
  H  H57  1  0.244200  0.470700  0.358300  1.0  0.3227
  H  H58  1  0.241600  0.399900  0.400700  1.0  0.3239
  H  H59  1  0.963100  0.115000  0.899000  1.0  0.0734
  H  H60  1  0.911700  0.213200  0.965500  1.0  0.1193
  H  H61  1  0.710000  0.236900  0.856300  1.0  0.1241
  H  H62  1  0.768600  0.141600  0.791800  1.0  0.0672
  H  H63  1  0.843100  0.294800  0.031700  1.0  0.0752
  H  H64  1  0.793600  0.409600  0.085600  1.0  0.0974
  H  H65  1  0.698800  0.502200  0.041300  1.0  0.0906
  H  H66  1  0.694700  0.358500  0.889800  1.0  0.1149
  H  H67  1  0.454100  0.621400  0.792000  1.0  0.0966
  H  H68  1  0.431300  0.733400  0.726400  1.0  0.1061
  H  H69  1  0.533200  0.836800  0.715800  1.0  0.1036
  H  H70  1  0.672300  0.724800  0.846100  1.0  0.0866
  H  H71  1  0.647900  0.902000  0.689700  1.0  0.1293
  H  H72  1  0.839800  0.940700  0.842300  1.0  0.0544
  H  H73  1  0.732100  0.848300  0.858000  1.0  0.1182
  H  H74  1  0.757900  0.993700  0.679100  1.0  0.0574
  H  H75  1  0.755800  0.529300  0.858300  1.0  0.3219
  H  H76  1  0.758400  0.600100  0.900700  1.0  0.3231
  H  H77  1  0.115000  0.963100  0.101000  1.0  0.0747
  H  H78  1  0.213200  0.911700  0.034500  1.0  0.1197
  H  H79  1  0.236900  0.710000  0.143700  1.0  0.1247
  H  H80  1  0.141600  0.768600  0.208200  1.0  0.0676
  H  H81  1  0.294800  0.843100  0.968300  1.0  0.0755
  H  H82  1  0.409600  0.793600  0.914400  1.0  0.0984
  H  H83  1  0.502200  0.698800  0.958700  1.0  0.0901
  H  H84  1  0.358500  0.694700  0.110200  1.0  0.1143
  H  H85  1  0.621400  0.454100  0.208000  1.0  0.0962
  H  H86  1  0.733400  0.431300  0.273600  1.0  0.1058
  H  H87  1  0.836800  0.533200  0.284200  1.0  0.1024
  H  H88  1  0.724800  0.672300  0.153900  1.0  0.086
  H  H89  1  0.902000  0.647900  0.310300  1.0  0.129
  H  H90  1  0.940700  0.839800  0.157700  1.0  0.0542
  H  H91  1  0.848300  0.732100  0.142000  1.0  0.1179
  H  H92  1  0.993700  0.757900  0.320900  1.0  0.0584
  H  H93  1  0.529300  0.755800  0.141700  1.0  0.322
  H  H94  1  0.600100  0.758400  0.099300  1.0  0.3246
  H  H95  1  0.885000  0.036900  0.601000  1.0  0.0743
  H  H96  1  0.786800  0.088300  0.534500  1.0  0.1199
  H  H97  1  0.763100  0.290000  0.643700  1.0  0.1251
  H  H98  1  0.858400  0.231400  0.708200  1.0  0.0671
  H  H99  1  0.705200  0.156900  0.468300  1.0  0.0747
  H  H100  1  0.590400  0.206400  0.414400  1.0  0.0986
  H  H101  1  0.497800  0.301200  0.458700  1.0  0.0897
  H  H102  1  0.641500  0.305300  0.610200  1.0  0.1143
  H  H103  1  0.378600  0.545900  0.708000  1.0  0.0955
  H  H104  1  0.266600  0.568700  0.773600  1.0  0.1057
  H  H105  1  0.163200  0.466800  0.784200  1.0  0.1024
  H  H106  1  0.275200  0.327700  0.653900  1.0  0.0864
  H  H107  1  0.098000  0.352100  0.810300  1.0  0.129
  H  H108  1  0.059300  0.160200  0.657700  1.0  0.0545
  H  H109  1  0.151700  0.267900  0.642000  1.0  0.1179
  H  H110  1  0.006300  0.242100  0.820900  1.0  0.0589
  H  H111  1  0.470700  0.244200  0.641700  1.0  0.3229
  H  H112  1  0.399900  0.241600  0.599300  1.0  0.3239
  H  H113  1  0.463100  0.385000  0.851000  1.0  0.0735
  H  H114  1  0.411700  0.286800  0.784500  1.0  0.1189
  H  H115  1  0.210000  0.263100  0.893700  1.0  0.1243
  H  H116  1  0.268600  0.358400  0.958200  1.0  0.0673
  H  H117  1  0.343100  0.205200  0.718300  1.0  0.0749
  H  H118  1  0.293600  0.090400  0.664400  1.0  0.0978
  H  H119  1  0.198800  0.997800  0.708700  1.0  0.09
  H  H120  1  0.194700  0.141500  0.860200  1.0  0.1143
  H  H121  1  0.954100  0.878600  0.958000  1.0  0.0965
  H  H122  1  0.931300  0.766600  0.023600  1.0  0.1058
  H  H123  1  0.033200  0.663200  0.034200  1.0  0.103
  H  H124  1  0.172300  0.775200  0.903900  1.0  0.0855
  H  H125  1  0.147900  0.598000  0.060300  1.0  0.1297
  H  H126  1  0.339800  0.559300  0.907700  1.0  0.0541
  H  H127  1  0.232100  0.651700  0.892000  1.0  0.1181
  H  H128  1  0.257900  0.506300  0.070900  1.0  0.0586
  H  H129  1  0.255800  0.970700  0.891700  1.0  0.3206
  H  H130  1  0.258400  0.899900  0.849300  1.0  0.3234
  H  H131  1  0.536900  0.615000  0.351000  1.0  0.0743
  H  H132  1  0.588300  0.713200  0.284500  1.0  0.1188
  H  H133  1  0.790000  0.736900  0.393700  1.0  0.1246
  H  H134  1  0.731400  0.641600  0.458200  1.0  0.0674
  H  H135  1  0.656900  0.794800  0.218300  1.0  0.0746
  H  H136  1  0.706400  0.909600  0.164400  1.0  0.0977
  H  H137  1  0.801200  0.002200  0.208700  1.0  0.0892
  H  H138  1  0.805300  0.858500  0.360200  1.0  0.1145
  H  H139  1  0.045900  0.121400  0.458000  1.0  0.0966
  H  H140  1  0.068700  0.233400  0.523600  1.0  0.1059
  H  H141  1  0.966800  0.336800  0.534200  1.0  0.1022
  H  H142  1  0.827700  0.224800  0.403900  1.0  0.0861
  H  H143  1  0.852100  0.402000  0.560300  1.0  0.1289
  H  H144  1  0.660200  0.440700  0.407700  1.0  0.0539
  H  H145  1  0.767900  0.348300  0.392000  1.0  0.1181
  H  H146  1  0.742100  0.493700  0.570900  1.0  0.0585
  H  H147  1  0.744200  0.029300  0.391700  1.0  0.3223
  H  H148  1  0.741600  0.100100  0.349300  1.0  0.323
  C  C149  1  0.358100  0.412600  0.139400  1.0  0.1643
  C  C150  1  0.298900  0.382200  0.179700  1.0  -0.2047
  C  C151  1  0.256500  0.306200  0.166530  1.0  0.0963
  C  C152  1  0.284500  0.263300  0.114900  1.0  -0.2073
  C  C153  1  0.343000  0.298400  0.076800  1.0  0.1637
  C  C154  1  0.185000  0.275400  0.204010  1.0  0.0005
  C  C155  1  0.169100  0.304100  0.263640  1.0  -0.104
  C  C156  1  0.100000  0.274600  0.295800  1.0  -0.089
  C  C157  1  0.045000  0.217100  0.269680  1.0  -0.1085
  C  C158  1  0.060600  0.187200  0.210900  1.0  -0.0331
  C  C159  1  0.130600  0.215800  0.178900  1.0  -0.1189
  C  C160  1  0.004500  0.125500  0.180700  1.0  0.2455
  C  C161  1  0.908600  0.074600  0.118800  1.0  0.242
  C  C162  1  0.838400  0.066300  0.075100  1.0  -0.0124
  C  C163  1  0.835500  0.993800  0.039200  1.0  -0.0985
  C  C164  1  0.769200  0.980600  0.999500  1.0  -0.1064
  C  C165  1  0.706400  0.040900  0.994100  1.0  -0.1037
  C  C166  1  0.707200  0.112600  0.030500  1.0  0.0122
  C  C167  1  0.774000  0.124600  0.071300  1.0  -0.1206
  C  C168  1  0.640200  0.178600  0.024100  1.0  0.0966
  C  C169  1  0.592500  0.187000  0.971300  1.0  -0.2214
  C  C170  1  0.567600  0.301000  0.060900  1.0  0.1743
  C  C171  1  0.624100  0.236800  0.070400  1.0  -0.216
  C  C172  1  0.536700  0.253300  0.965500  1.0  0.1659
  C  C173  1  0.641900  0.587400  0.639400  1.0  0.164
  C  C174  1  0.701100  0.617800  0.679700  1.0  -0.2038
  C  C175  1  0.743500  0.693800  0.666530  1.0  0.0961
  C  C176  1  0.715500  0.736700  0.614900  1.0  -0.2079
  C  C177  1  0.657000  0.701600  0.576800  1.0  0.1636
  C  C178  1  0.815000  0.724600  0.704010  1.0  -0.0006
  C  C179  1  0.830900  0.695900  0.763640  1.0  -0.1031
  C  C180  1  0.900000  0.725400  0.795800  1.0  -0.0903
  C  C181  1  0.955000  0.782900  0.769680  1.0  -0.1096
  C  C182  1  0.939400  0.812800  0.710900  1.0  -0.0331
  C  C183  1  0.869400  0.784200  0.678900  1.0  -0.1196
  C  C184  1  0.995500  0.874500  0.680700  1.0  0.2459
  C  C185  1  0.091400  0.925400  0.618800  1.0  0.2426
  C  C186  1  0.161600  0.933700  0.575100  1.0  -0.0121
  C  C187  1  0.164500  0.006200  0.539200  1.0  -0.0991
  C  C188  1  0.230800  0.019400  0.499500  1.0  -0.1061
  C  C189  1  0.293600  0.959100  0.494100  1.0  -0.1024
  C  C190  1  0.292800  0.887400  0.530500  1.0  0.0117
  C  C191  1  0.226000  0.875400  0.571300  1.0  -0.1203
  C  C192  1  0.359800  0.821400  0.524100  1.0  0.0944
  C  C193  1  0.407500  0.813000  0.471300  1.0  -0.22
  C  C194  1  0.432400  0.699000  0.560900  1.0  0.1743
  C  C195  1  0.375900  0.763200  0.570400  1.0  -0.2157
  C  C196  1  0.463300  0.746700  0.465500  1.0  0.1662
  C  C197  1  0.087400  0.858100  0.389400  1.0  0.1653
  C  C198  1  0.117800  0.798900  0.429700  1.0  -0.2023
  C  C199  1  0.193800  0.756500  0.416530  1.0  0.0959
  C  C200  1  0.236700  0.784500  0.364900  1.0  -0.2087
  C  C201  1  0.201600  0.843000  0.326800  1.0  0.1628
  C  C202  1  0.224600  0.685000  0.454010  1.0  0.0007
  C  C203  1  0.195900  0.669100  0.513640  1.0  -0.1017
  C  C204  1  0.225400  0.600000  0.545800  1.0  -0.0894
  C  C205  1  0.282900  0.545000  0.519680  1.0  -0.1094
  C  C206  1  0.312800  0.560600  0.460900  1.0  -0.0337
  C  C207  1  0.284200  0.630600  0.428900  1.0  -0.1179
  C  C208  1  0.374500  0.504500  0.430700  1.0  0.2456
  C  C209  1  0.425400  0.408600  0.368800  1.0  0.2429
  C  C210  1  0.433700  0.338400  0.325100  1.0  -0.012
  C  C211  1  0.506200  0.335500  0.289200  1.0  -0.0973
  C  C212  1  0.519400  0.269200  0.249500  1.0  -0.1104
  C  C213  1  0.459100  0.206400  0.244100  1.0  -0.1031
  C  C214  1  0.387400  0.207200  0.280500  1.0  0.011
  C  C215  1  0.375400  0.274000  0.321300  1.0  -0.1222
  C  C216  1  0.321400  0.140200  0.274100  1.0  0.095
  C  C217  1  0.313000  0.092500  0.221300  1.0  -0.2212
  C  C218  1  0.199000  0.067600  0.310900  1.0  0.1757
  C  C219  1  0.263200  0.124100  0.320400  1.0  -0.2145
  C  C220  1  0.246700  0.036700  0.215500  1.0  0.1665
  C  C221  1  0.912600  0.141900  0.889400  1.0  0.1643
  C  C222  1  0.882200  0.201100  0.929700  1.0  -0.2031
  C  C223  1  0.806200  0.243500  0.916530  1.0  0.0958
  C  C224  1  0.763300  0.215500  0.864900  1.0  -0.2086
  C  C225  1  0.798400  0.157000  0.826800  1.0  0.1641
  C  C226  1  0.775400  0.315000  0.954010  1.0  -0.0002
  C  C227  1  0.804100  0.330900  0.013640  1.0  -0.1034
  C  C228  1  0.774600  0.400000  0.045800  1.0  -0.0896
  C  C229  1  0.717100  0.455000  0.019680  1.0  -0.1083
  C  C230  1  0.687200  0.439400  0.960900  1.0  -0.0338
  C  C231  1  0.715800  0.369400  0.928900  1.0  -0.1168
  C  C232  1  0.625500  0.495500  0.930700  1.0  0.2461
  C  C233  1  0.574600  0.591400  0.868800  1.0  0.243
  C  C234  1  0.566300  0.661600  0.825100  1.0  -0.0124
  C  C235  1  0.493800  0.664500  0.789200  1.0  -0.0949
  C  C236  1  0.480600  0.730800  0.749500  1.0  -0.1106
  C  C237  1  0.540900  0.793600  0.744100  1.0  -0.1019
  C  C238  1  0.612600  0.792800  0.780500  1.0  0.0118
  C  C239  1  0.624600  0.726000  0.821300  1.0  -0.1225
  C  C240  1  0.678600  0.859800  0.774100  1.0  0.0956
  C  C241  1  0.687000  0.907500  0.721300  1.0  -0.2215
  C  C242  1  0.801000  0.932400  0.810900  1.0  0.175
  C  C243  1  0.736800  0.875900  0.820400  1.0  -0.2148
  C  C244  1  0.753300  0.963300  0.715500  1.0  0.1665
  C  C245  1  0.141900  0.912600  0.110600  1.0  0.1635
  C  C246  1  0.201100  0.882200  0.070300  1.0  -0.2055
  C  C247  1  0.243500  0.806200  0.083470  1.0  0.0956
  C  C248  1  0.215500  0.763300  0.135100  1.0  -0.2068
  C  C249  1  0.157000  0.798400  0.173200  1.0  0.1631
  C  C250  1  0.315000  0.775400  0.045990  1.0  1e-04
  C  C251  1  0.330900  0.804100  0.986360  1.0  -0.1042
  C  C252  1  0.400000  0.774600  0.954200  1.0  -0.0902
  C  C253  1  0.455000  0.717100  0.980320  1.0  -0.1097
  C  C254  1  0.439400  0.687200  0.039100  1.0  -0.033
  C  C255  1  0.369400  0.715800  0.071100  1.0  -0.12
  C  C256  1  0.495500  0.625500  0.069300  1.0  0.2464
  C  C257  1  0.591400  0.574600  0.131200  1.0  0.2424
  C  C258  1  0.661600  0.566300  0.174900  1.0  -0.0119
  C  C259  1  0.664500  0.493800  0.210800  1.0  -0.0981
  C  C260  1  0.730800  0.480600  0.250500  1.0  -0.1056
  C  C261  1  0.793600  0.540900  0.255900  1.0  -0.1028
  C  C262  1  0.792800  0.612600  0.219500  1.0  0.0122
  C  C263  1  0.726000  0.624600  0.178700  1.0  -0.1217
  C  C264  1  0.859800  0.678600  0.225900  1.0  0.0944
  C  C265  1  0.907500  0.687000  0.278700  1.0  -0.2203
  C  C266  1  0.932400  0.801000  0.189100  1.0  0.1737
  C  C267  1  0.875900  0.736800  0.179600  1.0  -0.2166
  C  C268  1  0.963300  0.753300  0.284500  1.0  0.1666
  C  C269  1  0.858100  0.087400  0.610600  1.0  0.1646
  C  C270  1  0.798900  0.117800  0.570300  1.0  -0.2041
  C  C271  1  0.756500  0.193800  0.583470  1.0  0.0967
  C  C272  1  0.784500  0.236700  0.635100  1.0  -0.209
  C  C273  1  0.843000  0.201600  0.673200  1.0  0.1634
  C  C274  1  0.685000  0.224600  0.545990  1.0  -1e-04
  C  C275  1  0.669100  0.195900  0.486360  1.0  -0.1031
  C  C276  1  0.600000  0.225400  0.454200  1.0  -0.0899
  C  C277  1  0.545000  0.282900  0.480320  1.0  -0.1089
  C  C278  1  0.560600  0.312800  0.539100  1.0  -0.0336
  C  C279  1  0.630600  0.284200  0.571100  1.0  -0.1189
  C  C280  1  0.504500  0.374500  0.569300  1.0  0.2457
  C  C281  1  0.408600  0.425400  0.631200  1.0  0.2422
  C  C282  1  0.338400  0.433700  0.674900  1.0  -0.0122
  C  C283  1  0.335500  0.506200  0.710800  1.0  -0.0994
  C  C284  1  0.269200  0.519400  0.750500  1.0  -0.1057
  C  C285  1  0.206400  0.459100  0.755900  1.0  -0.1035
  C  C286  1  0.207200  0.387400  0.719500  1.0  0.0128
  C  C287  1  0.274000  0.375400  0.678700  1.0  -0.1206
  C  C288  1  0.140200  0.321400  0.725900  1.0  0.0958
  C  C289  1  0.092500  0.313000  0.778700  1.0  -0.2199
  C  C290  1  0.067600  0.199000  0.689100  1.0  0.1738
  C  C291  1  0.124100  0.263200  0.679600  1.0  -0.2164
  C  C292  1  0.036700  0.246700  0.784500  1.0  0.1664
  C  C293  1  0.412600  0.358100  0.860600  1.0  0.1644
  C  C294  1  0.382200  0.298900  0.820300  1.0  -0.2028
  C  C295  1  0.306200  0.256500  0.833470  1.0  0.0955
  C  C296  1  0.263300  0.284500  0.885100  1.0  -0.2091
  C  C297  1  0.298400  0.343000  0.923200  1.0  0.164
  C  C298  1  0.275400  0.185000  0.795990  1.0  -0.0004
  C  C299  1  0.304100  0.169100  0.736360  1.0  -0.1028
  C  C300  1  0.274600  0.100000  0.704200  1.0  -0.0908
  C  C301  1  0.217100  0.045000  0.730320  1.0  -0.1091
  C  C302  1  0.187200  0.060600  0.789100  1.0  -0.0337
  C  C303  1  0.215800  0.130600  0.821100  1.0  -0.1176
  C  C304  1  0.125500  0.004500  0.819300  1.0  0.2462
  C  C305  1  0.074600  0.908600  0.881200  1.0  0.2426
  C  C306  1  0.066300  0.838400  0.924900  1.0  -0.0118
  C  C307  1  0.993800  0.835500  0.960800  1.0  -0.0949
  C  C308  1  0.980600  0.769200  0.000500  1.0  -0.1101
  C  C309  1  0.040900  0.706400  0.005900  1.0  -0.1029
  C  C310  1  0.112600  0.707200  0.969500  1.0  0.0116
  C  C311  1  0.124600  0.774000  0.928700  1.0  -0.1229
  C  C312  1  0.178600  0.640200  0.975900  1.0  0.0951
  C  C313  1  0.187000  0.592500  0.028700  1.0  -0.2207
  C  C314  1  0.301000  0.567600  0.939100  1.0  0.1746
  C  C315  1  0.236800  0.624100  0.929600  1.0  -0.2145
  C  C316  1  0.253300  0.536700  0.034500  1.0  0.1671
  C  C317  1  0.587400  0.641900  0.360600  1.0  0.1651
  C  C318  1  0.617800  0.701100  0.320300  1.0  -0.2032
  C  C319  1  0.693800  0.743500  0.333470  1.0  0.0963
  C  C320  1  0.736700  0.715500  0.385100  1.0  -0.2089
  C  C321  1  0.701600  0.657000  0.423200  1.0  0.1627
  C  C322  1  0.724600  0.815000  0.295990  1.0  0.0005
  C  C323  1  0.695900  0.830900  0.236360  1.0  -0.1037
  C  C324  1  0.725400  0.900000  0.204200  1.0  -0.0895
  C  C325  1  0.782900  0.955000  0.230320  1.0  -0.1094
  C  C326  1  0.812800  0.939400  0.289100  1.0  -0.0341
  C  C327  1  0.784200  0.869400  0.321100  1.0  -0.1177
  C  C328  1  0.874500  0.995500  0.319300  1.0  0.246
  C  C329  1  0.925400  0.091400  0.381200  1.0  0.2426
  C  C330  1  0.933700  0.161600  0.424900  1.0  -0.0122
  C  C331  1  0.006200  0.164500  0.460800  1.0  -0.0971
  C  C332  1  0.019400  0.230800  0.500500  1.0  -0.11
  C  C333  1  0.959100  0.293600  0.505900  1.0  -0.102
  C  C334  1  0.887400  0.292800  0.469500  1.0  0.0119
  C  C335  1  0.875400  0.226000  0.428700  1.0  -0.123
  C  C336  1  0.821400  0.359800  0.475900  1.0  0.0945
  C  C337  1  0.813000  0.407500  0.528700  1.0  -0.2207
  C  C338  1  0.699000  0.432400  0.439100  1.0  0.1748
  C  C339  1  0.763200  0.375900  0.429600  1.0  -0.2148
  C  C340  1  0.746700  0.463300  0.534500  1.0  0.167
  N  N341  1  0.007400  0.043000  0.184070  1.0  -0.2474
  N  N342  1  0.946200  0.010600  0.145200  1.0  -0.3025
  N  N343  1  0.943400  0.147520  0.139890  1.0  0.094
  N  N344  1  0.923500  0.229900  0.120000  1.0  -0.5681
  N  N345  1  0.379500  0.373400  0.086700  1.0  -0.3554
  N  N346  1  0.523800  0.311000  0.008890  1.0  -0.3671
  N  N347  1  0.992600  0.957000  0.684070  1.0  -0.2478
  N  N348  1  0.053800  0.989400  0.645200  1.0  -0.302
  N  N349  1  0.056600  0.852480  0.639890  1.0  0.094
  N  N350  1  0.076500  0.770100  0.620000  1.0  -0.5694
  N  N351  1  0.620500  0.626600  0.586700  1.0  -0.3563
  N  N352  1  0.476200  0.689000  0.508890  1.0  -0.3669
  N  N353  1  0.457000  0.507400  0.434070  1.0  -0.2479
  N  N354  1  0.489400  0.446200  0.395200  1.0  -0.3028
  N  N355  1  0.352480  0.443400  0.389890  1.0  0.0946
  N  N356  1  0.270100  0.423500  0.370000  1.0  -0.5698
  N  N357  1  0.126600  0.879500  0.336700  1.0  -0.3568
  N  N358  1  0.189000  0.023800  0.258890  1.0  -0.3669
  N  N359  1  0.543000  0.492600  0.934070  1.0  -0.248
  N  N360  1  0.510600  0.553800  0.895200  1.0  -0.3018
  N  N361  1  0.647520  0.556600  0.889890  1.0  0.0946
  N  N362  1  0.729900  0.576500  0.870000  1.0  -0.5702
  N  N363  1  0.873400  0.120500  0.836700  1.0  -0.3564
  N  N364  1  0.811000  0.976200  0.758890  1.0  -0.3682
  N  N365  1  0.492600  0.543000  0.065930  1.0  -0.2479
  N  N366  1  0.553800  0.510600  0.104800  1.0  -0.3018
  N  N367  1  0.556600  0.647520  0.110110  1.0  0.0942
  N  N368  1  0.576500  0.729900  0.130000  1.0  -0.5683
  N  N369  1  0.120500  0.873400  0.163300  1.0  -0.3558
  N  N370  1  0.976200  0.811000  0.241110  1.0  -0.3666
  N  N371  1  0.507400  0.457000  0.565930  1.0  -0.2486
  N  N372  1  0.446200  0.489400  0.604800  1.0  -0.3021
  N  N373  1  0.443400  0.352480  0.610110  1.0  0.0939
  N  N374  1  0.423500  0.270100  0.630000  1.0  -0.569
  N  N375  1  0.879500  0.126600  0.663300  1.0  -0.3553
  N  N376  1  0.023800  0.189000  0.741110  1.0  -0.3676
  N  N377  1  0.043000  0.007400  0.815930  1.0  -0.2478
  N  N378  1  0.010600  0.946200  0.854800  1.0  -0.3017
  N  N379  1  0.147520  0.943400  0.860110  1.0  0.0952
  N  N380  1  0.229900  0.923500  0.880000  1.0  -0.5704
  N  N381  1  0.373400  0.379500  0.913300  1.0  -0.3567
  N  N382  1  0.311000  0.523800  0.991110  1.0  -0.3677
  N  N383  1  0.957000  0.992600  0.315930  1.0  -0.2485
  N  N384  1  0.989400  0.053800  0.354800  1.0  -0.3026
  N  N385  1  0.852480  0.056600  0.360110  1.0  0.0946
  N  N386  1  0.770100  0.076500  0.380000  1.0  -0.5703
  N  N387  1  0.626600  0.620500  0.413300  1.0  -0.3561
  N  N388  1  0.689000  0.476200  0.491110  1.0  -0.3676
  Cl  Cl389  1  0.124050  0.124050  0.000000  1.0  1.5592
  Cl  Cl390  1  0.875950  0.875950  0.500000  1.0  1.5598
  Cl  Cl391  1  0.375950  0.624050  0.250000  1.0  1.5585
  Cl  Cl392  1  0.624050  0.375950  0.750000  1.0  1.5603
  O  O393  1  0.138400  0.210000  0.994800  1.0  -0.6338
  O  O394  1  0.137000  0.078300  0.949600  1.0  -0.571
  O  O395  1  0.210000  0.138400  0.005200  1.0  -0.6265
  O  O396  1  0.078300  0.137000  0.050400  1.0  -0.571
  O  O397  1  0.861600  0.790000  0.494800  1.0  -0.6362
  O  O398  1  0.863000  0.921700  0.449600  1.0  -0.5718
  O  O399  1  0.790000  0.861600  0.505200  1.0  -0.6276
  O  O400  1  0.921700  0.863000  0.550400  1.0  -0.5703
  O  O401  1  0.290000  0.638400  0.244800  1.0  -0.6277
  O  O402  1  0.421700  0.637000  0.199600  1.0  -0.5687
  O  O403  1  0.361600  0.710000  0.255200  1.0  -0.6331
  O  O404  1  0.363000  0.578300  0.300400  1.0  -0.573
  O  O405  1  0.710000  0.361600  0.744800  1.0  -0.6262
  O  O406  1  0.578300  0.363000  0.699600  1.0  -0.5694
  O  O407  1  0.638400  0.290000  0.755200  1.0  -0.6366
  O  O408  1  0.637000  0.421700  0.800400  1.0  -0.5731
