# generated using pymatgen
data_CdH36(C4N)12
_symmetry_space_group_name_H-M   'P 1'
_cell_length_a   15.90300000
_cell_length_b   15.90300000
_cell_length_c   21.61500000
_cell_angle_alpha   90.00000000
_cell_angle_beta   90.00000000
_cell_angle_gamma   90.00000000
_symmetry_Int_Tables_number   1
_chemical_formula_structural   CdH36(C4N)12
_chemical_formula_sum   'Cd4 H144 C192 N48'
_cell_volume   5466.55041553
_cell_formula_units_Z   4
loop_
 _symmetry_equiv_pos_site_id
 _symmetry_equiv_pos_as_xyz
  1  'x, y, z'
loop_
 _atom_site_type_symbol
 _atom_site_label
 _atom_site_symmetry_multiplicity
 _atom_site_fract_x
 _atom_site_fract_y
 _atom_site_fract_z
 _atom_site_occupancy
 _atom_site_charge
  Cd  Cd1  1  0.441030  0.558970  0.750000  1.0  0.7799
  Cd  Cd2  1  0.558970  0.441030  0.250000  1.0  0.7795
  Cd  Cd3  1  0.941030  0.941030  0.500000  1.0  0.7801
  Cd  Cd4  1  0.058970  0.058970  0.000000  1.0  0.7792
  H  H5  1  0.993400  0.240500  0.071500  1.0  0.0496
  H  H6  1  0.899900  0.349300  0.061700  1.0  0.115
  H  H7  1  0.845400  0.263600  0.892500  1.0  0.1097
  H  H8  1  0.940400  0.158900  0.907600  1.0  0.0406
  H  H9  1  0.834300  0.463600  0.036400  1.0  0.0905
  H  H10  1  0.730900  0.563100  0.026900  1.0  0.0888
  H  H11  1  0.620700  0.543600  0.958700  1.0  0.0986
  H  H12  1  0.723700  0.324400  0.904400  1.0  0.0839
  H  H13  1  0.503500  0.298600  0.708600  1.0  0.0942
  H  H14  1  0.410000  0.202600  0.664000  1.0  0.0943
  H  H15  1  0.296900  0.153600  0.719000  1.0  0.0652
  H  H16  1  0.359700  0.302800  0.860800  1.0  0.1095
  H  H17  1  0.213700  0.086800  0.783900  1.0  0.108
  H  H18  1  0.115000  0.036600  0.850400  1.0  0.065
  H  H19  1  0.141000  0.229300  0.958400  1.0  0.0573
  H  H20  1  0.238600  0.286700  0.894900  1.0  0.1136
  H  H21  1  0.599600  0.244000  0.847700  1.0  0.3192
  H  H22  1  0.523900  0.244400  0.886700  1.0  0.2709
  H  H23  1  0.006600  0.759500  0.571500  1.0  0.0491
  H  H24  1  0.100100  0.650700  0.561700  1.0  0.116
  H  H25  1  0.154600  0.736400  0.392500  1.0  0.1093
  H  H26  1  0.059600  0.841100  0.407600  1.0  0.0402
  H  H27  1  0.165700  0.536400  0.536400  1.0  0.0912
  H  H28  1  0.269100  0.436900  0.526900  1.0  0.0892
  H  H29  1  0.379300  0.456400  0.458700  1.0  0.099
  H  H30  1  0.276300  0.675600  0.404400  1.0  0.0847
  H  H31  1  0.496500  0.701400  0.208600  1.0  0.0936
  H  H32  1  0.590000  0.797400  0.164000  1.0  0.0948
  H  H33  1  0.703100  0.846400  0.219000  1.0  0.0655
  H  H34  1  0.640300  0.697200  0.360800  1.0  0.1102
  H  H35  1  0.786300  0.913200  0.283900  1.0  0.1084
  H  H36  1  0.885000  0.963400  0.350400  1.0  0.0648
  H  H37  1  0.859000  0.770700  0.458400  1.0  0.0579
  H  H38  1  0.761400  0.713300  0.394900  1.0  0.1137
  H  H39  1  0.400400  0.756000  0.347700  1.0  0.3183
  H  H40  1  0.476100  0.755600  0.386700  1.0  0.2732
  H  H41  1  0.259500  0.493400  0.821500  1.0  0.0491
  H  H42  1  0.150700  0.399900  0.811700  1.0  0.1158
  H  H43  1  0.236400  0.345400  0.642500  1.0  0.1084
  H  H44  1  0.341100  0.440400  0.657600  1.0  0.04
  H  H45  1  0.036400  0.334300  0.786400  1.0  0.0909
  H  H46  1  0.936900  0.230900  0.776900  1.0  0.0889
  H  H47  1  0.956400  0.120700  0.708700  1.0  0.0994
  H  H48  1  0.175600  0.223700  0.654400  1.0  0.0832
  H  H49  1  0.201400  0.003500  0.458600  1.0  0.0948
  H  H50  1  0.297400  0.910000  0.414000  1.0  0.0942
  H  H51  1  0.346400  0.796900  0.469000  1.0  0.0657
  H  H52  1  0.197200  0.859700  0.610800  1.0  0.1101
  H  H53  1  0.413200  0.713700  0.533900  1.0  0.1073
  H  H54  1  0.463400  0.615000  0.600400  1.0  0.0659
  H  H55  1  0.270700  0.641000  0.708400  1.0  0.0572
  H  H56  1  0.213300  0.738600  0.644900  1.0  0.1136
  H  H57  1  0.256000  0.099600  0.597700  1.0  0.3193
  H  H58  1  0.255600  0.023900  0.636700  1.0  0.2703
  H  H59  1  0.740500  0.506600  0.321500  1.0  0.0487
  H  H60  1  0.849300  0.600100  0.311700  1.0  0.1157
  H  H61  1  0.763600  0.654600  0.142500  1.0  0.1086
  H  H62  1  0.658900  0.559600  0.157600  1.0  0.0398
  H  H63  1  0.963600  0.665700  0.286400  1.0  0.091
  H  H64  1  0.063100  0.769100  0.276900  1.0  0.0896
  H  H65  1  0.043600  0.879300  0.208700  1.0  0.099
  H  H66  1  0.824400  0.776300  0.154400  1.0  0.0838
  H  H67  1  0.798600  0.996500  0.958600  1.0  0.0942
  H  H68  1  0.702600  0.090000  0.914000  1.0  0.0947
  H  H69  1  0.653600  0.203100  0.969000  1.0  0.0646
  H  H70  1  0.802800  0.140300  0.110800  1.0  0.1102
  H  H71  1  0.586800  0.286300  0.033900  1.0  0.1067
  H  H72  1  0.536600  0.385000  0.100400  1.0  0.0655
  H  H73  1  0.729300  0.359000  0.208400  1.0  0.0581
  H  H74  1  0.786700  0.261400  0.144900  1.0  0.1139
  H  H75  1  0.744000  0.900400  0.097700  1.0  0.3176
  H  H76  1  0.744400  0.976100  0.136700  1.0  0.2701
  H  H77  1  0.506600  0.740500  0.678500  1.0  0.0487
  H  H78  1  0.600100  0.849300  0.688300  1.0  0.1157
  H  H79  1  0.654600  0.763600  0.857500  1.0  0.1087
  H  H80  1  0.559600  0.658900  0.842400  1.0  0.0406
  H  H81  1  0.665700  0.963600  0.713600  1.0  0.0916
  H  H82  1  0.769100  0.063100  0.723100  1.0  0.0894
  H  H83  1  0.879300  0.043600  0.791300  1.0  0.0986
  H  H84  1  0.776300  0.824400  0.845600  1.0  0.0847
  H  H85  1  0.996500  0.798600  0.041400  1.0  0.0939
  H  H86  1  0.090000  0.702600  0.086000  1.0  0.0945
  H  H87  1  0.203100  0.653600  0.031000  1.0  0.0654
  H  H88  1  0.140300  0.802800  0.889200  1.0  0.109
  H  H89  1  0.286300  0.586800  0.966100  1.0  0.1088
  H  H90  1  0.385000  0.536600  0.899600  1.0  0.0654
  H  H91  1  0.359000  0.729300  0.791600  1.0  0.0583
  H  H92  1  0.261400  0.786700  0.855100  1.0  0.1132
  H  H93  1  0.900400  0.744000  0.902300  1.0  0.3167
  H  H94  1  0.976100  0.744400  0.863300  1.0  0.2737
  H  H95  1  0.493400  0.259500  0.178500  1.0  0.0489
  H  H96  1  0.399900  0.150700  0.188300  1.0  0.1157
  H  H97  1  0.345400  0.236400  0.357500  1.0  0.109
  H  H98  1  0.440400  0.341100  0.342400  1.0  0.0401
  H  H99  1  0.334300  0.036400  0.213600  1.0  0.0912
  H  H100  1  0.230900  0.936900  0.223100  1.0  0.0888
  H  H101  1  0.120700  0.956400  0.291300  1.0  0.0987
  H  H102  1  0.223700  0.175600  0.345600  1.0  0.0844
  H  H103  1  0.003500  0.201400  0.541400  1.0  0.0943
  H  H104  1  0.910000  0.297400  0.586000  1.0  0.094
  H  H105  1  0.796900  0.346400  0.531000  1.0  0.0653
  H  H106  1  0.859700  0.197200  0.389200  1.0  0.1097
  H  H107  1  0.713700  0.413200  0.466100  1.0  0.1091
  H  H108  1  0.615000  0.463400  0.399600  1.0  0.0645
  H  H109  1  0.641000  0.270700  0.291600  1.0  0.0583
  H  H110  1  0.738600  0.213300  0.355100  1.0  0.1132
  H  H111  1  0.099600  0.256000  0.402300  1.0  0.3178
  H  H112  1  0.023900  0.255600  0.363300  1.0  0.2719
  H  H113  1  0.240500  0.993400  0.928500  1.0  0.0489
  H  H114  1  0.349300  0.899900  0.938300  1.0  0.1152
  H  H115  1  0.263600  0.845400  0.107500  1.0  0.1078
  H  H116  1  0.158900  0.940400  0.092400  1.0  0.04
  H  H117  1  0.463600  0.834300  0.963600  1.0  0.0914
  H  H118  1  0.563100  0.730900  0.973100  1.0  0.0899
  H  H119  1  0.543600  0.620700  0.041300  1.0  0.0994
  H  H120  1  0.324400  0.723700  0.095600  1.0  0.0841
  H  H121  1  0.298600  0.503500  0.291400  1.0  0.0944
  H  H122  1  0.202600  0.410000  0.336000  1.0  0.0942
  H  H123  1  0.153600  0.296900  0.281000  1.0  0.0648
  H  H124  1  0.302800  0.359700  0.139200  1.0  0.1094
  H  H125  1  0.086800  0.213700  0.216100  1.0  0.1074
  H  H126  1  0.036600  0.115000  0.149600  1.0  0.0646
  H  H127  1  0.229300  0.141000  0.041600  1.0  0.0595
  H  H128  1  0.286700  0.238600  0.105100  1.0  0.1139
  H  H129  1  0.244000  0.599600  0.152300  1.0  0.3173
  H  H130  1  0.244400  0.523900  0.113300  1.0  0.2699
  H  H131  1  0.759500  0.006600  0.428500  1.0  0.049
  H  H132  1  0.650700  0.100100  0.438300  1.0  0.1157
  H  H133  1  0.736400  0.154600  0.607500  1.0  0.1079
  H  H134  1  0.841100  0.059600  0.592400  1.0  0.04
  H  H135  1  0.536400  0.165700  0.463600  1.0  0.0916
  H  H136  1  0.436900  0.269100  0.473100  1.0  0.0892
  H  H137  1  0.456400  0.379300  0.541300  1.0  0.0994
  H  H138  1  0.675600  0.276300  0.595600  1.0  0.0835
  H  H139  1  0.701400  0.496500  0.791400  1.0  0.0946
  H  H140  1  0.797400  0.590000  0.836000  1.0  0.0935
  H  H141  1  0.846400  0.703100  0.781000  1.0  0.0657
  H  H142  1  0.697200  0.640300  0.639200  1.0  0.1098
  H  H143  1  0.913200  0.786300  0.716100  1.0  0.1076
  H  H144  1  0.963400  0.885000  0.649600  1.0  0.066
  H  H145  1  0.770700  0.859000  0.541600  1.0  0.0575
  H  H146  1  0.713300  0.761400  0.605100  1.0  0.1132
  H  H147  1  0.756000  0.400400  0.652300  1.0  0.3177
  H  H148  1  0.755600  0.476100  0.613300  1.0  0.2712
  C  C149  1  0.962400  0.244700  0.035100  1.0  0.1589
  C  C150  1  0.905700  0.310600  0.029700  1.0  -0.2281
  C  C151  1  0.857900  0.318700  0.976720  1.0  0.0901
  C  C152  1  0.873800  0.260000  0.929980  1.0  -0.2225
  C  C153  1  0.931400  0.197000  0.939500  1.0  0.165
  C  C154  1  0.791600  0.384200  0.970660  1.0  0.0016
  C  C155  1  0.791400  0.455700  0.007700  1.0  -0.1065
  C  C156  1  0.728900  0.514900  0.002600  1.0  -0.1057
  C  C157  1  0.663100  0.503500  0.961800  1.0  -0.137
  C  C158  1  0.660900  0.431700  0.925400  1.0  -0.0407
  C  C159  1  0.725100  0.372100  0.929280  1.0  -0.125
  C  C160  1  0.590900  0.423700  0.880960  1.0  0.2515
  C  C161  1  0.494800  0.372700  0.819110  1.0  0.2353
  C  C162  1  0.439200  0.310700  0.788870  1.0  0.0026
  C  C163  1  0.456300  0.280500  0.730170  1.0  -0.1022
  C  C164  1  0.400700  0.222000  0.704000  1.0  -0.1033
  C  C165  1  0.332600  0.193100  0.736900  1.0  -0.1057
  C  C166  1  0.316300  0.221900  0.796450  1.0  -0.0204
  C  C167  1  0.370200  0.281800  0.821440  1.0  -0.1357
  C  C168  1  0.244600  0.191200  0.833560  1.0  0.0844
  C  C169  1  0.201700  0.116200  0.820030  1.0  -0.2291
  C  C170  1  0.142000  0.086700  0.860270  1.0  0.1594
  C  C171  1  0.157000  0.199500  0.923330  1.0  0.1429
  C  C172  1  0.216600  0.234000  0.885610  1.0  -0.2251
  C  C173  1  0.037600  0.755300  0.535100  1.0  0.1582
  C  C174  1  0.094300  0.689400  0.529700  1.0  -0.2264
  C  C175  1  0.142100  0.681300  0.476720  1.0  0.0906
  C  C176  1  0.126200  0.740000  0.429980  1.0  -0.2226
  C  C177  1  0.068600  0.803000  0.439500  1.0  0.1639
  C  C178  1  0.208400  0.615800  0.470660  1.0  0.0022
  C  C179  1  0.208600  0.544300  0.507700  1.0  -0.105
  C  C180  1  0.271100  0.485100  0.502600  1.0  -0.1054
  C  C181  1  0.336900  0.496500  0.461800  1.0  -0.1379
  C  C182  1  0.339100  0.568300  0.425400  1.0  -0.041
  C  C183  1  0.274900  0.627900  0.429280  1.0  -0.1251
  C  C184  1  0.409100  0.576300  0.380960  1.0  0.2515
  C  C185  1  0.505200  0.627300  0.319110  1.0  0.2346
  C  C186  1  0.560800  0.689300  0.288870  1.0  0.0016
  C  C187  1  0.543700  0.719500  0.230170  1.0  -0.0992
  C  C188  1  0.599300  0.778000  0.204000  1.0  -0.103
  C  C189  1  0.667400  0.806900  0.236900  1.0  -0.1033
  C  C190  1  0.683700  0.778100  0.296450  1.0  -0.0206
  C  C191  1  0.629800  0.718200  0.321440  1.0  -0.135
  C  C192  1  0.755400  0.808800  0.333560  1.0  0.0849
  C  C193  1  0.798300  0.883800  0.320030  1.0  -0.2298
  C  C194  1  0.858000  0.913300  0.360270  1.0  0.1595
  C  C195  1  0.843000  0.800500  0.423330  1.0  0.1437
  C  C196  1  0.783400  0.766000  0.385610  1.0  -0.226
  C  C197  1  0.255300  0.462400  0.785100  1.0  0.1593
  C  C198  1  0.189400  0.405700  0.779700  1.0  -0.2267
  C  C199  1  0.181300  0.357900  0.726720  1.0  0.0904
  C  C200  1  0.240000  0.373800  0.679980  1.0  -0.2213
  C  C201  1  0.303000  0.431400  0.689500  1.0  0.1663
  C  C202  1  0.115800  0.291600  0.720660  1.0  0.0027
  C  C203  1  0.044300  0.291400  0.757700  1.0  -0.1067
  C  C204  1  0.985100  0.228900  0.752600  1.0  -0.1075
  C  C205  1  0.996500  0.163100  0.711800  1.0  -0.1327
  C  C206  1  0.068300  0.160900  0.675400  1.0  -0.0419
  C  C207  1  0.127900  0.225100  0.679280  1.0  -0.1265
  C  C208  1  0.076300  0.090900  0.630960  1.0  0.2506
  C  C209  1  0.127300  0.994800  0.569110  1.0  0.2355
  C  C210  1  0.189300  0.939200  0.538870  1.0  0.0013
  C  C211  1  0.219500  0.956300  0.480170  1.0  -0.1011
  C  C212  1  0.278000  0.900700  0.454000  1.0  -0.1034
  C  C213  1  0.306900  0.832600  0.486900  1.0  -0.1024
  C  C214  1  0.278100  0.816300  0.546450  1.0  -0.0213
  C  C215  1  0.218200  0.870200  0.571440  1.0  -0.134
  C  C216  1  0.308800  0.744600  0.583560  1.0  0.0846
  C  C217  1  0.383800  0.701700  0.570030  1.0  -0.2272
  C  C218  1  0.413300  0.642000  0.610270  1.0  0.1606
  C  C219  1  0.300500  0.657000  0.673330  1.0  0.1451
  C  C220  1  0.266000  0.716600  0.635610  1.0  -0.2223
  C  C221  1  0.744700  0.537600  0.285100  1.0  0.16
  C  C222  1  0.810600  0.594300  0.279700  1.0  -0.2275
  C  C223  1  0.818700  0.642100  0.226720  1.0  0.0903
  C  C224  1  0.760000  0.626200  0.179980  1.0  -0.2212
  C  C225  1  0.697000  0.568600  0.189500  1.0  0.1665
  C  C226  1  0.884200  0.708400  0.220660  1.0  0.0009
  C  C227  1  0.955700  0.708600  0.257700  1.0  -0.106
  C  C228  1  0.014900  0.771100  0.252600  1.0  -0.1059
  C  C229  1  0.003500  0.836900  0.211800  1.0  -0.1352
  C  C230  1  0.931700  0.839100  0.175400  1.0  -0.0418
  C  C231  1  0.872100  0.774900  0.179280  1.0  -0.1257
  C  C232  1  0.923700  0.909100  0.130960  1.0  0.2507
  C  C233  1  0.872700  0.005200  0.069110  1.0  0.2357
  C  C234  1  0.810700  0.060800  0.038870  1.0  0.0015
  C  C235  1  0.780500  0.043700  0.980170  1.0  -0.1019
  C  C236  1  0.722000  0.099300  0.954000  1.0  -0.1055
  C  C237  1  0.693100  0.167400  0.986900  1.0  -0.1011
  C  C238  1  0.721900  0.183700  0.046450  1.0  -0.0201
  C  C239  1  0.781800  0.129800  0.071440  1.0  -0.1351
  C  C240  1  0.691200  0.255400  0.083560  1.0  0.0849
  C  C241  1  0.616200  0.298300  0.070030  1.0  -0.227
  C  C242  1  0.586700  0.358000  0.110270  1.0  0.1614
  C  C243  1  0.699500  0.343000  0.173330  1.0  0.145
  C  C244  1  0.734000  0.283400  0.135610  1.0  -0.2245
  C  C245  1  0.537600  0.744700  0.714900  1.0  0.1592
  C  C246  1  0.594300  0.810600  0.720300  1.0  -0.2277
  C  C247  1  0.642100  0.818700  0.773280  1.0  0.09
  C  C248  1  0.626200  0.760000  0.820020  1.0  -0.2224
  C  C249  1  0.568600  0.697000  0.810500  1.0  0.1646
  C  C250  1  0.708400  0.884200  0.779340  1.0  0.0029
  C  C251  1  0.708600  0.955700  0.742300  1.0  -0.1056
  C  C252  1  0.771100  0.014900  0.747400  1.0  -0.1054
  C  C253  1  0.836900  0.003500  0.788200  1.0  -0.1374
  C  C254  1  0.839100  0.931700  0.824600  1.0  -0.0417
  C  C255  1  0.774900  0.872100  0.820720  1.0  -0.1248
  C  C256  1  0.909100  0.923700  0.869040  1.0  0.2518
  C  C257  1  0.005200  0.872700  0.930890  1.0  0.2347
  C  C258  1  0.060800  0.810700  0.961130  1.0  0.0014
  C  C259  1  0.043700  0.780500  0.019830  1.0  -0.0991
  C  C260  1  0.099300  0.722000  0.046000  1.0  -0.1034
  C  C261  1  0.167400  0.693100  0.013100  1.0  -0.105
  C  C262  1  0.183700  0.721900  0.953550  1.0  -0.0197
  C  C263  1  0.129800  0.781800  0.928560  1.0  -0.1367
  C  C264  1  0.255400  0.691200  0.916440  1.0  0.0857
  C  C265  1  0.298300  0.616200  0.929970  1.0  -0.2282
  C  C266  1  0.358000  0.586700  0.889730  1.0  0.1596
  C  C267  1  0.343000  0.699500  0.826670  1.0  0.1447
  C  C268  1  0.283400  0.734000  0.864390  1.0  -0.2276
  C  C269  1  0.462400  0.255300  0.214900  1.0  0.1581
  C  C270  1  0.405700  0.189400  0.220300  1.0  -0.2274
  C  C271  1  0.357900  0.181300  0.273280  1.0  0.0902
  C  C272  1  0.373800  0.240000  0.320020  1.0  -0.2221
  C  C273  1  0.431400  0.303000  0.310500  1.0  0.166
  C  C274  1  0.291600  0.115800  0.279340  1.0  0.0003
  C  C275  1  0.291400  0.044300  0.242300  1.0  -0.1057
  C  C276  1  0.228900  0.985100  0.247400  1.0  -0.1049
  C  C277  1  0.163100  0.996500  0.288200  1.0  -0.1367
  C  C278  1  0.160900  0.068300  0.324600  1.0  -0.0404
  C  C279  1  0.225100  0.127900  0.320720  1.0  -0.1246
  C  C280  1  0.090900  0.076300  0.369040  1.0  0.2512
  C  C281  1  0.994800  0.127300  0.430890  1.0  0.2345
  C  C282  1  0.939200  0.189300  0.461130  1.0  0.0023
  C  C283  1  0.956300  0.219500  0.519830  1.0  -0.1007
  C  C284  1  0.900700  0.278000  0.546000  1.0  -0.1032
  C  C285  1  0.832600  0.306900  0.513100  1.0  -0.1043
  C  C286  1  0.816300  0.278100  0.453550  1.0  -0.0197
  C  C287  1  0.870200  0.218200  0.428560  1.0  -0.1375
  C  C288  1  0.744600  0.308800  0.416440  1.0  0.0853
  C  C289  1  0.701700  0.383800  0.429970  1.0  -0.2294
  C  C290  1  0.642000  0.413300  0.389730  1.0  0.1587
  C  C291  1  0.657000  0.300500  0.326670  1.0  0.143
  C  C292  1  0.716600  0.266000  0.364390  1.0  -0.2278
  C  C293  1  0.244700  0.962400  0.964900  1.0  0.16
  C  C294  1  0.310600  0.905700  0.970300  1.0  -0.2275
  C  C295  1  0.318700  0.857900  0.023280  1.0  0.0894
  C  C296  1  0.260000  0.873800  0.070020  1.0  -0.2212
  C  C297  1  0.197000  0.931400  0.060500  1.0  0.1665
  C  C298  1  0.384200  0.791600  0.029340  1.0  0.001
  C  C299  1  0.455700  0.791400  0.992300  1.0  -0.1068
  C  C300  1  0.514900  0.728900  0.997400  1.0  -0.1065
  C  C301  1  0.503500  0.663100  0.038200  1.0  -0.1345
  C  C302  1  0.431700  0.660900  0.074600  1.0  -0.0419
  C  C303  1  0.372100  0.725100  0.070720  1.0  -0.1258
  C  C304  1  0.423700  0.590900  0.119040  1.0  0.2506
  C  C305  1  0.372700  0.494800  0.180890  1.0  0.2349
  C  C306  1  0.310700  0.439200  0.211130  1.0  0.001
  C  C307  1  0.280500  0.456300  0.269830  1.0  -0.0996
  C  C308  1  0.222000  0.400700  0.296000  1.0  -0.105
  C  C309  1  0.193100  0.332600  0.263100  1.0  -0.1012
  C  C310  1  0.221900  0.316300  0.203550  1.0  -0.0199
  C  C311  1  0.281800  0.370200  0.178560  1.0  -0.1367
  C  C312  1  0.191200  0.244600  0.166440  1.0  0.0858
  C  C313  1  0.116200  0.201700  0.179970  1.0  -0.2262
  C  C314  1  0.086700  0.142000  0.139730  1.0  0.1611
  C  C315  1  0.199500  0.157000  0.076670  1.0  0.1452
  C  C316  1  0.234000  0.216600  0.114390  1.0  -0.2265
  C  C317  1  0.755300  0.037600  0.464900  1.0  0.1594
  C  C318  1  0.689400  0.094300  0.470300  1.0  -0.2268
  C  C319  1  0.681300  0.142100  0.523280  1.0  0.0904
  C  C320  1  0.740000  0.126200  0.570020  1.0  -0.2209
  C  C321  1  0.803000  0.068600  0.560500  1.0  0.1669
  C  C322  1  0.615800  0.208400  0.529340  1.0  0.0015
  C  C323  1  0.544300  0.208600  0.492300  1.0  -0.1055
  C  C324  1  0.485100  0.271100  0.497400  1.0  -0.1069
  C  C325  1  0.496500  0.336900  0.538200  1.0  -0.1324
  C  C326  1  0.568300  0.339100  0.574600  1.0  -0.0418
  C  C327  1  0.627900  0.274900  0.570720  1.0  -0.1258
  C  C328  1  0.576300  0.409100  0.619040  1.0  0.2509
  C  C329  1  0.627300  0.505200  0.680890  1.0  0.2349
  C  C330  1  0.689300  0.560800  0.711130  1.0  0.0018
  C  C331  1  0.719500  0.543700  0.769830  1.0  -0.1021
  C  C332  1  0.778000  0.599300  0.796000  1.0  -0.1044
  C  C333  1  0.806900  0.667400  0.763100  1.0  -0.1026
  C  C334  1  0.778100  0.683700  0.703550  1.0  -0.0206
  C  C335  1  0.718200  0.629800  0.678560  1.0  -0.1356
  C  C336  1  0.808800  0.755400  0.666440  1.0  0.0852
  C  C337  1  0.883800  0.798300  0.679970  1.0  -0.2263
  C  C338  1  0.913300  0.858000  0.639730  1.0  0.1605
  C  C339  1  0.800500  0.843000  0.576670  1.0  0.1456
  C  C340  1  0.766000  0.783400  0.614390  1.0  -0.2239
  N  N341  1  0.553800  0.487330  0.854690  1.0  -0.3071
  N  N342  1  0.492710  0.455170  0.815770  1.0  -0.25
  N  N343  1  0.555700  0.350610  0.859930  1.0  0.0877
  N  N344  1  0.575200  0.268800  0.880730  1.0  -0.5725
  N  N345  1  0.975250  0.187100  0.991430  1.0  -0.3713
  N  N346  1  0.120300  0.125100  0.912550  1.0  -0.3652
  N  N347  1  0.446200  0.512670  0.354690  1.0  -0.3069
  N  N348  1  0.507290  0.544830  0.315770  1.0  -0.25
  N  N349  1  0.444300  0.649390  0.359930  1.0  0.0879
  N  N350  1  0.424800  0.731200  0.380730  1.0  -0.5726
  N  N351  1  0.024750  0.812900  0.491430  1.0  -0.3712
  N  N352  1  0.879700  0.874900  0.412550  1.0  -0.3653
  N  N353  1  0.012670  0.053800  0.604690  1.0  -0.308
  N  N354  1  0.044830  0.992710  0.565770  1.0  -0.2498
  N  N355  1  0.149390  0.055700  0.609930  1.0  0.0884
  N  N356  1  0.231200  0.075200  0.630730  1.0  -0.5712
  N  N357  1  0.312900  0.475250  0.741430  1.0  -0.3724
  N  N358  1  0.374900  0.620300  0.662550  1.0  -0.3644
  N  N359  1  0.987330  0.946200  0.104690  1.0  -0.3079
  N  N360  1  0.955170  0.007290  0.065770  1.0  -0.2493
  N  N361  1  0.850610  0.944300  0.109930  1.0  0.0883
  N  N362  1  0.768800  0.924800  0.130730  1.0  -0.5723
  N  N363  1  0.687100  0.524750  0.241430  1.0  -0.3708
  N  N364  1  0.625100  0.379700  0.162550  1.0  -0.3653
  N  N365  1  0.946200  0.987330  0.895310  1.0  -0.3059
  N  N366  1  0.007290  0.955170  0.934230  1.0  -0.2506
  N  N367  1  0.944300  0.850610  0.890070  1.0  0.0877
  N  N368  1  0.924800  0.768800  0.869270  1.0  -0.5725
  N  N369  1  0.524750  0.687100  0.758570  1.0  -0.3712
  N  N370  1  0.379700  0.625100  0.837450  1.0  -0.3661
  N  N371  1  0.053800  0.012670  0.395310  1.0  -0.3056
  N  N372  1  0.992710  0.044830  0.434230  1.0  -0.2493
  N  N373  1  0.055700  0.149390  0.390070  1.0  0.0878
  N  N374  1  0.075200  0.231200  0.369270  1.0  -0.5733
  N  N375  1  0.475250  0.312900  0.258570  1.0  -0.371
  N  N376  1  0.620300  0.374900  0.337450  1.0  -0.3658
  N  N377  1  0.487330  0.553800  0.145310  1.0  -0.3065
  N  N378  1  0.455170  0.492710  0.184230  1.0  -0.2496
  N  N379  1  0.350610  0.555700  0.140070  1.0  0.0881
  N  N380  1  0.268800  0.575200  0.119270  1.0  -0.572
  N  N381  1  0.187100  0.975250  0.008570  1.0  -0.3711
  N  N382  1  0.125100  0.120300  0.087450  1.0  -0.3657
  N  N383  1  0.512670  0.446200  0.645310  1.0  -0.3067
  N  N384  1  0.544830  0.507290  0.684230  1.0  -0.2495
  N  N385  1  0.649390  0.444300  0.640070  1.0  0.0884
  N  N386  1  0.731200  0.424800  0.619270  1.0  -0.5737
  N  N387  1  0.812900  0.024750  0.508570  1.0  -0.3714
  N  N388  1  0.874900  0.879700  0.587450  1.0  -0.3655
