# generated using pymatgen
data_CdH36C48N12ClO4
_symmetry_space_group_name_H-M   'P 1'
_cell_length_a   15.85060000
_cell_length_b   15.85060000
_cell_length_c   21.57600000
_cell_angle_alpha   90.00000000
_cell_angle_beta   90.00000000
_cell_angle_gamma   90.00000000
_symmetry_Int_Tables_number   1
_chemical_formula_structural   CdH36C48N12ClO4
_chemical_formula_sum   'Cd4 H144 C192 N48 Cl4 O16'
_cell_volume   5420.78704329
_cell_formula_units_Z   4
loop_
 _symmetry_equiv_pos_site_id
 _symmetry_equiv_pos_as_xyz
  1  'x, y, z'
loop_
 _atom_site_type_symbol
 _atom_site_label
 _atom_site_symmetry_multiplicity
 _atom_site_fract_x
 _atom_site_fract_y
 _atom_site_fract_z
 _atom_site_occupancy
 _atom_site_charge
  Cd  Cd1  1  0.440010  0.440010  0.500000  1.0  0.7897
  Cd  Cd2  1  0.559990  0.559990  0.000000  1.0  0.7898
  Cd  Cd3  1  0.059990  0.940010  0.750000  1.0  0.7898
  Cd  Cd4  1  0.940010  0.059990  0.250000  1.0  0.7896
  H  H5  1  0.559100  0.342500  0.592800  1.0  0.0521
  H  H6  1  0.653000  0.232600  0.609300  1.0  0.1202
  H  H7  1  0.597700  0.147000  0.438200  1.0  0.1293
  H  H8  1  0.504800  0.258600  0.427100  1.0  0.0589
  H  H9  1  0.662200  0.032700  0.464300  1.0  0.1029
  H  H10  1  0.767200  0.931000  0.474700  1.0  0.1014
  H  H11  1  0.879500  0.953400  0.542500  1.0  0.1018
  H  H12  1  0.776300  0.174200  0.596000  1.0  0.0906
  H  H13  1  0.994200  0.200200  0.792000  1.0  0.0873
  H  H14  1  0.088800  0.295000  0.837400  1.0  0.0938
  H  H15  1  0.204300  0.345700  0.783400  1.0  0.078
  H  H16  1  0.140000  0.194400  0.639200  1.0  0.1139
  H  H17  1  0.263600  0.209000  0.606700  1.0  0.1273
  H  H18  1  0.361800  0.267700  0.541700  1.0  0.074
  H  H19  1  0.386000  0.464700  0.649800  1.0  0.0788
  H  H20  1  0.286100  0.413700  0.717100  1.0  0.1267
  H  H21  1  0.972800  0.256500  0.607700  1.0  0.3272
  H  H22  1  0.900500  0.259300  0.651500  1.0  0.2996
  H  H23  1  0.440900  0.657500  0.092800  1.0  0.0527
  H  H24  1  0.347000  0.767400  0.109300  1.0  0.1203
  H  H25  1  0.402300  0.853000  0.938200  1.0  0.1293
  H  H26  1  0.495200  0.741400  0.927100  1.0  0.0591
  H  H27  1  0.337800  0.967300  0.964300  1.0  0.1036
  H  H28  1  0.232800  0.069000  0.974700  1.0  0.1016
  H  H29  1  0.120500  0.046600  0.042500  1.0  0.1021
  H  H30  1  0.223700  0.825800  0.096000  1.0  0.0906
  H  H31  1  0.005800  0.799800  0.292000  1.0  0.0869
  H  H32  1  0.911200  0.705000  0.337400  1.0  0.0939
  H  H33  1  0.795700  0.654300  0.283400  1.0  0.0777
  H  H34  1  0.860000  0.805600  0.139200  1.0  0.1136
  H  H35  1  0.736400  0.791000  0.106700  1.0  0.1274
  H  H36  1  0.638200  0.732300  0.041700  1.0  0.0742
  H  H37  1  0.614000  0.535300  0.149800  1.0  0.0791
  H  H38  1  0.713900  0.586300  0.217100  1.0  0.1259
  H  H39  1  0.027200  0.743500  0.107700  1.0  0.3268
  H  H40  1  0.099500  0.740700  0.151500  1.0  0.2997
  H  H41  1  0.157500  0.059100  0.842800  1.0  0.0513
  H  H42  1  0.267400  0.153000  0.859300  1.0  0.1206
  H  H43  1  0.353000  0.097700  0.688200  1.0  0.1284
  H  H44  1  0.241400  0.004800  0.677100  1.0  0.0588
  H  H45  1  0.467300  0.162200  0.714300  1.0  0.1031
  H  H46  1  0.569000  0.267200  0.724700  1.0  0.1018
  H  H47  1  0.546600  0.379500  0.792500  1.0  0.1018
  H  H48  1  0.325800  0.276300  0.846000  1.0  0.0903
  H  H49  1  0.299800  0.494200  0.042000  1.0  0.0877
  H  H50  1  0.205000  0.588800  0.087400  1.0  0.0938
  H  H51  1  0.154300  0.704300  0.033400  1.0  0.0774
  H  H52  1  0.305600  0.640000  0.889200  1.0  0.1143
  H  H53  1  0.291000  0.763600  0.856700  1.0  0.1278
  H  H54  1  0.232300  0.861800  0.791700  1.0  0.0745
  H  H55  1  0.035300  0.886000  0.899800  1.0  0.0786
  H  H56  1  0.086300  0.786100  0.967100  1.0  0.1259
  H  H57  1  0.243500  0.472800  0.857700  1.0  0.3264
  H  H58  1  0.240700  0.400500  0.901500  1.0  0.3002
  H  H59  1  0.842500  0.940900  0.342800  1.0  0.0507
  H  H60  1  0.732600  0.847000  0.359300  1.0  0.1206
  H  H61  1  0.647000  0.902300  0.188200  1.0  0.1282
  H  H62  1  0.758600  0.995200  0.177100  1.0  0.0588
  H  H63  1  0.532700  0.837800  0.214300  1.0  0.1034
  H  H64  1  0.431000  0.732800  0.224700  1.0  0.1023
  H  H65  1  0.453400  0.620500  0.292500  1.0  0.102
  H  H66  1  0.674200  0.723700  0.346000  1.0  0.0901
  H  H67  1  0.700200  0.505800  0.542000  1.0  0.088
  H  H68  1  0.795000  0.411200  0.587400  1.0  0.0927
  H  H69  1  0.845700  0.295700  0.533400  1.0  0.0772
  H  H70  1  0.694400  0.360000  0.389200  1.0  0.1136
  H  H71  1  0.709000  0.236400  0.356700  1.0  0.1274
  H  H72  1  0.767700  0.138200  0.291700  1.0  0.0745
  H  H73  1  0.964700  0.114000  0.399800  1.0  0.0788
  H  H74  1  0.913700  0.213900  0.467100  1.0  0.1255
  H  H75  1  0.756500  0.527200  0.357700  1.0  0.3258
  H  H76  1  0.759300  0.599500  0.401500  1.0  0.2994
  H  H77  1  0.940900  0.842500  0.657200  1.0  0.0522
  H  H78  1  0.847000  0.732600  0.640700  1.0  0.1205
  H  H79  1  0.902300  0.647000  0.811800  1.0  0.1295
  H  H80  1  0.995200  0.758600  0.822900  1.0  0.0581
  H  H81  1  0.837800  0.532700  0.785700  1.0  0.1025
  H  H82  1  0.732800  0.431000  0.775300  1.0  0.1016
  H  H83  1  0.620500  0.453400  0.707500  1.0  0.1021
  H  H84  1  0.723700  0.674200  0.654000  1.0  0.0907
  H  H85  1  0.505800  0.700200  0.458000  1.0  0.0868
  H  H86  1  0.411200  0.795000  0.412600  1.0  0.0939
  H  H87  1  0.295700  0.845700  0.466600  1.0  0.0786
  H  H88  1  0.360000  0.694400  0.610800  1.0  0.1137
  H  H89  1  0.236400  0.709000  0.643300  1.0  0.1277
  H  H90  1  0.138200  0.767700  0.708300  1.0  0.0746
  H  H91  1  0.114000  0.964700  0.600200  1.0  0.0791
  H  H92  1  0.213900  0.913700  0.532900  1.0  0.1265
  H  H93  1  0.527200  0.756500  0.642300  1.0  0.3265
  H  H94  1  0.599500  0.759300  0.598500  1.0  0.2996
  H  H95  1  0.059100  0.157500  0.157200  1.0  0.0526
  H  H96  1  0.153000  0.267400  0.140700  1.0  0.1202
  H  H97  1  0.097700  0.353000  0.311800  1.0  0.1292
  H  H98  1  0.004800  0.241400  0.322900  1.0  0.058
  H  H99  1  0.162200  0.467300  0.285700  1.0  0.1023
  H  H100  1  0.267200  0.569000  0.275300  1.0  0.1016
  H  H101  1  0.379500  0.546600  0.207500  1.0  0.1017
  H  H102  1  0.276300  0.325800  0.154000  1.0  0.0906
  H  H103  1  0.494200  0.299800  0.958000  1.0  0.0868
  H  H104  1  0.588800  0.205000  0.912600  1.0  0.0941
  H  H105  1  0.704300  0.154300  0.966600  1.0  0.0774
  H  H106  1  0.640000  0.305600  0.110800  1.0  0.1141
  H  H107  1  0.763600  0.291000  0.143300  1.0  0.128
  H  H108  1  0.861800  0.232300  0.208300  1.0  0.0742
  H  H109  1  0.886000  0.035300  0.100200  1.0  0.0786
  H  H110  1  0.786100  0.086300  0.032900  1.0  0.1267
  H  H111  1  0.472800  0.243500  0.142300  1.0  0.3274
  H  H112  1  0.400500  0.240700  0.098500  1.0  0.2992
  H  H113  1  0.342500  0.559100  0.407200  1.0  0.0507
  H  H114  1  0.232600  0.653000  0.390700  1.0  0.1207
  H  H115  1  0.147000  0.597700  0.561800  1.0  0.1285
  H  H116  1  0.258600  0.504800  0.572900  1.0  0.0582
  H  H117  1  0.032700  0.662200  0.535700  1.0  0.1026
  H  H118  1  0.931000  0.767200  0.525300  1.0  0.102
  H  H119  1  0.953400  0.879500  0.457500  1.0  0.1021
  H  H120  1  0.174200  0.776300  0.404000  1.0  0.0902
  H  H121  1  0.200200  0.994200  0.208000  1.0  0.0877
  H  H122  1  0.295000  0.088800  0.162600  1.0  0.0933
  H  H123  1  0.345700  0.204300  0.216600  1.0  0.0775
  H  H124  1  0.194400  0.140000  0.360800  1.0  0.114
  H  H125  1  0.209000  0.263600  0.393300  1.0  0.1278
  H  H126  1  0.267700  0.361800  0.458300  1.0  0.0747
  H  H127  1  0.464700  0.386000  0.350200  1.0  0.078
  H  H128  1  0.413700  0.286100  0.282900  1.0  0.1258
  H  H129  1  0.256500  0.972800  0.392300  1.0  0.3253
  H  H130  1  0.259300  0.900500  0.348500  1.0  0.2992
  H  H131  1  0.657500  0.440900  0.907200  1.0  0.0512
  H  H132  1  0.767400  0.347000  0.890700  1.0  0.1207
  H  H133  1  0.853000  0.402300  0.061800  1.0  0.1283
  H  H134  1  0.741400  0.495200  0.072900  1.0  0.0576
  H  H135  1  0.967300  0.337800  0.035700  1.0  0.102
  H  H136  1  0.069000  0.232800  0.025300  1.0  0.1018
  H  H137  1  0.046600  0.120500  0.957500  1.0  0.1023
  H  H138  1  0.825800  0.223700  0.904000  1.0  0.0908
  H  H139  1  0.799800  0.005800  0.708000  1.0  0.087
  H  H140  1  0.705000  0.911200  0.662600  1.0  0.0934
  H  H141  1  0.654300  0.795700  0.716600  1.0  0.077
  H  H142  1  0.805600  0.860000  0.860800  1.0  0.1147
  H  H143  1  0.791000  0.736400  0.893300  1.0  0.1286
  H  H144  1  0.732300  0.638200  0.958300  1.0  0.0745
  H  H145  1  0.535300  0.614000  0.850200  1.0  0.0786
  H  H146  1  0.586300  0.713900  0.782900  1.0  0.1261
  H  H147  1  0.743500  0.027200  0.892300  1.0  0.326
  H  H148  1  0.740700  0.099500  0.848500  1.0  0.2994
  C  C149  1  0.567200  0.302300  0.560700  1.0  0.1673
  C  C150  1  0.624600  0.237300  0.570700  1.0  -0.2292
  C  C151  1  0.640200  0.179100  0.523300  1.0  0.1007
  C  C152  1  0.592300  0.187100  0.470600  1.0  -0.2169
  C  C153  1  0.535800  0.253900  0.464600  1.0  0.1645
  C  C154  1  0.707000  0.113400  0.530600  1.0  0.0233
  C  C155  1  0.706400  0.040900  0.493400  1.0  -0.1181
  C  C156  1  0.769500  0.981100  0.498800  1.0  -0.0894
  C  C157  1  0.835900  0.994300  0.539200  1.0  -0.099
  C  C158  1  0.839100  0.066100  0.574400  1.0  -0.0017
  C  C159  1  0.774300  0.125200  0.570700  1.0  -0.1284
  C  C160  1  0.908900  0.074100  0.618600  1.0  0.2446
  C  C161  1  0.005500  0.124900  0.681200  1.0  0.2486
  C  C162  1  0.060100  0.187300  0.711300  1.0  -0.0382
  C  C163  1  0.043000  0.218000  0.770000  1.0  -0.1247
  C  C164  1  0.098800  0.275700  0.796300  1.0  -0.0843
  C  C165  1  0.167800  0.305500  0.764600  1.0  -0.096
  C  C166  1  0.183900  0.276400  0.704700  1.0  0.0189
  C  C167  1  0.129000  0.216000  0.679500  1.0  -0.1362
  C  C168  1  0.255600  0.307800  0.667700  1.0  0.0876
  C  C169  1  0.285100  0.263700  0.615500  1.0  -0.2097
  C  C170  1  0.344500  0.298700  0.577200  1.0  0.1379
  C  C171  1  0.358200  0.413400  0.639800  1.0  0.1531
  C  C172  1  0.298400  0.383200  0.680300  1.0  -0.2007
  C  C173  1  0.432800  0.697700  0.060700  1.0  0.1679
  C  C174  1  0.375400  0.762700  0.070700  1.0  -0.2289
  C  C175  1  0.359800  0.820900  0.023300  1.0  0.0999
  C  C176  1  0.407700  0.812900  0.970600  1.0  -0.2155
  C  C177  1  0.464200  0.746100  0.964600  1.0  0.1651
  C  C178  1  0.293000  0.886600  0.030600  1.0  0.0227
  C  C179  1  0.293600  0.959100  0.993400  1.0  -0.1182
  C  C180  1  0.230500  0.018900  0.998800  1.0  -0.0891
  C  C181  1  0.164100  0.005700  0.039200  1.0  -0.098
  C  C182  1  0.160900  0.933900  0.074400  1.0  -0.0009
  C  C183  1  0.225700  0.874800  0.070700  1.0  -0.1283
  C  C184  1  0.091100  0.925900  0.118600  1.0  0.2447
  C  C185  1  0.994500  0.875100  0.181200  1.0  0.2488
  C  C186  1  0.939900  0.812700  0.211300  1.0  -0.0364
  C  C187  1  0.957000  0.782000  0.270000  1.0  -0.1258
  C  C188  1  0.901200  0.724300  0.296300  1.0  -0.0851
  C  C189  1  0.832200  0.694500  0.264600  1.0  -0.0972
  C  C190  1  0.816100  0.723600  0.204700  1.0  0.0189
  C  C191  1  0.871000  0.784000  0.179500  1.0  -0.1367
  C  C192  1  0.744400  0.692200  0.167700  1.0  0.0872
  C  C193  1  0.714900  0.736300  0.115500  1.0  -0.2099
  C  C194  1  0.655500  0.701300  0.077200  1.0  0.137
  C  C195  1  0.641800  0.586600  0.139800  1.0  0.1532
  C  C196  1  0.701600  0.616800  0.180300  1.0  -0.1996
  C  C197  1  0.197700  0.067200  0.810700  1.0  0.169
  C  C198  1  0.262700  0.124600  0.820700  1.0  -0.2282
  C  C199  1  0.320900  0.140200  0.773300  1.0  0.1002
  C  C200  1  0.312900  0.092300  0.720600  1.0  -0.217
  C  C201  1  0.246100  0.035800  0.714600  1.0  0.1658
  C  C202  1  0.386600  0.207000  0.780600  1.0  0.0214
  C  C203  1  0.459100  0.206400  0.743400  1.0  -0.1191
  C  C204  1  0.518900  0.269500  0.748800  1.0  -0.0899
  C  C205  1  0.505700  0.335900  0.789200  1.0  -0.0973
  C  C206  1  0.433900  0.339100  0.824400  1.0  -0.0012
  C  C207  1  0.374800  0.274300  0.820700  1.0  -0.13
  C  C208  1  0.425900  0.408900  0.868600  1.0  0.2459
  C  C209  1  0.375100  0.505500  0.931200  1.0  0.2486
  C  C210  1  0.312700  0.560100  0.961300  1.0  -0.039
  C  C211  1  0.282000  0.543000  0.020000  1.0  -0.1277
  C  C212  1  0.224300  0.598800  0.046300  1.0  -0.085
  C  C213  1  0.194500  0.667800  0.014600  1.0  -0.0953
  C  C214  1  0.223600  0.683900  0.954700  1.0  0.0197
  C  C215  1  0.284000  0.629000  0.929500  1.0  -0.1353
  C  C216  1  0.192200  0.755600  0.917700  1.0  0.0872
  C  C217  1  0.236300  0.785100  0.865500  1.0  -0.2116
  C  C218  1  0.201300  0.844500  0.827200  1.0  0.1393
  C  C219  1  0.086600  0.858200  0.889800  1.0  0.1536
  C  C220  1  0.116800  0.798400  0.930300  1.0  -0.1979
  C  C221  1  0.802300  0.932800  0.310700  1.0  0.1684
  C  C222  1  0.737300  0.875400  0.320700  1.0  -0.2287
  C  C223  1  0.679100  0.859800  0.273300  1.0  0.0996
  C  C224  1  0.687100  0.907700  0.220600  1.0  -0.2167
  C  C225  1  0.753900  0.964200  0.214600  1.0  0.1661
  C  C226  1  0.613400  0.793000  0.280600  1.0  0.0221
  C  C227  1  0.540900  0.793600  0.243400  1.0  -0.1177
  C  C228  1  0.481100  0.730500  0.248800  1.0  -0.0912
  C  C229  1  0.494300  0.664100  0.289200  1.0  -0.0965
  C  C230  1  0.566100  0.660900  0.324400  1.0  -0.0014
  C  C231  1  0.625200  0.725700  0.320700  1.0  -0.1301
  C  C232  1  0.574100  0.591100  0.368600  1.0  0.2459
  C  C233  1  0.624900  0.494500  0.431200  1.0  0.2488
  C  C234  1  0.687300  0.439900  0.461300  1.0  -0.0367
  C  C235  1  0.718000  0.457000  0.520000  1.0  -0.1257
  C  C236  1  0.775700  0.401200  0.546300  1.0  -0.0842
  C  C237  1  0.805500  0.332200  0.514600  1.0  -0.0973
  C  C238  1  0.776400  0.316100  0.454700  1.0  0.0194
  C  C239  1  0.716000  0.371000  0.429500  1.0  -0.1351
  C  C240  1  0.807800  0.244400  0.417700  1.0  0.0874
  C  C241  1  0.763700  0.214900  0.365500  1.0  -0.2113
  C  C242  1  0.798700  0.155500  0.327200  1.0  0.1392
  C  C243  1  0.913400  0.141800  0.389800  1.0  0.1536
  C  C244  1  0.883200  0.201600  0.430300  1.0  -0.1983
  C  C245  1  0.932800  0.802300  0.689300  1.0  0.1675
  C  C246  1  0.875400  0.737300  0.679300  1.0  -0.2285
  C  C247  1  0.859800  0.679100  0.726700  1.0  0.1002
  C  C248  1  0.907700  0.687100  0.779400  1.0  -0.2163
  C  C249  1  0.964200  0.753900  0.785400  1.0  0.1644
  C  C250  1  0.793000  0.613400  0.719400  1.0  0.0224
  C  C251  1  0.793600  0.540900  0.756600  1.0  -0.1185
  C  C252  1  0.730500  0.481100  0.751200  1.0  -0.0885
  C  C253  1  0.664100  0.494300  0.710800  1.0  -0.0973
  C  C254  1  0.660900  0.566100  0.675600  1.0  -0.0013
  C  C255  1  0.725700  0.625200  0.679300  1.0  -0.1293
  C  C256  1  0.591100  0.574100  0.631400  1.0  0.2451
  C  C257  1  0.494500  0.624900  0.568800  1.0  0.2485
  C  C258  1  0.439900  0.687300  0.538700  1.0  -0.0363
  C  C259  1  0.457000  0.718000  0.480000  1.0  -0.1262
  C  C260  1  0.401200  0.775700  0.453700  1.0  -0.0839
  C  C261  1  0.332200  0.805500  0.485400  1.0  -0.097
  C  C262  1  0.316100  0.776400  0.545300  1.0  0.0188
  C  C263  1  0.371000  0.716000  0.570500  1.0  -0.1371
  C  C264  1  0.244400  0.807800  0.582300  1.0  0.0864
  C  C265  1  0.214900  0.763700  0.634500  1.0  -0.21
  C  C266  1  0.155500  0.798700  0.672800  1.0  0.1365
  C  C267  1  0.141800  0.913400  0.610200  1.0  0.1532
  C  C268  1  0.201600  0.883200  0.569700  1.0  -0.2005
  C  C269  1  0.067200  0.197700  0.189300  1.0  0.1675
  C  C270  1  0.124600  0.262700  0.179300  1.0  -0.2293
  C  C271  1  0.140200  0.320900  0.226700  1.0  0.1008
  C  C272  1  0.092300  0.312900  0.279400  1.0  -0.2164
  C  C273  1  0.035800  0.246100  0.285400  1.0  0.165
  C  C274  1  0.207000  0.386600  0.219400  1.0  0.0244
  C  C275  1  0.206400  0.459100  0.256600  1.0  -0.119
  C  C276  1  0.269500  0.518900  0.251200  1.0  -0.0888
  C  C277  1  0.335900  0.505700  0.210800  1.0  -0.0995
  C  C278  1  0.339100  0.433900  0.175600  1.0  -0.0015
  C  C279  1  0.274300  0.374800  0.179300  1.0  -0.1288
  C  C280  1  0.408900  0.425900  0.131400  1.0  0.2448
  C  C281  1  0.505500  0.375100  0.068800  1.0  0.2488
  C  C282  1  0.560100  0.312700  0.038700  1.0  -0.0386
  C  C283  1  0.543000  0.282000  0.980000  1.0  -0.1255
  C  C284  1  0.598800  0.224300  0.953700  1.0  -0.0846
  C  C285  1  0.667800  0.194500  0.985400  1.0  -0.0967
  C  C286  1  0.683900  0.223600  0.045300  1.0  0.0188
  C  C287  1  0.629000  0.284000  0.070500  1.0  -0.1362
  C  C288  1  0.755600  0.192200  0.082300  1.0  0.0869
  C  C289  1  0.785100  0.236300  0.134500  1.0  -0.2106
  C  C290  1  0.844500  0.201300  0.172800  1.0  0.1378
  C  C291  1  0.858200  0.086600  0.110200  1.0  0.1533
  C  C292  1  0.798400  0.116800  0.069700  1.0  -0.2004
  C  C293  1  0.302300  0.567200  0.439300  1.0  0.1683
  C  C294  1  0.237300  0.624600  0.429300  1.0  -0.2271
  C  C295  1  0.179100  0.640200  0.476700  1.0  0.1006
  C  C296  1  0.187100  0.592300  0.529400  1.0  -0.2172
  C  C297  1  0.253900  0.535800  0.535400  1.0  0.166
  C  C298  1  0.113400  0.707000  0.469400  1.0  0.0222
  C  C299  1  0.040900  0.706400  0.506600  1.0  -0.1185
  C  C300  1  0.981100  0.769500  0.501200  1.0  -0.09
  C  C301  1  0.994300  0.835900  0.460800  1.0  -0.0969
  C  C302  1  0.066100  0.839100  0.425600  1.0  -0.0012
  C  C303  1  0.125200  0.774300  0.429300  1.0  -0.1309
  C  C304  1  0.074100  0.908900  0.381400  1.0  0.2462
  C  C305  1  0.124900  0.005500  0.318800  1.0  0.249
  C  C306  1  0.187300  0.060100  0.288700  1.0  -0.0376
  C  C307  1  0.218000  0.043000  0.230000  1.0  -0.1274
  C  C308  1  0.275700  0.098800  0.203700  1.0  -0.0846
  C  C309  1  0.305500  0.167800  0.235400  1.0  -0.097
  C  C310  1  0.276400  0.183900  0.295300  1.0  0.019
  C  C311  1  0.216000  0.129000  0.320500  1.0  -0.1357
  C  C312  1  0.307800  0.255600  0.332300  1.0  0.0867
  C  C313  1  0.263700  0.285100  0.384500  1.0  -0.212
  C  C314  1  0.298700  0.344500  0.422800  1.0  0.139
  C  C315  1  0.413400  0.358200  0.360200  1.0  0.1537
  C  C316  1  0.383200  0.298400  0.319700  1.0  -0.198
  C  C317  1  0.697700  0.432800  0.939300  1.0  0.1686
  C  C318  1  0.762700  0.375400  0.929300  1.0  -0.2284
  C  C319  1  0.820900  0.359800  0.976700  1.0  0.1003
  C  C320  1  0.812900  0.407700  0.029400  1.0  -0.2165
  C  C321  1  0.746100  0.464200  0.035400  1.0  0.166
  C  C322  1  0.886600  0.293000  0.969400  1.0  0.0219
  C  C323  1  0.959100  0.293600  0.006600  1.0  -0.119
  C  C324  1  0.018900  0.230500  0.001200  1.0  -0.0897
  C  C325  1  0.005700  0.164100  0.960800  1.0  -0.0977
  C  C326  1  0.933900  0.160900  0.925600  1.0  -0.0012
  C  C327  1  0.874800  0.225700  0.929300  1.0  -0.1308
  C  C328  1  0.925900  0.091100  0.881400  1.0  0.2456
  C  C329  1  0.875100  0.994500  0.818800  1.0  0.2481
  C  C330  1  0.812700  0.939900  0.788700  1.0  -0.038
  C  C331  1  0.782000  0.957000  0.730000  1.0  -0.1278
  C  C332  1  0.724300  0.901200  0.703700  1.0  -0.0841
  C  C333  1  0.694500  0.832200  0.735400  1.0  -0.0959
  C  C334  1  0.723600  0.816100  0.795300  1.0  0.0199
  C  C335  1  0.784000  0.871000  0.820500  1.0  -0.1352
  C  C336  1  0.692200  0.744400  0.832300  1.0  0.0868
  C  C337  1  0.736300  0.714900  0.884500  1.0  -0.2122
  C  C338  1  0.701300  0.655500  0.922800  1.0  0.1393
  C  C339  1  0.586600  0.641800  0.860200  1.0  0.1538
  C  C340  1  0.616800  0.701600  0.819700  1.0  -0.1981
  N  N341  1  0.379400  0.374700  0.587400  1.0  -0.3575
  N  N342  1  0.522800  0.311500  0.508400  1.0  -0.3668
  N  N343  1  0.946500  0.011100  0.644800  1.0  -0.288
  N  N344  1  0.007200  0.043500  0.683800  1.0  -0.2154
  N  N345  1  0.944300  0.148200  0.640200  1.0  0.0795
  N  N346  1  0.924600  0.230000  0.619800  1.0  -0.5569
  N  N347  1  0.620600  0.625300  0.087400  1.0  -0.3576
  N  N348  1  0.477200  0.688500  0.008400  1.0  -0.3668
  N  N349  1  0.053500  0.988900  0.144800  1.0  -0.2879
  N  N350  1  0.992800  0.956500  0.183800  1.0  -0.2162
  N  N351  1  0.055700  0.851800  0.140200  1.0  0.0793
  N  N352  1  0.075400  0.770000  0.119800  1.0  -0.556
  N  N353  1  0.125300  0.879400  0.837400  1.0  -0.3577
  N  N354  1  0.188500  0.022800  0.758400  1.0  -0.3664
  N  N355  1  0.488900  0.446500  0.894800  1.0  -0.2885
  N  N356  1  0.456500  0.507200  0.933800  1.0  -0.2156
  N  N357  1  0.351800  0.444300  0.890200  1.0  0.0801
  N  N358  1  0.270000  0.424600  0.869800  1.0  -0.5559
  N  N359  1  0.874700  0.120600  0.337400  1.0  -0.3576
  N  N360  1  0.811500  0.977200  0.258400  1.0  -0.3677
  N  N361  1  0.511100  0.553500  0.394800  1.0  -0.2876
  N  N362  1  0.543500  0.492800  0.433800  1.0  -0.2166
  N  N363  1  0.648200  0.555700  0.390200  1.0  0.0799
  N  N364  1  0.730000  0.575400  0.369800  1.0  -0.5553
  N  N365  1  0.120600  0.874700  0.662600  1.0  -0.3571
  N  N366  1  0.977200  0.811500  0.741600  1.0  -0.3665
  N  N367  1  0.553500  0.511100  0.605200  1.0  -0.286
  N  N368  1  0.492800  0.543500  0.566200  1.0  -0.2163
  N  N369  1  0.555700  0.648200  0.609800  1.0  0.0798
  N  N370  1  0.575400  0.730000  0.630200  1.0  -0.5568
  N  N371  1  0.879400  0.125300  0.162600  1.0  -0.3572
  N  N372  1  0.022800  0.188500  0.241600  1.0  -0.3674
  N  N373  1  0.446500  0.488900  0.105200  1.0  -0.2865
  N  N374  1  0.507200  0.456500  0.066200  1.0  -0.2161
  N  N375  1  0.444300  0.351800  0.109800  1.0  0.0792
  N  N376  1  0.424600  0.270000  0.130200  1.0  -0.556
  N  N377  1  0.374700  0.379400  0.412600  1.0  -0.3578
  N  N378  1  0.311500  0.522800  0.491600  1.0  -0.3673
  N  N379  1  0.011100  0.946500  0.355200  1.0  -0.2858
  N  N380  1  0.043500  0.007200  0.316200  1.0  -0.2163
  N  N381  1  0.148200  0.944300  0.359800  1.0  0.0804
  N  N382  1  0.230000  0.924600  0.380200  1.0  -0.5553
  N  N383  1  0.625300  0.620600  0.912600  1.0  -0.3568
  N  N384  1  0.688500  0.477200  0.991600  1.0  -0.367
  N  N385  1  0.988900  0.053500  0.855200  1.0  -0.2868
  N  N386  1  0.956500  0.992800  0.816200  1.0  -0.2157
  N  N387  1  0.851800  0.055700  0.859800  1.0  0.0802
  N  N388  1  0.770000  0.075400  0.880200  1.0  -0.5567
  Cl  Cl389  1  0.374940  0.625060  0.750000  1.0  1.9097
  Cl  Cl390  1  0.625060  0.374940  0.250000  1.0  1.9098
  Cl  Cl391  1  0.874940  0.874940  0.000000  1.0  1.9098
  Cl  Cl392  1  0.125060  0.125060  0.500000  1.0  1.9096
  O  O393  1  0.377900  0.569500  0.790900  1.0  -0.6958
  O  O394  1  0.392000  0.691500  0.782200  1.0  -0.6878
  O  O395  1  0.430500  0.622100  0.709100  1.0  -0.6943
  O  O396  1  0.308500  0.608000  0.717800  1.0  -0.6886
  O  O397  1  0.622100  0.430500  0.290900  1.0  -0.6951
  O  O398  1  0.608000  0.308500  0.282200  1.0  -0.6886
  O  O399  1  0.569500  0.377900  0.209100  1.0  -0.6941
  O  O400  1  0.691500  0.392000  0.217800  1.0  -0.6883
  O  O401  1  0.930500  0.877900  0.040900  1.0  -0.6941
  O  O402  1  0.808500  0.892000  0.032200  1.0  -0.6883
  O  O403  1  0.877900  0.930500  0.959100  1.0  -0.6956
  O  O404  1  0.892000  0.808500  0.967800  1.0  -0.6885
  O  O405  1  0.069500  0.122100  0.540900  1.0  -0.6939
  O  O406  1  0.191500  0.108000  0.532200  1.0  -0.6878
  O  O407  1  0.122100  0.069500  0.459100  1.0  -0.696
  O  O408  1  0.108000  0.191500  0.467800  1.0  -0.6883
