# generated using pymatgen
data_CdH36(C4N)12
_symmetry_space_group_name_H-M   'P 1'
_cell_length_a   15.84750000
_cell_length_b   15.84750000
_cell_length_c   21.60100000
_cell_angle_alpha   90.00000000
_cell_angle_beta   90.00000000
_cell_angle_gamma   90.00000000
_symmetry_Int_Tables_number   1
_chemical_formula_structural   CdH36(C4N)12
_chemical_formula_sum   'Cd4 H144 C192 N48'
_cell_volume   5424.94547826
_cell_formula_units_Z   4
loop_
 _symmetry_equiv_pos_site_id
 _symmetry_equiv_pos_as_xyz
  1  'x, y, z'
loop_
 _atom_site_type_symbol
 _atom_site_label
 _atom_site_symmetry_multiplicity
 _atom_site_fract_x
 _atom_site_fract_y
 _atom_site_fract_z
 _atom_site_occupancy
 _atom_site_charge
  Cd  Cd1  1  0.059310  0.940690  0.750000  1.0  0.7945
  Cd  Cd2  1  0.940690  0.059310  0.250000  1.0  0.7949
  Cd  Cd3  1  0.559310  0.559310  0.500000  1.0  0.7944
  Cd  Cd4  1  0.440690  0.440690  0.000000  1.0  0.795
  H  H5  1  0.506000  0.260300  0.073300  1.0  0.0532
  H  H6  1  0.557400  0.340200  0.906500  1.0  0.0488
  H  H7  1  0.261000  0.210300  0.895000  1.0  0.11
  H  H8  1  0.285900  0.412700  0.783600  1.0  0.1088
  H  H9  1  0.205300  0.343900  0.718200  1.0  0.0734
  H  H10  1  0.089100  0.295000  0.663000  1.0  0.0921
  H  H11  1  0.995300  0.198200  0.708200  1.0  0.0779
  H  H12  1  0.138600  0.196800  0.862700  1.0  0.1037
  H  H13  1  0.877000  0.951500  0.958900  1.0  0.1038
  H  H14  1  0.768200  0.932500  0.026600  1.0  0.0885
  H  H15  1  0.662100  0.032400  0.036400  1.0  0.0997
  H  H16  1  0.774800  0.173100  0.903700  1.0  0.0792
  H  H17  1  0.652600  0.232200  0.891200  1.0  0.1126
  H  H18  1  0.600800  0.150100  0.063300  1.0  0.1184
  H  H19  1  0.386800  0.462800  0.849500  1.0  0.0645
  H  H20  1  0.360000  0.268700  0.959700  1.0  0.065
  H  H21  1  0.973000  0.257000  0.889700  1.0  0.2802
  H  H22  1  0.895700  0.257100  0.850800  1.0  0.3103
  H  H23  1  0.494000  0.739700  0.573300  1.0  0.0538
  H  H24  1  0.442600  0.659800  0.406500  1.0  0.0494
  H  H25  1  0.739000  0.789700  0.395000  1.0  0.1101
  H  H26  1  0.714100  0.587300  0.283600  1.0  0.1092
  H  H27  1  0.794700  0.656100  0.218200  1.0  0.0725
  H  H28  1  0.910900  0.705000  0.163000  1.0  0.0923
  H  H29  1  0.004700  0.801800  0.208200  1.0  0.078
  H  H30  1  0.861400  0.803200  0.362700  1.0  0.1042
  H  H31  1  0.123000  0.048500  0.458900  1.0  0.1037
  H  H32  1  0.231800  0.067500  0.526600  1.0  0.0882
  H  H33  1  0.337900  0.967600  0.536400  1.0  0.0997
  H  H34  1  0.225200  0.826900  0.403700  1.0  0.079
  H  H35  1  0.347400  0.767800  0.391200  1.0  0.113
  H  H36  1  0.399200  0.849900  0.563300  1.0  0.1183
  H  H37  1  0.613200  0.537200  0.349500  1.0  0.0649
  H  H38  1  0.640000  0.731300  0.459700  1.0  0.0644
  H  H39  1  0.027000  0.743000  0.389700  1.0  0.2787
  H  H40  1  0.104300  0.742900  0.350800  1.0  0.3105
  H  H41  1  0.239700  0.006000  0.823300  1.0  0.0523
  H  H42  1  0.159800  0.057400  0.656500  1.0  0.0482
  H  H43  1  0.289700  0.761000  0.645000  1.0  0.1119
  H  H44  1  0.087300  0.785900  0.533600  1.0  0.1086
  H  H45  1  0.156100  0.705300  0.468200  1.0  0.0721
  H  H46  1  0.205000  0.589100  0.413000  1.0  0.0915
  H  H47  1  0.301800  0.495300  0.458200  1.0  0.0782
  H  H48  1  0.303200  0.638600  0.612700  1.0  0.1044
  H  H49  1  0.548500  0.377000  0.708900  1.0  0.1039
  H  H50  1  0.567500  0.268200  0.776600  1.0  0.0888
  H  H51  1  0.467600  0.162100  0.786400  1.0  0.0999
  H  H52  1  0.326900  0.274800  0.653700  1.0  0.0791
  H  H53  1  0.267800  0.152600  0.641200  1.0  0.1133
  H  H54  1  0.349900  0.100800  0.813300  1.0  0.1182
  H  H55  1  0.037200  0.886800  0.599500  1.0  0.0651
  H  H56  1  0.231300  0.860000  0.709700  1.0  0.0653
  H  H57  1  0.243000  0.473000  0.639700  1.0  0.2789
  H  H58  1  0.242900  0.395700  0.600800  1.0  0.3103
  H  H59  1  0.760300  0.994000  0.323300  1.0  0.0531
  H  H60  1  0.840200  0.942600  0.156500  1.0  0.0486
  H  H61  1  0.710300  0.239000  0.145000  1.0  0.1114
  H  H62  1  0.912700  0.214100  0.033600  1.0  0.1096
  H  H63  1  0.843900  0.294700  0.968200  1.0  0.0724
  H  H64  1  0.795000  0.410900  0.913000  1.0  0.0914
  H  H65  1  0.698200  0.504700  0.958200  1.0  0.079
  H  H66  1  0.696800  0.361400  0.112700  1.0  0.1047
  H  H67  1  0.451500  0.623000  0.208900  1.0  0.1039
  H  H68  1  0.432500  0.731800  0.276600  1.0  0.0882
  H  H69  1  0.532400  0.837900  0.286400  1.0  0.1
  H  H70  1  0.673100  0.725200  0.153700  1.0  0.0787
  H  H71  1  0.732200  0.847400  0.141200  1.0  0.113
  H  H72  1  0.650100  0.899200  0.313300  1.0  0.1179
  H  H73  1  0.962800  0.113200  0.099500  1.0  0.0656
  H  H74  1  0.768700  0.140000  0.209700  1.0  0.0641
  H  H75  1  0.757000  0.527000  0.139700  1.0  0.2783
  H  H76  1  0.757100  0.604300  0.100800  1.0  0.3113
  H  H77  1  0.994000  0.760300  0.676700  1.0  0.0517
  H  H78  1  0.942600  0.840200  0.843500  1.0  0.0486
  H  H79  1  0.239000  0.710300  0.855000  1.0  0.1096
  H  H80  1  0.214100  0.912700  0.966400  1.0  0.1089
  H  H81  1  0.294700  0.843900  0.031800  1.0  0.0732
  H  H82  1  0.410900  0.795000  0.087000  1.0  0.0917
  H  H83  1  0.504700  0.698200  0.041800  1.0  0.0779
  H  H84  1  0.361400  0.696800  0.887300  1.0  0.1046
  H  H85  1  0.623000  0.451500  0.791100  1.0  0.1036
  H  H86  1  0.731800  0.432500  0.723400  1.0  0.0882
  H  H87  1  0.837900  0.532400  0.713600  1.0  0.1002
  H  H88  1  0.725200  0.673100  0.846300  1.0  0.0791
  H  H89  1  0.847400  0.732200  0.858800  1.0  0.1127
  H  H90  1  0.899200  0.650100  0.686700  1.0  0.1184
  H  H91  1  0.113200  0.962800  0.900500  1.0  0.0646
  H  H92  1  0.140000  0.768700  0.790300  1.0  0.0644
  H  H93  1  0.527000  0.757000  0.860300  1.0  0.2794
  H  H94  1  0.604300  0.757100  0.899200  1.0  0.3107
  H  H95  1  0.006000  0.239700  0.176700  1.0  0.0519
  H  H96  1  0.057400  0.159800  0.343500  1.0  0.0492
  H  H97  1  0.761000  0.289700  0.355000  1.0  0.11
  H  H98  1  0.785900  0.087300  0.466400  1.0  0.1095
  H  H99  1  0.705300  0.156100  0.531800  1.0  0.0725
  H  H100  1  0.589100  0.205000  0.587000  1.0  0.0921
  H  H101  1  0.495300  0.301800  0.541800  1.0  0.078
  H  H102  1  0.638600  0.303200  0.387300  1.0  0.1047
  H  H103  1  0.377000  0.548500  0.291100  1.0  0.1032
  H  H104  1  0.268200  0.567500  0.223400  1.0  0.0889
  H  H105  1  0.162100  0.467600  0.213600  1.0  0.1009
  H  H106  1  0.274800  0.326900  0.346300  1.0  0.0801
  H  H107  1  0.152600  0.267800  0.358800  1.0  0.1121
  H  H108  1  0.100800  0.349900  0.186700  1.0  0.1182
  H  H109  1  0.886800  0.037200  0.400500  1.0  0.0652
  H  H110  1  0.860000  0.231300  0.290300  1.0  0.0647
  H  H111  1  0.473000  0.243000  0.360300  1.0  0.2797
  H  H112  1  0.395700  0.242900  0.399200  1.0  0.3112
  H  H113  1  0.260300  0.506000  0.926700  1.0  0.0517
  H  H114  1  0.340200  0.557400  0.093500  1.0  0.0484
  H  H115  1  0.210300  0.261000  0.105000  1.0  0.1109
  H  H116  1  0.412700  0.285900  0.216400  1.0  0.1089
  H  H117  1  0.343900  0.205300  0.281800  1.0  0.0723
  H  H118  1  0.295000  0.089100  0.337000  1.0  0.0908
  H  H119  1  0.198200  0.995300  0.291800  1.0  0.0788
  H  H120  1  0.196800  0.138600  0.137300  1.0  0.1052
  H  H121  1  0.951500  0.877000  0.041100  1.0  0.1039
  H  H122  1  0.932500  0.768200  0.973400  1.0  0.0882
  H  H123  1  0.032400  0.662100  0.963600  1.0  0.1001
  H  H124  1  0.173100  0.774800  0.096300  1.0  0.0793
  H  H125  1  0.232200  0.652600  0.108800  1.0  0.1126
  H  H126  1  0.150100  0.600800  0.936700  1.0  0.118
  H  H127  1  0.462800  0.386800  0.150500  1.0  0.066
  H  H128  1  0.268700  0.360000  0.040300  1.0  0.0634
  H  H129  1  0.257000  0.973000  0.110300  1.0  0.2782
  H  H130  1  0.257100  0.895700  0.149200  1.0  0.3115
  H  H131  1  0.739700  0.494000  0.426700  1.0  0.0515
  H  H132  1  0.659800  0.442600  0.593500  1.0  0.0484
  H  H133  1  0.789700  0.739000  0.605000  1.0  0.1118
  H  H134  1  0.587300  0.714100  0.716400  1.0  0.1088
  H  H135  1  0.656100  0.794700  0.781800  1.0  0.072
  H  H136  1  0.705000  0.910900  0.837000  1.0  0.0911
  H  H137  1  0.801800  0.004700  0.791800  1.0  0.0781
  H  H138  1  0.803200  0.861400  0.637300  1.0  0.1051
  H  H139  1  0.048500  0.123000  0.541100  1.0  0.104
  H  H140  1  0.067500  0.231800  0.473400  1.0  0.0889
  H  H141  1  0.967600  0.337900  0.463600  1.0  0.1012
  H  H142  1  0.826900  0.225200  0.596300  1.0  0.0795
  H  H143  1  0.767800  0.347400  0.608800  1.0  0.1129
  H  H144  1  0.849900  0.399200  0.436700  1.0  0.1179
  H  H145  1  0.537200  0.613200  0.650500  1.0  0.0645
  H  H146  1  0.731300  0.640000  0.540300  1.0  0.0655
  H  H147  1  0.743000  0.027000  0.610300  1.0  0.2771
  H  H148  1  0.742900  0.104300  0.649200  1.0  0.3113
  C  C149  1  0.537300  0.255500  0.036000  1.0  0.1533
  C  C150  1  0.567000  0.301600  0.939400  1.0  0.1596
  C  C151  1  0.283400  0.264400  0.885700  1.0  -0.242
  C  C152  1  0.298300  0.382400  0.820500  1.0  -0.2343
  C  C153  1  0.255100  0.307600  0.833600  1.0  0.0895
  C  C154  1  0.183300  0.276700  0.796600  1.0  -0.0481
  C  C155  1  0.168000  0.304400  0.736800  1.0  -0.0995
  C  C156  1  0.098900  0.275300  0.703900  1.0  -0.1021
  C  C157  1  0.043400  0.217100  0.730400  1.0  -0.0773
  C  C158  1  0.059300  0.187400  0.789400  1.0  0.0088
  C  C159  1  0.128400  0.217300  0.822000  1.0  -0.1405
  C  C160  1  0.004500  0.125600  0.819860  1.0  0.2492
  C  C161  1  0.908100  0.074300  0.882000  1.0  0.2454
  C  C162  1  0.838500  0.065800  0.925400  1.0  -0.0746
  C  C163  1  0.834200  0.993200  0.962100  1.0  -0.1325
  C  C164  1  0.769900  0.982000  0.001900  1.0  -0.0975
  C  C165  1  0.706400  0.041100  0.007500  1.0  -0.1378
  C  C166  1  0.706900  0.113900  0.970600  1.0  0.0123
  C  C167  1  0.773600  0.124600  0.929500  1.0  -0.1446
  C  C168  1  0.640800  0.179500  0.977000  1.0  0.1053
  C  C169  1  0.624400  0.237100  0.929900  1.0  -0.2258
  C  C170  1  0.594200  0.189100  0.030200  1.0  -0.2108
  C  C171  1  0.358400  0.412200  0.860200  1.0  0.1467
  C  C172  1  0.343200  0.299200  0.923900  1.0  0.133
  C  C173  1  0.462700  0.744500  0.536000  1.0  0.1532
  C  C174  1  0.433000  0.698400  0.439400  1.0  0.1597
  C  C175  1  0.716600  0.735600  0.385700  1.0  -0.2416
  C  C176  1  0.701700  0.617600  0.320500  1.0  -0.2342
  C  C177  1  0.744900  0.692400  0.333600  1.0  0.089
  C  C178  1  0.816700  0.723300  0.296600  1.0  -0.048
  C  C179  1  0.832000  0.695600  0.236800  1.0  -0.099
  C  C180  1  0.901100  0.724700  0.203900  1.0  -0.1026
  C  C181  1  0.956600  0.782900  0.230400  1.0  -0.078
  C  C182  1  0.940700  0.812600  0.289400  1.0  0.0086
  C  C183  1  0.871600  0.782700  0.322000  1.0  -0.1401
  C  C184  1  0.995500  0.874400  0.319860  1.0  0.2491
  C  C185  1  0.091900  0.925700  0.382000  1.0  0.245
  C  C186  1  0.161500  0.934200  0.425400  1.0  -0.0743
  C  C187  1  0.165800  0.006800  0.462100  1.0  -0.1321
  C  C188  1  0.230100  0.018000  0.501900  1.0  -0.0993
  C  C189  1  0.293600  0.958900  0.507500  1.0  -0.1394
  C  C190  1  0.293100  0.886100  0.470600  1.0  0.0125
  C  C191  1  0.226400  0.875400  0.429500  1.0  -0.1439
  C  C192  1  0.359200  0.820500  0.477000  1.0  0.1052
  C  C193  1  0.375600  0.762900  0.429900  1.0  -0.2263
  C  C194  1  0.405800  0.810900  0.530200  1.0  -0.2121
  C  C195  1  0.641600  0.587800  0.360200  1.0  0.1457
  C  C196  1  0.656800  0.700800  0.423900  1.0  0.1315
  C  C197  1  0.244500  0.037300  0.786000  1.0  0.1554
  C  C198  1  0.198400  0.067000  0.689400  1.0  0.161
  C  C199  1  0.235600  0.783400  0.635700  1.0  -0.2403
  C  C200  1  0.117600  0.798300  0.570500  1.0  -0.233
  C  C201  1  0.192400  0.755100  0.583600  1.0  0.0892
  C  C202  1  0.223300  0.683300  0.546600  1.0  -0.0472
  C  C203  1  0.195600  0.668000  0.486800  1.0  -0.0969
  C  C204  1  0.224700  0.598900  0.453900  1.0  -0.1032
  C  C205  1  0.282900  0.543400  0.480400  1.0  -0.0786
  C  C206  1  0.312600  0.559300  0.539400  1.0  0.0069
  C  C207  1  0.282700  0.628400  0.572000  1.0  -0.1413
  C  C208  1  0.374400  0.504500  0.569860  1.0  0.2477
  C  C209  1  0.425700  0.408100  0.632000  1.0  0.245
  C  C210  1  0.434200  0.338500  0.675400  1.0  -0.0741
  C  C211  1  0.506800  0.334200  0.712100  1.0  -0.1293
  C  C212  1  0.518000  0.269900  0.751900  1.0  -0.0996
  C  C213  1  0.458900  0.206400  0.757500  1.0  -0.1387
  C  C214  1  0.386100  0.206900  0.720600  1.0  0.0108
  C  C215  1  0.375400  0.273600  0.679500  1.0  -0.1453
  C  C216  1  0.320500  0.140800  0.727000  1.0  0.1056
  C  C217  1  0.262900  0.124400  0.679900  1.0  -0.2246
  C  C218  1  0.310900  0.094200  0.780200  1.0  -0.2118
  C  C219  1  0.087800  0.858400  0.610200  1.0  0.1477
  C  C220  1  0.200800  0.843200  0.673900  1.0  0.1342
  C  C221  1  0.755500  0.962700  0.286000  1.0  0.1544
  C  C222  1  0.801600  0.933000  0.189400  1.0  0.1608
  C  C223  1  0.764400  0.216600  0.135700  1.0  -0.2399
  C  C224  1  0.882400  0.201700  0.070500  1.0  -0.2314
  C  C225  1  0.807600  0.244900  0.083600  1.0  0.0888
  C  C226  1  0.776700  0.316700  0.046600  1.0  -0.0484
  C  C227  1  0.804400  0.332000  0.986800  1.0  -0.0984
  C  C228  1  0.775300  0.401100  0.953900  1.0  -0.1024
  C  C229  1  0.717100  0.456600  0.980400  1.0  -0.0786
  C  C230  1  0.687400  0.440700  0.039400  1.0  0.0078
  C  C231  1  0.717300  0.371600  0.072000  1.0  -0.1409
  C  C232  1  0.625600  0.495500  0.069860  1.0  0.2479
  C  C233  1  0.574300  0.591900  0.132000  1.0  0.2455
  C  C234  1  0.565800  0.661500  0.175400  1.0  -0.0742
  C  C235  1  0.493200  0.665800  0.212100  1.0  -0.1284
  C  C236  1  0.482000  0.730100  0.251900  1.0  -0.0997
  C  C237  1  0.541100  0.793600  0.257500  1.0  -0.1395
  C  C238  1  0.613900  0.793100  0.220600  1.0  0.0111
  C  C239  1  0.624600  0.726400  0.179500  1.0  -0.1452
  C  C240  1  0.679500  0.859200  0.227000  1.0  0.1056
  C  C241  1  0.737100  0.875600  0.179900  1.0  -0.225
  C  C242  1  0.689100  0.905800  0.280200  1.0  -0.212
  C  C243  1  0.912200  0.141600  0.110200  1.0  0.147
  C  C244  1  0.799200  0.156800  0.173900  1.0  0.1343
  C  C245  1  0.962700  0.755500  0.714000  1.0  0.1524
  C  C246  1  0.933000  0.801600  0.810600  1.0  0.1597
  C  C247  1  0.216600  0.764400  0.864300  1.0  -0.242
  C  C248  1  0.201700  0.882400  0.929500  1.0  -0.2341
  C  C249  1  0.244900  0.807600  0.916400  1.0  0.0894
  C  C250  1  0.316700  0.776700  0.953400  1.0  -0.0469
  C  C251  1  0.332000  0.804400  0.013200  1.0  -0.099
  C  C252  1  0.401100  0.775300  0.046100  1.0  -0.1026
  C  C253  1  0.456600  0.717100  0.019600  1.0  -0.0777
  C  C254  1  0.440700  0.687400  0.960600  1.0  0.0083
  C  C255  1  0.371600  0.717300  0.928000  1.0  -0.1419
  C  C256  1  0.495500  0.625600  0.930140  1.0  0.249
  C  C257  1  0.591900  0.574300  0.868000  1.0  0.245
  C  C258  1  0.661500  0.565800  0.824600  1.0  -0.0745
  C  C259  1  0.665800  0.493200  0.787900  1.0  -0.1312
  C  C260  1  0.730100  0.482000  0.748100  1.0  -0.098
  C  C261  1  0.793600  0.541100  0.742500  1.0  -0.1389
  C  C262  1  0.793100  0.613900  0.779400  1.0  0.0121
  C  C263  1  0.726400  0.624600  0.820500  1.0  -0.1431
  C  C264  1  0.859200  0.679500  0.773000  1.0  0.1048
  C  C265  1  0.875600  0.737100  0.820100  1.0  -0.2258
  C  C266  1  0.905800  0.689100  0.719800  1.0  -0.2117
  C  C267  1  0.141600  0.912200  0.889800  1.0  0.1459
  C  C268  1  0.156800  0.799200  0.826100  1.0  0.132
  C  C269  1  0.037300  0.244500  0.214000  1.0  0.1536
  C  C270  1  0.067000  0.198400  0.310600  1.0  0.159
  C  C271  1  0.783400  0.235600  0.364300  1.0  -0.2421
  C  C272  1  0.798300  0.117600  0.429500  1.0  -0.2339
  C  C273  1  0.755100  0.192400  0.416400  1.0  0.0898
  C  C274  1  0.683300  0.223300  0.453400  1.0  -0.0475
  C  C275  1  0.668000  0.195600  0.513200  1.0  -0.0994
  C  C276  1  0.598900  0.224700  0.546100  1.0  -0.1028
  C  C277  1  0.543400  0.282900  0.519600  1.0  -0.0769
  C  C278  1  0.559300  0.312600  0.460600  1.0  0.008
  C  C279  1  0.628400  0.282700  0.428000  1.0  -0.142
  C  C280  1  0.504500  0.374400  0.430140  1.0  0.249
  C  C281  1  0.408100  0.425700  0.368000  1.0  0.2451
  C  C282  1  0.338500  0.434200  0.324600  1.0  -0.075
  C  C283  1  0.334200  0.506800  0.287900  1.0  -0.1319
  C  C284  1  0.269900  0.518000  0.248100  1.0  -0.0984
  C  C285  1  0.206400  0.458900  0.242500  1.0  -0.139
  C  C286  1  0.206900  0.386100  0.279400  1.0  0.0139
  C  C287  1  0.273600  0.375400  0.320500  1.0  -0.1434
  C  C288  1  0.140800  0.320500  0.273000  1.0  0.1057
  C  C289  1  0.124400  0.262900  0.320100  1.0  -0.2258
  C  C290  1  0.094200  0.310900  0.219800  1.0  -0.212
  C  C291  1  0.858400  0.087800  0.389800  1.0  0.1467
  C  C292  1  0.843200  0.200800  0.326100  1.0  0.134
  C  C293  1  0.255500  0.537300  0.964000  1.0  0.154
  C  C294  1  0.301600  0.567000  0.060600  1.0  0.1607
  C  C295  1  0.264400  0.283400  0.114300  1.0  -0.2394
  C  C296  1  0.382400  0.298300  0.179500  1.0  -0.2315
  C  C297  1  0.307600  0.255100  0.166400  1.0  0.0895
  C  C298  1  0.276700  0.183300  0.203400  1.0  -0.0479
  C  C299  1  0.304400  0.168000  0.263200  1.0  -0.0977
  C  C300  1  0.275300  0.098900  0.296100  1.0  -0.103
  C  C301  1  0.217100  0.043400  0.269600  1.0  -0.079
  C  C302  1  0.187400  0.059300  0.210600  1.0  0.0067
  C  C303  1  0.217300  0.128400  0.178000  1.0  -0.1427
  C  C304  1  0.125600  0.004500  0.180140  1.0  0.2476
  C  C305  1  0.074300  0.908100  0.118000  1.0  0.2459
  C  C306  1  0.065800  0.838500  0.074600  1.0  -0.0742
  C  C307  1  0.993200  0.834200  0.037900  1.0  -0.1272
  C  C308  1  0.982000  0.769900  0.998100  1.0  -0.0997
  C  C309  1  0.041100  0.706400  0.992500  1.0  -0.1385
  C  C310  1  0.113900  0.706900  0.029400  1.0  0.0116
  C  C311  1  0.124600  0.773600  0.070500  1.0  -0.1444
  C  C312  1  0.179500  0.640800  0.023000  1.0  0.1056
  C  C313  1  0.237100  0.624400  0.070100  1.0  -0.2245
  C  C314  1  0.189100  0.594200  0.969800  1.0  -0.212
  C  C315  1  0.412200  0.358400  0.139800  1.0  0.1474
  C  C316  1  0.299200  0.343200  0.076100  1.0  0.1346
  C  C317  1  0.744500  0.462700  0.464000  1.0  0.1556
  C  C318  1  0.698400  0.433000  0.560600  1.0  0.1603
  C  C319  1  0.735600  0.716600  0.614300  1.0  -0.2401
  C  C320  1  0.617600  0.701700  0.679500  1.0  -0.2322
  C  C321  1  0.692400  0.744900  0.666400  1.0  0.0896
  C  C322  1  0.723300  0.816700  0.703400  1.0  -0.0474
  C  C323  1  0.695600  0.832000  0.763200  1.0  -0.0965
  C  C324  1  0.724700  0.901100  0.796100  1.0  -0.1025
  C  C325  1  0.782900  0.956600  0.769600  1.0  -0.078
  C  C326  1  0.812600  0.940700  0.710600  1.0  0.0072
  C  C327  1  0.782700  0.871600  0.678000  1.0  -0.1425
  C  C328  1  0.874400  0.995500  0.680140  1.0  0.2475
  C  C329  1  0.925700  0.091900  0.618000  1.0  0.2449
  C  C330  1  0.934200  0.161500  0.574600  1.0  -0.0743
  C  C331  1  0.006800  0.165800  0.537900  1.0  -0.1295
  C  C332  1  0.018000  0.230100  0.498100  1.0  -0.1005
  C  C333  1  0.958900  0.293600  0.492500  1.0  -0.1393
  C  C334  1  0.886100  0.293100  0.529400  1.0  0.0108
  C  C335  1  0.875400  0.226400  0.570500  1.0  -0.1446
  C  C336  1  0.820500  0.359200  0.523000  1.0  0.1047
  C  C337  1  0.762900  0.375600  0.570100  1.0  -0.2246
  C  C338  1  0.810900  0.405800  0.469800  1.0  -0.2117
  C  C339  1  0.587800  0.641600  0.639800  1.0  0.1479
  C  C340  1  0.700800  0.656800  0.576100  1.0  0.1348
  N  N341  1  0.006600  0.043500  0.816710  1.0  -0.2177
  N  N342  1  0.946000  0.010900  0.855460  1.0  -0.2934
  N  N343  1  0.943600  0.147900  0.860760  1.0  0.0776
  N  N344  1  0.924100  0.229200  0.881100  1.0  -0.5623
  N  N345  1  0.379200  0.374700  0.912820  1.0  -0.3605
  N  N346  1  0.524400  0.313000  0.991660  1.0  -0.3688
  N  N347  1  0.993400  0.956500  0.316710  1.0  -0.2182
  N  N348  1  0.054000  0.989100  0.355460  1.0  -0.2935
  N  N349  1  0.056400  0.852100  0.360760  1.0  0.0778
  N  N350  1  0.075900  0.770800  0.381100  1.0  -0.5612
  N  N351  1  0.620800  0.625300  0.412820  1.0  -0.3601
  N  N352  1  0.475600  0.687000  0.491660  1.0  -0.3686
  N  N353  1  0.456500  0.506600  0.566710  1.0  -0.2171
  N  N354  1  0.489100  0.446000  0.605460  1.0  -0.2934
  N  N355  1  0.352100  0.443600  0.610760  1.0  0.0774
  N  N356  1  0.270800  0.424100  0.631100  1.0  -0.5603
  N  N357  1  0.125300  0.879200  0.662820  1.0  -0.3595
  N  N358  1  0.187000  0.024400  0.741660  1.0  -0.3687
  N  N359  1  0.543500  0.493400  0.066710  1.0  -0.2177
  N  N360  1  0.510900  0.554000  0.105460  1.0  -0.2934
  N  N361  1  0.647900  0.556400  0.110760  1.0  0.0774
  N  N362  1  0.729200  0.575900  0.131100  1.0  -0.5603
  N  N363  1  0.874700  0.120800  0.162820  1.0  -0.3587
  N  N364  1  0.813000  0.975600  0.241660  1.0  -0.3698
  N  N365  1  0.493400  0.543500  0.933290  1.0  -0.2174
  N  N366  1  0.554000  0.510900  0.894540  1.0  -0.2942
  N  N367  1  0.556400  0.647900  0.889240  1.0  0.0776
  N  N368  1  0.575900  0.729200  0.868900  1.0  -0.5616
  N  N369  1  0.120800  0.874700  0.837180  1.0  -0.3596
  N  N370  1  0.975600  0.813000  0.758340  1.0  -0.3684
  N  N371  1  0.506600  0.456500  0.433290  1.0  -0.2184
  N  N372  1  0.446000  0.489100  0.394540  1.0  -0.2943
  N  N373  1  0.443600  0.352100  0.389240  1.0  0.0775
  N  N374  1  0.424100  0.270800  0.368900  1.0  -0.5607
  N  N375  1  0.879200  0.125300  0.337180  1.0  -0.3604
  N  N376  1  0.024400  0.187000  0.258340  1.0  -0.3695
  N  N377  1  0.043500  0.006600  0.183290  1.0  -0.2176
  N  N378  1  0.010900  0.946000  0.144540  1.0  -0.2942
  N  N379  1  0.147900  0.943600  0.139240  1.0  0.0771
  N  N380  1  0.229200  0.924100  0.118900  1.0  -0.5601
  N  N381  1  0.374700  0.379200  0.087180  1.0  -0.3589
  N  N382  1  0.313000  0.524400  0.008340  1.0  -0.3691
  N  N383  1  0.956500  0.993400  0.683290  1.0  -0.2173
  N  N384  1  0.989100  0.054000  0.644540  1.0  -0.2947
  N  N385  1  0.852100  0.056400  0.639240  1.0  0.0773
  N  N386  1  0.770800  0.075900  0.618900  1.0  -0.5598
  N  N387  1  0.625300  0.620800  0.587180  1.0  -0.3593
  N  N388  1  0.687000  0.475600  0.508340  1.0  -0.3692
