# generated using pymatgen
data_CdH36(C4N)12
_symmetry_space_group_name_H-M   'P 1'
_cell_length_a   15.90300000
_cell_length_b   15.90300000
_cell_length_c   21.39600000
_cell_angle_alpha   90.00000000
_cell_angle_beta   90.00000000
_cell_angle_gamma   90.00000000
_symmetry_Int_Tables_number   1
_chemical_formula_structural   CdH36(C4N)12
_chemical_formula_sum   'Cd4 H144 C192 N48'
_cell_volume   5411.16413096
_cell_formula_units_Z   4
loop_
 _symmetry_equiv_pos_site_id
 _symmetry_equiv_pos_as_xyz
  1  'x, y, z'
loop_
 _atom_site_type_symbol
 _atom_site_label
 _atom_site_symmetry_multiplicity
 _atom_site_fract_x
 _atom_site_fract_y
 _atom_site_fract_z
 _atom_site_occupancy
 _atom_site_charge
  Cd  Cd1  1  0.059480  0.940520  0.750000  1.0  0.7785
  Cd  Cd2  1  0.940520  0.059480  0.250000  1.0  0.7783
  Cd  Cd3  1  0.559480  0.559480  0.500000  1.0  0.7782
  Cd  Cd4  1  0.440520  0.440520  0.000000  1.0  0.7785
  H  H5  1  0.137100  0.768600  0.793200  1.0  0.0676
  H  H6  1  0.237000  0.712500  0.856000  1.0  0.1102
  H  H7  1  0.214900  0.914500  0.966900  1.0  0.1043
  H  H8  1  0.114600  0.963200  0.900900  1.0  0.0621
  H  H9  1  0.301100  0.850200  0.032100  1.0  0.0739
  H  H10  1  0.413500  0.799400  0.087300  1.0  0.0923
  H  H11  1  0.505100  0.702600  0.042600  1.0  0.0917
  H  H12  1  0.358900  0.695900  0.890300  1.0  0.1085
  H  H13  1  0.620600  0.456900  0.790000  1.0  0.0967
  H  H14  1  0.733200  0.435900  0.722900  1.0  0.0876
  H  H15  1  0.836000  0.536200  0.712900  1.0  0.0945
  H  H16  1  0.723500  0.675100  0.844600  1.0  0.079
  H  H17  1  0.843600  0.737600  0.856900  1.0  0.1044
  H  H18  1  0.938100  0.843900  0.841700  1.0  0.0461
  H  H19  1  0.995400  0.759500  0.677700  1.0  0.0489
  H  H20  1  0.903100  0.649200  0.688100  1.0  0.1153
  H  H21  1  0.528300  0.758800  0.861500  1.0  0.3123
  H  H22  1  0.603600  0.758000  0.900000  1.0  0.3133
  H  H23  1  0.862900  0.231400  0.293200  1.0  0.0669
  H  H24  1  0.763000  0.287500  0.356000  1.0  0.1103
  H  H25  1  0.785100  0.085500  0.466900  1.0  0.1038
  H  H26  1  0.885400  0.036800  0.400900  1.0  0.0619
  H  H27  1  0.698900  0.149800  0.532100  1.0  0.0729
  H  H28  1  0.586500  0.200600  0.587300  1.0  0.0927
  H  H29  1  0.494900  0.297400  0.542600  1.0  0.0914
  H  H30  1  0.641100  0.304100  0.390300  1.0  0.1081
  H  H31  1  0.379400  0.543100  0.290000  1.0  0.0968
  H  H32  1  0.266800  0.564100  0.222900  1.0  0.0879
  H  H33  1  0.164000  0.463800  0.212900  1.0  0.0947
  H  H34  1  0.276500  0.324900  0.344600  1.0  0.0795
  H  H35  1  0.156400  0.262400  0.356900  1.0  0.1043
  H  H36  1  0.061900  0.156100  0.341700  1.0  0.0468
  H  H37  1  0.004600  0.240500  0.177700  1.0  0.0487
  H  H38  1  0.096900  0.350800  0.188100  1.0  0.115
  H  H39  1  0.471700  0.241200  0.361500  1.0  0.3128
  H  H40  1  0.396400  0.242000  0.400000  1.0  0.3135
  H  H41  1  0.731400  0.637100  0.543200  1.0  0.0686
  H  H42  1  0.787500  0.737000  0.606000  1.0  0.1111
  H  H43  1  0.585500  0.714900  0.716900  1.0  0.1021
  H  H44  1  0.536800  0.614600  0.650900  1.0  0.0621
  H  H45  1  0.649800  0.801100  0.782100  1.0  0.0731
  H  H46  1  0.700600  0.913500  0.837300  1.0  0.0923
  H  H47  1  0.797400  0.005100  0.792600  1.0  0.0922
  H  H48  1  0.804100  0.858900  0.640300  1.0  0.1082
  H  H49  1  0.043100  0.120600  0.540000  1.0  0.0974
  H  H50  1  0.064100  0.233200  0.472900  1.0  0.0885
  H  H51  1  0.963800  0.336000  0.462900  1.0  0.0945
  H  H52  1  0.824900  0.223500  0.594600  1.0  0.0789
  H  H53  1  0.762400  0.343600  0.606900  1.0  0.1043
  H  H54  1  0.656100  0.438100  0.591700  1.0  0.0458
  H  H55  1  0.740500  0.495400  0.427700  1.0  0.0488
  H  H56  1  0.850800  0.403100  0.438100  1.0  0.1151
  H  H57  1  0.741200  0.028300  0.611500  1.0  0.3122
  H  H58  1  0.742000  0.103600  0.650000  1.0  0.313
  H  H59  1  0.268600  0.362900  0.043200  1.0  0.0672
  H  H60  1  0.212500  0.263000  0.106000  1.0  0.1103
  H  H61  1  0.414500  0.285100  0.216900  1.0  0.1034
  H  H62  1  0.463200  0.385400  0.150900  1.0  0.0629
  H  H63  1  0.350200  0.198900  0.282100  1.0  0.0739
  H  H64  1  0.299400  0.086500  0.337300  1.0  0.0917
  H  H65  1  0.202600  0.994900  0.292600  1.0  0.0919
  H  H66  1  0.195900  0.141100  0.140300  1.0  0.1085
  H  H67  1  0.956900  0.879400  0.040000  1.0  0.0975
  H  H68  1  0.935900  0.766800  0.972900  1.0  0.0874
  H  H69  1  0.036200  0.664000  0.962900  1.0  0.0948
  H  H70  1  0.175100  0.776500  0.094600  1.0  0.0788
  H  H71  1  0.237600  0.656400  0.106900  1.0  0.1042
  H  H72  1  0.343900  0.561900  0.091700  1.0  0.0463
  H  H73  1  0.259500  0.504600  0.927700  1.0  0.0487
  H  H74  1  0.149200  0.596900  0.938100  1.0  0.1151
  H  H75  1  0.258800  0.971700  0.111500  1.0  0.3103
  H  H76  1  0.258000  0.896400  0.150000  1.0  0.3131
  H  H77  1  0.362900  0.268600  0.956800  1.0  0.068
  H  H78  1  0.263000  0.212500  0.894000  1.0  0.1104
  H  H79  1  0.285100  0.414500  0.783100  1.0  0.1037
  H  H80  1  0.385400  0.463200  0.849100  1.0  0.0615
  H  H81  1  0.198900  0.350200  0.717900  1.0  0.0737
  H  H82  1  0.086500  0.299400  0.662700  1.0  0.0921
  H  H83  1  0.994900  0.202600  0.707400  1.0  0.0904
  H  H84  1  0.141100  0.195900  0.859700  1.0  0.1084
  H  H85  1  0.879400  0.956900  0.960000  1.0  0.0971
  H  H86  1  0.766800  0.935900  0.027100  1.0  0.0875
  H  H87  1  0.664000  0.036200  0.037100  1.0  0.0942
  H  H88  1  0.776500  0.175100  0.905400  1.0  0.0798
  H  H89  1  0.656400  0.237600  0.893100  1.0  0.1047
  H  H90  1  0.561900  0.343900  0.908300  1.0  0.0462
  H  H91  1  0.504600  0.259500  0.072300  1.0  0.0493
  H  H92  1  0.596900  0.149200  0.061900  1.0  0.1154
  H  H93  1  0.971700  0.258800  0.888500  1.0  0.3127
  H  H94  1  0.896400  0.258000  0.850000  1.0  0.3129
  H  H95  1  0.637100  0.731400  0.456800  1.0  0.0669
  H  H96  1  0.737000  0.787500  0.394000  1.0  0.1102
  H  H97  1  0.714900  0.585500  0.283100  1.0  0.1033
  H  H98  1  0.614600  0.536800  0.349100  1.0  0.0616
  H  H99  1  0.801100  0.649800  0.217900  1.0  0.0735
  H  H100  1  0.913500  0.700600  0.162700  1.0  0.0922
  H  H101  1  0.005100  0.797400  0.207400  1.0  0.0915
  H  H102  1  0.858900  0.804100  0.359700  1.0  0.1079
  H  H103  1  0.120600  0.043100  0.460000  1.0  0.0966
  H  H104  1  0.233200  0.064100  0.527100  1.0  0.0875
  H  H105  1  0.336000  0.963800  0.537100  1.0  0.0937
  H  H106  1  0.223500  0.824900  0.405400  1.0  0.079
  H  H107  1  0.343600  0.762400  0.393100  1.0  0.1049
  H  H108  1  0.438100  0.656100  0.408300  1.0  0.047
  H  H109  1  0.495400  0.740500  0.572300  1.0  0.0499
  H  H110  1  0.403100  0.850800  0.561900  1.0  0.1146
  H  H111  1  0.028300  0.741200  0.388500  1.0  0.313
  H  H112  1  0.103600  0.742000  0.350000  1.0  0.3132
  H  H113  1  0.768600  0.137100  0.206800  1.0  0.0677
  H  H114  1  0.712500  0.237000  0.144000  1.0  0.1104
  H  H115  1  0.914500  0.214900  0.033100  1.0  0.1029
  H  H116  1  0.963200  0.114600  0.099100  1.0  0.0626
  H  H117  1  0.850200  0.301100  0.967900  1.0  0.0742
  H  H118  1  0.799400  0.413500  0.912700  1.0  0.0921
  H  H119  1  0.702600  0.505100  0.957400  1.0  0.092
  H  H120  1  0.695900  0.358900  0.109700  1.0  0.1084
  H  H121  1  0.456900  0.620600  0.210000  1.0  0.0974
  H  H122  1  0.435900  0.733200  0.277100  1.0  0.0876
  H  H123  1  0.536200  0.836000  0.287100  1.0  0.0943
  H  H124  1  0.675100  0.723500  0.155400  1.0  0.0786
  H  H125  1  0.737600  0.843600  0.143100  1.0  0.1046
  H  H126  1  0.843900  0.938100  0.158300  1.0  0.0462
  H  H127  1  0.759500  0.995400  0.322300  1.0  0.0493
  H  H128  1  0.649200  0.903100  0.311900  1.0  0.1152
  H  H129  1  0.758800  0.528300  0.138500  1.0  0.3119
  H  H130  1  0.758000  0.603600  0.100000  1.0  0.3131
  H  H131  1  0.231400  0.862900  0.706800  1.0  0.0686
  H  H132  1  0.287500  0.763000  0.644000  1.0  0.1109
  H  H133  1  0.085500  0.785100  0.533100  1.0  0.1016
  H  H134  1  0.036800  0.885400  0.599100  1.0  0.0623
  H  H135  1  0.149800  0.698900  0.467900  1.0  0.0728
  H  H136  1  0.200600  0.586500  0.412700  1.0  0.0921
  H  H137  1  0.297400  0.494900  0.457400  1.0  0.0912
  H  H138  1  0.304100  0.641100  0.609700  1.0  0.1084
  H  H139  1  0.543100  0.379400  0.710000  1.0  0.0972
  H  H140  1  0.564100  0.266800  0.777100  1.0  0.088
  H  H141  1  0.463800  0.164000  0.787100  1.0  0.094
  H  H142  1  0.324900  0.276500  0.655400  1.0  0.0791
  H  H143  1  0.262400  0.156400  0.643100  1.0  0.1049
  H  H144  1  0.156100  0.061900  0.658300  1.0  0.0458
  H  H145  1  0.240500  0.004600  0.822300  1.0  0.0488
  H  H146  1  0.350800  0.096900  0.811900  1.0  0.1151
  H  H147  1  0.241200  0.471700  0.638500  1.0  0.3107
  H  H148  1  0.242000  0.396400  0.600000  1.0  0.3122
  C  C149  1  0.155300  0.799400  0.827600  1.0  0.1407
  C  C150  1  0.215800  0.765500  0.865200  1.0  -0.2243
  C  C151  1  0.246300  0.808900  0.917100  1.0  0.0772
  C  C152  1  0.202500  0.884600  0.930700  1.0  -0.2181
  C  C153  1  0.142200  0.913500  0.890500  1.0  0.1598
  C  C154  1  0.317500  0.779200  0.954200  1.0  -0.0116
  C  C155  1  0.335600  0.809400  0.014300  1.0  -0.1022
  C  C156  1  0.403500  0.779700  0.047100  1.0  -0.1072
  C  C157  1  0.457700  0.720500  0.020900  1.0  -0.0958
  C  C158  1  0.439800  0.688700  0.962000  1.0  -0.0518
  C  C159  1  0.370400  0.717900  0.929700  1.0  -0.1518
  C  C160  1  0.494700  0.626200  0.931600  1.0  0.2353
  C  C161  1  0.591800  0.576300  0.868000  1.0  0.2359
  C  C162  1  0.660800  0.568300  0.823900  1.0  -0.0189
  C  C163  1  0.663300  0.496700  0.787400  1.0  -0.1252
  C  C164  1  0.730500  0.484700  0.746800  1.0  -0.0927
  C  C165  1  0.792700  0.544000  0.741600  1.0  -0.117
  C  C166  1  0.791500  0.615600  0.778900  1.0  -0.0007
  C  C167  1  0.725200  0.627200  0.819600  1.0  -0.1322
  C  C168  1  0.858600  0.681600  0.773000  1.0  0.0794
  C  C169  1  0.872900  0.740800  0.819400  1.0  -0.2122
  C  C170  1  0.930700  0.804500  0.810100  1.0  0.1679
  C  C171  1  0.964300  0.755200  0.714400  1.0  0.1594
  C  C172  1  0.907800  0.688700  0.719900  1.0  -0.2269
  C  C173  1  0.844700  0.200600  0.327600  1.0  0.1426
  C  C174  1  0.784200  0.234500  0.365200  1.0  -0.2246
  C  C175  1  0.753700  0.191100  0.417100  1.0  0.0774
  C  C176  1  0.797500  0.115400  0.430700  1.0  -0.2185
  C  C177  1  0.857800  0.086500  0.390500  1.0  0.1607
  C  C178  1  0.682500  0.220800  0.454200  1.0  -0.0118
  C  C179  1  0.664400  0.190600  0.514300  1.0  -0.102
  C  C180  1  0.596500  0.220300  0.547100  1.0  -0.1073
  C  C181  1  0.542300  0.279500  0.520900  1.0  -0.0942
  C  C182  1  0.560200  0.311300  0.462000  1.0  -0.0527
  C  C183  1  0.629600  0.282100  0.429700  1.0  -0.151
  C  C184  1  0.505300  0.373800  0.431600  1.0  0.2351
  C  C185  1  0.408200  0.423700  0.368000  1.0  0.2364
  C  C186  1  0.339200  0.431700  0.323900  1.0  -0.0196
  C  C187  1  0.336700  0.503300  0.287400  1.0  -0.125
  C  C188  1  0.269500  0.515300  0.246800  1.0  -0.092
  C  C189  1  0.207300  0.456000  0.241600  1.0  -0.1167
  C  C190  1  0.208500  0.384400  0.278900  1.0  0.0
  C  C191  1  0.274800  0.372800  0.319600  1.0  -0.1317
  C  C192  1  0.141400  0.318400  0.273000  1.0  0.0791
  C  C193  1  0.127100  0.259200  0.319400  1.0  -0.2119
  C  C194  1  0.069300  0.195500  0.310100  1.0  0.1677
  C  C195  1  0.035700  0.244800  0.214400  1.0  0.1603
  C  C196  1  0.092200  0.311300  0.219900  1.0  -0.2274
  C  C197  1  0.700600  0.655300  0.577600  1.0  0.1436
  C  C198  1  0.734500  0.715800  0.615200  1.0  -0.2229
  C  C199  1  0.691100  0.746300  0.667100  1.0  0.0778
  C  C200  1  0.615400  0.702500  0.680700  1.0  -0.2137
  C  C201  1  0.586500  0.642200  0.640500  1.0  0.1622
  C  C202  1  0.720800  0.817500  0.704200  1.0  -0.0121
  C  C203  1  0.690600  0.835600  0.764300  1.0  -0.0998
  C  C204  1  0.720300  0.903500  0.797100  1.0  -0.1086
  C  C205  1  0.779500  0.957700  0.770900  1.0  -0.0946
  C  C206  1  0.811300  0.939800  0.712000  1.0  -0.0529
  C  C207  1  0.782100  0.870400  0.679700  1.0  -0.1511
  C  C208  1  0.873800  0.994700  0.681600  1.0  0.2333
  C  C209  1  0.923700  0.091800  0.618000  1.0  0.2359
  C  C210  1  0.931700  0.160800  0.573900  1.0  -0.0197
  C  C211  1  0.003300  0.163300  0.537400  1.0  -0.1234
  C  C212  1  0.015300  0.230500  0.496800  1.0  -0.0966
  C  C213  1  0.956000  0.292700  0.491600  1.0  -0.1165
  C  C214  1  0.884400  0.291500  0.528900  1.0  -0.0019
  C  C215  1  0.872800  0.225200  0.569600  1.0  -0.1331
  C  C216  1  0.818400  0.358600  0.523000  1.0  0.0791
  C  C217  1  0.759200  0.372900  0.569400  1.0  -0.2106
  C  C218  1  0.695500  0.430700  0.560100  1.0  0.1682
  C  C219  1  0.744800  0.464300  0.464400  1.0  0.1616
  C  C220  1  0.811300  0.407800  0.469900  1.0  -0.2268
  C  C221  1  0.299400  0.344700  0.077600  1.0  0.1435
  C  C222  1  0.265500  0.284200  0.115200  1.0  -0.2218
  C  C223  1  0.308900  0.253700  0.167100  1.0  0.0777
  C  C224  1  0.384600  0.297500  0.180700  1.0  -0.2135
  C  C225  1  0.413500  0.357800  0.140500  1.0  0.1614
  C  C226  1  0.279200  0.182500  0.204200  1.0  -0.0125
  C  C227  1  0.309400  0.164400  0.264300  1.0  -0.1004
  C  C228  1  0.279700  0.096500  0.297100  1.0  -0.1087
  C  C229  1  0.220500  0.042300  0.270900  1.0  -0.0951
  C  C230  1  0.188700  0.060200  0.212000  1.0  -0.0532
  C  C231  1  0.217900  0.129600  0.179700  1.0  -0.1505
  C  C232  1  0.126200  0.005300  0.181600  1.0  0.2339
  C  C233  1  0.076300  0.908200  0.118000  1.0  0.2364
  C  C234  1  0.068300  0.839200  0.073900  1.0  -0.0203
  C  C235  1  0.996700  0.836700  0.037400  1.0  -0.1204
  C  C236  1  0.984700  0.769500  0.996800  1.0  -0.0976
  C  C237  1  0.044000  0.707300  0.991600  1.0  -0.1174
  C  C238  1  0.115600  0.708500  0.028900  1.0  -0.0006
  C  C239  1  0.127200  0.774800  0.069600  1.0  -0.1326
  C  C240  1  0.181600  0.641400  0.023000  1.0  0.0799
  C  C241  1  0.240800  0.627100  0.069400  1.0  -0.2113
  C  C242  1  0.304500  0.569300  0.060100  1.0  0.1685
  C  C243  1  0.255200  0.535700  0.964400  1.0  0.1605
  C  C244  1  0.188700  0.592200  0.969900  1.0  -0.2284
  C  C245  1  0.344700  0.299400  0.922400  1.0  0.1419
  C  C246  1  0.284200  0.265500  0.884800  1.0  -0.2222
  C  C247  1  0.253700  0.308900  0.832900  1.0  0.0764
  C  C248  1  0.297500  0.384600  0.819300  1.0  -0.2194
  C  C249  1  0.357800  0.413500  0.859500  1.0  0.161
  C  C250  1  0.182500  0.279200  0.795800  1.0  -0.0124
  C  C251  1  0.164400  0.309400  0.735700  1.0  -0.1029
  C  C252  1  0.096500  0.279700  0.702900  1.0  -0.106
  C  C253  1  0.042300  0.220500  0.729100  1.0  -0.0947
  C  C254  1  0.060200  0.188700  0.788000  1.0  -0.0522
  C  C255  1  0.129600  0.217900  0.820300  1.0  -0.1494
  C  C256  1  0.005300  0.126200  0.818400  1.0  0.2357
  C  C257  1  0.908200  0.076300  0.882000  1.0  0.2363
  C  C258  1  0.839200  0.068300  0.926100  1.0  -0.0193
  C  C259  1  0.836700  0.996700  0.962600  1.0  -0.126
  C  C260  1  0.769500  0.984700  0.003200  1.0  -0.0924
  C  C261  1  0.707300  0.044000  0.008400  1.0  -0.1163
  C  C262  1  0.708500  0.115600  0.971100  1.0  -0.0003
  C  C263  1  0.774800  0.127200  0.930400  1.0  -0.1326
  C  C264  1  0.641400  0.181600  0.977000  1.0  0.0802
  C  C265  1  0.627100  0.240800  0.930600  1.0  -0.2132
  C  C266  1  0.569300  0.304500  0.939900  1.0  0.167
  C  C267  1  0.535700  0.255200  0.035600  1.0  0.1599
  C  C268  1  0.592200  0.188700  0.030100  1.0  -0.2263
  C  C269  1  0.655300  0.700600  0.422400  1.0  0.1409
  C  C270  1  0.715800  0.734500  0.384800  1.0  -0.2226
  C  C271  1  0.746300  0.691100  0.332900  1.0  0.0756
  C  C272  1  0.702500  0.615400  0.319300  1.0  -0.2183
  C  C273  1  0.642200  0.586500  0.359500  1.0  0.1606
  C  C274  1  0.817500  0.720800  0.295800  1.0  -0.0118
  C  C275  1  0.835600  0.690600  0.235700  1.0  -0.1016
  C  C276  1  0.903500  0.720300  0.202900  1.0  -0.1091
  C  C277  1  0.957700  0.779500  0.229100  1.0  -0.0961
  C  C278  1  0.939800  0.811300  0.288000  1.0  -0.0519
  C  C279  1  0.870400  0.782100  0.320300  1.0  -0.1502
  C  C280  1  0.994700  0.873800  0.318400  1.0  0.2353
  C  C281  1  0.091800  0.923700  0.382000  1.0  0.2362
  C  C282  1  0.160800  0.931700  0.426100  1.0  -0.0192
  C  C283  1  0.163300  0.003300  0.462600  1.0  -0.1252
  C  C284  1  0.230500  0.015300  0.503200  1.0  -0.0926
  C  C285  1  0.292700  0.956000  0.508400  1.0  -0.1174
  C  C286  1  0.291500  0.884400  0.471100  1.0  -0.0004
  C  C287  1  0.225200  0.872800  0.430400  1.0  -0.1321
  C  C288  1  0.358600  0.818400  0.477000  1.0  0.0798
  C  C289  1  0.372900  0.759200  0.430600  1.0  -0.2122
  C  C290  1  0.430700  0.695500  0.439900  1.0  0.1674
  C  C291  1  0.464300  0.744800  0.535600  1.0  0.1598
  C  C292  1  0.407800  0.811300  0.530100  1.0  -0.2264
  C  C293  1  0.799400  0.155300  0.172400  1.0  0.1435
  C  C294  1  0.765500  0.215800  0.134800  1.0  -0.2196
  C  C295  1  0.808900  0.246300  0.082900  1.0  0.0764
  C  C296  1  0.884600  0.202500  0.069300  1.0  -0.2147
  C  C297  1  0.913500  0.142200  0.109500  1.0  0.1616
  C  C298  1  0.779200  0.317500  0.045800  1.0  -0.0128
  C  C299  1  0.809400  0.335600  0.985700  1.0  -0.1006
  C  C300  1  0.779700  0.403500  0.952900  1.0  -0.1089
  C  C301  1  0.720500  0.457700  0.979100  1.0  -0.0949
  C  C302  1  0.688700  0.439800  0.038000  1.0  -0.0524
  C  C303  1  0.717900  0.370400  0.070300  1.0  -0.1486
  C  C304  1  0.626200  0.494700  0.068400  1.0  0.2344
  C  C305  1  0.576300  0.591800  0.132000  1.0  0.236
  C  C306  1  0.568300  0.660800  0.176100  1.0  -0.0207
  C  C307  1  0.496700  0.663300  0.212600  1.0  -0.121
  C  C308  1  0.484700  0.730500  0.253200  1.0  -0.0984
  C  C309  1  0.544000  0.792700  0.258400  1.0  -0.1169
  C  C310  1  0.615600  0.791500  0.221100  1.0  -0.0008
  C  C311  1  0.627200  0.725200  0.180400  1.0  -0.1331
  C  C312  1  0.681600  0.858600  0.227000  1.0  0.0806
  C  C313  1  0.740800  0.872900  0.180600  1.0  -0.2117
  C  C314  1  0.804500  0.930700  0.189900  1.0  0.1682
  C  C315  1  0.755200  0.964300  0.285600  1.0  0.1604
  C  C316  1  0.688700  0.907800  0.280100  1.0  -0.2277
  C  C317  1  0.200600  0.844700  0.672400  1.0  0.1435
  C  C318  1  0.234500  0.784200  0.634800  1.0  -0.2217
  C  C319  1  0.191100  0.753700  0.582900  1.0  0.0768
  C  C320  1  0.115400  0.797500  0.569300  1.0  -0.2139
  C  C321  1  0.086500  0.857800  0.609500  1.0  0.1628
  C  C322  1  0.220800  0.682500  0.545800  1.0  -0.0124
  C  C323  1  0.190600  0.664400  0.485700  1.0  -0.099
  C  C324  1  0.220300  0.596500  0.452900  1.0  -0.1091
  C  C325  1  0.279500  0.542300  0.479100  1.0  -0.0953
  C  C326  1  0.311300  0.560200  0.538000  1.0  -0.0534
  C  C327  1  0.282100  0.629600  0.570300  1.0  -0.15
  C  C328  1  0.373800  0.505300  0.568400  1.0  0.2335
  C  C329  1  0.423700  0.408200  0.632000  1.0  0.2362
  C  C330  1  0.431700  0.339200  0.676100  1.0  -0.0198
  C  C331  1  0.503300  0.336700  0.712600  1.0  -0.1238
  C  C332  1  0.515300  0.269500  0.753200  1.0  -0.0963
  C  C333  1  0.456000  0.207300  0.758400  1.0  -0.1168
  C  C334  1  0.384400  0.208500  0.721100  1.0  -0.0013
  C  C335  1  0.372800  0.274800  0.680400  1.0  -0.1329
  C  C336  1  0.318400  0.141400  0.727000  1.0  0.0801
  C  C337  1  0.259200  0.127100  0.680600  1.0  -0.2119
  C  C338  1  0.195500  0.069300  0.689900  1.0  0.1682
  C  C339  1  0.244800  0.035700  0.785600  1.0  0.1619
  C  C340  1  0.311300  0.092200  0.780100  1.0  -0.2267
  N  N341  1  0.120600  0.875700  0.838200  1.0  -0.3611
  N  N342  1  0.492600  0.544400  0.934000  1.0  -0.2196
  N  N343  1  0.553300  0.512400  0.894900  1.0  -0.2999
  N  N344  1  0.555900  0.649200  0.890400  1.0  0.0601
  N  N345  1  0.575700  0.731300  0.869900  1.0  -0.5647
  N  N346  1  0.976300  0.812400  0.758100  1.0  -0.3857
  N  N347  1  0.879400  0.124300  0.338200  1.0  -0.3615
  N  N348  1  0.507400  0.455600  0.434000  1.0  -0.2208
  N  N349  1  0.446700  0.487600  0.394900  1.0  -0.3002
  N  N350  1  0.444100  0.350800  0.390400  1.0  0.0602
  N  N351  1  0.424300  0.268700  0.369900  1.0  -0.5639
  N  N352  1  0.023700  0.187600  0.258100  1.0  -0.3856
  N  N353  1  0.624300  0.620600  0.588200  1.0  -0.3607
  N  N354  1  0.955600  0.992600  0.684000  1.0  -0.2198
  N  N355  1  0.987600  0.053300  0.644900  1.0  -0.301
  N  N356  1  0.850800  0.055900  0.640400  1.0  0.0598
  N  N357  1  0.768700  0.075700  0.619900  1.0  -0.5631
  N  N358  1  0.687600  0.476300  0.508100  1.0  -0.3862
  N  N359  1  0.375700  0.379400  0.088200  1.0  -0.3602
  N  N360  1  0.044400  0.007400  0.184000  1.0  -0.2202
  N  N361  1  0.012400  0.946700  0.144900  1.0  -0.3003
  N  N362  1  0.149200  0.944100  0.140400  1.0  0.0604
  N  N363  1  0.231300  0.924300  0.119900  1.0  -0.5637
  N  N364  1  0.312400  0.523700  0.008100  1.0  -0.3859
  N  N365  1  0.379400  0.375700  0.911800  1.0  -0.3621
  N  N366  1  0.007400  0.044400  0.816000  1.0  -0.2202
  N  N367  1  0.946700  0.012400  0.855100  1.0  -0.2994
  N  N368  1  0.944100  0.149200  0.859600  1.0  0.0603
  N  N369  1  0.924300  0.231300  0.880100  1.0  -0.5646
  N  N370  1  0.523700  0.312400  0.991900  1.0  -0.3856
  N  N371  1  0.620600  0.624300  0.411800  1.0  -0.3616
  N  N372  1  0.992600  0.955600  0.316000  1.0  -0.2207
  N  N373  1  0.053300  0.987600  0.355100  1.0  -0.2996
  N  N374  1  0.055900  0.850800  0.359600  1.0  0.0606
  N  N375  1  0.075700  0.768700  0.380100  1.0  -0.5637
  N  N376  1  0.476300  0.687600  0.491900  1.0  -0.3853
  N  N377  1  0.875700  0.120600  0.161800  1.0  -0.3605
  N  N378  1  0.544400  0.492600  0.066000  1.0  -0.2203
  N  N379  1  0.512400  0.553300  0.105100  1.0  -0.2998
  N  N380  1  0.649200  0.555900  0.109600  1.0  0.0605
  N  N381  1  0.731300  0.575700  0.130100  1.0  -0.5632
  N  N382  1  0.812400  0.976300  0.241900  1.0  -0.3866
  N  N383  1  0.124300  0.879400  0.661800  1.0  -0.3611
  N  N384  1  0.455600  0.507400  0.566000  1.0  -0.2198
  N  N385  1  0.487600  0.446700  0.605100  1.0  -0.3001
  N  N386  1  0.350800  0.444100  0.609600  1.0  0.0602
  N  N387  1  0.268700  0.424300  0.630100  1.0  -0.5627
  N  N388  1  0.187600  0.023700  0.741900  1.0  -0.3855
