# generated using pymatgen
data_CdH13C21SN3O4
_symmetry_space_group_name_H-M   'P 1'
_cell_length_a   13.85400000
_cell_length_b   10.83200000
_cell_length_c   18.73100000
_cell_angle_alpha   90.00000000
_cell_angle_beta   130.62400000
_cell_angle_gamma   90.00000000
_symmetry_Int_Tables_number   1
_chemical_formula_structural   CdH13C21SN3O4
_chemical_formula_sum   'Cd4 H52 C84 S4 N12 O16'
_cell_volume   2133.46635862
_cell_formula_units_Z   4
loop_
 _symmetry_equiv_pos_site_id
 _symmetry_equiv_pos_as_xyz
  1  'x, y, z'
loop_
 _atom_site_type_symbol
 _atom_site_label
 _atom_site_symmetry_multiplicity
 _atom_site_fract_x
 _atom_site_fract_y
 _atom_site_fract_z
 _atom_site_occupancy
 _atom_site_charge
  Cd  Cd1  1  0.000000  0.676640  0.750000  1.0  0.9623
  Cd  Cd2  1  0.000000  0.323360  0.250000  1.0  0.962
  Cd  Cd3  1  0.500000  0.947450  0.750000  1.0  1.0002
  Cd  Cd4  1  0.500000  0.052550  0.250000  1.0  0.9995
  H  H5  1  0.343600  0.367100  0.526300  1.0  0.1393
  H  H6  1  0.462200  0.363400  0.634500  1.0  0.1394
  H  H7  1  0.626300  0.464100  0.652600  1.0  0.1132
  H  H8  1  0.735100  0.361500  0.508300  1.0  0.1065
  H  H9  1  0.419300  0.217600  0.443400  1.0  0.1136
  H  H10  1  0.300100  0.006800  0.806300  1.0  0.1278
  H  H11  1  0.166400  0.108300  0.820500  1.0  0.0868
  H  H12  1  0.054400  0.280900  0.732900  1.0  0.1146
  H  H13  1  0.076700  0.365200  0.632200  1.0  0.1348
  H  H14  1  0.142800  0.727700  0.673900  1.0  0.0796
  H  H15  1  0.141900  0.843400  0.571500  1.0  0.1235
  H  H16  1  0.866600  0.051100  0.525300  1.0  0.1189
  H  H17  1  0.873400  0.927200  0.627000  1.0  0.071
  H  H18  1  0.656400  0.367100  0.973700  1.0  0.1387
  H  H19  1  0.537800  0.363400  0.865500  1.0  0.1379
  H  H20  1  0.373700  0.464100  0.847400  1.0  0.1136
  H  H21  1  0.264900  0.361500  0.991700  1.0  0.1063
  H  H22  1  0.580700  0.217600  0.056600  1.0  0.1135
  H  H23  1  0.699900  0.006800  0.693700  1.0  0.1276
  H  H24  1  0.833600  0.108300  0.679500  1.0  0.0877
  H  H25  1  0.945600  0.280900  0.767100  1.0  0.1148
  H  H26  1  0.923300  0.365200  0.867800  1.0  0.1343
  H  H27  1  0.857200  0.727700  0.826100  1.0  0.079
  H  H28  1  0.858100  0.843400  0.928500  1.0  0.1237
  H  H29  1  0.133400  0.051100  0.974700  1.0  0.1186
  H  H30  1  0.126600  0.927200  0.873000  1.0  0.0705
  H  H31  1  0.656400  0.632900  0.473700  1.0  0.1388
  H  H32  1  0.537800  0.636600  0.365500  1.0  0.1379
  H  H33  1  0.373700  0.535900  0.347400  1.0  0.1135
  H  H34  1  0.264900  0.638500  0.491700  1.0  0.1063
  H  H35  1  0.580700  0.782400  0.556600  1.0  0.1132
  H  H36  1  0.699900  0.993200  0.193700  1.0  0.1282
  H  H37  1  0.833600  0.891700  0.179500  1.0  0.0874
  H  H38  1  0.945600  0.719100  0.267100  1.0  0.1145
  H  H39  1  0.923300  0.634800  0.367800  1.0  0.1344
  H  H40  1  0.857200  0.272300  0.326100  1.0  0.0796
  H  H41  1  0.858100  0.156600  0.428500  1.0  0.1251
  H  H42  1  0.133400  0.948900  0.474700  1.0  0.118
  H  H43  1  0.126600  0.072800  0.373000  1.0  0.0709
  H  H44  1  0.343600  0.632900  0.026300  1.0  0.1392
  H  H45  1  0.462200  0.636600  0.134500  1.0  0.1398
  H  H46  1  0.626300  0.535900  0.152600  1.0  0.1131
  H  H47  1  0.735100  0.638500  0.008300  1.0  0.1066
  H  H48  1  0.419300  0.782400  0.943400  1.0  0.1136
  H  H49  1  0.300100  0.993200  0.306300  1.0  0.1279
  H  H50  1  0.166400  0.891700  0.320500  1.0  0.0868
  H  H51  1  0.054400  0.719100  0.232900  1.0  0.1148
  H  H52  1  0.076700  0.634800  0.132200  1.0  0.1342
  H  H53  1  0.142800  0.272300  0.173900  1.0  0.0798
  H  H54  1  0.141900  0.156600  0.071500  1.0  0.125
  H  H55  1  0.866600  0.948900  0.025300  1.0  0.1188
  H  H56  1  0.873400  0.072800  0.127000  1.0  0.0712
  C  C57  1  0.423300  0.325200  0.574300  1.0  -0.2994
  C  C58  1  0.510700  0.337200  0.552600  1.0  0.1129
  C  C59  1  0.612800  0.417600  0.605100  1.0  -0.0638
  C  C60  1  0.695500  0.429400  0.587400  1.0  -0.1552
  C  C61  1  0.677700  0.356700  0.518300  1.0  0.0093
  C  C62  1  0.574400  0.277100  0.464300  1.0  -0.1349
  C  C63  1  0.489900  0.268900  0.480700  1.0  -0.0366
  C  C64  1  0.803400  0.519500  0.642500  1.0  0.6641
  C  C65  1  0.554200  0.199700  0.389500  1.0  0.6874
  C  C66  1  0.322400  0.174800  0.627300  1.0  0.3258
  C  C67  1  0.269900  0.128500  0.710100  1.0  0.1376
  C  C68  1  0.256800  0.077900  0.771900  1.0  -0.1336
  C  C69  1  0.176400  0.138500  0.779200  1.0  -0.0884
  C  C70  1  0.109100  0.244200  0.726600  1.0  -0.0827
  C  C71  1  0.121000  0.294600  0.666800  1.0  -0.1323
  C  C72  1  0.203800  0.234400  0.659900  1.0  0.1241
  C  C73  1  0.085400  0.792700  0.642700  1.0  0.1862
  C  C74  1  0.085800  0.862300  0.581300  1.0  -0.1841
  C  C75  1  0.001700  0.961300  0.533700  1.0  0.0826
  C  C76  1  0.922800  0.984900  0.553600  1.0  -0.18
  C  C77  1  0.927900  0.909900  0.615500  1.0  0.1792
  C  C78  1  0.576700  0.325200  0.925700  1.0  -0.3024
  C  C79  1  0.489300  0.337200  0.947400  1.0  0.1138
  C  C80  1  0.387200  0.417600  0.894900  1.0  -0.0638
  C  C81  1  0.304500  0.429400  0.912600  1.0  -0.1561
  C  C82  1  0.322300  0.356700  0.981700  1.0  0.0117
  C  C83  1  0.425600  0.277100  0.035700  1.0  -0.1354
  C  C84  1  0.510100  0.268900  0.019300  1.0  -0.0368
  C  C85  1  0.196600  0.519500  0.857500  1.0  0.6629
  C  C86  1  0.445800  0.199700  0.110500  1.0  0.6862
  C  C87  1  0.677600  0.174800  0.872700  1.0  0.3241
  C  C88  1  0.730100  0.128500  0.789900  1.0  0.1374
  C  C89  1  0.743200  0.077900  0.728100  1.0  -0.1334
  C  C90  1  0.823600  0.138500  0.720800  1.0  -0.0889
  C  C91  1  0.890900  0.244200  0.773400  1.0  -0.0829
  C  C92  1  0.879000  0.294600  0.833200  1.0  -0.1323
  C  C93  1  0.796200  0.234400  0.840100  1.0  0.1236
  C  C94  1  0.914600  0.792700  0.857300  1.0  0.1866
  C  C95  1  0.914200  0.862300  0.918700  1.0  -0.1827
  C  C96  1  0.998300  0.961300  0.966300  1.0  0.0824
  C  C97  1  0.077200  0.984900  0.946400  1.0  -0.1792
  C  C98  1  0.072100  0.909900  0.884500  1.0  0.1794
  C  C99  1  0.576700  0.674800  0.425700  1.0  -0.3004
  C  C100  1  0.489300  0.662800  0.447400  1.0  0.1144
  C  C101  1  0.387200  0.582400  0.394900  1.0  -0.0637
  C  C102  1  0.304500  0.570600  0.412600  1.0  -0.1563
  C  C103  1  0.322300  0.643300  0.481700  1.0  0.012
  C  C104  1  0.425600  0.722900  0.535700  1.0  -0.1354
  C  C105  1  0.510100  0.731100  0.519300  1.0  -0.0354
  C  C106  1  0.196600  0.480500  0.357500  1.0  0.6628
  C  C107  1  0.445800  0.800300  0.610500  1.0  0.6864
  C  C108  1  0.677600  0.825200  0.372700  1.0  0.3248
  C  C109  1  0.730100  0.871500  0.289900  1.0  0.1372
  C  C110  1  0.743200  0.922100  0.228100  1.0  -0.1326
  C  C111  1  0.823600  0.861500  0.220800  1.0  -0.089
  C  C112  1  0.890900  0.755800  0.273400  1.0  -0.0832
  C  C113  1  0.879000  0.705400  0.333200  1.0  -0.1335
  C  C114  1  0.796200  0.765600  0.340100  1.0  0.1248
  C  C115  1  0.914600  0.207300  0.357300  1.0  0.1863
  C  C116  1  0.914200  0.137700  0.418700  1.0  -0.1833
  C  C117  1  0.998300  0.038700  0.466300  1.0  0.0829
  C  C118  1  0.077200  0.015100  0.446400  1.0  -0.1794
  C  C119  1  0.072100  0.090100  0.384500  1.0  0.1799
  C  C120  1  0.423300  0.674800  0.074300  1.0  -0.3003
  C  C121  1  0.510700  0.662800  0.052600  1.0  0.113
  C  C122  1  0.612800  0.582400  0.105100  1.0  -0.0637
  C  C123  1  0.695500  0.570600  0.087400  1.0  -0.155
  C  C124  1  0.677700  0.643300  0.018300  1.0  0.0097
  C  C125  1  0.574400  0.722900  0.964300  1.0  -0.1338
  C  C126  1  0.489900  0.731100  0.980700  1.0  -0.0371
  C  C127  1  0.803400  0.480500  0.142500  1.0  0.664
  C  C128  1  0.554200  0.800300  0.889500  1.0  0.6875
  C  C129  1  0.322400  0.825200  0.127300  1.0  0.3258
  C  C130  1  0.269900  0.871500  0.210100  1.0  0.1374
  C  C131  1  0.256800  0.922100  0.271900  1.0  -0.1335
  C  C132  1  0.176400  0.861500  0.279200  1.0  -0.0886
  C  C133  1  0.109100  0.755800  0.226600  1.0  -0.0831
  C  C134  1  0.121000  0.705400  0.166800  1.0  -0.1329
  C  C135  1  0.203800  0.765600  0.159900  1.0  0.1238
  C  C136  1  0.085400  0.207300  0.142700  1.0  0.187
  C  C137  1  0.085800  0.137700  0.081300  1.0  -0.1838
  C  C138  1  0.001700  0.038700  0.033700  1.0  0.0829
  C  C139  1  0.922800  0.015100  0.053600  1.0  -0.1799
  C  C140  1  0.927900  0.090100  0.115500  1.0  0.1787
  S  S141  1  0.393970  0.165200  0.577850  1.0  0.0054
  S  S142  1  0.606030  0.165200  0.922150  1.0  0.0059
  S  S143  1  0.606030  0.834800  0.422150  1.0  0.005
  S  S144  1  0.393970  0.834800  0.077850  1.0  0.0041
  N  N145  1  0.344500  0.092200  0.687900  1.0  -0.4233
  N  N146  1  0.238700  0.262800  0.607700  1.0  -0.2629
  N  N147  1  0.006900  0.813700  0.659900  1.0  -0.3539
  N  N148  1  0.655500  0.092200  0.812100  1.0  -0.4234
  N  N149  1  0.761300  0.262800  0.892300  1.0  -0.2641
  N  N150  1  0.993100  0.813700  0.840100  1.0  -0.3581
  N  N151  1  0.655500  0.907800  0.312100  1.0  -0.4233
  N  N152  1  0.761300  0.737200  0.392300  1.0  -0.263
  N  N153  1  0.993100  0.186300  0.340100  1.0  -0.3547
  N  N154  1  0.344500  0.907800  0.187900  1.0  -0.4236
  N  N155  1  0.238700  0.737200  0.107700  1.0  -0.2634
  N  N156  1  0.006900  0.186300  0.159900  1.0  -0.3532
  O  O157  1  0.882300  0.524400  0.629600  1.0  -0.6115
  O  O158  1  0.812300  0.589400  0.699600  1.0  -0.6077
  O  O159  1  0.639900  0.189000  0.385300  1.0  -0.6134
  O  O160  1  0.450700  0.145700  0.331700  1.0  -0.5972
  O  O161  1  0.117700  0.524400  0.870400  1.0  -0.6144
  O  O162  1  0.187700  0.589400  0.800400  1.0  -0.6084
  O  O163  1  0.360100  0.189000  0.114700  1.0  -0.6122
  O  O164  1  0.549300  0.145700  0.168300  1.0  -0.5963
  O  O165  1  0.117700  0.475600  0.370400  1.0  -0.6143
  O  O166  1  0.187700  0.410600  0.300400  1.0  -0.6087
  O  O167  1  0.360100  0.811000  0.614700  1.0  -0.6124
  O  O168  1  0.549300  0.854300  0.668300  1.0  -0.5956
  O  O169  1  0.882300  0.475600  0.129600  1.0  -0.6116
  O  O170  1  0.812300  0.410600  0.199600  1.0  -0.6077
  O  O171  1  0.639900  0.811000  0.885300  1.0  -0.6136
  O  O172  1  0.450700  0.854300  0.831700  1.0  -0.5966
