# generated using pymatgen
data_Na3Zn4CuH4(CO)20
_symmetry_space_group_name_H-M   'P 1'
_cell_length_a   11.26220000
_cell_length_b   13.23480000
_cell_length_c   13.23480000
_cell_angle_alpha   101.48800000
_cell_angle_beta   106.74300000
_cell_angle_gamma   73.25660000
_symmetry_Int_Tables_number   1
_chemical_formula_structural   Na3Zn4CuH4(CO)20
_chemical_formula_sum   'Na6 Zn8 Cu2 H8 C40 O40'
_cell_volume   1794.39495617
_cell_formula_units_Z   2
loop_
 _symmetry_equiv_pos_site_id
 _symmetry_equiv_pos_as_xyz
  1  'x, y, z'
loop_
 _atom_site_type_symbol
 _atom_site_label
 _atom_site_symmetry_multiplicity
 _atom_site_fract_x
 _atom_site_fract_y
 _atom_site_fract_z
 _atom_site_occupancy
 _atom_site_charge
  Na  Na1  1  0.711900  0.686100  0.350900  1.0  0.8871
  Na  Na2  1  0.788100  0.350900  0.686100  1.0  0.8884
  Na  Na3  1  0.288100  0.313900  0.649100  1.0  0.8912
  Na  Na4  1  0.211900  0.649100  0.313900  1.0  0.8809
  Na  Na5  1  0.750000  0.320500  0.320500  1.0  0.827
  Na  Na6  1  0.250000  0.679500  0.679500  1.0  0.825
  Zn  Zn7  1  0.460460  0.860930  0.167790  1.0  1.1326
  Zn  Zn8  1  0.039540  0.167790  0.860930  1.0  1.1343
  Zn  Zn9  1  0.539540  0.139070  0.832210  1.0  1.1323
  Zn  Zn10  1  0.960460  0.832210  0.139070  1.0  1.134
  Zn  Zn11  1  0.250000  0.887530  0.887530  1.0  1.0488
  Zn  Zn12  1  0.250000  0.075550  0.075550  1.0  1.0548
  Zn  Zn13  1  0.750000  0.112470  0.112470  1.0  1.0508
  Zn  Zn14  1  0.750000  0.924450  0.924450  1.0  1.0534
  Cu  Cu15  1  0.500000  0.000000  0.000000  1.0  1.1212
  Cu  Cu16  1  0.000000  0.000000  0.000000  1.0  1.1212
  H  H17  1  0.126100  0.482800  0.009400  1.0  0.1087
  H  H18  1  0.559800  0.452600  0.137200  1.0  0.0924
  H  H19  1  0.373900  0.009400  0.482800  1.0  0.1078
  H  H20  1  0.940200  0.137200  0.452600  1.0  0.0915
  H  H21  1  0.873900  0.517200  0.990600  1.0  0.1085
  H  H22  1  0.440200  0.547400  0.862800  1.0  0.0892
  H  H23  1  0.626100  0.990600  0.517200  1.0  0.1071
  H  H24  1  0.059800  0.862800  0.547400  1.0  0.0921
  C  C25  1  0.388300  0.560000  0.109600  1.0  -0.1866
  C  C26  1  0.257800  0.569100  0.068700  1.0  -0.0834
  C  C27  1  0.213500  0.476900  0.035500  1.0  -0.1035
  C  C28  1  0.295500  0.377400  0.040400  1.0  -0.0349
  C  C29  1  0.428000  0.368400  0.076200  1.0  -0.1342
  C  C30  1  0.472300  0.458700  0.111500  1.0  -0.0183
  C  C31  1  0.444000  0.655000  0.149600  1.0  0.712
  C  C32  1  0.158700  0.672600  0.060000  1.0  0.708
  C  C33  1  0.239800  0.281900  0.015700  1.0  0.6985
  C  C34  1  0.519900  0.261200  0.069000  1.0  0.7308
  C  C35  1  0.111700  0.109600  0.560000  1.0  -0.182
  C  C36  1  0.242200  0.068700  0.569100  1.0  -0.0834
  C  C37  1  0.286500  0.035500  0.476900  1.0  -0.103
  C  C38  1  0.204500  0.040400  0.377400  1.0  -0.0347
  C  C39  1  0.072000  0.076200  0.368400  1.0  -0.1319
  C  C40  1  0.027700  0.111500  0.458700  1.0  -0.0186
  C  C41  1  0.056000  0.149600  0.655000  1.0  0.7122
  C  C42  1  0.341300  0.060000  0.672600  1.0  0.707
  C  C43  1  0.260200  0.015700  0.281900  1.0  0.6992
  C  C44  1  0.980100  0.069000  0.261200  1.0  0.7324
  C  C45  1  0.611700  0.440000  0.890400  1.0  -0.1863
  C  C46  1  0.742200  0.430900  0.931300  1.0  -0.0843
  C  C47  1  0.786500  0.523100  0.964500  1.0  -0.1033
  C  C48  1  0.704500  0.622600  0.959600  1.0  -0.035
  C  C49  1  0.572000  0.631600  0.923800  1.0  -0.1349
  C  C50  1  0.527700  0.541300  0.888500  1.0  -0.016
  C  C51  1  0.556000  0.345000  0.850400  1.0  0.713
  C  C52  1  0.841300  0.327400  0.940000  1.0  0.708
  C  C53  1  0.760200  0.718100  0.984300  1.0  0.6997
  C  C54  1  0.480100  0.738800  0.931000  1.0  0.7308
  C  C55  1  0.888300  0.890400  0.440000  1.0  -0.1827
  C  C56  1  0.757800  0.931300  0.430900  1.0  -0.0834
  C  C57  1  0.713500  0.964500  0.523100  1.0  -0.1029
  C  C58  1  0.795500  0.959600  0.622600  1.0  -0.0338
  C  C59  1  0.928000  0.923800  0.631600  1.0  -0.1311
  C  C60  1  0.972300  0.888500  0.541300  1.0  -0.0184
  C  C61  1  0.944000  0.850400  0.345000  1.0  0.7128
  C  C62  1  0.658700  0.940000  0.327400  1.0  0.707
  C  C63  1  0.739800  0.984300  0.718100  1.0  0.7003
  C  C64  1  0.019900  0.931000  0.738800  1.0  0.7314
  O  O65  1  0.551600  0.644100  0.209900  1.0  -0.7967
  O  O66  1  0.376700  0.743300  0.118500  1.0  -0.5498
  O  O67  1  0.125200  0.721500  0.144500  1.0  -0.718
  O  O68  1  0.109700  0.699300  0.969500  1.0  -0.5022
  O  O69  1  0.160800  0.270700  0.928500  1.0  -0.6197
  O  O70  1  0.275100  0.224270  0.088730  1.0  -0.5746
  O  O71  1  0.488900  0.190600  0.995600  1.0  -0.661
  O  O72  1  0.626200  0.248600  0.137600  1.0  -0.7033
  O  O73  1  0.437800  0.002670  0.121930  1.0  -0.7278
  O  O74  1  0.316400  0.015730  0.921870  1.0  -0.6883
  O  O75  1  0.948400  0.209900  0.644100  1.0  -0.795
  O  O76  1  0.123300  0.118500  0.743300  1.0  -0.5508
  O  O77  1  0.374800  0.144500  0.721500  1.0  -0.7174
  O  O78  1  0.390300  0.969500  0.699300  1.0  -0.5007
  O  O79  1  0.339200  0.928500  0.270700  1.0  -0.6207
  O  O80  1  0.224900  0.088730  0.224270  1.0  -0.5732
  O  O81  1  0.011100  0.995600  0.190600  1.0  -0.6601
  O  O82  1  0.873800  0.137600  0.248600  1.0  -0.701
  O  O83  1  0.062200  0.121930  0.002670  1.0  -0.7272
  O  O84  1  0.183600  0.921870  0.015730  1.0  -0.6878
  O  O85  1  0.448400  0.355900  0.790100  1.0  -0.7939
  O  O86  1  0.623300  0.256700  0.881500  1.0  -0.5489
  O  O87  1  0.874800  0.278500  0.855500  1.0  -0.717
  O  O88  1  0.890300  0.300700  0.030500  1.0  -0.5058
  O  O89  1  0.839200  0.729300  0.071500  1.0  -0.6206
  O  O90  1  0.724900  0.775730  0.911270  1.0  -0.5741
  O  O91  1  0.511100  0.809400  0.004400  1.0  -0.6612
  O  O92  1  0.373800  0.751400  0.862400  1.0  -0.7041
  O  O93  1  0.562200  0.997330  0.878070  1.0  -0.7278
  O  O94  1  0.683600  0.984270  0.078130  1.0  -0.6877
  O  O95  1  0.051600  0.790100  0.355900  1.0  -0.7975
  O  O96  1  0.876700  0.881500  0.256700  1.0  -0.5513
  O  O97  1  0.625200  0.855500  0.278500  1.0  -0.7158
  O  O98  1  0.609700  0.030500  0.300700  1.0  -0.5014
  O  O99  1  0.660800  0.071500  0.729300  1.0  -0.6211
  O  O100  1  0.775100  0.911270  0.775730  1.0  -0.574
  O  O101  1  0.988900  0.004400  0.809400  1.0  -0.6609
  O  O102  1  0.126200  0.862400  0.751400  1.0  -0.7014
  O  O103  1  0.937800  0.878070  0.997330  1.0  -0.7289
  O  O104  1  0.816400  0.078130  0.984270  1.0  -0.6877
