# generated using pymatgen
data_Zn2H4C12O7
_symmetry_space_group_name_H-M   'P 1'
_cell_length_a   7.87320000
_cell_length_b   9.65710000
_cell_length_c   12.14610000
_cell_angle_alpha   76.89400000
_cell_angle_beta   89.32500000
_cell_angle_gamma   77.57500000
_symmetry_Int_Tables_number   1
_chemical_formula_structural   Zn2H4C12O7
_chemical_formula_sum   'Zn4 H8 C24 O14'
_cell_volume   877.70926851
_cell_formula_units_Z   2
loop_
 _symmetry_equiv_pos_site_id
 _symmetry_equiv_pos_as_xyz
  1  'x, y, z'
loop_
 _atom_site_type_symbol
 _atom_site_label
 _atom_site_symmetry_multiplicity
 _atom_site_fract_x
 _atom_site_fract_y
 _atom_site_fract_z
 _atom_site_occupancy
 _atom_site_charge
  Zn  Zn1  1  0.071540  0.137370  0.516080  1.0  1.1196
  Zn  Zn2  1  0.666560  0.163720  0.367870  1.0  1.0335
  Zn  Zn3  1  0.928460  0.862630  0.483920  1.0  1.121
  Zn  Zn4  1  0.333440  0.836280  0.632130  1.0  1.0346
  H  H5  1  0.696900  0.001700  0.770000  1.0  0.1202
  H  H6  1  0.411300  0.390900  0.598700  1.0  0.1199
  H  H7  1  0.769500  0.375700  0.840200  1.0  0.124
  H  H8  1  0.763300  0.174700  0.031400  1.0  0.1218
  H  H9  1  0.303100  0.998300  0.230000  1.0  0.118
  H  H10  1  0.588700  0.609100  0.401300  1.0  0.1195
  H  H11  1  0.230500  0.624300  0.159800  1.0  0.1238
  H  H12  1  0.236700  0.825300  0.968600  1.0  0.1213
  C  C13  1  0.434300  0.107300  0.618100  1.0  0.6853
  C  C14  1  0.538500  0.184500  0.676200  1.0  -0.1327
  C  C15  1  0.668400  0.105000  0.756500  1.0  -0.0636
  C  C16  1  0.497800  0.336200  0.655000  1.0  -0.0007
  C  C17  1  0.583900  0.407300  0.716100  1.0  -0.13
  C  C18  1  0.712200  0.326700  0.797700  1.0  -0.0801
  C  C19  1  0.757500  0.175400  0.817700  1.0  0.0548
  C  C20  1  0.888300  0.087400  0.908000  1.0  0.0092
  C  C21  1  0.859600  0.102900  0.018300  1.0  -0.0611
  C  C22  1  0.535300  0.570400  0.697300  1.0  0.6889
  C  C23  1  0.966000  0.017600  0.110000  1.0  -0.1053
  C  C24  1  0.906700  0.032200  0.226400  1.0  0.7274
  C  C25  1  0.565700  0.892700  0.381900  1.0  0.6862
  C  C26  1  0.461500  0.815500  0.323800  1.0  -0.1334
  C  C27  1  0.331600  0.895000  0.243500  1.0  -0.0624
  C  C28  1  0.502200  0.663800  0.345000  1.0  0.0007
  C  C29  1  0.416100  0.592700  0.283900  1.0  -0.1301
  C  C30  1  0.287800  0.673300  0.202300  1.0  -0.0804
  C  C31  1  0.242500  0.824600  0.182300  1.0  0.0557
  C  C32  1  0.111700  0.912600  0.092000  1.0  0.0091
  C  C33  1  0.140400  0.897100  0.981700  1.0  -0.0602
  C  C34  1  0.464700  0.429600  0.302700  1.0  0.6888
  C  C35  1  0.034000  0.982400  0.890000  1.0  -0.1064
  C  C36  1  0.093300  0.967800  0.773600  1.0  0.7258
  O  O37  1  0.833900  0.077030  0.497140  1.0  -0.7259
  O  O38  1  0.486600  0.969720  0.637000  1.0  -0.6009
  O  O39  1  0.304400  0.182100  0.558220  1.0  -0.6174
  O  O40  1  0.612400  0.635200  0.750320  1.0  -0.4992
  O  O41  1  0.408100  0.634290  0.625430  1.0  -0.5901
  O  O42  1  0.958100  0.925870  0.307370  1.0  -0.5993
  O  O43  1  0.800500  0.149150  0.231140  1.0  -0.5982
  O  O44  1  0.166100  0.922970  0.502860  1.0  -0.7266
  O  O45  1  0.513400  0.030280  0.363000  1.0  -0.6016
  O  O46  1  0.695600  0.817900  0.441780  1.0  -0.6186
  O  O47  1  0.387600  0.364800  0.249680  1.0  -0.497
  O  O48  1  0.591900  0.365710  0.374570  1.0  -0.59
  O  O49  1  0.041900  0.074130  0.692630  1.0  -0.5997
  O  O50  1  0.199500  0.850850  0.768860  1.0  -0.5978
