# generated using pymatgen
data_MnH4C8O5
_symmetry_space_group_name_H-M   'P 1'
_cell_length_a   18.25070000
_cell_length_b   18.16510000
_cell_length_c   18.85180000
_cell_angle_alpha   90.00000000
_cell_angle_beta   90.00000000
_cell_angle_gamma   90.00000000
_symmetry_Int_Tables_number   1
_chemical_formula_structural   MnH4C8O5
_chemical_formula_sum   'Mn16 H64 C128 O80'
_cell_volume   6249.85789867
_cell_formula_units_Z   16
loop_
 _symmetry_equiv_pos_site_id
 _symmetry_equiv_pos_as_xyz
  1  'x, y, z'
loop_
 _atom_site_type_symbol
 _atom_site_label
 _atom_site_symmetry_multiplicity
 _atom_site_fract_x
 _atom_site_fract_y
 _atom_site_fract_z
 _atom_site_occupancy
 _atom_site_charge
  Mn  Mn1  1  0.223710  0.693340  0.089380  1.0  1.1362
  Mn  Mn2  1  0.220530  0.491400  0.094170  1.0  1.1253
  Mn  Mn3  1  0.276290  0.306660  0.589380  1.0  1.1373
  Mn  Mn4  1  0.279470  0.508600  0.594170  1.0  1.1245
  Mn  Mn5  1  0.776290  0.193340  0.410620  1.0  1.139
  Mn  Mn6  1  0.779470  0.991400  0.405830  1.0  1.126
  Mn  Mn7  1  0.723710  0.806660  0.910620  1.0  1.1356
  Mn  Mn8  1  0.720530  0.008600  0.905830  1.0  1.1251
  Mn  Mn9  1  0.776290  0.306660  0.910620  1.0  1.1367
  Mn  Mn10  1  0.779470  0.508600  0.905830  1.0  1.1251
  Mn  Mn11  1  0.723710  0.693340  0.410620  1.0  1.1378
  Mn  Mn12  1  0.720530  0.491400  0.405830  1.0  1.1258
  Mn  Mn13  1  0.223710  0.806660  0.589380  1.0  1.137
  Mn  Mn14  1  0.220530  0.008600  0.594170  1.0  1.1245
  Mn  Mn15  1  0.276290  0.193340  0.089380  1.0  1.1363
  Mn  Mn16  1  0.279470  0.991400  0.094170  1.0  1.1248
  H  H17  1  0.315600  0.247600  0.256600  1.0  0.4009
  H  H18  1  0.375800  0.713700  0.180100  1.0  0.369
  H  H19  1  0.193100  0.456500  0.243600  1.0  0.0957
  H  H20  1  0.193000  0.496900  0.360200  1.0  0.1122
  H  H21  1  0.305800  0.317200  0.417300  1.0  0.1261
  H  H22  1  0.424000  0.479500  0.216200  1.0  0.1071
  H  H23  1  0.531700  0.483500  0.279600  1.0  0.1074
  H  H24  1  0.531700  0.703500  0.268100  1.0  0.1129
  H  H25  1  0.184400  0.752400  0.756600  1.0  0.4007
  H  H26  1  0.124200  0.286300  0.680100  1.0  0.3663
  H  H27  1  0.306900  0.543500  0.743600  1.0  0.0958
  H  H28  1  0.307000  0.503100  0.860200  1.0  0.1122
  H  H29  1  0.194200  0.682800  0.917300  1.0  0.1265
  H  H30  1  0.076000  0.520500  0.716200  1.0  0.1073
  H  H31  1  0.968300  0.516500  0.779600  1.0  0.1076
  H  H32  1  0.968300  0.296500  0.768100  1.0  0.1131
  H  H33  1  0.684400  0.747600  0.243400  1.0  0.4012
  H  H34  1  0.624200  0.213700  0.319900  1.0  0.3686
  H  H35  1  0.806900  0.956500  0.256400  1.0  0.0955
  H  H36  1  0.807000  0.996900  0.139800  1.0  0.1121
  H  H37  1  0.694200  0.817200  0.082700  1.0  0.1264
  H  H38  1  0.576000  0.979500  0.283800  1.0  0.1069
  H  H39  1  0.468300  0.983500  0.220400  1.0  0.1069
  H  H40  1  0.468300  0.203500  0.231900  1.0  0.1133
  H  H41  1  0.815600  0.252400  0.743400  1.0  0.4014
  H  H42  1  0.875800  0.786300  0.819900  1.0  0.3695
  H  H43  1  0.693100  0.043500  0.756400  1.0  0.0957
  H  H44  1  0.693000  0.003100  0.639800  1.0  0.1116
  H  H45  1  0.805800  0.182800  0.582700  1.0  0.1262
  H  H46  1  0.924000  0.020500  0.783800  1.0  0.107
  H  H47  1  0.031700  0.016500  0.720400  1.0  0.1067
  H  H48  1  0.031700  0.796500  0.731900  1.0  0.1136
  H  H49  1  0.684400  0.752400  0.743400  1.0  0.4008
  H  H50  1  0.624200  0.286300  0.819900  1.0  0.3672
  H  H51  1  0.806900  0.543500  0.756400  1.0  0.0959
  H  H52  1  0.807000  0.503100  0.639800  1.0  0.1119
  H  H53  1  0.694200  0.682800  0.582700  1.0  0.1267
  H  H54  1  0.576000  0.520500  0.783800  1.0  0.1068
  H  H55  1  0.468300  0.516500  0.720400  1.0  0.1071
  H  H56  1  0.468300  0.296500  0.731900  1.0  0.1134
  H  H57  1  0.815600  0.247600  0.243400  1.0  0.4015
  H  H58  1  0.875800  0.713700  0.319900  1.0  0.3703
  H  H59  1  0.693100  0.456500  0.256400  1.0  0.0956
  H  H60  1  0.693000  0.496900  0.139800  1.0  0.1123
  H  H61  1  0.805800  0.317200  0.082700  1.0  0.1261
  H  H62  1  0.924000  0.479500  0.283800  1.0  0.1069
  H  H63  1  0.031700  0.483500  0.220400  1.0  0.1069
  H  H64  1  0.031700  0.703500  0.231900  1.0  0.1134
  H  H65  1  0.315600  0.252400  0.756600  1.0  0.4008
  H  H66  1  0.375800  0.786300  0.680100  1.0  0.3688
  H  H67  1  0.193100  0.043500  0.743600  1.0  0.0956
  H  H68  1  0.193000  0.003100  0.860200  1.0  0.112
  H  H69  1  0.305800  0.182800  0.917300  1.0  0.126
  H  H70  1  0.424000  0.020500  0.716200  1.0  0.1074
  H  H71  1  0.531700  0.016500  0.779600  1.0  0.1074
  H  H72  1  0.531700  0.796500  0.768100  1.0  0.1133
  H  H73  1  0.184400  0.747600  0.256600  1.0  0.4012
  H  H74  1  0.124200  0.213700  0.180100  1.0  0.3674
  H  H75  1  0.306900  0.956500  0.243600  1.0  0.0956
  H  H76  1  0.307000  0.996900  0.360200  1.0  0.112
  H  H77  1  0.194200  0.817200  0.417300  1.0  0.1266
  H  H78  1  0.076000  0.979500  0.216200  1.0  0.107
  H  H79  1  0.968300  0.983500  0.279600  1.0  0.1073
  H  H80  1  0.968300  0.203500  0.268100  1.0  0.1128
  C  C81  1  0.253820  0.341540  0.182740  1.0  0.7923
  C  C82  1  0.251360  0.364260  0.259030  1.0  -0.2157
  C  C83  1  0.216700  0.428730  0.278160  1.0  -0.0362
  C  C84  1  0.216300  0.453050  0.348280  1.0  -0.0492
  C  C85  1  0.250700  0.411740  0.399940  1.0  -0.1636
  C  C86  1  0.283660  0.345540  0.382210  1.0  -0.1177
  C  C87  1  0.283820  0.321170  0.312190  1.0  0.3114
  C  C88  1  0.255420  0.440090  0.474020  1.0  0.6697
  C  C89  1  0.341180  0.585610  0.162660  1.0  0.7486
  C  C90  1  0.412200  0.589280  0.203650  1.0  -0.2233
  C  C91  1  0.445400  0.524700  0.226600  1.0  -0.0483
  C  C92  1  0.509900  0.527060  0.264600  1.0  -0.0425
  C  C93  1  0.542380  0.594390  0.280780  1.0  -0.1555
  C  C94  1  0.510020  0.658400  0.257860  1.0  -0.1077
  C  C95  1  0.445100  0.656310  0.219480  1.0  0.3288
  C  C96  1  0.611450  0.596020  0.324820  1.0  0.749
  C  C97  1  0.246180  0.658460  0.682740  1.0  0.7923
  C  C98  1  0.248640  0.635740  0.759030  1.0  -0.2151
  C  C99  1  0.283300  0.571270  0.778160  1.0  -0.0372
  C  C100  1  0.283700  0.546950  0.848280  1.0  -0.0492
  C  C101  1  0.249300  0.588260  0.899940  1.0  -0.1634
  C  C102  1  0.216340  0.654460  0.882210  1.0  -0.1201
  C  C103  1  0.216180  0.678830  0.812190  1.0  0.3124
  C  C104  1  0.244580  0.559910  0.974020  1.0  0.6697
  C  C105  1  0.158820  0.414390  0.662660  1.0  0.7471
  C  C106  1  0.087800  0.410720  0.703650  1.0  -0.222
  C  C107  1  0.054600  0.475300  0.726600  1.0  -0.0494
  C  C108  1  0.990100  0.472940  0.764600  1.0  -0.0426
  C  C109  1  0.957620  0.405610  0.780780  1.0  -0.155
  C  C110  1  0.989980  0.341600  0.757860  1.0  -0.1088
  C  C111  1  0.054900  0.343690  0.719480  1.0  0.3286
  C  C112  1  0.888550  0.403980  0.824820  1.0  0.7495
  C  C113  1  0.746180  0.841540  0.317260  1.0  0.7919
  C  C114  1  0.748640  0.864260  0.240970  1.0  -0.2154
  C  C115  1  0.783300  0.928730  0.221840  1.0  -0.0368
  C  C116  1  0.783700  0.953050  0.151720  1.0  -0.0518
  C  C117  1  0.749300  0.911740  0.100060  1.0  -0.1625
  C  C118  1  0.716340  0.845540  0.117790  1.0  -0.1194
  C  C119  1  0.716180  0.821170  0.187810  1.0  0.3105
  C  C120  1  0.744580  0.940090  0.025980  1.0  0.6695
  C  C121  1  0.658820  0.085610  0.337340  1.0  0.7474
  C  C122  1  0.587800  0.089280  0.296350  1.0  -0.2215
  C  C123  1  0.554600  0.024700  0.273400  1.0  -0.0481
  C  C124  1  0.490100  0.027060  0.235400  1.0  -0.044
  C  C125  1  0.457620  0.094390  0.219220  1.0  -0.1541
  C  C126  1  0.489980  0.158400  0.242140  1.0  -0.1076
  C  C127  1  0.554900  0.156310  0.280520  1.0  0.328
  C  C128  1  0.388550  0.096020  0.175180  1.0  0.7505
  C  C129  1  0.753820  0.158460  0.817260  1.0  0.7921
  C  C130  1  0.751360  0.135740  0.740970  1.0  -0.2158
  C  C131  1  0.716700  0.071270  0.721840  1.0  -0.0361
  C  C132  1  0.716300  0.046950  0.651720  1.0  -0.0503
  C  C133  1  0.750700  0.088260  0.600060  1.0  -0.1632
  C  C134  1  0.783660  0.154460  0.617790  1.0  -0.1206
  C  C135  1  0.783820  0.178830  0.687810  1.0  0.3116
  C  C136  1  0.755420  0.059910  0.525980  1.0  0.6694
  C  C137  1  0.841180  0.914390  0.837340  1.0  0.7483
  C  C138  1  0.912200  0.910720  0.796350  1.0  -0.223
  C  C139  1  0.945400  0.975300  0.773400  1.0  -0.0489
  C  C140  1  0.009900  0.972940  0.735400  1.0  -0.0432
  C  C141  1  0.042380  0.905610  0.719220  1.0  -0.1545
  C  C142  1  0.010020  0.841600  0.742140  1.0  -0.1086
  C  C143  1  0.945100  0.843690  0.780520  1.0  0.3293
  C  C144  1  0.111450  0.903980  0.675180  1.0  0.7499
  C  C145  1  0.746180  0.658460  0.817260  1.0  0.7921
  C  C146  1  0.748640  0.635740  0.740970  1.0  -0.2155
  C  C147  1  0.783300  0.571270  0.721840  1.0  -0.0368
  C  C148  1  0.783700  0.546950  0.651720  1.0  -0.0504
  C  C149  1  0.749300  0.588260  0.600060  1.0  -0.163
  C  C150  1  0.716340  0.654460  0.617790  1.0  -0.1209
  C  C151  1  0.716180  0.678830  0.687810  1.0  0.3114
  C  C152  1  0.744580  0.559910  0.525980  1.0  0.6694
  C  C153  1  0.658820  0.414390  0.837340  1.0  0.7471
  C  C154  1  0.587800  0.410720  0.796350  1.0  -0.2216
  C  C155  1  0.554600  0.475300  0.773400  1.0  -0.0494
  C  C156  1  0.490100  0.472940  0.735400  1.0  -0.0433
  C  C157  1  0.457620  0.405610  0.719220  1.0  -0.1543
  C  C158  1  0.489980  0.341600  0.742140  1.0  -0.109
  C  C159  1  0.554900  0.343690  0.780520  1.0  0.3286
  C  C160  1  0.388550  0.403980  0.675180  1.0  0.7504
  C  C161  1  0.753820  0.341540  0.317260  1.0  0.792
  C  C162  1  0.751360  0.364260  0.240970  1.0  -0.2157
  C  C163  1  0.716700  0.428730  0.221840  1.0  -0.0357
  C  C164  1  0.716300  0.453050  0.151720  1.0  -0.0516
  C  C165  1  0.750700  0.411740  0.100060  1.0  -0.1627
  C  C166  1  0.783660  0.345540  0.117790  1.0  -0.1197
  C  C167  1  0.783820  0.321170  0.187810  1.0  0.3107
  C  C168  1  0.755420  0.440090  0.025980  1.0  0.6697
  C  C169  1  0.841180  0.585610  0.337340  1.0  0.7487
  C  C170  1  0.912200  0.589280  0.296350  1.0  -0.2231
  C  C171  1  0.945400  0.524700  0.273400  1.0  -0.048
  C  C172  1  0.009900  0.527060  0.235400  1.0  -0.0436
  C  C173  1  0.042380  0.594390  0.219220  1.0  -0.1545
  C  C174  1  0.010020  0.658400  0.242140  1.0  -0.1079
  C  C175  1  0.945100  0.656310  0.280520  1.0  0.3286
  C  C176  1  0.111450  0.596020  0.175180  1.0  0.7499
  C  C177  1  0.253820  0.158460  0.682740  1.0  0.7921
  C  C178  1  0.251360  0.135740  0.759030  1.0  -0.2154
  C  C179  1  0.216700  0.071270  0.778160  1.0  -0.0367
  C  C180  1  0.216300  0.046950  0.848280  1.0  -0.0492
  C  C181  1  0.250700  0.088260  0.899940  1.0  -0.1635
  C  C182  1  0.283660  0.154460  0.882210  1.0  -0.1189
  C  C183  1  0.283820  0.178830  0.812190  1.0  0.3125
  C  C184  1  0.255420  0.059910  0.974020  1.0  0.6697
  C  C185  1  0.341180  0.914390  0.662660  1.0  0.7485
  C  C186  1  0.412200  0.910720  0.703650  1.0  -0.223
  C  C187  1  0.445400  0.975300  0.726600  1.0  -0.0489
  C  C188  1  0.509900  0.972940  0.764600  1.0  -0.0424
  C  C189  1  0.542380  0.905610  0.780780  1.0  -0.1554
  C  C190  1  0.510020  0.841600  0.757860  1.0  -0.1086
  C  C191  1  0.445100  0.843690  0.719480  1.0  0.3294
  C  C192  1  0.611450  0.903980  0.824820  1.0  0.749
  C  C193  1  0.246180  0.841540  0.182740  1.0  0.7924
  C  C194  1  0.248640  0.864260  0.259030  1.0  -0.2154
  C  C195  1  0.283300  0.928730  0.278160  1.0  -0.0372
  C  C196  1  0.283700  0.953050  0.348280  1.0  -0.0491
  C  C197  1  0.249300  0.911740  0.399940  1.0  -0.1635
  C  C198  1  0.216340  0.845540  0.382210  1.0  -0.1184
  C  C199  1  0.216180  0.821170  0.312190  1.0  0.3112
  C  C200  1  0.244580  0.940090  0.474020  1.0  0.6695
  C  C201  1  0.158820  0.085610  0.162660  1.0  0.7471
  C  C202  1  0.087800  0.089280  0.203650  1.0  -0.2219
  C  C203  1  0.054600  0.024700  0.226600  1.0  -0.0483
  C  C204  1  0.990100  0.027060  0.264600  1.0  -0.0429
  C  C205  1  0.957620  0.094390  0.280780  1.0  -0.1549
  C  C206  1  0.989980  0.158400  0.257860  1.0  -0.1073
  C  C207  1  0.054900  0.156310  0.219480  1.0  0.3281
  C  C208  1  0.888550  0.096020  0.324820  1.0  0.7495
  O  O209  1  0.234490  0.383990  0.134910  1.0  -0.7107
  O  O210  1  0.317730  0.523770  0.145790  1.0  -0.6037
  O  O211  1  0.229580  0.502780  0.487880  1.0  -0.6024
  O  O212  1  0.641470  0.535420  0.337410  1.0  -0.6134
  O  O213  1  0.288150  0.403600  0.521090  1.0  -0.6446
  O  O214  1  0.632830  0.657040  0.346480  1.0  -0.634
  O  O215  1  0.276440  0.277360  0.171020  1.0  -0.669
  O  O216  1  0.311210  0.645840  0.148130  1.0  -0.6504
  O  O217  1  0.316200  0.255890  0.299350  1.0  -0.5051
  O  O218  1  0.414700  0.721300  0.200400  1.0  -0.4957
  O  O219  1  0.265510  0.616010  0.634910  1.0  -0.7118
  O  O220  1  0.182270  0.476230  0.645790  1.0  -0.6045
  O  O221  1  0.270420  0.497220  0.987880  1.0  -0.6014
  O  O222  1  0.858530  0.464580  0.837410  1.0  -0.6129
  O  O223  1  0.211850  0.596400  0.021090  1.0  -0.6443
  O  O224  1  0.867170  0.342960  0.846480  1.0  -0.6337
  O  O225  1  0.223560  0.722640  0.671020  1.0  -0.6697
  O  O226  1  0.188790  0.354160  0.648130  1.0  -0.6485
  O  O227  1  0.183800  0.744110  0.799350  1.0  -0.5063
  O  O228  1  0.085300  0.278700  0.700400  1.0  -0.4963
  O  O229  1  0.765510  0.883990  0.365090  1.0  -0.7122
  O  O230  1  0.682270  0.023770  0.354210  1.0  -0.6053
  O  O231  1  0.770420  0.002780  0.012120  1.0  -0.5998
  O  O232  1  0.358530  0.035420  0.162590  1.0  -0.613
  O  O233  1  0.711850  0.903600  0.978910  1.0  -0.6454
  O  O234  1  0.367170  0.157040  0.153520  1.0  -0.632
  O  O235  1  0.723560  0.777360  0.328980  1.0  -0.6698
  O  O236  1  0.688790  0.145840  0.351870  1.0  -0.6489
  O  O237  1  0.683800  0.755890  0.200650  1.0  -0.5067
  O  O238  1  0.585300  0.221300  0.299600  1.0  -0.4957
  O  O239  1  0.734490  0.116010  0.865090  1.0  -0.7135
  O  O240  1  0.817730  0.976230  0.854210  1.0  -0.6039
  O  O241  1  0.729580  0.997220  0.512120  1.0  -0.6033
  O  O242  1  0.141470  0.964580  0.662590  1.0  -0.6145
  O  O243  1  0.788150  0.096400  0.478910  1.0  -0.6441
  O  O244  1  0.132830  0.842960  0.653520  1.0  -0.6336
  O  O245  1  0.776440  0.222640  0.828980  1.0  -0.6681
  O  O246  1  0.811210  0.854160  0.851870  1.0  -0.6514
  O  O247  1  0.816200  0.244110  0.700650  1.0  -0.5071
  O  O248  1  0.914700  0.778700  0.799600  1.0  -0.4949
  O  O249  1  0.765510  0.616010  0.865090  1.0  -0.7137
  O  O250  1  0.682270  0.476230  0.854210  1.0  -0.6048
  O  O251  1  0.770420  0.497220  0.512120  1.0  -0.6013
  O  O252  1  0.358530  0.464580  0.662590  1.0  -0.6129
  O  O253  1  0.711850  0.596400  0.478910  1.0  -0.6441
  O  O254  1  0.367170  0.342960  0.653520  1.0  -0.6329
  O  O255  1  0.723560  0.722640  0.828980  1.0  -0.6697
  O  O256  1  0.688790  0.354160  0.851870  1.0  -0.649
  O  O257  1  0.683800  0.744110  0.700650  1.0  -0.5071
  O  O258  1  0.585300  0.278700  0.799600  1.0  -0.4958
  O  O259  1  0.734490  0.383990  0.365090  1.0  -0.7134
  O  O260  1  0.817730  0.523770  0.354210  1.0  -0.6044
  O  O261  1  0.729580  0.502780  0.012120  1.0  -0.6026
  O  O262  1  0.141470  0.535420  0.162590  1.0  -0.614
  O  O263  1  0.788150  0.403600  0.978910  1.0  -0.6449
  O  O264  1  0.132830  0.657040  0.153520  1.0  -0.6334
  O  O265  1  0.776440  0.277360  0.328980  1.0  -0.6683
  O  O266  1  0.811210  0.645840  0.351870  1.0  -0.6516
  O  O267  1  0.816200  0.255890  0.200650  1.0  -0.5063
  O  O268  1  0.914700  0.721300  0.299600  1.0  -0.4958
  O  O269  1  0.234490  0.116010  0.634910  1.0  -0.7122
  O  O270  1  0.317730  0.976230  0.645790  1.0  -0.6036
  O  O271  1  0.229580  0.997220  0.987880  1.0  -0.6033
  O  O272  1  0.641470  0.964580  0.837410  1.0  -0.6145
  O  O273  1  0.288150  0.096400  0.021090  1.0  -0.6441
  O  O274  1  0.632830  0.842960  0.846480  1.0  -0.6341
  O  O275  1  0.276440  0.222640  0.671020  1.0  -0.6687
  O  O276  1  0.311210  0.854160  0.648130  1.0  -0.6509
  O  O277  1  0.316200  0.244110  0.799350  1.0  -0.5058
  O  O278  1  0.414700  0.778700  0.700400  1.0  -0.4947
  O  O279  1  0.265510  0.883990  0.134910  1.0  -0.7114
  O  O280  1  0.182270  0.023770  0.145790  1.0  -0.6043
  O  O281  1  0.270420  0.002780  0.487880  1.0  -0.5999
  O  O282  1  0.858530  0.035420  0.337410  1.0  -0.6122
  O  O283  1  0.211850  0.903600  0.521090  1.0  -0.6451
  O  O284  1  0.867170  0.157040  0.346480  1.0  -0.6324
  O  O285  1  0.223560  0.777360  0.171020  1.0  -0.6699
  O  O286  1  0.188790  0.145840  0.148130  1.0  -0.6479
  O  O287  1  0.183800  0.755890  0.299350  1.0  -0.5058
  O  O288  1  0.085300  0.221300  0.200400  1.0  -0.4962
