# generated using pymatgen
data_CdCu2(CN)5
_symmetry_space_group_name_H-M   'P 1'
_cell_length_a   12.20420000
_cell_length_b   14.37860000
_cell_length_c   20.38590000
_cell_angle_alpha   90.00000000
_cell_angle_beta   90.00000000
_cell_angle_gamma   90.00000000
_symmetry_Int_Tables_number   1
_chemical_formula_structural   CdCu2(CN)5
_chemical_formula_sum   'Cd8 Cu16 C40 N40'
_cell_volume   3577.30366818
_cell_formula_units_Z   8
loop_
 _symmetry_equiv_pos_site_id
 _symmetry_equiv_pos_as_xyz
  1  'x, y, z'
loop_
 _atom_site_type_symbol
 _atom_site_label
 _atom_site_symmetry_multiplicity
 _atom_site_fract_x
 _atom_site_fract_y
 _atom_site_fract_z
 _atom_site_occupancy
 _atom_site_charge
  Cd  Cd1  1  0.487550  0.289330  0.620910  1.0  0.9302
  Cd  Cd2  1  0.012450  0.710670  0.120910  1.0  0.9295
  Cd  Cd3  1  0.512450  0.789330  0.879090  1.0  0.93
  Cd  Cd4  1  0.987550  0.210670  0.379090  1.0  0.9294
  Cd  Cd5  1  0.512450  0.710670  0.379090  1.0  0.9295
  Cd  Cd6  1  0.987550  0.289330  0.879090  1.0  0.9299
  Cd  Cd7  1  0.487550  0.210670  0.120910  1.0  0.9294
  Cd  Cd8  1  0.012450  0.789330  0.620910  1.0  0.9303
  Cu  Cu9  1  0.414590  0.243260  0.868800  1.0  0.5159
  Cu  Cu10  1  0.414580  0.652650  0.638260  1.0  0.5565
  Cu  Cu11  1  0.085410  0.756740  0.368800  1.0  0.5159
  Cu  Cu12  1  0.085420  0.347350  0.138260  1.0  0.5557
  Cu  Cu13  1  0.585410  0.743260  0.631200  1.0  0.5152
  Cu  Cu14  1  0.585420  0.152650  0.861740  1.0  0.5565
  Cu  Cu15  1  0.914590  0.256740  0.131200  1.0  0.5168
  Cu  Cu16  1  0.914580  0.847350  0.361740  1.0  0.5566
  Cu  Cu17  1  0.585410  0.756740  0.131200  1.0  0.516
  Cu  Cu18  1  0.585420  0.347350  0.361740  1.0  0.5562
  Cu  Cu19  1  0.914590  0.243260  0.631200  1.0  0.5159
  Cu  Cu20  1  0.914580  0.652650  0.861740  1.0  0.5568
  Cu  Cu21  1  0.414590  0.256740  0.368800  1.0  0.5166
  Cu  Cu22  1  0.414580  0.847350  0.138260  1.0  0.5562
  Cu  Cu23  1  0.085410  0.743260  0.868800  1.0  0.5152
  Cu  Cu24  1  0.085420  0.152650  0.638260  1.0  0.556
  C  C25  1  0.475800  0.298210  0.452000  1.0  -0.0025
  C  C26  1  0.481100  0.231380  0.782250  1.0  0.0224
  C  C27  1  0.766500  0.286800  0.624290  1.0  -1e-04
  C  C28  1  0.443800  0.521880  0.643170  1.0  0.069
  C  C29  1  0.222100  0.216340  0.625930  1.0  0.0954
  C  C30  1  0.024200  0.701790  0.952000  1.0  -0.0022
  C  C31  1  0.018900  0.768620  0.282250  1.0  0.0226
  C  C32  1  0.733500  0.713200  0.124290  1.0  0.0009
  C  C33  1  0.056200  0.478120  0.143170  1.0  0.0715
  C  C34  1  0.277900  0.783660  0.125930  1.0  0.0953
  C  C35  1  0.524200  0.798210  0.048000  1.0  -0.0038
  C  C36  1  0.518900  0.731380  0.717750  1.0  0.0258
  C  C37  1  0.233500  0.786800  0.875710  1.0  0.0015
  C  C38  1  0.556200  0.021880  0.856830  1.0  0.0692
  C  C39  1  0.777900  0.716340  0.874070  1.0  0.0959
  C  C40  1  0.975800  0.201790  0.548000  1.0  -0.0038
  C  C41  1  0.981100  0.268620  0.217750  1.0  0.0257
  C  C42  1  0.266500  0.213200  0.375710  1.0  0.0002
  C  C43  1  0.943800  0.978120  0.356830  1.0  0.0717
  C  C44  1  0.722100  0.283660  0.374070  1.0  0.0955
  C  C45  1  0.524200  0.701790  0.548000  1.0  -0.0027
  C  C46  1  0.518900  0.768620  0.217750  1.0  0.0253
  C  C47  1  0.233500  0.713200  0.375710  1.0  0.0015
  C  C48  1  0.556200  0.478120  0.356830  1.0  0.0714
  C  C49  1  0.777900  0.783660  0.374070  1.0  0.0954
  C  C50  1  0.975800  0.298210  0.048000  1.0  -0.0031
  C  C51  1  0.981100  0.231380  0.717750  1.0  0.0254
  C  C52  1  0.266500  0.286800  0.875710  1.0  0.0003
  C  C53  1  0.943800  0.521880  0.856830  1.0  0.0689
  C  C54  1  0.722100  0.216340  0.874070  1.0  0.0957
  C  C55  1  0.475800  0.201790  0.952000  1.0  0.0002
  C  C56  1  0.481100  0.268620  0.282250  1.0  0.0252
  C  C57  1  0.766500  0.213200  0.124290  1.0  -0.0003
  C  C58  1  0.443800  0.978120  0.143170  1.0  0.0717
  C  C59  1  0.222100  0.283660  0.125930  1.0  0.095
  C  C60  1  0.024200  0.798210  0.452000  1.0  1e-04
  C  C61  1  0.018900  0.731380  0.782250  1.0  0.0254
  C  C62  1  0.733500  0.786800  0.624290  1.0  0.0009
  C  C63  1  0.056200  0.021880  0.643170  1.0  0.0692
  C  C64  1  0.277900  0.716340  0.625930  1.0  0.0959
  N  N65  1  0.496400  0.240600  0.727600  1.0  -0.4624
  N  N66  1  0.459900  0.443420  0.641680  1.0  -0.3867
  N  N67  1  0.488300  0.310220  0.506820  1.0  -0.4665
  N  N68  1  0.675500  0.302700  0.618080  1.0  -0.438
  N  N69  1  0.303570  0.253140  0.616680  1.0  -0.4356
  N  N70  1  0.003600  0.759400  0.227600  1.0  -0.4631
  N  N71  1  0.040100  0.556580  0.141680  1.0  -0.3885
  N  N72  1  0.011700  0.689780  0.006820  1.0  -0.4664
  N  N73  1  0.824500  0.697300  0.118080  1.0  -0.4374
  N  N74  1  0.196430  0.746860  0.116680  1.0  -0.4361
  N  N75  1  0.503600  0.740600  0.772400  1.0  -0.4618
  N  N76  1  0.540100  0.943420  0.858320  1.0  -0.3858
  N  N77  1  0.511700  0.810220  0.993180  1.0  -0.4682
  N  N78  1  0.324500  0.802700  0.881920  1.0  -0.4383
  N  N79  1  0.696430  0.753140  0.883320  1.0  -0.4369
  N  N80  1  0.996400  0.259400  0.272400  1.0  -0.4612
  N  N81  1  0.959900  0.056580  0.358320  1.0  -0.3893
  N  N82  1  0.988300  0.189780  0.493180  1.0  -0.4683
  N  N83  1  0.175500  0.197300  0.381920  1.0  -0.4378
  N  N84  1  0.803570  0.246860  0.383320  1.0  -0.4357
  N  N85  1  0.503600  0.759400  0.272400  1.0  -0.4618
  N  N86  1  0.540100  0.556580  0.358320  1.0  -0.3884
  N  N87  1  0.511700  0.689780  0.493180  1.0  -0.468
  N  N88  1  0.324500  0.697300  0.381920  1.0  -0.4375
  N  N89  1  0.696430  0.746860  0.383320  1.0  -0.4367
  N  N90  1  0.996400  0.240600  0.772400  1.0  -0.4611
  N  N91  1  0.959900  0.443420  0.858320  1.0  -0.3867
  N  N92  1  0.988300  0.310220  0.993180  1.0  -0.4677
  N  N93  1  0.175500  0.302700  0.881920  1.0  -0.4381
  N  N94  1  0.803570  0.253140  0.883320  1.0  -0.436
  N  N95  1  0.496400  0.259400  0.227600  1.0  -0.4626
  N  N96  1  0.459900  0.056580  0.141680  1.0  -0.3896
  N  N97  1  0.488300  0.189780  0.006820  1.0  -0.4667
  N  N98  1  0.675500  0.197300  0.118080  1.0  -0.4376
  N  N99  1  0.303570  0.246860  0.116680  1.0  -0.4353
  N  N100  1  0.003600  0.740600  0.727600  1.0  -0.4629
  N  N101  1  0.040100  0.943420  0.641680  1.0  -0.3857
  N  N102  1  0.011700  0.810220  0.506820  1.0  -0.467
  N  N103  1  0.824500  0.802700  0.618080  1.0  -0.4382
  N  N104  1  0.196430  0.753140  0.616680  1.0  -0.4364
