# generated using pymatgen
data_Mn2P2H3C3O14
_symmetry_space_group_name_H-M   'P 1'
_cell_length_a   8.89460000
_cell_length_b   9.81250000
_cell_length_c   12.25070000
_cell_angle_alpha   81.74200000
_cell_angle_beta   71.83100000
_cell_angle_gamma   72.82700000
_symmetry_Int_Tables_number   1
_chemical_formula_structural   Mn2P2H3C3O14
_chemical_formula_sum   'Mn4 P4 H6 C6 O28'
_cell_volume   969.05073346
_cell_formula_units_Z   2
loop_
 _symmetry_equiv_pos_site_id
 _symmetry_equiv_pos_as_xyz
  1  'x, y, z'
loop_
 _atom_site_type_symbol
 _atom_site_label
 _atom_site_symmetry_multiplicity
 _atom_site_fract_x
 _atom_site_fract_y
 _atom_site_fract_z
 _atom_site_occupancy
 _atom_site_charge
  Mn  Mn1  1  0.938860  0.340540  0.717260  1.0  1.1248
  Mn  Mn2  1  0.401240  0.954310  0.926390  1.0  1.1478
  Mn  Mn3  1  0.061140  0.659460  0.282740  1.0  1.1238
  Mn  Mn4  1  0.598760  0.045690  0.073610  1.0  1.1455
  P  P5  1  0.688170  0.113320  0.776240  1.0  1.7915
  P  P6  1  0.718560  0.669040  0.814660  1.0  1.8761
  P  P7  1  0.311830  0.886680  0.223760  1.0  1.7912
  P  P8  1  0.281440  0.330960  0.185340  1.0  1.8773
  H  H9  1  0.511800  0.299200  0.789700  1.0  0.4799
  H  H10  1  0.740300  0.832500  0.700200  1.0  0.4402
  H  H11  1  0.805700  0.727300  0.928000  1.0  0.4171
  H  H12  1  0.488200  0.700800  0.210300  1.0  0.4795
  H  H13  1  0.259700  0.167500  0.299800  1.0  0.4413
  H  H14  1  0.194300  0.272700  0.072000  1.0  0.4186
  C  C15  1  0.943500  0.465600  0.482500  1.0  0.5266
  C  C16  1  0.240500  0.123900  0.754200  1.0  0.5747
  C  C17  1  0.169600  0.220400  0.860700  1.0  0.6421
  C  C18  1  0.056500  0.534400  0.517500  1.0  0.5295
  C  C19  1  0.759500  0.876100  0.245800  1.0  0.5761
  C  C20  1  0.830400  0.779600  0.139300  1.0  0.6418
  O  O21  1  0.822300  0.173100  0.786300  1.0  -0.8223
  O  O22  1  0.746200  0.008900  0.681700  1.0  -0.7761
  O  O23  1  0.608400  0.045200  0.892900  1.0  -0.8723
  O  O24  1  0.551000  0.240200  0.740300  1.0  -0.6522
  O  O25  1  0.740400  0.513900  0.797200  1.0  -0.766
  O  O26  1  0.548600  0.742500  0.886500  1.0  -0.7496
  O  O27  1  0.761500  0.746400  0.693400  1.0  -0.6357
  O  O28  1  0.850200  0.675200  0.873900  1.0  -0.6571
  O  O29  1  0.888000  0.373300  0.552200  1.0  -0.5149
  O  O30  1  0.917800  0.507000  0.386600  1.0  -0.4853
  O  O31  1  0.351400  0.012900  0.759600  1.0  -0.5015
  O  O32  1  0.178900  0.166500  0.672700  1.0  -0.5035
  O  O33  1  0.231700  0.178300  0.941300  1.0  -0.5848
  O  O34  1  0.058600  0.330000  0.853400  1.0  -0.502
  O  O35  1  0.177700  0.826900  0.213700  1.0  -0.8227
  O  O36  1  0.253800  0.991100  0.318300  1.0  -0.778
  O  O37  1  0.391600  0.954800  0.107100  1.0  -0.8721
  O  O38  1  0.449000  0.759800  0.259700  1.0  -0.6544
  O  O39  1  0.259600  0.486100  0.202800  1.0  -0.7654
  O  O40  1  0.451400  0.257500  0.113500  1.0  -0.7475
  O  O41  1  0.238500  0.253600  0.306600  1.0  -0.6381
  O  O42  1  0.149800  0.324800  0.126100  1.0  -0.6595
  O  O43  1  0.112000  0.626700  0.447800  1.0  -0.5112
  O  O44  1  0.082200  0.493000  0.613400  1.0  -0.4845
  O  O45  1  0.648600  0.987100  0.240400  1.0  -0.4986
  O  O46  1  0.821100  0.833500  0.327300  1.0  -0.504
  O  O47  1  0.768300  0.821700  0.058700  1.0  -0.5837
  O  O48  1  0.941400  0.670000  0.146600  1.0  -0.5025
