# generated using pymatgen
data_Mn4P3H6(C2O7)4
_symmetry_space_group_name_H-M   'P 1'
_cell_length_a   15.36800000
_cell_length_b   11.41220000
_cell_length_c   22.28120000
_cell_angle_alpha   90.00000000
_cell_angle_beta   101.84700000
_cell_angle_gamma   90.00000000
_symmetry_Int_Tables_number   1
_chemical_formula_structural   Mn4P3H6(C2O7)4
_chemical_formula_sum   'Mn16 P12 H24 C32 O112'
_cell_volume   3824.49929509
_cell_formula_units_Z   4
loop_
 _symmetry_equiv_pos_site_id
 _symmetry_equiv_pos_as_xyz
  1  'x, y, z'
loop_
 _atom_site_type_symbol
 _atom_site_label
 _atom_site_symmetry_multiplicity
 _atom_site_fract_x
 _atom_site_fract_y
 _atom_site_fract_z
 _atom_site_occupancy
 _atom_site_charge
  Mn  Mn1  1  0.524960  0.473930  0.428780  1.0  1.1224
  Mn  Mn2  1  0.645190  0.016120  0.379640  1.0  1.1587
  Mn  Mn3  1  0.024960  0.973930  0.428780  1.0  1.1224
  Mn  Mn4  1  0.145190  0.516120  0.379640  1.0  1.1587
  Mn  Mn5  1  0.475040  0.473930  0.071220  1.0  1.1228
  Mn  Mn6  1  0.354810  0.016120  0.120360  1.0  1.1574
  Mn  Mn7  1  0.975040  0.973930  0.071220  1.0  1.1228
  Mn  Mn8  1  0.854810  0.516120  0.120360  1.0  1.1574
  Mn  Mn9  1  0.475040  0.526070  0.571220  1.0  1.1223
  Mn  Mn10  1  0.354810  0.983880  0.620360  1.0  1.1581
  Mn  Mn11  1  0.975040  0.026070  0.571220  1.0  1.1223
  Mn  Mn12  1  0.854810  0.483880  0.620360  1.0  1.1581
  Mn  Mn13  1  0.524960  0.526070  0.928780  1.0  1.1217
  Mn  Mn14  1  0.645190  0.983880  0.879640  1.0  1.1592
  Mn  Mn15  1  0.024960  0.026070  0.928780  1.0  1.1217
  Mn  Mn16  1  0.145190  0.483880  0.879640  1.0  1.1592
  P  P17  1  0.619330  0.738920  0.425690  1.0  1.7874
  P  P18  1  0.119330  0.238920  0.425690  1.0  1.7874
  P  P19  1  0.380670  0.738920  0.074310  1.0  1.7852
  P  P20  1  0.880670  0.238920  0.074310  1.0  1.7852
  P  P21  1  0.380670  0.261080  0.574310  1.0  1.7854
  P  P22  1  0.880670  0.761080  0.574310  1.0  1.7854
  P  P23  1  0.619330  0.261080  0.925690  1.0  1.7874
  P  P24  1  0.119330  0.761080  0.925690  1.0  1.7874
  P  P25  1  0.500000  0.090410  0.250000  1.0  1.8591
  P  P26  1  0.000000  0.590410  0.250000  1.0  1.8591
  P  P27  1  0.500000  0.909590  0.750000  1.0  1.8624
  P  P28  1  0.000000  0.409590  0.750000  1.0  1.8624
  H  H29  1  0.749600  0.715000  0.454900  1.0  0.3622
  H  H30  1  0.578000  0.780000  0.502500  1.0  0.436
  H  H31  1  0.439400  0.234000  0.271600  1.0  0.482
  H  H32  1  0.249600  0.215000  0.454900  1.0  0.3622
  H  H33  1  0.078000  0.280000  0.502500  1.0  0.436
  H  H34  1  0.939400  0.734000  0.271600  1.0  0.482
  H  H35  1  0.250400  0.715000  0.045100  1.0  0.3627
  H  H36  1  0.422000  0.780000  0.997500  1.0  0.4359
  H  H37  1  0.560600  0.234000  0.228400  1.0  0.4828
  H  H38  1  0.750400  0.215000  0.045100  1.0  0.3627
  H  H39  1  0.922000  0.280000  0.997500  1.0  0.4359
  H  H40  1  0.060600  0.734000  0.228400  1.0  0.4828
  H  H41  1  0.250400  0.285000  0.545100  1.0  0.3623
  H  H42  1  0.422000  0.220000  0.497500  1.0  0.4356
  H  H43  1  0.560600  0.766000  0.728400  1.0  0.4803
  H  H44  1  0.750400  0.785000  0.545100  1.0  0.3623
  H  H45  1  0.922000  0.720000  0.497500  1.0  0.4356
  H  H46  1  0.060600  0.266000  0.728400  1.0  0.4803
  H  H47  1  0.749600  0.285000  0.954900  1.0  0.3613
  H  H48  1  0.578000  0.220000  0.002500  1.0  0.4359
  H  H49  1  0.439400  0.766000  0.771600  1.0  0.4839
  H  H50  1  0.249600  0.785000  0.954900  1.0  0.3613
  H  H51  1  0.078000  0.720000  0.002500  1.0  0.4359
  H  H52  1  0.939400  0.266000  0.771600  1.0  0.4839
  C  C53  1  0.334900  0.501500  0.440620  1.0  0.6115
  C  C54  1  0.332700  0.484000  0.370870  1.0  0.5846
  C  C55  1  0.553400  0.213900  0.426030  1.0  0.5887
  C  C56  1  0.620400  0.273000  0.391810  1.0  0.6401
  C  C57  1  0.834900  0.001500  0.440620  1.0  0.6115
  C  C58  1  0.832700  0.984000  0.370870  1.0  0.5845
  C  C59  1  0.053400  0.713900  0.426030  1.0  0.5887
  C  C60  1  0.120400  0.773000  0.391810  1.0  0.6401
  C  C61  1  0.665100  0.501500  0.059380  1.0  0.6125
  C  C62  1  0.667300  0.484000  0.129130  1.0  0.582
  C  C63  1  0.446600  0.213900  0.073970  1.0  0.5899
  C  C64  1  0.379600  0.273000  0.108190  1.0  0.6389
  C  C65  1  0.165100  0.001500  0.059380  1.0  0.6125
  C  C66  1  0.167300  0.984000  0.129130  1.0  0.5818
  C  C67  1  0.946600  0.713900  0.073970  1.0  0.5899
  C  C68  1  0.879600  0.773000  0.108190  1.0  0.6389
  C  C69  1  0.665100  0.498500  0.559380  1.0  0.6123
  C  C70  1  0.667300  0.516000  0.629130  1.0  0.5819
  C  C71  1  0.446600  0.786100  0.573970  1.0  0.591
  C  C72  1  0.379600  0.727000  0.608190  1.0  0.6382
  C  C73  1  0.165100  0.998500  0.559380  1.0  0.6123
  C  C74  1  0.167300  0.016000  0.629130  1.0  0.5818
  C  C75  1  0.946600  0.286100  0.573970  1.0  0.591
  C  C76  1  0.879600  0.227000  0.608190  1.0  0.6382
  C  C77  1  0.334900  0.498500  0.940620  1.0  0.6116
  C  C78  1  0.332700  0.516000  0.870870  1.0  0.5845
  C  C79  1  0.553400  0.786100  0.926030  1.0  0.5888
  C  C80  1  0.620400  0.727000  0.891810  1.0  0.6396
  C  C81  1  0.834900  0.998500  0.940620  1.0  0.6116
  C  C82  1  0.832700  0.016000  0.870870  1.0  0.5845
  C  C83  1  0.053400  0.286100  0.926030  1.0  0.5888
  C  C84  1  0.120400  0.227000  0.891810  1.0  0.6396
  O  O85  1  0.554940  0.642300  0.405340  1.0  -0.7551
  O  O86  1  0.600220  0.844200  0.386100  1.0  -0.7674
  O  O87  1  0.714800  0.694000  0.423740  1.0  -0.6839
  O  O88  1  0.627630  0.768800  0.495420  1.0  -0.6115
  O  O89  1  0.563200  0.017000  0.292830  1.0  -0.7623
  O  O90  1  0.454400  0.172900  0.290270  1.0  -0.6442
  O  O91  1  0.411620  0.507900  0.474480  1.0  -0.651
  O  O92  1  0.263120  0.508300  0.457130  1.0  -0.5427
  O  O93  1  0.406580  0.473000  0.355260  1.0  -0.5568
  O  O94  1  0.258690  0.483600  0.336060  1.0  -0.5374
  O  O95  1  0.504420  0.282700  0.448570  1.0  -0.5556
  O  O96  1  0.555100  0.105400  0.429750  1.0  -0.5499
  O  O97  1  0.615230  0.382600  0.384580  1.0  -0.5758
  O  O98  1  0.675770  0.209100  0.374010  1.0  -0.502
  O  O99  1  0.054940  0.142300  0.405340  1.0  -0.7551
  O  O100  1  0.100220  0.344200  0.386100  1.0  -0.7674
  O  O101  1  0.214800  0.194000  0.423740  1.0  -0.6839
  O  O102  1  0.127630  0.268800  0.495420  1.0  -0.6115
  O  O103  1  0.063200  0.517000  0.292830  1.0  -0.7626
  O  O104  1  0.954400  0.672900  0.290270  1.0  -0.6442
  O  O105  1  0.911620  0.007900  0.474480  1.0  -0.651
  O  O106  1  0.763120  0.008300  0.457130  1.0  -0.5427
  O  O107  1  0.906580  0.973000  0.355260  1.0  -0.5568
  O  O108  1  0.758690  0.983600  0.336060  1.0  -0.5373
  O  O109  1  0.004420  0.782700  0.448570  1.0  -0.5556
  O  O110  1  0.055100  0.605400  0.429750  1.0  -0.5499
  O  O111  1  0.115230  0.882600  0.384580  1.0  -0.5758
  O  O112  1  0.175770  0.709100  0.374010  1.0  -0.5027
  O  O113  1  0.445060  0.642300  0.094660  1.0  -0.7553
  O  O114  1  0.399780  0.844200  0.113900  1.0  -0.7696
  O  O115  1  0.285200  0.694000  0.076260  1.0  -0.6838
  O  O116  1  0.372370  0.768800  0.004580  1.0  -0.6138
  O  O117  1  0.436800  0.017000  0.207170  1.0  -0.7627
  O  O118  1  0.545600  0.172900  0.209730  1.0  -0.6407
  O  O119  1  0.588380  0.507900  0.025520  1.0  -0.6508
  O  O120  1  0.736880  0.508300  0.042870  1.0  -0.5437
  O  O121  1  0.593420  0.473000  0.144740  1.0  -0.5588
  O  O122  1  0.741310  0.483600  0.163940  1.0  -0.5399
  O  O123  1  0.495580  0.282700  0.051430  1.0  -0.5566
  O  O124  1  0.444900  0.105400  0.070250  1.0  -0.5504
  O  O125  1  0.384770  0.382600  0.115420  1.0  -0.5756
  O  O126  1  0.324230  0.209100  0.125990  1.0  -0.5024
  O  O127  1  0.945060  0.142300  0.094660  1.0  -0.7553
  O  O128  1  0.899780  0.344200  0.113900  1.0  -0.7696
  O  O129  1  0.785200  0.194000  0.076260  1.0  -0.6838
  O  O130  1  0.872370  0.268800  0.004580  1.0  -0.6138
  O  O131  1  0.936800  0.517000  0.207170  1.0  -0.7626
  O  O132  1  0.045600  0.672900  0.209730  1.0  -0.6407
  O  O133  1  0.088380  0.007900  0.025520  1.0  -0.6508
  O  O134  1  0.236880  0.008300  0.042870  1.0  -0.5437
  O  O135  1  0.093420  0.973000  0.144740  1.0  -0.5588
  O  O136  1  0.241310  0.983600  0.163940  1.0  -0.5397
  O  O137  1  0.995580  0.782700  0.051430  1.0  -0.5566
  O  O138  1  0.944900  0.605400  0.070250  1.0  -0.5504
  O  O139  1  0.884770  0.882600  0.115420  1.0  -0.5756
  O  O140  1  0.824230  0.709100  0.125990  1.0  -0.5032
  O  O141  1  0.445060  0.357700  0.594660  1.0  -0.7552
  O  O142  1  0.399780  0.155800  0.613900  1.0  -0.7694
  O  O143  1  0.285200  0.306000  0.576260  1.0  -0.6854
  O  O144  1  0.372370  0.231200  0.504580  1.0  -0.6135
  O  O145  1  0.436800  0.983000  0.707170  1.0  -0.7654
  O  O146  1  0.545600  0.827100  0.709730  1.0  -0.6398
  O  O147  1  0.588380  0.492100  0.525520  1.0  -0.6508
  O  O148  1  0.736880  0.491700  0.542870  1.0  -0.5437
  O  O149  1  0.593420  0.527000  0.644740  1.0  -0.5587
  O  O150  1  0.741310  0.516400  0.663940  1.0  -0.5396
  O  O151  1  0.495580  0.717300  0.551430  1.0  -0.5573
  O  O152  1  0.444900  0.894600  0.570250  1.0  -0.5494
  O  O153  1  0.384770  0.617400  0.615420  1.0  -0.5763
  O  O154  1  0.324230  0.790900  0.625990  1.0  -0.5005
  O  O155  1  0.945060  0.857700  0.594660  1.0  -0.7552
  O  O156  1  0.899780  0.655800  0.613900  1.0  -0.7694
  O  O157  1  0.785200  0.806000  0.576260  1.0  -0.6854
  O  O158  1  0.872370  0.731200  0.504580  1.0  -0.6135
  O  O159  1  0.936800  0.483000  0.707170  1.0  -0.7656
  O  O160  1  0.045600  0.327100  0.709730  1.0  -0.6398
  O  O161  1  0.088380  0.992100  0.525520  1.0  -0.6508
  O  O162  1  0.236880  0.991700  0.542870  1.0  -0.5437
  O  O163  1  0.093420  0.027000  0.644740  1.0  -0.5587
  O  O164  1  0.241310  0.016400  0.663940  1.0  -0.5394
  O  O165  1  0.995580  0.217300  0.551430  1.0  -0.5573
  O  O166  1  0.944900  0.394600  0.570250  1.0  -0.5494
  O  O167  1  0.884770  0.117400  0.615420  1.0  -0.5763
  O  O168  1  0.824230  0.290900  0.625990  1.0  -0.5012
  O  O169  1  0.554940  0.357700  0.905340  1.0  -0.7552
  O  O170  1  0.600220  0.155800  0.886100  1.0  -0.7679
  O  O171  1  0.714800  0.306000  0.923740  1.0  -0.6848
  O  O172  1  0.627630  0.231200  0.995420  1.0  -0.6106
  O  O173  1  0.563200  0.983000  0.792830  1.0  -0.7644
  O  O174  1  0.454400  0.827100  0.790270  1.0  -0.6455
  O  O175  1  0.411620  0.492100  0.974480  1.0  -0.6506
  O  O176  1  0.263120  0.491700  0.957130  1.0  -0.5422
  O  O177  1  0.406580  0.527000  0.855260  1.0  -0.5561
  O  O178  1  0.258690  0.516400  0.836060  1.0  -0.5369
  O  O179  1  0.504420  0.717300  0.948570  1.0  -0.5561
  O  O180  1  0.555100  0.894600  0.929750  1.0  -0.5503
  O  O181  1  0.615230  0.617400  0.884580  1.0  -0.5778
  O  O182  1  0.675770  0.790900  0.874010  1.0  -0.5015
  O  O183  1  0.054940  0.857700  0.905340  1.0  -0.7552
  O  O184  1  0.100220  0.655800  0.886100  1.0  -0.7679
  O  O185  1  0.214800  0.806000  0.923740  1.0  -0.6848
  O  O186  1  0.127630  0.731200  0.995420  1.0  -0.6106
  O  O187  1  0.063200  0.483000  0.792830  1.0  -0.7643
  O  O188  1  0.954400  0.327100  0.790270  1.0  -0.6455
  O  O189  1  0.911620  0.992100  0.974480  1.0  -0.6506
  O  O190  1  0.763120  0.991700  0.957130  1.0  -0.5422
  O  O191  1  0.906580  0.027000  0.855260  1.0  -0.5561
  O  O192  1  0.758690  0.016400  0.836060  1.0  -0.5368
  O  O193  1  0.004420  0.217300  0.948570  1.0  -0.5561
  O  O194  1  0.055100  0.394600  0.929750  1.0  -0.5503
  O  O195  1  0.115230  0.117400  0.884580  1.0  -0.5778
  O  O196  1  0.175770  0.290900  0.874010  1.0  -0.5022
