# generated using pymatgen
data_UPH12(C3O)7
_symmetry_space_group_name_H-M   'P 1'
_cell_length_a   19.55200000
_cell_length_b   21.89800000
_cell_length_c   25.29700000
_cell_angle_alpha   90.00000000
_cell_angle_beta   90.00000000
_cell_angle_gamma   90.00000000
_symmetry_Int_Tables_number   1
_chemical_formula_structural   UPH12(C3O)7
_chemical_formula_sum   'U8 P8 H96 C168 O56'
_cell_volume   10830.90285971
_cell_formula_units_Z   8
loop_
 _symmetry_equiv_pos_site_id
 _symmetry_equiv_pos_as_xyz
  1  'x, y, z'
loop_
 _atom_site_type_symbol
 _atom_site_label
 _atom_site_symmetry_multiplicity
 _atom_site_fract_x
 _atom_site_fract_y
 _atom_site_fract_z
 _atom_site_occupancy
 _atom_site_charge
  U  U1  1  0.797460  0.181510  0.331310  1.0  1.5767
  U  U2  1  0.702540  0.818490  0.831310  1.0  1.5853
  U  U3  1  0.202540  0.681510  0.168690  1.0  1.5777
  U  U4  1  0.297460  0.318490  0.668690  1.0  1.5776
  U  U5  1  0.297460  0.681510  0.831310  1.0  1.5854
  U  U6  1  0.202540  0.318490  0.331310  1.0  1.5764
  U  U7  1  0.702540  0.181510  0.668690  1.0  1.5777
  U  U8  1  0.797460  0.818490  0.168690  1.0  1.5776
  P  P9  1  0.516400  0.993400  0.551290  1.0  1.2598
  P  P10  1  0.983600  0.006600  0.051290  1.0  1.2631
  P  P11  1  0.483600  0.493400  0.948710  1.0  1.261
  P  P12  1  0.016400  0.506600  0.448710  1.0  1.2601
  P  P13  1  0.016400  0.493400  0.051290  1.0  1.2598
  P  P14  1  0.483600  0.506600  0.551290  1.0  1.2631
  P  P15  1  0.983600  0.993400  0.448710  1.0  1.261
  P  P16  1  0.516400  0.006600  0.948710  1.0  1.2601
  H  H17  1  0.575900  0.964100  0.450100  1.0  0.1009
  H  H18  1  0.573100  0.831200  0.668700  1.0  0.1003
  H  H19  1  0.524300  0.876300  0.598600  1.0  0.1023
  H  H20  1  0.622800  0.030300  0.623700  1.0  0.0728
  H  H21  1  0.686000  0.981600  0.691100  1.0  0.1167
  H  H22  1  0.647200  0.012200  0.394400  1.0  0.1189
  H  H23  1  0.605300  0.105600  0.554500  1.0  0.0908
  H  H24  1  0.676800  0.148000  0.498200  1.0  0.111
  H  H25  1  0.343100  0.144700  0.550000  1.0  0.1034
  H  H26  1  0.399500  0.051500  0.528900  1.0  0.0939
  H  H27  1  0.511800  0.060200  0.655900  1.0  0.1003
  H  H28  1  0.459100  0.152700  0.675500  1.0  0.0981
  H  H29  1  0.924100  0.035900  0.950100  1.0  0.0987
  H  H30  1  0.926900  0.168800  0.168700  1.0  0.1001
  H  H31  1  0.975700  0.123700  0.098600  1.0  0.1032
  H  H32  1  0.877200  0.969700  0.123700  1.0  0.073
  H  H33  1  0.814000  0.018400  0.191100  1.0  0.1163
  H  H34  1  0.852800  0.987800  0.894400  1.0  0.1185
  H  H35  1  0.894700  0.894400  0.054500  1.0  0.0909
  H  H36  1  0.823200  0.852000  0.998200  1.0  0.1109
  H  H37  1  0.156900  0.855300  0.050000  1.0  0.1037
  H  H38  1  0.100500  0.948500  0.028900  1.0  0.0966
  H  H39  1  0.988200  0.939800  0.155900  1.0  0.0997
  H  H40  1  0.040900  0.847300  0.175500  1.0  0.098
  H  H41  1  0.424100  0.464100  0.049900  1.0  0.1013
  H  H42  1  0.426900  0.331200  0.831300  1.0  0.0999
  H  H43  1  0.475700  0.376300  0.901400  1.0  0.1019
  H  H44  1  0.377200  0.530300  0.876300  1.0  0.0735
  H  H45  1  0.314000  0.481600  0.808900  1.0  0.1163
  H  H46  1  0.352800  0.512200  0.105600  1.0  0.1187
  H  H47  1  0.394700  0.605600  0.945500  1.0  0.0919
  H  H48  1  0.323200  0.648000  0.001800  1.0  0.1116
  H  H49  1  0.656900  0.644700  0.950000  1.0  0.1024
  H  H50  1  0.600500  0.551500  0.971100  1.0  0.0942
  H  H51  1  0.488200  0.560200  0.844100  1.0  0.1004
  H  H52  1  0.540900  0.652700  0.824500  1.0  0.098
  H  H53  1  0.075900  0.535900  0.549900  1.0  0.0997
  H  H54  1  0.073100  0.668800  0.331300  1.0  0.1
  H  H55  1  0.024300  0.623700  0.401400  1.0  0.1034
  H  H56  1  0.122800  0.469700  0.376300  1.0  0.0727
  H  H57  1  0.186000  0.518400  0.308900  1.0  0.1173
  H  H58  1  0.147200  0.487800  0.605600  1.0  0.1188
  H  H59  1  0.105300  0.394400  0.445500  1.0  0.092
  H  H60  1  0.176800  0.352000  0.501800  1.0  0.1113
  H  H61  1  0.843100  0.355300  0.450000  1.0  0.1034
  H  H62  1  0.899500  0.448500  0.471100  1.0  0.0938
  H  H63  1  0.011800  0.439800  0.344100  1.0  0.0998
  H  H64  1  0.959100  0.347300  0.324500  1.0  0.0983
  H  H65  1  0.075900  0.464100  0.950100  1.0  0.0988
  H  H66  1  0.073100  0.331200  0.168700  1.0  0.1003
  H  H67  1  0.024300  0.376300  0.098600  1.0  0.1023
  H  H68  1  0.122800  0.530300  0.123700  1.0  0.0728
  H  H69  1  0.186000  0.481600  0.191100  1.0  0.1167
  H  H70  1  0.147200  0.512200  0.894400  1.0  0.1185
  H  H71  1  0.105300  0.605600  0.054500  1.0  0.0908
  H  H72  1  0.176800  0.648000  0.998200  1.0  0.111
  H  H73  1  0.843100  0.644700  0.050000  1.0  0.1034
  H  H74  1  0.899500  0.551500  0.028900  1.0  0.0953
  H  H75  1  0.011800  0.560200  0.155900  1.0  0.1003
  H  H76  1  0.959100  0.652700  0.175500  1.0  0.0981
  H  H77  1  0.424100  0.535900  0.450100  1.0  0.1018
  H  H78  1  0.426900  0.668800  0.668700  1.0  0.1001
  H  H79  1  0.475700  0.623700  0.598600  1.0  0.1032
  H  H80  1  0.377200  0.469700  0.623700  1.0  0.073
  H  H81  1  0.314000  0.518400  0.691100  1.0  0.1163
  H  H82  1  0.352800  0.487800  0.394400  1.0  0.1188
  H  H83  1  0.394700  0.394400  0.554500  1.0  0.0909
  H  H84  1  0.323200  0.352000  0.498200  1.0  0.1109
  H  H85  1  0.656900  0.355300  0.550000  1.0  0.1037
  H  H86  1  0.600500  0.448500  0.528900  1.0  0.0954
  H  H87  1  0.488200  0.439800  0.655900  1.0  0.0997
  H  H88  1  0.540900  0.347300  0.675500  1.0  0.098
  H  H89  1  0.924100  0.964100  0.549900  1.0  0.0995
  H  H90  1  0.926900  0.831200  0.331300  1.0  0.0999
  H  H91  1  0.975700  0.876300  0.401400  1.0  0.1019
  H  H92  1  0.877200  0.030300  0.376300  1.0  0.0735
  H  H93  1  0.814000  0.981600  0.308900  1.0  0.1163
  H  H94  1  0.852800  0.012200  0.605600  1.0  0.1187
  H  H95  1  0.894700  0.105600  0.445500  1.0  0.0919
  H  H96  1  0.823200  0.148000  0.501800  1.0  0.1116
  H  H97  1  0.156900  0.144700  0.450000  1.0  0.1024
  H  H98  1  0.100500  0.051500  0.471100  1.0  0.0932
  H  H99  1  0.988200  0.060200  0.344100  1.0  0.1004
  H  H100  1  0.040900  0.152700  0.324500  1.0  0.098
  H  H101  1  0.575900  0.035900  0.049900  1.0  0.1016
  H  H102  1  0.573100  0.168800  0.831300  1.0  0.1
  H  H103  1  0.524300  0.123700  0.901400  1.0  0.1034
  H  H104  1  0.622800  0.969700  0.876300  1.0  0.0727
  H  H105  1  0.686000  0.018400  0.808900  1.0  0.1173
  H  H106  1  0.647200  0.987800  0.105600  1.0  0.1188
  H  H107  1  0.605300  0.894400  0.945500  1.0  0.092
  H  H108  1  0.676800  0.852000  0.001800  1.0  0.1113
  H  H109  1  0.343100  0.855300  0.950000  1.0  0.1034
  H  H110  1  0.399500  0.948500  0.971100  1.0  0.0952
  H  H111  1  0.511800  0.939800  0.844100  1.0  0.0998
  H  H112  1  0.459100  0.847300  0.824500  1.0  0.0983
  C  C113  1  0.594700  0.001700  0.459400  1.0  -0.0546
  C  C114  1  0.584300  0.871400  0.660400  1.0  -0.1203
  C  C115  1  0.567300  0.959400  0.605100  1.0  -0.0908
  C  C116  1  0.554700  0.898800  0.619000  1.0  -0.0238
  C  C117  1  0.613800  0.989800  0.632300  1.0  -0.0027
  C  C118  1  0.650100  0.962100  0.673800  1.0  -0.1333
  C  C119  1  0.707700  0.115300  0.407600  1.0  0.4849
  C  C120  1  0.636500  0.029600  0.426900  1.0  -0.1441
  C  C121  1  0.613000  0.086800  0.522100  1.0  -0.0663
  C  C122  1  0.577300  0.029100  0.510300  1.0  -0.2241
  C  C123  1  0.664900  0.086100  0.441800  1.0  -0.081
  C  C124  1  0.654400  0.112000  0.489200  1.0  -0.104
  C  C125  1  0.467700  0.050800  0.580100  1.0  0.0281
  C  C126  1  0.627400  0.899900  0.688300  1.0  -0.0385
  C  C127  1  0.386200  0.149000  0.617600  1.0  0.1033
  C  C128  1  0.351400  0.201200  0.638100  1.0  0.5625
  C  C129  1  0.375000  0.127400  0.572900  1.0  -0.073
  C  C130  1  0.415200  0.072800  0.558400  1.0  0.0471
  C  C131  1  0.480500  0.077700  0.632800  1.0  -0.1128
  C  C132  1  0.444700  0.129800  0.646700  1.0  -0.1341
  C  C133  1  0.662100  0.873400  0.734200  1.0  0.6253
  C  C134  1  0.905300  0.998300  0.959400  1.0  -0.0587
  C  C135  1  0.915700  0.128600  0.160400  1.0  -0.1217
  C  C136  1  0.932700  0.040600  0.105100  1.0  -0.0908
  C  C137  1  0.945300  0.101200  0.119000  1.0  -0.0246
  C  C138  1  0.886200  0.010200  0.132300  1.0  -0.0037
  C  C139  1  0.849900  0.037900  0.173800  1.0  -0.1339
  C  C140  1  0.792300  0.884700  0.907600  1.0  0.4771
  C  C141  1  0.863500  0.970400  0.926900  1.0  -0.1435
  C  C142  1  0.887000  0.913200  0.022100  1.0  -0.0647
  C  C143  1  0.922700  0.970900  0.010300  1.0  -0.224
  C  C144  1  0.835100  0.913900  0.941800  1.0  -0.0791
  C  C145  1  0.845600  0.888000  0.989200  1.0  -0.1057
  C  C146  1  0.032300  0.949200  0.080100  1.0  0.0283
  C  C147  1  0.872600  0.100100  0.188300  1.0  -0.0392
  C  C148  1  0.113800  0.851000  0.117600  1.0  0.1047
  C  C149  1  0.148600  0.798800  0.138100  1.0  0.5635
  C  C150  1  0.125000  0.872600  0.072900  1.0  -0.0715
  C  C151  1  0.084800  0.927200  0.058400  1.0  0.0461
  C  C152  1  0.019500  0.922300  0.132800  1.0  -0.1136
  C  C153  1  0.055300  0.870200  0.146700  1.0  -0.1335
  C  C154  1  0.837900  0.126600  0.234200  1.0  0.6247
  C  C155  1  0.405300  0.501700  0.040600  1.0  -0.0571
  C  C156  1  0.415700  0.371400  0.839600  1.0  -0.1205
  C  C157  1  0.432700  0.459400  0.894900  1.0  -0.0904
  C  C158  1  0.445300  0.398800  0.881000  1.0  -0.0247
  C  C159  1  0.386200  0.489800  0.867700  1.0  -0.0042
  C  C160  1  0.349900  0.462100  0.826200  1.0  -0.1344
  C  C161  1  0.292300  0.615300  0.092400  1.0  0.4846
  C  C162  1  0.363500  0.529600  0.073100  1.0  -0.1442
  C  C163  1  0.387000  0.586800  0.977900  1.0  -0.0658
  C  C164  1  0.422700  0.529100  0.989700  1.0  -0.2256
  C  C165  1  0.335100  0.586100  0.058200  1.0  -0.0786
  C  C166  1  0.345600  0.612000  0.010800  1.0  -0.1049
  C  C167  1  0.532300  0.550800  0.919900  1.0  0.0281
  C  C168  1  0.372600  0.399900  0.811700  1.0  -0.0405
  C  C169  1  0.613800  0.649000  0.882400  1.0  0.105
  C  C170  1  0.648600  0.701200  0.861900  1.0  0.5584
  C  C171  1  0.625000  0.627400  0.927100  1.0  -0.0711
  C  C172  1  0.584800  0.572800  0.941600  1.0  0.0467
  C  C173  1  0.519500  0.577700  0.867200  1.0  -0.1119
  C  C174  1  0.555300  0.629800  0.853300  1.0  -0.132
  C  C175  1  0.337900  0.373400  0.765800  1.0  0.6248
  C  C176  1  0.094700  0.498300  0.540600  1.0  -0.0573
  C  C177  1  0.084300  0.628600  0.339600  1.0  -0.1216
  C  C178  1  0.067300  0.540600  0.394900  1.0  -0.0915
  C  C179  1  0.054700  0.601200  0.381000  1.0  -0.0258
  C  C180  1  0.113800  0.510200  0.367700  1.0  -0.002
  C  C181  1  0.150100  0.537900  0.326200  1.0  -0.1325
  C  C182  1  0.207700  0.384700  0.592400  1.0  0.4831
  C  C183  1  0.136500  0.470400  0.573100  1.0  -0.1441
  C  C184  1  0.113000  0.413200  0.477900  1.0  -0.0675
  C  C185  1  0.077300  0.470900  0.489700  1.0  -0.2252
  C  C186  1  0.164900  0.413900  0.558200  1.0  -0.077
  C  C187  1  0.154400  0.388000  0.510800  1.0  -0.1034
  C  C188  1  0.967700  0.449200  0.419900  1.0  0.0276
  C  C189  1  0.127400  0.600100  0.311700  1.0  -0.0387
  C  C190  1  0.886200  0.351000  0.382400  1.0  0.1039
  C  C191  1  0.851400  0.298800  0.361900  1.0  0.5627
  C  C192  1  0.875000  0.372600  0.427100  1.0  -0.0743
  C  C193  1  0.915200  0.427200  0.441600  1.0  0.0457
  C  C194  1  0.980500  0.422300  0.367200  1.0  -0.1116
  C  C195  1  0.944700  0.370200  0.353300  1.0  -0.1321
  C  C196  1  0.162100  0.626600  0.265800  1.0  0.6247
  C  C197  1  0.094700  0.501700  0.959400  1.0  -0.0546
  C  C198  1  0.084300  0.371400  0.160400  1.0  -0.1203
  C  C199  1  0.067300  0.459400  0.105100  1.0  -0.0908
  C  C200  1  0.054700  0.398800  0.119000  1.0  -0.0238
  C  C201  1  0.113800  0.489800  0.132300  1.0  -0.0027
  C  C202  1  0.150100  0.462100  0.173800  1.0  -0.1333
  C  C203  1  0.207700  0.615300  0.907600  1.0  0.4767
  C  C204  1  0.136500  0.529600  0.926900  1.0  -0.1441
  C  C205  1  0.113000  0.586800  0.022100  1.0  -0.0663
  C  C206  1  0.077300  0.529100  0.010300  1.0  -0.2241
  C  C207  1  0.164900  0.586100  0.941800  1.0  -0.081
  C  C208  1  0.154400  0.612000  0.989200  1.0  -0.104
  C  C209  1  0.967700  0.550800  0.080100  1.0  0.0281
  C  C210  1  0.127400  0.399900  0.188300  1.0  -0.0385
  C  C211  1  0.886200  0.649000  0.117600  1.0  0.1033
  C  C212  1  0.851400  0.701200  0.138100  1.0  0.5625
  C  C213  1  0.875000  0.627400  0.072900  1.0  -0.073
  C  C214  1  0.915200  0.572800  0.058400  1.0  0.0471
  C  C215  1  0.980500  0.577700  0.132800  1.0  -0.1128
  C  C216  1  0.944700  0.629800  0.146700  1.0  -0.1341
  C  C217  1  0.162100  0.373400  0.234200  1.0  0.6253
  C  C218  1  0.405300  0.498300  0.459400  1.0  -0.0587
  C  C219  1  0.415700  0.628600  0.660400  1.0  -0.1217
  C  C220  1  0.432700  0.540600  0.605100  1.0  -0.0908
  C  C221  1  0.445300  0.601200  0.619000  1.0  -0.0246
  C  C222  1  0.386200  0.510200  0.632300  1.0  -0.0037
  C  C223  1  0.349900  0.537900  0.673800  1.0  -0.1339
  C  C224  1  0.292300  0.384700  0.407600  1.0  0.485
  C  C225  1  0.363500  0.470400  0.426900  1.0  -0.1435
  C  C226  1  0.387000  0.413200  0.522100  1.0  -0.0647
  C  C227  1  0.422700  0.470900  0.510300  1.0  -0.224
  C  C228  1  0.335100  0.413900  0.441800  1.0  -0.0791
  C  C229  1  0.345600  0.388000  0.489200  1.0  -0.1057
  C  C230  1  0.532300  0.449200  0.580100  1.0  0.0283
  C  C231  1  0.372600  0.600100  0.688300  1.0  -0.0392
  C  C232  1  0.613800  0.351000  0.617600  1.0  0.1047
  C  C233  1  0.648600  0.298800  0.638100  1.0  0.5635
  C  C234  1  0.625000  0.372600  0.572900  1.0  -0.0715
  C  C235  1  0.584800  0.427200  0.558400  1.0  0.0461
  C  C236  1  0.519500  0.422300  0.632800  1.0  -0.1136
  C  C237  1  0.555300  0.370200  0.646700  1.0  -0.1335
  C  C238  1  0.337900  0.626600  0.734200  1.0  0.6247
  C  C239  1  0.905300  0.001700  0.540600  1.0  -0.0571
  C  C240  1  0.915700  0.871400  0.339600  1.0  -0.1205
  C  C241  1  0.932700  0.959400  0.394900  1.0  -0.0904
  C  C242  1  0.945300  0.898800  0.381000  1.0  -0.0247
  C  C243  1  0.886200  0.989800  0.367700  1.0  -0.0042
  C  C244  1  0.849900  0.962100  0.326200  1.0  -0.1344
  C  C245  1  0.792300  0.115300  0.592400  1.0  0.4846
  C  C246  1  0.863500  0.029600  0.573100  1.0  -0.1442
  C  C247  1  0.887000  0.086800  0.477900  1.0  -0.0658
  C  C248  1  0.922700  0.029100  0.489700  1.0  -0.2256
  C  C249  1  0.835100  0.086100  0.558200  1.0  -0.0786
  C  C250  1  0.845600  0.112000  0.510800  1.0  -0.1049
  C  C251  1  0.032300  0.050800  0.419900  1.0  0.0281
  C  C252  1  0.872600  0.899900  0.311700  1.0  -0.0405
  C  C253  1  0.113800  0.149000  0.382400  1.0  0.105
  C  C254  1  0.148600  0.201200  0.361900  1.0  0.563
  C  C255  1  0.125000  0.127400  0.427100  1.0  -0.0711
  C  C256  1  0.084800  0.072800  0.441600  1.0  0.0467
  C  C257  1  0.019500  0.077700  0.367200  1.0  -0.1119
  C  C258  1  0.055300  0.129800  0.353300  1.0  -0.132
  C  C259  1  0.837900  0.873400  0.265800  1.0  0.6248
  C  C260  1  0.594700  0.998300  0.040600  1.0  -0.0573
  C  C261  1  0.584300  0.128600  0.839600  1.0  -0.1216
  C  C262  1  0.567300  0.040600  0.894900  1.0  -0.0915
  C  C263  1  0.554700  0.101200  0.881000  1.0  -0.0258
  C  C264  1  0.613800  0.010200  0.867700  1.0  -0.002
  C  C265  1  0.650100  0.037900  0.826200  1.0  -0.1325
  C  C266  1  0.707700  0.884700  0.092400  1.0  0.4831
  C  C267  1  0.636500  0.970400  0.073100  1.0  -0.1441
  C  C268  1  0.613000  0.913200  0.977900  1.0  -0.0675
  C  C269  1  0.577300  0.970900  0.989700  1.0  -0.2252
  C  C270  1  0.664900  0.913900  0.058200  1.0  -0.077
  C  C271  1  0.654400  0.888000  0.010800  1.0  -0.1034
  C  C272  1  0.467700  0.949200  0.919900  1.0  0.0276
  C  C273  1  0.627400  0.100100  0.811700  1.0  -0.0387
  C  C274  1  0.386200  0.851000  0.882400  1.0  0.1039
  C  C275  1  0.351400  0.798800  0.861900  1.0  0.5575
  C  C276  1  0.375000  0.872600  0.927100  1.0  -0.0743
  C  C277  1  0.415200  0.927200  0.941600  1.0  0.0457
  C  C278  1  0.480500  0.922300  0.867200  1.0  -0.1116
  C  C279  1  0.444700  0.870200  0.853300  1.0  -0.1321
  C  C280  1  0.662100  0.126600  0.765800  1.0  0.6247
  O  O281  1  0.731000  0.092900  0.361100  1.0  -0.6707
  O  O282  1  0.737100  0.167000  0.415600  1.0  -0.708
  O  O283  1  0.474000  0.946500  0.522200  1.0  -0.5795
  O  O284  1  0.305000  0.229200  0.610300  1.0  -0.6747
  O  O285  1  0.361200  0.223900  0.684200  1.0  -0.658
  O  O286  1  0.701300  0.900100  0.765600  1.0  -0.6373
  O  O287  1  0.649200  0.821200  0.745000  1.0  -0.5711
  O  O288  1  0.769000  0.907100  0.861100  1.0  -0.6689
  O  O289  1  0.762900  0.833000  0.915600  1.0  -0.7111
  O  O290  1  0.026000  0.053500  0.022200  1.0  -0.5682
  O  O291  1  0.195000  0.770800  0.110300  1.0  -0.6741
  O  O292  1  0.138800  0.776100  0.184200  1.0  -0.6586
  O  O293  1  0.798700  0.099900  0.265600  1.0  -0.6373
  O  O294  1  0.850800  0.178800  0.245000  1.0  -0.5698
  O  O295  1  0.269000  0.592900  0.138900  1.0  -0.6696
  O  O296  1  0.262900  0.667000  0.084400  1.0  -0.7085
  O  O297  1  0.526000  0.446500  0.977800  1.0  -0.57
  O  O298  1  0.695000  0.729200  0.889700  1.0  -0.6688
  O  O299  1  0.638800  0.723900  0.815800  1.0  -0.6579
  O  O300  1  0.298700  0.400100  0.734400  1.0  -0.6383
  O  O301  1  0.350800  0.321200  0.755000  1.0  -0.5719
  O  O302  1  0.231000  0.407100  0.638900  1.0  -0.6685
  O  O303  1  0.237100  0.333000  0.584400  1.0  -0.709
  O  O304  1  0.974000  0.553500  0.477800  1.0  -0.5788
  O  O305  1  0.805000  0.270800  0.389700  1.0  -0.6746
  O  O306  1  0.861200  0.276100  0.315800  1.0  -0.6579
  O  O307  1  0.201300  0.599900  0.234400  1.0  -0.6381
  O  O308  1  0.149200  0.678800  0.255000  1.0  -0.5697
  O  O309  1  0.231000  0.592900  0.861100  1.0  -0.6704
  O  O310  1  0.237100  0.667000  0.915600  1.0  -0.7083
  O  O311  1  0.974000  0.446500  0.022200  1.0  -0.5649
  O  O312  1  0.805000  0.729200  0.110300  1.0  -0.6747
  O  O313  1  0.861200  0.723900  0.184200  1.0  -0.658
  O  O314  1  0.201300  0.400100  0.265600  1.0  -0.6374
  O  O315  1  0.149200  0.321200  0.245000  1.0  -0.5711
  O  O316  1  0.269000  0.407100  0.361100  1.0  -0.6693
  O  O317  1  0.262900  0.333000  0.415600  1.0  -0.7113
  O  O318  1  0.526000  0.553500  0.522200  1.0  -0.5814
  O  O319  1  0.695000  0.270800  0.610300  1.0  -0.6741
  O  O320  1  0.638800  0.276100  0.684200  1.0  -0.6586
  O  O321  1  0.298700  0.599900  0.765600  1.0  -0.6376
  O  O322  1  0.350800  0.678800  0.745000  1.0  -0.5698
  O  O323  1  0.769000  0.092900  0.638900  1.0  -0.6696
  O  O324  1  0.762900  0.167000  0.584400  1.0  -0.7085
  O  O325  1  0.026000  0.946500  0.477800  1.0  -0.5827
  O  O326  1  0.195000  0.229200  0.389700  1.0  -0.6729
  O  O327  1  0.138800  0.223900  0.315800  1.0  -0.6578
  O  O328  1  0.798700  0.900100  0.234400  1.0  -0.6387
  O  O329  1  0.850800  0.821200  0.255000  1.0  -0.5719
  O  O330  1  0.731000  0.907100  0.138900  1.0  -0.6685
  O  O331  1  0.737100  0.833000  0.084400  1.0  -0.709
  O  O332  1  0.474000  0.053500  0.977800  1.0  -0.5663
  O  O333  1  0.305000  0.770800  0.889700  1.0  -0.6719
  O  O334  1  0.361200  0.776100  0.815800  1.0  -0.6576
  O  O335  1  0.701300  0.099900  0.734400  1.0  -0.6383
  O  O336  1  0.649200  0.178800  0.755000  1.0  -0.5697
