# generated using pymatgen
data_CuH18C26(N2O3)2
_symmetry_space_group_name_H-M   'P 1'
_cell_length_a   8.32590000
_cell_length_b   22.77300000
_cell_length_c   20.10500000
_cell_angle_alpha   90.00000000
_cell_angle_beta   93.70000000
_cell_angle_gamma   90.00000000
_symmetry_Int_Tables_number   1
_chemical_formula_structural   CuH18C26(N2O3)2
_chemical_formula_sum   'Cu4 H72 C104 N16 O24'
_cell_volume   3804.07730356
_cell_formula_units_Z   4
loop_
 _symmetry_equiv_pos_site_id
 _symmetry_equiv_pos_as_xyz
  1  'x, y, z'
loop_
 _atom_site_type_symbol
 _atom_site_label
 _atom_site_symmetry_multiplicity
 _atom_site_fract_x
 _atom_site_fract_y
 _atom_site_fract_z
 _atom_site_occupancy
 _atom_site_charge
  Cu  Cu1  1  0.712950  0.554280  0.494480  1.0  0.8883
  Cu  Cu2  1  0.787050  0.054280  0.005520  1.0  0.8896
  Cu  Cu3  1  0.287050  0.445720  0.505520  1.0  0.8904
  Cu  Cu4  1  0.212950  0.945720  0.994480  1.0  0.8891
  H  H5  1  0.544200  0.357600  0.614500  1.0  0.0977
  H  H6  1  0.619300  0.294400  0.702900  1.0  0.1142
  H  H7  1  0.049600  0.375000  0.727200  1.0  0.1131
  H  H8  1  0.973300  0.440300  0.639600  1.0  0.0919
  H  H9  1  0.007900  0.151500  0.968500  1.0  0.0748
  H  H10  1  0.021200  0.223700  0.889000  1.0  0.1246
  H  H11  1  0.664200  0.138000  0.780700  1.0  0.1183
  H  H12  1  0.660000  0.069700  0.864400  1.0  0.0838
  H  H13  1  0.660300  0.698000  0.353200  1.0  0.075
  H  H14  1  0.680700  0.776000  0.283100  1.0  0.1136
  H  H15  1  0.059900  0.831200  0.393200  1.0  0.1011
  H  H16  1  0.060900  0.744300  0.452500  1.0  0.1047
  H  H17  1  0.625100  0.871700  0.121900  1.0  0.1145
  H  H18  1  0.613700  0.941200  0.037500  1.0  0.0907
  H  H19  1  0.911800  0.044500  0.145200  1.0  0.0792
  H  H20  1  0.933500  0.977600  0.231100  1.0  0.1302
  H  H21  1  0.770000  0.221000  0.740200  1.0  0.2363
  H  H22  1  0.730500  0.840000  0.222900  1.0  0.2956
  H  H23  1  0.955800  0.857600  0.885500  1.0  0.0981
  H  H24  1  0.880700  0.794400  0.797100  1.0  0.1141
  H  H25  1  0.450400  0.875000  0.772800  1.0  0.1132
  H  H26  1  0.526700  0.940300  0.860400  1.0  0.0932
  H  H27  1  0.492100  0.651500  0.531500  1.0  0.0746
  H  H28  1  0.478800  0.723700  0.611000  1.0  0.1257
  H  H29  1  0.835800  0.638000  0.719300  1.0  0.1198
  H  H30  1  0.840000  0.569700  0.635600  1.0  0.0843
  H  H31  1  0.839700  0.198000  0.146800  1.0  0.0754
  H  H32  1  0.819300  0.276000  0.216900  1.0  0.1143
  H  H33  1  0.440100  0.331200  0.106800  1.0  0.1013
  H  H34  1  0.439100  0.244300  0.047500  1.0  0.1043
  H  H35  1  0.874900  0.371700  0.378100  1.0  0.1146
  H  H36  1  0.886300  0.441200  0.462500  1.0  0.0912
  H  H37  1  0.588200  0.544500  0.354800  1.0  0.0792
  H  H38  1  0.566500  0.477600  0.268900  1.0  0.1291
  H  H39  1  0.730000  0.721000  0.759800  1.0  0.236
  H  H40  1  0.769500  0.340000  0.277100  1.0  0.296
  H  H41  1  0.455800  0.642400  0.385500  1.0  0.0975
  H  H42  1  0.380700  0.705600  0.297100  1.0  0.1141
  H  H43  1  0.950400  0.625000  0.272800  1.0  0.1132
  H  H44  1  0.026700  0.559700  0.360400  1.0  0.0923
  H  H45  1  0.992100  0.848500  0.031500  1.0  0.0745
  H  H46  1  0.978800  0.776300  0.111000  1.0  0.1236
  H  H47  1  0.335800  0.862000  0.219300  1.0  0.1198
  H  H48  1  0.340000  0.930300  0.135600  1.0  0.0841
  H  H49  1  0.339700  0.302000  0.646800  1.0  0.0754
  H  H50  1  0.319300  0.224000  0.716900  1.0  0.1134
  H  H51  1  0.940100  0.168800  0.606800  1.0  0.1002
  H  H52  1  0.939100  0.255700  0.547500  1.0  0.1049
  H  H53  1  0.374900  0.128300  0.878100  1.0  0.1145
  H  H54  1  0.386300  0.058800  0.962500  1.0  0.0909
  H  H55  1  0.088200  0.955500  0.854800  1.0  0.0789
  H  H56  1  0.066500  0.022400  0.768900  1.0  0.1294
  H  H57  1  0.230000  0.779000  0.259800  1.0  0.2355
  H  H58  1  0.269500  0.160000  0.777100  1.0  0.2954
  H  H59  1  0.044200  0.142400  0.114500  1.0  0.0978
  H  H60  1  0.119300  0.205600  0.202900  1.0  0.1142
  H  H61  1  0.549600  0.125000  0.227200  1.0  0.1132
  H  H62  1  0.473300  0.059700  0.139600  1.0  0.0931
  H  H63  1  0.507900  0.348500  0.468500  1.0  0.075
  H  H64  1  0.521200  0.276300  0.389000  1.0  0.1243
  H  H65  1  0.164200  0.362000  0.280700  1.0  0.1184
  H  H66  1  0.160000  0.430300  0.364400  1.0  0.084
  H  H67  1  0.160300  0.802000  0.853200  1.0  0.0751
  H  H68  1  0.180700  0.724000  0.783100  1.0  0.1132
  H  H69  1  0.559900  0.668800  0.893200  1.0  0.1004
  H  H70  1  0.560900  0.755700  0.952500  1.0  0.1045
  H  H71  1  0.125100  0.628300  0.621900  1.0  0.1148
  H  H72  1  0.113700  0.558800  0.537500  1.0  0.0911
  H  H73  1  0.411800  0.455500  0.645200  1.0  0.0794
  H  H74  1  0.433500  0.522400  0.731100  1.0  0.1297
  H  H75  1  0.270000  0.279000  0.240200  1.0  0.2362
  H  H76  1  0.230500  0.660000  0.722900  1.0  0.2964
  C  C77  1  0.692000  0.448900  0.565600  1.0  0.6499
  C  C78  1  0.748700  0.406200  0.619900  1.0  -0.1329
  C  C79  1  0.646500  0.361900  0.637800  1.0  -0.063
  C  C80  1  0.692300  0.323600  0.689700  1.0  -0.1336
  C  C81  1  0.841300  0.327800  0.721600  1.0  -0.0184
  C  C82  1  0.946700  0.371600  0.704200  1.0  -0.0439
  C  C83  1  0.900700  0.410800  0.652300  1.0  -0.0324
  C  C84  1  0.898000  0.288000  0.777900  1.0  0.5712
  C  C85  1  0.933600  0.150000  0.930700  1.0  0.1589
  C  C86  1  0.944000  0.193100  0.883300  1.0  -0.2235
  C  C87  1  0.837400  0.190800  0.826200  1.0  0.2249
  C  C88  1  0.733400  0.142600  0.819800  1.0  -0.2596
  C  C89  1  0.731400  0.102100  0.870000  1.0  0.1667
  C  C90  1  0.851900  0.656700  0.452400  1.0  0.6581
  C  C91  1  0.856400  0.713000  0.411200  1.0  -0.0918
  C  C92  1  0.747600  0.724500  0.361000  1.0  -0.1427
  C  C93  1  0.755600  0.772400  0.320600  1.0  -0.1886
  C  C94  1  0.866300  0.814600  0.332300  1.0  0.0574
  C  C95  1  0.977600  0.803100  0.382800  1.0  -0.1123
  C  C96  1  0.975400  0.751800  0.420000  1.0  -0.11
  C  C97  1  0.880700  0.868100  0.292700  1.0  0.508
  C  C98  1  0.786000  0.915000  0.184700  1.0  0.2149
  C  C99  1  0.687300  0.906600  0.127100  1.0  -0.2074
  C  C100  1  0.678600  0.948500  0.077300  1.0  0.1246
  C  C101  1  0.853400  0.008800  0.140400  1.0  0.1673
  C  C102  1  0.868600  0.969000  0.191700  1.0  -0.2111
  C  C103  1  0.808000  0.948900  0.934400  1.0  0.6499
  C  C104  1  0.751300  0.906200  0.880100  1.0  -0.1339
  C  C105  1  0.853500  0.861900  0.862200  1.0  -0.0638
  C  C106  1  0.807700  0.823600  0.810300  1.0  -0.1329
  C  C107  1  0.658700  0.827800  0.778400  1.0  -0.0219
  C  C108  1  0.553300  0.871600  0.795800  1.0  -0.043
  C  C109  1  0.599300  0.910800  0.847700  1.0  -0.0321
  C  C110  1  0.602000  0.788000  0.722100  1.0  0.5699
  C  C111  1  0.566400  0.650000  0.569300  1.0  0.1591
  C  C112  1  0.556000  0.693100  0.616700  1.0  -0.2248
  C  C113  1  0.662600  0.690800  0.673800  1.0  0.226
  C  C114  1  0.766600  0.642600  0.680200  1.0  -0.2572
  C  C115  1  0.768600  0.602100  0.630000  1.0  0.1674
  C  C116  1  0.648100  0.156700  0.047600  1.0  0.6583
  C  C117  1  0.643600  0.213000  0.088800  1.0  -0.0982
  C  C118  1  0.752400  0.224500  0.139000  1.0  -0.1413
  C  C119  1  0.744400  0.272400  0.179400  1.0  -0.1881
  C  C120  1  0.633700  0.314600  0.167700  1.0  0.0561
  C  C121  1  0.522400  0.303100  0.117200  1.0  -0.1166
  C  C122  1  0.524600  0.251800  0.080000  1.0  -0.1092
  C  C123  1  0.619300  0.368100  0.207300  1.0  0.5091
  C  C124  1  0.714000  0.415000  0.315300  1.0  0.2152
  C  C125  1  0.812700  0.406600  0.372900  1.0  -0.2048
  C  C126  1  0.821400  0.448500  0.422700  1.0  0.1249
  C  C127  1  0.646600  0.508800  0.359600  1.0  0.1672
  C  C128  1  0.631400  0.469000  0.308300  1.0  -0.2083
  C  C129  1  0.308000  0.551100  0.434400  1.0  0.6495
  C  C130  1  0.251300  0.593800  0.380100  1.0  -0.1341
  C  C131  1  0.353500  0.638100  0.362200  1.0  -0.0639
  C  C132  1  0.307700  0.676400  0.310300  1.0  -0.133
  C  C133  1  0.158700  0.672200  0.278400  1.0  -0.0215
  C  C134  1  0.053300  0.628400  0.295800  1.0  -0.0436
  C  C135  1  0.099300  0.589200  0.347700  1.0  -0.0328
  C  C136  1  0.102000  0.712000  0.222100  1.0  0.5708
  C  C137  1  0.066400  0.850000  0.069300  1.0  0.1576
  C  C138  1  0.056000  0.806900  0.116700  1.0  -0.2256
  C  C139  1  0.162600  0.809200  0.173800  1.0  0.2256
  C  C140  1  0.266600  0.857400  0.180200  1.0  -0.257
  C  C141  1  0.268600  0.897900  0.130000  1.0  0.1672
  C  C142  1  0.148100  0.343300  0.547600  1.0  0.6586
  C  C143  1  0.143600  0.287000  0.588800  1.0  -0.0974
  C  C144  1  0.252400  0.275500  0.639000  1.0  -0.141
  C  C145  1  0.244400  0.227600  0.679400  1.0  -0.1878
  C  C146  1  0.133700  0.185400  0.667700  1.0  0.0572
  C  C147  1  0.022400  0.196900  0.617200  1.0  -0.1166
  C  C148  1  0.024600  0.248200  0.580000  1.0  -0.1092
  C  C149  1  0.119300  0.131900  0.707300  1.0  0.5086
  C  C150  1  0.214000  0.085000  0.815300  1.0  0.2147
  C  C151  1  0.312700  0.093400  0.872900  1.0  -0.2045
  C  C152  1  0.321400  0.051500  0.922700  1.0  0.1245
  C  C153  1  0.146600  0.991200  0.859600  1.0  0.1667
  C  C154  1  0.131400  0.031000  0.808300  1.0  -0.2084
  C  C155  1  0.192000  0.051100  0.065600  1.0  0.6495
  C  C156  1  0.248700  0.093800  0.119900  1.0  -0.1333
  C  C157  1  0.146500  0.138100  0.137800  1.0  -0.063
  C  C158  1  0.192300  0.176400  0.189700  1.0  -0.1339
  C  C159  1  0.341300  0.172200  0.221600  1.0  -0.0189
  C  C160  1  0.446700  0.128400  0.204200  1.0  -0.0448
  C  C161  1  0.400700  0.089200  0.152300  1.0  -0.0335
  C  C162  1  0.398000  0.212000  0.277900  1.0  0.572
  C  C163  1  0.433600  0.350000  0.430700  1.0  0.1582
  C  C164  1  0.444000  0.306900  0.383300  1.0  -0.2256
  C  C165  1  0.337400  0.309200  0.326200  1.0  0.2247
  C  C166  1  0.233400  0.357400  0.319800  1.0  -0.2598
  C  C167  1  0.231400  0.397900  0.370000  1.0  0.167
  C  C168  1  0.351900  0.843300  0.952400  1.0  0.6582
  C  C169  1  0.356400  0.787000  0.911200  1.0  -0.0939
  C  C170  1  0.247600  0.775500  0.861000  1.0  -0.1416
  C  C171  1  0.255600  0.727600  0.820600  1.0  -0.1888
  C  C172  1  0.366300  0.685400  0.832300  1.0  0.0576
  C  C173  1  0.477600  0.696900  0.882800  1.0  -0.1153
  C  C174  1  0.475400  0.748200  0.920000  1.0  -0.1113
  C  C175  1  0.380700  0.631900  0.792700  1.0  0.5104
  C  C176  1  0.286000  0.585000  0.684700  1.0  0.2154
  C  C177  1  0.187300  0.593400  0.627100  1.0  -0.2065
  C  C178  1  0.178600  0.551500  0.577300  1.0  0.1244
  C  C179  1  0.353400  0.491200  0.640400  1.0  0.1679
  C  C180  1  0.368600  0.531000  0.691700  1.0  -0.2096
  N  N181  1  0.826200  0.105800  0.927400  1.0  -0.3276
  N  N182  1  0.828400  0.233300  0.775800  1.0  -0.2906
  N  N183  1  0.761400  0.000380  0.083900  1.0  -0.341
  N  N184  1  0.792600  0.870500  0.232300  1.0  -0.2911
  N  N185  1  0.673800  0.605800  0.572600  1.0  -0.329
  N  N186  1  0.671600  0.733300  0.724200  1.0  -0.2886
  N  N187  1  0.738600  0.500380  0.416100  1.0  -0.3415
  N  N188  1  0.707400  0.370500  0.267700  1.0  -0.2898
  N  N189  1  0.173800  0.894200  0.072600  1.0  -0.3278
  N  N190  1  0.171600  0.766700  0.224200  1.0  -0.2887
  N  N191  1  0.238600  0.999620  0.916100  1.0  -0.3403
  N  N192  1  0.207400  0.129500  0.767700  1.0  -0.2896
  N  N193  1  0.326200  0.394200  0.427400  1.0  -0.327
  N  N194  1  0.328400  0.266700  0.275800  1.0  -0.2903
  N  N195  1  0.261400  0.499620  0.583900  1.0  -0.341
  N  N196  1  0.292600  0.629500  0.732300  1.0  -0.2911
  O  O197  1  0.784400  0.492850  0.558030  1.0  -0.595
  O  O198  1  0.564200  0.439220  0.532910  1.0  -0.6534
  O  O199  1  0.731400  0.623490  0.436950  1.0  -0.5873
  O  O200  1  0.958100  0.647300  0.495800  1.0  -0.553
  O  O201  1  0.964500  0.909600  0.312700  1.0  -0.4847
  O  O202  1  0.994900  0.303200  0.821800  1.0  -0.4536
  O  O203  1  0.715600  0.992850  0.941970  1.0  -0.597
  O  O204  1  0.935800  0.939220  0.967090  1.0  -0.6536
  O  O205  1  0.768600  0.123490  0.063050  1.0  -0.5866
  O  O206  1  0.541900  0.147300  0.004200  1.0  -0.5541
  O  O207  1  0.535500  0.409600  0.187300  1.0  -0.485
  O  O208  1  0.505100  0.803200  0.678200  1.0  -0.4532
  O  O209  1  0.215600  0.507150  0.441970  1.0  -0.5968
  O  O210  1  0.435800  0.560780  0.467090  1.0  -0.6537
  O  O211  1  0.268600  0.376510  0.563050  1.0  -0.5867
  O  O212  1  0.041900  0.352700  0.504200  1.0  -0.5528
  O  O213  1  0.035500  0.090400  0.687300  1.0  -0.4849
  O  O214  1  0.005100  0.696800  0.178200  1.0  -0.452
  O  O215  1  0.284400  0.007150  0.058030  1.0  -0.5949
  O  O216  1  0.064200  0.060780  0.032910  1.0  -0.6532
  O  O217  1  0.231400  0.876510  0.936950  1.0  -0.5877
  O  O218  1  0.458100  0.852700  0.995800  1.0  -0.5518
  O  O219  1  0.464500  0.590400  0.812700  1.0  -0.4859
  O  O220  1  0.494900  0.196800  0.321800  1.0  -0.4549
