# generated using pymatgen
data_Co4H20C37O20
_symmetry_space_group_name_H-M   'P 1'
_cell_length_a   12.23300000
_cell_length_b   26.12600000
_cell_length_c   26.12600000
_cell_angle_alpha   90.00000000
_cell_angle_beta   90.00000000
_cell_angle_gamma   90.00000000
_symmetry_Int_Tables_number   1
_chemical_formula_structural   Co4H20C37O20
_chemical_formula_sum   'Co16 H80 C148 O80'
_cell_volume   8349.85282711
_cell_formula_units_Z   4
loop_
 _symmetry_equiv_pos_site_id
 _symmetry_equiv_pos_as_xyz
  1  'x, y, z'
loop_
 _atom_site_type_symbol
 _atom_site_label
 _atom_site_symmetry_multiplicity
 _atom_site_fract_x
 _atom_site_fract_y
 _atom_site_fract_z
 _atom_site_occupancy
 _atom_site_charge
  Co  Co1  1  0.424150  0.494930  0.036410  1.0  0.98
  Co  Co2  1  0.575850  0.505070  0.536410  1.0  0.9808
  Co  Co3  1  0.575850  0.994930  0.463590  1.0  0.9807
  Co  Co4  1  0.424150  0.005070  0.963590  1.0  0.9829
  Co  Co5  1  0.575850  0.505070  0.963590  1.0  0.9812
  Co  Co6  1  0.424150  0.494930  0.463590  1.0  0.9822
  Co  Co7  1  0.424150  0.005070  0.536410  1.0  0.9804
  Co  Co8  1  0.575850  0.994930  0.036410  1.0  0.9805
  Co  Co9  1  0.636170  0.220580  0.250000  1.0  1.0138
  Co  Co10  1  0.482680  0.293580  0.250000  1.0  0.9607
  Co  Co11  1  0.363830  0.779420  0.750000  1.0  1.0153
  Co  Co12  1  0.517320  0.706420  0.750000  1.0  0.9576
  Co  Co13  1  0.363830  0.720580  0.250000  1.0  1.0142
  Co  Co14  1  0.517320  0.793580  0.250000  1.0  0.9588
  Co  Co15  1  0.636170  0.279420  0.750000  1.0  1.0152
  Co  Co16  1  0.482680  0.206420  0.750000  1.0  0.9614
  H  H17  1  0.584300  0.382800  0.129300  1.0  0.1145
  H  H18  1  0.826100  0.278000  0.119200  1.0  0.1149
  H  H19  1  0.790500  0.384900  0.007900  1.0  0.1218
  H  H20  1  0.913100  0.238400  0.053100  1.0  0.0586
  H  H21  1  0.007800  0.273400  0.074000  1.0  0.0568
  H  H22  1  0.063100  0.175400  0.022600  1.0  0.0601
  H  H23  1  0.155900  0.196600  0.986700  1.0  0.0572
  H  H24  1  0.248200  0.133300  0.024500  1.0  0.1194
  H  H25  1  0.281200  0.243300  0.131500  1.0  0.127
  H  H26  1  0.492900  0.123400  0.128800  1.0  0.1104
  H  H27  1  0.415700  0.617200  0.629300  1.0  0.1147
  H  H28  1  0.173900  0.722000  0.619200  1.0  0.115
  H  H29  1  0.209500  0.615100  0.507900  1.0  0.1216
  H  H30  1  0.086900  0.761600  0.553100  1.0  0.0571
  H  H31  1  0.992200  0.726600  0.574000  1.0  0.0571
  H  H32  1  0.936900  0.824600  0.522600  1.0  0.0611
  H  H33  1  0.844100  0.803400  0.486700  1.0  0.058
  H  H34  1  0.751800  0.866700  0.524500  1.0  0.1191
  H  H35  1  0.718800  0.756700  0.631500  1.0  0.127
  H  H36  1  0.507100  0.876600  0.628800  1.0  0.1106
  H  H37  1  0.415700  0.882800  0.370700  1.0  0.1148
  H  H38  1  0.173900  0.778000  0.380800  1.0  0.1146
  H  H39  1  0.209500  0.884900  0.492100  1.0  0.1211
  H  H40  1  0.086900  0.738400  0.446900  1.0  0.0577
  H  H41  1  0.992200  0.773400  0.426000  1.0  0.0583
  H  H42  1  0.936900  0.675400  0.477400  1.0  0.0595
  H  H43  1  0.844100  0.696600  0.513300  1.0  0.0577
  H  H44  1  0.751800  0.633300  0.475500  1.0  0.1197
  H  H45  1  0.718800  0.743300  0.368500  1.0  0.1269
  H  H46  1  0.507100  0.623400  0.371200  1.0  0.1108
  H  H47  1  0.584300  0.117200  0.870700  1.0  0.1146
  H  H48  1  0.826100  0.222000  0.880800  1.0  0.1146
  H  H49  1  0.790500  0.115100  0.992100  1.0  0.1211
  H  H50  1  0.913100  0.261600  0.946900  1.0  0.0588
  H  H51  1  0.007800  0.226600  0.926000  1.0  0.0586
  H  H52  1  0.063100  0.324600  0.977400  1.0  0.0605
  H  H53  1  0.155900  0.303400  0.013300  1.0  0.0563
  H  H54  1  0.248200  0.366700  0.975500  1.0  0.1198
  H  H55  1  0.281200  0.256700  0.868500  1.0  0.1268
  H  H56  1  0.492900  0.376600  0.871200  1.0  0.1106
  H  H57  1  0.415700  0.617200  0.870700  1.0  0.1147
  H  H58  1  0.173900  0.722000  0.880800  1.0  0.1146
  H  H59  1  0.209500  0.615100  0.992100  1.0  0.1211
  H  H60  1  0.086900  0.761600  0.946900  1.0  0.0583
  H  H61  1  0.992200  0.726600  0.926000  1.0  0.0581
  H  H62  1  0.936900  0.824600  0.977400  1.0  0.0618
  H  H63  1  0.844100  0.803400  0.013300  1.0  0.0569
  H  H64  1  0.751800  0.866700  0.975500  1.0  0.1195
  H  H65  1  0.718800  0.756700  0.868500  1.0  0.127
  H  H66  1  0.507100  0.876600  0.871200  1.0  0.1107
  H  H67  1  0.584300  0.382800  0.370700  1.0  0.1146
  H  H68  1  0.826100  0.278000  0.380800  1.0  0.1146
  H  H69  1  0.790500  0.384900  0.492100  1.0  0.1212
  H  H70  1  0.913100  0.238400  0.446900  1.0  0.0579
  H  H71  1  0.007800  0.273400  0.426000  1.0  0.0584
  H  H72  1  0.063100  0.175400  0.477400  1.0  0.0595
  H  H73  1  0.155900  0.196600  0.513300  1.0  0.0568
  H  H74  1  0.248200  0.133300  0.475500  1.0  0.12
  H  H75  1  0.281200  0.243300  0.368500  1.0  0.1269
  H  H76  1  0.492900  0.123400  0.371200  1.0  0.1105
  H  H77  1  0.584300  0.117200  0.629300  1.0  0.1147
  H  H78  1  0.826100  0.222000  0.619200  1.0  0.1149
  H  H79  1  0.790500  0.115100  0.507900  1.0  0.1218
  H  H80  1  0.913100  0.261600  0.553100  1.0  0.0582
  H  H81  1  0.007800  0.226600  0.574000  1.0  0.0576
  H  H82  1  0.063100  0.324600  0.522600  1.0  0.0596
  H  H83  1  0.155900  0.303400  0.486700  1.0  0.0574
  H  H84  1  0.248200  0.366700  0.524500  1.0  0.1193
  H  H85  1  0.281200  0.256700  0.631500  1.0  0.1271
  H  H86  1  0.492900  0.376600  0.628800  1.0  0.1103
  H  H87  1  0.415700  0.882800  0.129300  1.0  0.1148
  H  H88  1  0.173900  0.778000  0.119200  1.0  0.115
  H  H89  1  0.209500  0.884900  0.007900  1.0  0.1218
  H  H90  1  0.086900  0.738400  0.053100  1.0  0.058
  H  H91  1  0.992200  0.773400  0.074000  1.0  0.0565
  H  H92  1  0.936900  0.675400  0.022600  1.0  0.0605
  H  H93  1  0.844100  0.696600  0.986700  1.0  0.0579
  H  H94  1  0.751800  0.633300  0.024500  1.0  0.1193
  H  H95  1  0.718800  0.743300  0.131500  1.0  0.1269
  H  H96  1  0.507100  0.623400  0.128800  1.0  0.111
  C  C97  1  0.657700  0.302650  0.179740  1.0  0.6793
  C  C98  1  0.700600  0.327920  0.131550  1.0  -0.1096
  C  C99  1  0.644700  0.369410  0.112350  1.0  0.0056
  C  C100  1  0.789900  0.306300  0.105750  1.0  -0.1592
  C  C101  1  0.682400  0.391050  0.065880  1.0  -0.1438
  C  C102  1  0.823990  0.328280  0.059090  1.0  0.2395
  C  C103  1  0.769000  0.370700  0.038940  1.0  -0.0756
  C  C104  1  0.616500  0.434460  0.043070  1.0  0.6818
  C  C105  1  0.963100  0.265860  0.044280  1.0  0.0632
  C  C106  1  0.107300  0.205210  0.014710  1.0  0.0619
  C  C107  1  0.251900  0.191320  0.076570  1.0  0.2996
  C  C108  1  0.284400  0.146020  0.053130  1.0  -0.1594
  C  C109  1  0.304200  0.212360  0.117540  1.0  -0.1254
  C  C110  1  0.373000  0.120570  0.074170  1.0  -0.1261
  C  C111  1  0.394000  0.185860  0.137970  1.0  -0.1627
  C  C112  1  0.431600  0.140150  0.116080  1.0  0.001
  C  C113  1  0.416300  0.074120  0.048330  1.0  0.7017
  C  C114  1  0.454600  0.210840  0.179960  1.0  0.6931
  C  C115  1  0.342300  0.697350  0.679740  1.0  0.6787
  C  C116  1  0.299400  0.672080  0.631550  1.0  -0.1096
  C  C117  1  0.355300  0.630590  0.612350  1.0  0.0072
  C  C118  1  0.210100  0.693700  0.605750  1.0  -0.16
  C  C119  1  0.317600  0.608950  0.565880  1.0  -0.1436
  C  C120  1  0.176010  0.671720  0.559090  1.0  0.2385
  C  C121  1  0.231000  0.629300  0.538940  1.0  -0.0754
  C  C122  1  0.383500  0.565540  0.543070  1.0  0.6813
  C  C123  1  0.036900  0.734140  0.544280  1.0  0.0631
  C  C124  1  0.892700  0.794790  0.514710  1.0  0.0624
  C  C125  1  0.748100  0.808680  0.576570  1.0  0.3004
  C  C126  1  0.715600  0.853980  0.553130  1.0  -0.1588
  C  C127  1  0.695800  0.787640  0.617540  1.0  -0.1239
  C  C128  1  0.627000  0.879430  0.574170  1.0  -0.1265
  C  C129  1  0.606000  0.814140  0.637970  1.0  -0.1627
  C  C130  1  0.568400  0.859850  0.616080  1.0  -0.001
  C  C131  1  0.583700  0.925880  0.548330  1.0  0.7025
  C  C132  1  0.545400  0.789160  0.679960  1.0  0.693
  C  C133  1  0.342300  0.802650  0.320260  1.0  0.6782
  C  C134  1  0.299400  0.827920  0.368450  1.0  -0.1127
  C  C135  1  0.355300  0.869410  0.387650  1.0  -0.0119
  C  C136  1  0.210100  0.806300  0.394250  1.0  -0.1601
  C  C137  1  0.317600  0.891050  0.434120  1.0  -0.1435
  C  C138  1  0.176010  0.828280  0.440910  1.0  0.2389
  C  C139  1  0.231000  0.870700  0.461060  1.0  -0.0801
  C  C140  1  0.383500  0.934460  0.456930  1.0  0.6815
  C  C141  1  0.036900  0.765860  0.455720  1.0  0.0638
  C  C142  1  0.892700  0.705210  0.485290  1.0  0.0632
  C  C143  1  0.748100  0.691320  0.423430  1.0  0.2993
  C  C144  1  0.715600  0.646020  0.446870  1.0  -0.1609
  C  C145  1  0.695800  0.712360  0.382460  1.0  -0.1258
  C  C146  1  0.627000  0.620570  0.425830  1.0  -0.1255
  C  C147  1  0.606000  0.685860  0.362030  1.0  -0.1629
  C  C148  1  0.568400  0.640150  0.383920  1.0  -0.001
  C  C149  1  0.583700  0.574120  0.451670  1.0  0.7022
  C  C150  1  0.545400  0.710840  0.320040  1.0  0.6931
  C  C151  1  0.657700  0.197350  0.820260  1.0  0.6794
  C  C152  1  0.700600  0.172080  0.868450  1.0  -0.1135
  C  C153  1  0.644700  0.130590  0.887650  1.0  -0.0127
  C  C154  1  0.789900  0.193700  0.894250  1.0  -0.1596
  C  C155  1  0.682400  0.108950  0.934120  1.0  -0.144
  C  C156  1  0.823990  0.171720  0.940910  1.0  0.2383
  C  C157  1  0.769000  0.129300  0.961060  1.0  -0.0786
  C  C158  1  0.616500  0.065540  0.956930  1.0  0.6818
  C  C159  1  0.963100  0.234140  0.955720  1.0  0.0652
  C  C160  1  0.107300  0.294790  0.985290  1.0  0.062
  C  C161  1  0.251900  0.308680  0.923430  1.0  0.2993
  C  C162  1  0.284400  0.353980  0.946870  1.0  -0.1596
  C  C163  1  0.304200  0.287640  0.882460  1.0  -0.1246
  C  C164  1  0.373000  0.379430  0.925830  1.0  -0.126
  C  C165  1  0.394000  0.314140  0.862030  1.0  -0.1627
  C  C166  1  0.431600  0.359850  0.883920  1.0  -0.0005
  C  C167  1  0.416300  0.425880  0.951670  1.0  0.7011
  C  C168  1  0.454600  0.289160  0.820040  1.0  0.693
  C  C169  1  0.342300  0.697350  0.820260  1.0  0.6784
  C  C170  1  0.299400  0.672080  0.868450  1.0  -0.1092
  C  C171  1  0.355300  0.630590  0.887650  1.0  0.0064
  C  C172  1  0.210100  0.693700  0.894250  1.0  -0.1602
  C  C173  1  0.317600  0.608950  0.934120  1.0  -0.1434
  C  C174  1  0.176010  0.671720  0.940910  1.0  0.2381
  C  C175  1  0.231000  0.629300  0.961060  1.0  -0.0795
  C  C176  1  0.383500  0.565540  0.956930  1.0  0.6815
  C  C177  1  0.036900  0.734140  0.955720  1.0  0.0624
  C  C178  1  0.892700  0.794790  0.985290  1.0  0.0626
  C  C179  1  0.748100  0.808680  0.923430  1.0  0.2998
  C  C180  1  0.715600  0.853980  0.946870  1.0  -0.1597
  C  C181  1  0.695800  0.787640  0.882460  1.0  -0.1246
  C  C182  1  0.627000  0.879430  0.925830  1.0  -0.126
  C  C183  1  0.606000  0.814140  0.862030  1.0  -0.1627
  C  C184  1  0.568400  0.859850  0.883920  1.0  -0.0015
  C  C185  1  0.583700  0.925880  0.951670  1.0  0.7019
  C  C186  1  0.545400  0.789160  0.820040  1.0  0.693
  C  C187  1  0.657700  0.302650  0.320260  1.0  0.6791
  C  C188  1  0.700600  0.327920  0.368450  1.0  -0.1094
  C  C189  1  0.644700  0.369410  0.387650  1.0  0.0058
  C  C190  1  0.789900  0.306300  0.394250  1.0  -0.1595
  C  C191  1  0.682400  0.391050  0.434120  1.0  -0.1437
  C  C192  1  0.823990  0.328280  0.440910  1.0  0.2391
  C  C193  1  0.769000  0.370700  0.461060  1.0  -0.0788
  C  C194  1  0.616500  0.434460  0.456930  1.0  0.6817
  C  C195  1  0.963100  0.265860  0.455720  1.0  0.0644
  C  C196  1  0.107300  0.205210  0.485290  1.0  0.0625
  C  C197  1  0.251900  0.191320  0.423430  1.0  0.2988
  C  C198  1  0.284400  0.146020  0.446870  1.0  -0.1608
  C  C199  1  0.304200  0.212360  0.382460  1.0  -0.1263
  C  C200  1  0.373000  0.120570  0.425830  1.0  -0.1254
  C  C201  1  0.394000  0.185860  0.362030  1.0  -0.163
  C  C202  1  0.431600  0.140150  0.383920  1.0  -1e-04
  C  C203  1  0.416300  0.074120  0.451670  1.0  0.7012
  C  C204  1  0.454600  0.210840  0.320040  1.0  0.6931
  C  C205  1  0.657700  0.197350  0.679740  1.0  0.6797
  C  C206  1  0.700600  0.172080  0.631550  1.0  -0.1137
  C  C207  1  0.644700  0.130590  0.612350  1.0  -0.0123
  C  C208  1  0.789900  0.193700  0.605750  1.0  -0.1591
  C  C209  1  0.682400  0.108950  0.565880  1.0  -0.1442
  C  C210  1  0.823990  0.171720  0.559090  1.0  0.2386
  C  C211  1  0.769000  0.129300  0.538940  1.0  -0.0752
  C  C212  1  0.616500  0.065540  0.543070  1.0  0.6817
  C  C213  1  0.963100  0.234140  0.544280  1.0  0.0649
  C  C214  1  0.107300  0.294790  0.514710  1.0  0.0615
  C  C215  1  0.251900  0.308680  0.576570  1.0  0.3
  C  C216  1  0.284400  0.353980  0.553130  1.0  -0.1587
  C  C217  1  0.304200  0.287640  0.617540  1.0  -0.1242
  C  C218  1  0.373000  0.379430  0.574170  1.0  -0.1265
  C  C219  1  0.394000  0.314140  0.637970  1.0  -0.1628
  C  C220  1  0.431600  0.359850  0.616080  1.0  1e-04
  C  C221  1  0.416300  0.425880  0.548330  1.0  0.7017
  C  C222  1  0.454600  0.289160  0.679960  1.0  0.693
  C  C223  1  0.342300  0.802650  0.179740  1.0  0.6783
  C  C224  1  0.299400  0.827920  0.131550  1.0  -0.1126
  C  C225  1  0.355300  0.869410  0.112350  1.0  -0.0117
  C  C226  1  0.210100  0.806300  0.105750  1.0  -0.1601
  C  C227  1  0.317600  0.891050  0.065880  1.0  -0.1437
  C  C228  1  0.176010  0.828280  0.059090  1.0  0.2393
  C  C229  1  0.231000  0.870700  0.038940  1.0  -0.076
  C  C230  1  0.383500  0.934460  0.043070  1.0  0.6815
  C  C231  1  0.036900  0.765860  0.044280  1.0  0.0638
  C  C232  1  0.892700  0.705210  0.014710  1.0  0.0626
  C  C233  1  0.748100  0.691320  0.076570  1.0  0.2999
  C  C234  1  0.715600  0.646020  0.053130  1.0  -0.1597
  C  C235  1  0.695800  0.712360  0.117540  1.0  -0.1246
  C  C236  1  0.627000  0.620570  0.074170  1.0  -0.1262
  C  C237  1  0.606000  0.685860  0.137970  1.0  -0.1624
  C  C238  1  0.568400  0.640150  0.116080  1.0  1e-04
  C  C239  1  0.583700  0.574120  0.048330  1.0  0.7027
  C  C240  1  0.545400  0.710840  0.179960  1.0  0.6932
  C  C241  1  0.034600  0.250000  0.000000  1.0  -0.0114
  C  C242  1  0.965400  0.750000  0.500000  1.0  -0.0114
  C  C243  1  0.965400  0.750000  0.000000  1.0  -0.0114
  C  C244  1  0.034600  0.250000  0.500000  1.0  -0.0114
  O  O245  1  0.702620  0.262580  0.195450  1.0  -0.582
  O  O246  1  0.543690  0.190220  0.197040  1.0  -0.6013
  O  O247  1  0.572580  0.323960  0.198360  1.0  -0.5672
  O  O248  1  0.417240  0.251370  0.197700  1.0  -0.599
  O  O249  1  0.904280  0.309700  0.029400  1.0  -0.2846
  O  O250  1  0.528900  0.446370  0.064410  1.0  -0.5733
  O  O251  1  0.656900  0.454920  0.002600  1.0  -0.5798
  O  O252  1  0.370440  0.059290  0.008320  1.0  -0.5946
  O  O253  1  0.495110  0.051110  0.068400  1.0  -0.5941
  O  O254  1  0.169420  0.220400  0.058790  1.0  -0.2803
  O  O255  1  0.297380  0.737420  0.695450  1.0  -0.5807
  O  O256  1  0.456310  0.809780  0.697040  1.0  -0.6024
  O  O257  1  0.427420  0.676040  0.698360  1.0  -0.5673
  O  O258  1  0.582760  0.748630  0.697700  1.0  -0.5987
  O  O259  1  0.095720  0.690300  0.529400  1.0  -0.2851
  O  O260  1  0.471100  0.553630  0.564410  1.0  -0.573
  O  O261  1  0.343100  0.545080  0.502600  1.0  -0.5797
  O  O262  1  0.629560  0.940710  0.508320  1.0  -0.5945
  O  O263  1  0.504890  0.948890  0.568400  1.0  -0.594
  O  O264  1  0.830580  0.779600  0.558790  1.0  -0.2796
  O  O265  1  0.297380  0.762580  0.304550  1.0  -0.5811
  O  O266  1  0.456310  0.690220  0.302960  1.0  -0.6023
  O  O267  1  0.427420  0.823960  0.301640  1.0  -0.5676
  O  O268  1  0.582760  0.751370  0.302300  1.0  -0.5988
  O  O269  1  0.095720  0.809700  0.470600  1.0  -0.2826
  O  O270  1  0.471100  0.946370  0.435590  1.0  -0.5747
  O  O271  1  0.343100  0.954920  0.497400  1.0  -0.5792
  O  O272  1  0.629560  0.559290  0.491680  1.0  -0.5946
  O  O273  1  0.504890  0.551110  0.431600  1.0  -0.5947
  O  O274  1  0.830580  0.720400  0.441210  1.0  -0.2786
  O  O275  1  0.702620  0.237420  0.804550  1.0  -0.581
  O  O276  1  0.543690  0.309780  0.802960  1.0  -0.602
  O  O277  1  0.572580  0.176040  0.801640  1.0  -0.5674
  O  O278  1  0.417240  0.248630  0.802300  1.0  -0.5982
  O  O279  1  0.904280  0.190300  0.970600  1.0  -0.2835
  O  O280  1  0.528900  0.053630  0.935590  1.0  -0.5738
  O  O281  1  0.656900  0.045080  0.997400  1.0  -0.5795
  O  O282  1  0.370440  0.440710  0.991680  1.0  -0.5951
  O  O283  1  0.495110  0.448890  0.931600  1.0  -0.5952
  O  O284  1  0.169420  0.279600  0.941210  1.0  -0.2799
  O  O285  1  0.297380  0.737420  0.804550  1.0  -0.5805
  O  O286  1  0.456310  0.809780  0.802960  1.0  -0.6022
  O  O287  1  0.427420  0.676040  0.801640  1.0  -0.5673
  O  O288  1  0.582760  0.748630  0.802300  1.0  -0.5984
  O  O289  1  0.095720  0.690300  0.970600  1.0  -0.2833
  O  O290  1  0.471100  0.553630  0.935590  1.0  -0.5744
  O  O291  1  0.343100  0.545080  0.997400  1.0  -0.5789
  O  O292  1  0.629560  0.940710  0.991680  1.0  -0.5949
  O  O293  1  0.504890  0.948890  0.931600  1.0  -0.5944
  O  O294  1  0.830580  0.779600  0.941210  1.0  -0.2794
  O  O295  1  0.702620  0.262580  0.304550  1.0  -0.5815
  O  O296  1  0.543690  0.190220  0.302960  1.0  -0.601
  O  O297  1  0.572580  0.323960  0.301640  1.0  -0.5669
  O  O298  1  0.417240  0.251370  0.302300  1.0  -0.5992
  O  O299  1  0.904280  0.309700  0.470600  1.0  -0.2826
  O  O300  1  0.528900  0.446370  0.435590  1.0  -0.5736
  O  O301  1  0.656900  0.454920  0.497400  1.0  -0.5796
  O  O302  1  0.370440  0.059290  0.491680  1.0  -0.5947
  O  O303  1  0.495110  0.051110  0.431600  1.0  -0.5952
  O  O304  1  0.169420  0.220400  0.441210  1.0  -0.279
  O  O305  1  0.702620  0.237420  0.695450  1.0  -0.5814
  O  O306  1  0.543690  0.309780  0.697040  1.0  -0.6024
  O  O307  1  0.572580  0.176040  0.698360  1.0  -0.5673
  O  O308  1  0.417240  0.248630  0.697700  1.0  -0.5979
  O  O309  1  0.904280  0.190300  0.529400  1.0  -0.2859
  O  O310  1  0.528900  0.053630  0.564410  1.0  -0.5728
  O  O311  1  0.656900  0.045080  0.502600  1.0  -0.58
  O  O312  1  0.370440  0.440710  0.508320  1.0  -0.5945
  O  O313  1  0.495110  0.448890  0.568400  1.0  -0.5939
  O  O314  1  0.169420  0.279600  0.558790  1.0  -0.2796
  O  O315  1  0.297380  0.762580  0.195450  1.0  -0.5807
  O  O316  1  0.456310  0.690220  0.197040  1.0  -0.6026
  O  O317  1  0.427420  0.823960  0.198360  1.0  -0.5676
  O  O318  1  0.582760  0.751370  0.197700  1.0  -0.5992
  O  O319  1  0.095720  0.809700  0.029400  1.0  -0.284
  O  O320  1  0.471100  0.946370  0.064410  1.0  -0.5731
  O  O321  1  0.343100  0.954920  0.002600  1.0  -0.5798
  O  O322  1  0.629560  0.559290  0.008320  1.0  -0.5946
  O  O323  1  0.504890  0.551110  0.068400  1.0  -0.5939
  O  O324  1  0.830580  0.720400  0.058790  1.0  -0.2803
