# generated using pymatgen
data_La2Cu3H30C24(NO4)6
_symmetry_space_group_name_H-M   'P 1'
_cell_length_a   13.55900000
_cell_length_b   13.55900000
_cell_length_c   14.99900000
_cell_angle_alpha   90.00000000
_cell_angle_beta   90.00000000
_cell_angle_gamma   120.00000000
_symmetry_Int_Tables_number   1
_chemical_formula_structural   La2Cu3H30C24(NO4)6
_chemical_formula_sum   'La4 Cu6 H60 C48 N12 O48'
_cell_volume   2388.07662841
_cell_formula_units_Z   2
loop_
 _symmetry_equiv_pos_site_id
 _symmetry_equiv_pos_as_xyz
  1  'x, y, z'
loop_
 _atom_site_type_symbol
 _atom_site_label
 _atom_site_symmetry_multiplicity
 _atom_site_fract_x
 _atom_site_fract_y
 _atom_site_fract_z
 _atom_site_occupancy
 _atom_site_charge
  La  La1  1  0.333333  0.666667  0.830480  1.0  2.1459
  La  La2  1  0.666667  0.333333  0.669520  1.0  2.1459
  La  La3  1  0.666667  0.333333  0.169520  1.0  2.1459
  La  La4  1  0.333333  0.666667  0.330480  1.0  2.1459
  Cu  Cu5  1  0.500000  0.500000  0.000000  1.0  0.7983
  Cu  Cu6  1  0.000000  0.500000  0.000000  1.0  0.7983
  Cu  Cu7  1  0.500000  0.000000  0.000000  1.0  0.7983
  Cu  Cu8  1  0.000000  0.500000  0.500000  1.0  0.7983
  Cu  Cu9  1  0.500000  0.500000  0.500000  1.0  0.7983
  Cu  Cu10  1  0.500000  0.000000  0.500000  1.0  0.7983
  H  H11  1  0.673200  0.647500  0.076400  1.0  0.2581
  H  H12  1  0.542500  0.728300  0.127900  1.0  0.1285
  H  H13  1  0.601900  0.679200  0.188500  1.0  0.1301
  H  H14  1  0.707300  0.744900  0.953000  1.0  0.1307
  H  H15  1  0.681000  0.816800  0.020800  1.0  0.1031
  H  H16  1  0.974300  0.326800  0.076400  1.0  0.2586
  H  H17  1  0.185800  0.457500  0.127900  1.0  0.1165
  H  H18  1  0.077300  0.398100  0.188500  1.0  0.1299
  H  H19  1  0.037600  0.292700  0.953000  1.0  0.1299
  H  H20  1  0.135800  0.319000  0.020800  1.0  0.1039
  H  H21  1  0.352500  0.025700  0.076400  1.0  0.2593
  H  H22  1  0.271700  0.814200  0.127900  1.0  0.1286
  H  H23  1  0.320800  0.922700  0.188500  1.0  0.1305
  H  H24  1  0.255100  0.962400  0.953000  1.0  0.131
  H  H25  1  0.183200  0.864200  0.020800  1.0  0.1046
  H  H26  1  0.025700  0.352500  0.423600  1.0  0.2582
  H  H27  1  0.814200  0.271700  0.372100  1.0  0.1286
  H  H28  1  0.922700  0.320800  0.311500  1.0  0.13
  H  H29  1  0.962400  0.255100  0.547000  1.0  0.1304
  H  H30  1  0.864200  0.183200  0.479200  1.0  0.1036
  H  H31  1  0.647500  0.673200  0.423600  1.0  0.2591
  H  H32  1  0.728300  0.542500  0.372100  1.0  0.1172
  H  H33  1  0.679200  0.601900  0.311500  1.0  0.1299
  H  H34  1  0.744900  0.707300  0.547000  1.0  0.1299
  H  H35  1  0.816800  0.681000  0.479200  1.0  0.1041
  H  H36  1  0.326800  0.974300  0.423600  1.0  0.2592
  H  H37  1  0.457500  0.185800  0.372100  1.0  0.1297
  H  H38  1  0.398100  0.077300  0.311500  1.0  0.1301
  H  H39  1  0.292700  0.037600  0.547000  1.0  0.1304
  H  H40  1  0.319000  0.135800  0.479200  1.0  0.1044
  H  H41  1  0.326800  0.352500  0.923600  1.0  0.2586
  H  H42  1  0.457500  0.271700  0.872100  1.0  0.1282
  H  H43  1  0.398100  0.320800  0.811500  1.0  0.1295
  H  H44  1  0.292700  0.255100  0.047000  1.0  0.129
  H  H45  1  0.319000  0.183200  0.979200  1.0  0.1029
  H  H46  1  0.025700  0.673200  0.923600  1.0  0.2583
  H  H47  1  0.814200  0.542500  0.872100  1.0  0.1236
  H  H48  1  0.922700  0.601900  0.811500  1.0  0.1295
  H  H49  1  0.962400  0.707300  0.047000  1.0  0.1277
  H  H50  1  0.864200  0.681000  0.979200  1.0  0.104
  H  H51  1  0.647500  0.974300  0.923600  1.0  0.2592
  H  H52  1  0.728300  0.185800  0.872100  1.0  0.1297
  H  H53  1  0.679200  0.077300  0.811500  1.0  0.1307
  H  H54  1  0.744900  0.037600  0.047000  1.0  0.1277
  H  H55  1  0.816800  0.135800  0.979200  1.0  0.1044
  H  H56  1  0.974300  0.647500  0.576400  1.0  0.259
  H  H57  1  0.185800  0.728300  0.627900  1.0  0.1274
  H  H58  1  0.077300  0.679200  0.688500  1.0  0.1302
  H  H59  1  0.037600  0.744900  0.453000  1.0  0.1287
  H  H60  1  0.135800  0.816800  0.520800  1.0  0.1039
  H  H61  1  0.352500  0.326800  0.576400  1.0  0.2584
  H  H62  1  0.271700  0.457500  0.627900  1.0  0.123
  H  H63  1  0.320800  0.398100  0.688500  1.0  0.1298
  H  H64  1  0.255100  0.292700  0.453000  1.0  0.1277
  H  H65  1  0.183200  0.319000  0.520800  1.0  0.1035
  H  H66  1  0.673200  0.025700  0.576400  1.0  0.2593
  H  H67  1  0.542500  0.814200  0.627900  1.0  0.1284
  H  H68  1  0.601900  0.922700  0.688500  1.0  0.1301
  H  H69  1  0.707300  0.962400  0.453000  1.0  0.1277
  H  H70  1  0.681000  0.864200  0.520800  1.0  0.1045
  C  C71  1  0.553100  0.663400  0.136900  1.0  -0.2288
  C  C72  1  0.438600  0.559800  0.156400  1.0  0.7533
  C  C73  1  0.549000  0.728200  0.932000  1.0  0.7175
  C  C74  1  0.648500  0.744000  0.990400  1.0  -0.1755
  C  C75  1  0.110300  0.446900  0.136900  1.0  -0.2288
  C  C76  1  0.121200  0.561400  0.156400  1.0  0.7533
  C  C77  1  0.179200  0.451000  0.932000  1.0  0.7183
  C  C78  1  0.095500  0.351500  0.990400  1.0  -0.1783
  C  C79  1  0.336600  0.889700  0.136900  1.0  -0.2292
  C  C80  1  0.440200  0.878800  0.156400  1.0  0.7519
  C  C81  1  0.271800  0.820800  0.932000  1.0  0.7196
  C  C82  1  0.256000  0.904500  0.990400  1.0  -0.1766
  C  C83  1  0.889700  0.336600  0.363100  1.0  -0.2293
  C  C84  1  0.878800  0.440200  0.343600  1.0  0.7535
  C  C85  1  0.820800  0.271800  0.568000  1.0  0.7185
  C  C86  1  0.904500  0.256000  0.509600  1.0  -0.1752
  C  C87  1  0.663400  0.553100  0.363100  1.0  -0.2289
  C  C88  1  0.559800  0.438600  0.343600  1.0  0.7533
  C  C89  1  0.728200  0.549000  0.568000  1.0  0.7189
  C  C90  1  0.744000  0.648500  0.509600  1.0  -0.1768
  C  C91  1  0.446900  0.110300  0.363100  1.0  -0.2292
  C  C92  1  0.561400  0.121200  0.343600  1.0  0.752
  C  C93  1  0.451000  0.179200  0.568000  1.0  0.7203
  C  C94  1  0.351500  0.095500  0.509600  1.0  -0.1762
  C  C95  1  0.446900  0.336600  0.863100  1.0  -0.2295
  C  C96  1  0.561400  0.440200  0.843600  1.0  0.7537
  C  C97  1  0.451000  0.271800  0.068000  1.0  0.7195
  C  C98  1  0.351500  0.256000  0.009600  1.0  -0.1753
  C  C99  1  0.889700  0.553100  0.863100  1.0  -0.2289
  C  C100  1  0.878800  0.438600  0.843600  1.0  0.7534
  C  C101  1  0.820800  0.549000  0.068000  1.0  0.7187
  C  C102  1  0.904500  0.648500  0.009600  1.0  -0.176
  C  C103  1  0.663400  0.110300  0.863100  1.0  -0.2291
  C  C104  1  0.559800  0.121200  0.843600  1.0  0.7519
  C  C105  1  0.728200  0.179200  0.068000  1.0  0.7203
  C  C106  1  0.744000  0.095500  0.009600  1.0  -0.1777
  C  C107  1  0.110300  0.663400  0.636900  1.0  -0.2291
  C  C108  1  0.121200  0.559800  0.656400  1.0  0.7538
  C  C109  1  0.179200  0.728200  0.432000  1.0  0.7178
  C  C110  1  0.095500  0.744000  0.490400  1.0  -0.1756
  C  C111  1  0.336600  0.446900  0.636900  1.0  -0.229
  C  C112  1  0.440200  0.561400  0.656400  1.0  0.7535
  C  C113  1  0.271800  0.451000  0.432000  1.0  0.719
  C  C114  1  0.256000  0.351500  0.490400  1.0  -0.178
  C  C115  1  0.553100  0.889700  0.636900  1.0  -0.2289
  C  C116  1  0.438600  0.878800  0.656400  1.0  0.7517
  C  C117  1  0.549000  0.820800  0.432000  1.0  0.7192
  C  C118  1  0.648500  0.904500  0.490400  1.0  -0.1779
  N  N119  1  0.611100  0.650900  0.057800  1.0  -0.2941
  N  N120  1  0.039800  0.388900  0.057800  1.0  -0.295
  N  N121  1  0.349100  0.960200  0.057800  1.0  -0.2947
  N  N122  1  0.960200  0.349100  0.442200  1.0  -0.2946
  N  N123  1  0.650900  0.611100  0.442200  1.0  -0.2949
  N  N124  1  0.388900  0.039800  0.442200  1.0  -0.2947
  N  N125  1  0.388900  0.349100  0.942200  1.0  -0.2939
  N  N126  1  0.960200  0.611100  0.942200  1.0  -0.2949
  N  N127  1  0.650900  0.039800  0.942200  1.0  -0.2956
  N  N128  1  0.039800  0.650900  0.557800  1.0  -0.2934
  N  N129  1  0.349100  0.388900  0.557800  1.0  -0.2951
  N  N130  1  0.611100  0.960200  0.557800  1.0  -0.2957
  O  O131  1  0.453400  0.636300  0.943200  1.0  -0.731
  O  O132  1  0.562200  0.801200  0.876800  1.0  -0.632
  O  O133  1  0.402000  0.476600  0.104500  1.0  -0.5614
  O  O134  1  0.388300  0.564500  0.224100  1.0  -0.7093
  O  O135  1  0.182900  0.546600  0.943200  1.0  -0.7314
  O  O136  1  0.239000  0.437800  0.876800  1.0  -0.6305
  O  O137  1  0.074600  0.598000  0.104500  1.0  -0.5609
  O  O138  1  0.176200  0.611700  0.224100  1.0  -0.7114
  O  O139  1  0.363700  0.817100  0.943200  1.0  -0.7324
  O  O140  1  0.198800  0.761000  0.876800  1.0  -0.6314
  O  O141  1  0.523400  0.925400  0.104500  1.0  -0.5607
  O  O142  1  0.435500  0.823800  0.224100  1.0  -0.7102
  O  O143  1  0.817100  0.363700  0.556800  1.0  -0.7295
  O  O144  1  0.761000  0.198800  0.623200  1.0  -0.632
  O  O145  1  0.925400  0.523400  0.395500  1.0  -0.5608
  O  O146  1  0.823800  0.435500  0.275900  1.0  -0.7093
  O  O147  1  0.636300  0.453400  0.556800  1.0  -0.7309
  O  O148  1  0.801200  0.562200  0.623200  1.0  -0.6303
  O  O149  1  0.476600  0.402000  0.395500  1.0  -0.5616
  O  O150  1  0.564500  0.388300  0.275900  1.0  -0.7109
  O  O151  1  0.546600  0.182900  0.556800  1.0  -0.7304
  O  O152  1  0.437800  0.239000  0.623200  1.0  -0.6313
  O  O153  1  0.598000  0.074600  0.395500  1.0  -0.5608
  O  O154  1  0.611700  0.176200  0.275900  1.0  -0.7097
  O  O155  1  0.546600  0.363700  0.056800  1.0  -0.7294
  O  O156  1  0.437800  0.198800  0.123200  1.0  -0.6329
  O  O157  1  0.598000  0.523400  0.895500  1.0  -0.5608
  O  O158  1  0.611700  0.435500  0.775900  1.0  -0.71
  O  O159  1  0.817100  0.453400  0.056800  1.0  -0.732
  O  O160  1  0.761000  0.562200  0.123200  1.0  -0.6302
  O  O161  1  0.925400  0.402000  0.895500  1.0  -0.5617
  O  O162  1  0.823800  0.388300  0.775900  1.0  -0.7113
  O  O163  1  0.636300  0.182900  0.056800  1.0  -0.7292
  O  O164  1  0.801200  0.239000  0.123200  1.0  -0.6307
  O  O165  1  0.476600  0.074600  0.895500  1.0  -0.5605
  O  O166  1  0.564500  0.176200  0.775900  1.0  -0.711
  O  O167  1  0.182900  0.636300  0.443200  1.0  -0.7312
  O  O168  1  0.239000  0.801200  0.376800  1.0  -0.6327
  O  O169  1  0.074600  0.476600  0.604500  1.0  -0.5619
  O  O170  1  0.176200  0.564500  0.724100  1.0  -0.7097
  O  O171  1  0.363700  0.546600  0.443200  1.0  -0.732
  O  O172  1  0.198800  0.437800  0.376800  1.0  -0.6305
  O  O173  1  0.523400  0.598000  0.604500  1.0  -0.5618
  O  O174  1  0.435500  0.611700  0.724100  1.0  -0.7116
  O  O175  1  0.453400  0.817100  0.443200  1.0  -0.7315
  O  O176  1  0.562200  0.761000  0.376800  1.0  -0.6313
  O  O177  1  0.402000  0.925400  0.604500  1.0  -0.5602
  O  O178  1  0.388300  0.823800  0.724100  1.0  -0.7112
