# generated using pymatgen
data_Eu2Cu3H30C24(NO4)6
_symmetry_space_group_name_H-M   'P 1'
_cell_length_a   13.30600000
_cell_length_b   13.30600000
_cell_length_c   14.52800000
_cell_angle_alpha   90.00000000
_cell_angle_beta   90.00000000
_cell_angle_gamma   120.00000000
_symmetry_Int_Tables_number   1
_chemical_formula_structural   Eu2Cu3H30C24(NO4)6
_chemical_formula_sum   'Eu4 Cu6 H60 C48 N12 O48'
_cell_volume   2227.57072186
_cell_formula_units_Z   2
loop_
 _symmetry_equiv_pos_site_id
 _symmetry_equiv_pos_as_xyz
  1  'x, y, z'
loop_
 _atom_site_type_symbol
 _atom_site_label
 _atom_site_symmetry_multiplicity
 _atom_site_fract_x
 _atom_site_fract_y
 _atom_site_fract_z
 _atom_site_occupancy
 _atom_site_charge
  Eu  Eu1  1  0.333333  0.666667  0.831860  1.0  2.109
  Eu  Eu2  1  0.666667  0.333333  0.668140  1.0  2.1086
  Eu  Eu3  1  0.666667  0.333333  0.168140  1.0  2.1086
  Eu  Eu4  1  0.333333  0.666667  0.331860  1.0  2.109
  Cu  Cu5  1  0.500000  0.000000  0.000000  1.0  0.8306
  Cu  Cu6  1  0.500000  0.500000  0.000000  1.0  0.8306
  Cu  Cu7  1  0.000000  0.500000  0.000000  1.0  0.8306
  Cu  Cu8  1  0.500000  0.000000  0.500000  1.0  0.8306
  Cu  Cu9  1  0.000000  0.500000  0.500000  1.0  0.8306
  Cu  Cu10  1  0.500000  0.500000  0.500000  1.0  0.8306
  H  H11  1  0.675400  0.024700  0.078000  1.0  0.2449
  H  H12  1  0.682100  0.861500  0.020400  1.0  0.1031
  H  H13  1  0.707300  0.960900  0.950100  1.0  0.1224
  H  H14  1  0.602800  0.916600  0.192700  1.0  0.1403
  H  H15  1  0.540900  0.807500  0.128500  1.0  0.1297
  H  H16  1  0.349300  0.324600  0.078000  1.0  0.2451
  H  H17  1  0.179400  0.317900  0.020400  1.0  0.1023
  H  H18  1  0.253600  0.292700  0.950100  1.0  0.1228
  H  H19  1  0.313800  0.397200  0.192700  1.0  0.1395
  H  H20  1  0.266600  0.459100  0.128500  1.0  0.1329
  H  H21  1  0.975300  0.650700  0.078000  1.0  0.2462
  H  H22  1  0.138500  0.820600  0.020400  1.0  0.1032
  H  H23  1  0.039100  0.746400  0.950100  1.0  0.1231
  H  H24  1  0.083400  0.686200  0.192700  1.0  0.1396
  H  H25  1  0.192500  0.733400  0.128500  1.0  0.1284
  H  H26  1  0.650700  0.975300  0.422000  1.0  0.2451
  H  H27  1  0.820600  0.138500  0.479600  1.0  0.1032
  H  H28  1  0.746400  0.039100  0.549900  1.0  0.1225
  H  H29  1  0.686200  0.083400  0.307300  1.0  0.1414
  H  H30  1  0.733400  0.192500  0.371500  1.0  0.1306
  H  H31  1  0.024700  0.675400  0.422000  1.0  0.2452
  H  H32  1  0.861500  0.682100  0.479600  1.0  0.1021
  H  H33  1  0.960900  0.707300  0.549900  1.0  0.123
  H  H34  1  0.916600  0.602800  0.307300  1.0  0.1408
  H  H35  1  0.807500  0.540900  0.371500  1.0  0.1335
  H  H36  1  0.324600  0.349300  0.422000  1.0  0.2458
  H  H37  1  0.317900  0.179400  0.479600  1.0  0.1029
  H  H38  1  0.292700  0.253600  0.549900  1.0  0.123
  H  H39  1  0.397200  0.313800  0.307300  1.0  0.1408
  H  H40  1  0.459100  0.266600  0.371500  1.0  0.1292
  H  H41  1  0.324600  0.975300  0.922000  1.0  0.245
  H  H42  1  0.317900  0.138500  0.979600  1.0  0.1032
  H  H43  1  0.292700  0.039100  0.049900  1.0  0.1203
  H  H44  1  0.397200  0.083400  0.807300  1.0  0.1399
  H  H45  1  0.459100  0.192500  0.871500  1.0  0.1305
  H  H46  1  0.650700  0.675400  0.922000  1.0  0.2455
  H  H47  1  0.820600  0.682100  0.979600  1.0  0.1028
  H  H48  1  0.746400  0.707300  0.049900  1.0  0.1207
  H  H49  1  0.686200  0.602800  0.807300  1.0  0.1395
  H  H50  1  0.733400  0.540900  0.871500  1.0  0.1349
  H  H51  1  0.024700  0.349300  0.922000  1.0  0.2457
  H  H52  1  0.861500  0.179400  0.979600  1.0  0.1038
  H  H53  1  0.960900  0.253600  0.049900  1.0  0.1206
  H  H54  1  0.916600  0.313800  0.807300  1.0  0.1403
  H  H55  1  0.807500  0.266600  0.871500  1.0  0.13
  H  H56  1  0.349300  0.024700  0.578000  1.0  0.2451
  H  H57  1  0.179400  0.861500  0.520400  1.0  0.1036
  H  H58  1  0.253600  0.960900  0.450100  1.0  0.1204
  H  H59  1  0.313800  0.916600  0.692700  1.0  0.1403
  H  H60  1  0.266600  0.807500  0.628500  1.0  0.1296
  H  H61  1  0.975300  0.324600  0.578000  1.0  0.2452
  H  H62  1  0.138500  0.317900  0.520400  1.0  0.1027
  H  H63  1  0.039100  0.292700  0.450100  1.0  0.1205
  H  H64  1  0.083400  0.397200  0.692700  1.0  0.1395
  H  H65  1  0.192500  0.459100  0.628500  1.0  0.1343
  H  H66  1  0.675400  0.650700  0.578000  1.0  0.2456
  H  H67  1  0.682100  0.820600  0.520400  1.0  0.1028
  H  H68  1  0.707300  0.746400  0.450100  1.0  0.1206
  H  H69  1  0.602800  0.686200  0.692700  1.0  0.14
  H  H70  1  0.540900  0.733400  0.628500  1.0  0.1298
  C  C71  1  0.546800  0.816200  0.930100  1.0  0.7078
  C  C72  1  0.648200  0.902000  0.989300  1.0  -0.2028
  C  C73  1  0.552900  0.884700  0.139300  1.0  -0.2258
  C  C74  1  0.438200  0.875800  0.159400  1.0  0.7465
  C  C75  1  0.269400  0.453200  0.930100  1.0  0.7077
  C  C76  1  0.253800  0.351800  0.989300  1.0  -0.2027
  C  C77  1  0.331800  0.447100  0.139300  1.0  -0.2264
  C  C78  1  0.437600  0.561800  0.159400  1.0  0.7489
  C  C79  1  0.183800  0.730600  0.930100  1.0  0.706
  C  C80  1  0.098000  0.746200  0.989300  1.0  -0.2015
  C  C81  1  0.115300  0.668200  0.139300  1.0  -0.2266
  C  C82  1  0.124200  0.562400  0.159400  1.0  0.7483
  C  C83  1  0.730600  0.183800  0.569900  1.0  0.7087
  C  C84  1  0.746200  0.098000  0.510700  1.0  -0.203
  C  C85  1  0.668200  0.115300  0.360700  1.0  -0.2261
  C  C86  1  0.562400  0.124200  0.340600  1.0  0.7467
  C  C87  1  0.816200  0.546800  0.569900  1.0  0.708
  C  C88  1  0.902000  0.648200  0.510700  1.0  -0.203
  C  C89  1  0.884700  0.552900  0.360700  1.0  -0.2262
  C  C90  1  0.875800  0.438200  0.340600  1.0  0.7472
  C  C91  1  0.453200  0.269400  0.569900  1.0  0.7074
  C  C92  1  0.351800  0.253800  0.510700  1.0  -0.2014
  C  C93  1  0.447100  0.331800  0.360700  1.0  -0.227
  C  C94  1  0.561800  0.437600  0.340600  1.0  0.7486
  C  C95  1  0.453200  0.183800  0.069900  1.0  0.7088
  C  C96  1  0.351800  0.098000  0.010700  1.0  -0.202
  C  C97  1  0.447100  0.115300  0.860700  1.0  -0.2262
  C  C98  1  0.561800  0.124200  0.840600  1.0  0.7465
  C  C99  1  0.730600  0.546800  0.069900  1.0  0.7091
  C  C100  1  0.746200  0.648200  0.010700  1.0  -0.2027
  C  C101  1  0.668200  0.552900  0.860700  1.0  -0.226
  C  C102  1  0.562400  0.438200  0.840600  1.0  0.7469
  C  C103  1  0.816200  0.269400  0.069900  1.0  0.7063
  C  C104  1  0.902000  0.253800  0.010700  1.0  -0.2014
  C  C105  1  0.884700  0.331800  0.860700  1.0  -0.2267
  C  C106  1  0.875800  0.437600  0.840600  1.0  0.7484
  C  C107  1  0.269400  0.816200  0.430100  1.0  0.7078
  C  C108  1  0.253800  0.902000  0.489300  1.0  -0.2024
  C  C109  1  0.331800  0.884700  0.639300  1.0  -0.2264
  C  C110  1  0.437600  0.875800  0.659400  1.0  0.7468
  C  C111  1  0.183800  0.453200  0.430100  1.0  0.7078
  C  C112  1  0.098000  0.351800  0.489300  1.0  -0.203
  C  C113  1  0.115300  0.447100  0.639300  1.0  -0.2258
  C  C114  1  0.124200  0.561800  0.659400  1.0  0.7483
  C  C115  1  0.546800  0.730600  0.430100  1.0  0.7059
  C  C116  1  0.648200  0.746200  0.489300  1.0  -0.2017
  C  C117  1  0.552900  0.668200  0.639300  1.0  -0.2261
  C  C118  1  0.438200  0.562400  0.659400  1.0  0.7477
  N  N119  1  0.611700  0.958300  0.058400  1.0  -0.2792
  N  N120  1  0.346600  0.388300  0.058400  1.0  -0.2791
  N  N121  1  0.041700  0.653400  0.058400  1.0  -0.2778
  N  N122  1  0.653400  0.041700  0.441600  1.0  -0.2798
  N  N123  1  0.958300  0.611700  0.441600  1.0  -0.2786
  N  N124  1  0.388300  0.346600  0.441600  1.0  -0.2779
  N  N125  1  0.388300  0.041700  0.941600  1.0  -0.279
  N  N126  1  0.653400  0.611700  0.941600  1.0  -0.2788
  N  N127  1  0.958300  0.346600  0.941600  1.0  -0.2782
  N  N128  1  0.346600  0.958300  0.558400  1.0  -0.2785
  N  N129  1  0.041700  0.388300  0.558400  1.0  -0.2796
  N  N130  1  0.611700  0.653400  0.558400  1.0  -0.2783
  O  O131  1  0.451900  0.812700  0.942100  1.0  -0.7006
  O  O132  1  0.560900  0.755400  0.873100  1.0  -0.6422
  O  O133  1  0.402200  0.926100  0.107000  1.0  -0.5614
  O  O134  1  0.382300  0.819500  0.227800  1.0  -0.7012
  O  O135  1  0.360800  0.548100  0.942100  1.0  -0.7035
  O  O136  1  0.194500  0.439100  0.873100  1.0  -0.6413
  O  O137  1  0.523900  0.597800  0.107000  1.0  -0.5624
  O  O138  1  0.437200  0.617700  0.227800  1.0  -0.7035
  O  O139  1  0.187300  0.639200  0.942100  1.0  -0.7017
  O  O140  1  0.244600  0.805500  0.873100  1.0  -0.6429
  O  O141  1  0.073900  0.476100  0.107000  1.0  -0.5625
  O  O142  1  0.180500  0.562800  0.227800  1.0  -0.702
  O  O143  1  0.639200  0.187300  0.557900  1.0  -0.6995
  O  O144  1  0.805500  0.244600  0.626900  1.0  -0.6424
  O  O145  1  0.476100  0.073900  0.393000  1.0  -0.5604
  O  O146  1  0.562800  0.180500  0.272200  1.0  -0.701
  O  O147  1  0.812700  0.451900  0.557900  1.0  -0.7025
  O  O148  1  0.755400  0.560900  0.626900  1.0  -0.6413
  O  O149  1  0.926100  0.402200  0.393000  1.0  -0.5611
  O  O150  1  0.819500  0.382300  0.272200  1.0  -0.7027
  O  O151  1  0.548100  0.360800  0.557900  1.0  -0.7012
  O  O152  1  0.439100  0.194500  0.626900  1.0  -0.6442
  O  O153  1  0.597800  0.523900  0.393000  1.0  -0.5612
  O  O154  1  0.617700  0.437200  0.272200  1.0  -0.7014
  O  O155  1  0.548100  0.187300  0.057900  1.0  -0.6993
  O  O156  1  0.439100  0.244600  0.126900  1.0  -0.6433
  O  O157  1  0.597800  0.073900  0.893000  1.0  -0.5603
  O  O158  1  0.617700  0.180500  0.772200  1.0  -0.7014
  O  O159  1  0.639200  0.451900  0.057900  1.0  -0.7022
  O  O160  1  0.805500  0.560900  0.126900  1.0  -0.6411
  O  O161  1  0.476100  0.402200  0.893000  1.0  -0.5615
  O  O162  1  0.562800  0.382300  0.772200  1.0  -0.7031
  O  O163  1  0.812700  0.360800  0.057900  1.0  -0.7014
  O  O164  1  0.755400  0.194500  0.126900  1.0  -0.6434
  O  O165  1  0.926100  0.523900  0.893000  1.0  -0.561
  O  O166  1  0.819500  0.437200  0.772200  1.0  -0.7011
  O  O167  1  0.360800  0.812700  0.442100  1.0  -0.7001
  O  O168  1  0.194500  0.755400  0.373100  1.0  -0.6425
  O  O169  1  0.523900  0.926100  0.607000  1.0  -0.5611
  O  O170  1  0.437200  0.819500  0.727800  1.0  -0.7022
  O  O171  1  0.187300  0.548100  0.442100  1.0  -0.703
  O  O172  1  0.244600  0.439100  0.373100  1.0  -0.6413
  O  O173  1  0.073900  0.597800  0.607000  1.0  -0.5627
  O  O174  1  0.180500  0.617700  0.727800  1.0  -0.7042
  O  O175  1  0.451900  0.639200  0.442100  1.0  -0.7019
  O  O176  1  0.560900  0.805500  0.373100  1.0  -0.6425
  O  O177  1  0.402200  0.476100  0.607000  1.0  -0.562
  O  O178  1  0.382300  0.562800  0.727800  1.0  -0.7017
