# generated using pymatgen
data_Nd2Cu3H30C24(NO4)6
_symmetry_space_group_name_H-M   'P 1'
_cell_length_a   13.40270000
_cell_length_b   13.40270000
_cell_length_c   14.66900000
_cell_angle_alpha   90.00000000
_cell_angle_beta   90.00000000
_cell_angle_gamma   120.00000000
_symmetry_Int_Tables_number   1
_chemical_formula_structural   Nd2Cu3H30C24(NO4)6
_chemical_formula_sum   'Nd4 Cu6 H60 C48 N12 O48'
_cell_volume   2282.00049121
_cell_formula_units_Z   2
loop_
 _symmetry_equiv_pos_site_id
 _symmetry_equiv_pos_as_xyz
  1  'x, y, z'
loop_
 _atom_site_type_symbol
 _atom_site_label
 _atom_site_symmetry_multiplicity
 _atom_site_fract_x
 _atom_site_fract_y
 _atom_site_fract_z
 _atom_site_occupancy
 _atom_site_charge
  Nd  Nd1  1  0.333333  0.666667  0.831110  1.0  2.2934
  Nd  Nd2  1  0.666667  0.333333  0.668890  1.0  2.2933
  Nd  Nd3  1  0.666667  0.333333  0.168890  1.0  2.2933
  Nd  Nd4  1  0.333333  0.666667  0.331110  1.0  2.2934
  Cu  Cu5  1  0.000000  0.500000  0.000000  1.0  0.8172
  Cu  Cu6  1  0.500000  0.000000  0.000000  1.0  0.8172
  Cu  Cu7  1  0.500000  0.500000  0.000000  1.0  0.8172
  Cu  Cu8  1  0.500000  0.500000  0.500000  1.0  0.8172
  Cu  Cu9  1  0.500000  0.000000  0.500000  1.0  0.8172
  Cu  Cu10  1  0.000000  0.500000  0.500000  1.0  0.8172
  H  H11  1  0.040400  0.292500  0.951900  1.0  0.1229
  H  H12  1  0.139500  0.320000  0.021700  1.0  0.1052
  H  H13  1  0.975200  0.326300  0.077300  1.0  0.2548
  H  H14  1  0.190800  0.458900  0.126800  1.0  0.1282
  H  H15  1  0.082600  0.397300  0.190200  1.0  0.1341
  H  H16  1  0.252100  0.959600  0.951900  1.0  0.123
  H  H17  1  0.180500  0.860500  0.021700  1.0  0.1055
  H  H18  1  0.351100  0.024800  0.077300  1.0  0.2554
  H  H19  1  0.268100  0.809200  0.126800  1.0  0.1242
  H  H20  1  0.314700  0.917400  0.190200  1.0  0.1351
  H  H21  1  0.707500  0.747900  0.951900  1.0  0.1231
  H  H22  1  0.680000  0.819500  0.021700  1.0  0.1047
  H  H23  1  0.673700  0.648900  0.077300  1.0  0.2553
  H  H24  1  0.541100  0.731900  0.126800  1.0  0.1234
  H  H25  1  0.602700  0.685300  0.190200  1.0  0.1346
  H  H26  1  0.747900  0.707500  0.548100  1.0  0.1226
  H  H27  1  0.819500  0.680000  0.478300  1.0  0.1051
  H  H28  1  0.648900  0.673700  0.422700  1.0  0.2552
  H  H29  1  0.731900  0.541100  0.373200  1.0  0.1286
  H  H30  1  0.685300  0.602700  0.309800  1.0  0.1348
  H  H31  1  0.292500  0.040400  0.548100  1.0  0.1229
  H  H32  1  0.320000  0.139500  0.478300  1.0  0.1053
  H  H33  1  0.326300  0.975200  0.422700  1.0  0.2552
  H  H34  1  0.458900  0.190800  0.373200  1.0  0.1253
  H  H35  1  0.397300  0.082600  0.309800  1.0  0.1352
  H  H36  1  0.959600  0.252100  0.548100  1.0  0.1229
  H  H37  1  0.860500  0.180500  0.478300  1.0  0.106
  H  H38  1  0.024800  0.351100  0.422700  1.0  0.2551
  H  H39  1  0.809200  0.268100  0.373200  1.0  0.1234
  H  H40  1  0.917400  0.314700  0.309800  1.0  0.135
  H  H41  1  0.959600  0.707500  0.048100  1.0  0.1209
  H  H42  1  0.860500  0.680000  0.978300  1.0  0.1045
  H  H43  1  0.024800  0.673700  0.922700  1.0  0.2549
  H  H44  1  0.809200  0.541100  0.873200  1.0  0.1274
  H  H45  1  0.917400  0.602700  0.809800  1.0  0.135
  H  H46  1  0.747900  0.040400  0.048100  1.0  0.1207
  H  H47  1  0.819500  0.139500  0.978300  1.0  0.1056
  H  H48  1  0.648900  0.975200  0.922700  1.0  0.2554
  H  H49  1  0.731900  0.190800  0.873200  1.0  0.1249
  H  H50  1  0.685300  0.082600  0.809800  1.0  0.135
  H  H51  1  0.292500  0.252100  0.048100  1.0  0.1218
  H  H52  1  0.320000  0.180500  0.978300  1.0  0.105
  H  H53  1  0.326300  0.351100  0.922700  1.0  0.2549
  H  H54  1  0.458900  0.268100  0.873200  1.0  0.1236
  H  H55  1  0.397300  0.314700  0.809800  1.0  0.1351
  H  H56  1  0.252100  0.292500  0.451900  1.0  0.121
  H  H57  1  0.180500  0.320000  0.521700  1.0  0.1047
  H  H58  1  0.351100  0.326300  0.577300  1.0  0.2546
  H  H59  1  0.268100  0.458900  0.626800  1.0  0.1273
  H  H60  1  0.314700  0.397300  0.690200  1.0  0.1345
  H  H61  1  0.707500  0.959600  0.451900  1.0  0.1209
  H  H62  1  0.680000  0.860500  0.521700  1.0  0.1056
  H  H63  1  0.673700  0.024800  0.577300  1.0  0.2553
  H  H64  1  0.541100  0.809200  0.626800  1.0  0.1238
  H  H65  1  0.602700  0.917400  0.690200  1.0  0.1341
  H  H66  1  0.040400  0.747900  0.451900  1.0  0.1217
  H  H67  1  0.139500  0.819500  0.521700  1.0  0.105
  H  H68  1  0.975200  0.648900  0.577300  1.0  0.2556
  H  H69  1  0.190800  0.731900  0.626800  1.0  0.1231
  H  H70  1  0.082600  0.685300  0.690200  1.0  0.1349
  C  C71  1  0.181800  0.453100  0.932200  1.0  0.7086
  C  C72  1  0.098200  0.352100  0.990400  1.0  -0.1891
  C  C73  1  0.114200  0.447000  0.137600  1.0  -0.2228
  C  C74  1  0.122600  0.560500  0.157200  1.0  0.7544
  C  C75  1  0.271300  0.818200  0.932200  1.0  0.7088
  C  C76  1  0.253900  0.901800  0.990400  1.0  -0.1888
  C  C77  1  0.332800  0.885800  0.137600  1.0  -0.2239
  C  C78  1  0.437900  0.877400  0.157200  1.0  0.753
  C  C79  1  0.546900  0.728700  0.932200  1.0  0.7074
  C  C80  1  0.647900  0.746100  0.990400  1.0  -0.1883
  C  C81  1  0.553000  0.667200  0.137600  1.0  -0.2232
  C  C82  1  0.439500  0.562100  0.157200  1.0  0.754
  C  C83  1  0.728700  0.546900  0.567800  1.0  0.7089
  C  C84  1  0.746100  0.647900  0.509600  1.0  -0.1889
  C  C85  1  0.667200  0.553000  0.362400  1.0  -0.2231
  C  C86  1  0.562100  0.439500  0.342800  1.0  0.7537
  C  C87  1  0.453100  0.181800  0.567800  1.0  0.709
  C  C88  1  0.352100  0.098200  0.509600  1.0  -0.1888
  C  C89  1  0.447000  0.114200  0.362400  1.0  -0.2239
  C  C90  1  0.560500  0.122600  0.342800  1.0  0.7531
  C  C91  1  0.818200  0.271300  0.567800  1.0  0.7066
  C  C92  1  0.901800  0.253900  0.509600  1.0  -0.1884
  C  C93  1  0.885800  0.332800  0.362400  1.0  -0.2238
  C  C94  1  0.877400  0.437900  0.342800  1.0  0.7551
  C  C95  1  0.818200  0.546900  0.067800  1.0  0.7085
  C  C96  1  0.901800  0.647900  0.009600  1.0  -0.1888
  C  C97  1  0.885800  0.553000  0.862400  1.0  -0.2238
  C  C98  1  0.877400  0.439500  0.842800  1.0  0.7538
  C  C99  1  0.728700  0.181800  0.067800  1.0  0.709
  C  C100  1  0.746100  0.098200  0.009600  1.0  -0.1895
  C  C101  1  0.667200  0.114200  0.862400  1.0  -0.2235
  C  C102  1  0.562100  0.122600  0.842800  1.0  0.7537
  C  C103  1  0.453100  0.271300  0.067800  1.0  0.7079
  C  C104  1  0.352100  0.253900  0.009600  1.0  -0.1882
  C  C105  1  0.447000  0.332800  0.862400  1.0  -0.2241
  C  C106  1  0.560500  0.437900  0.842800  1.0  0.7547
  C  C107  1  0.271300  0.453100  0.432200  1.0  0.7086
  C  C108  1  0.253900  0.352100  0.490400  1.0  -0.1884
  C  C109  1  0.332800  0.447000  0.637600  1.0  -0.2239
  C  C110  1  0.437900  0.560500  0.657200  1.0  0.7549
  C  C111  1  0.546900  0.818200  0.432200  1.0  0.7091
  C  C112  1  0.647900  0.901800  0.490400  1.0  -0.1894
  C  C113  1  0.553000  0.885800  0.637600  1.0  -0.2232
  C  C114  1  0.439500  0.877400  0.657200  1.0  0.7532
  C  C115  1  0.181800  0.728700  0.432200  1.0  0.7078
  C  C116  1  0.098200  0.746100  0.490400  1.0  -0.1879
  C  C117  1  0.114200  0.667200  0.637600  1.0  -0.2237
  C  C118  1  0.122600  0.562100  0.657200  1.0  0.7542
  N  N119  1  0.041100  0.389400  0.058010  1.0  -0.2794
  N  N120  1  0.348300  0.958900  0.058010  1.0  -0.2789
  N  N121  1  0.610600  0.651700  0.058010  1.0  -0.2789
  N  N122  1  0.651700  0.610600  0.441990  1.0  -0.2789
  N  N123  1  0.389400  0.041100  0.441990  1.0  -0.2789
  N  N124  1  0.958900  0.348300  0.441990  1.0  -0.2788
  N  N125  1  0.958900  0.610600  0.941990  1.0  -0.2791
  N  N126  1  0.651700  0.041100  0.941990  1.0  -0.2796
  N  N127  1  0.389400  0.348300  0.941990  1.0  -0.2782
  N  N128  1  0.348300  0.389400  0.558010  1.0  -0.2793
  N  N129  1  0.610600  0.958900  0.558010  1.0  -0.2793
  N  N130  1  0.041100  0.651700  0.558010  1.0  -0.278
  O  O131  1  0.242340  0.439020  0.875920  1.0  -0.6595
  O  O132  1  0.184800  0.547800  0.943090  1.0  -0.7283
  O  O133  1  0.074100  0.598000  0.105520  1.0  -0.5651
  O  O134  1  0.178300  0.615000  0.225610  1.0  -0.7381
  O  O135  1  0.196680  0.757660  0.875920  1.0  -0.6603
  O  O136  1  0.363000  0.815200  0.943090  1.0  -0.7268
  O  O137  1  0.523900  0.925900  0.105520  1.0  -0.5643
  O  O138  1  0.436700  0.821700  0.225610  1.0  -0.735
  O  O139  1  0.560980  0.803320  0.875920  1.0  -0.6609
  O  O140  1  0.452200  0.637000  0.943090  1.0  -0.7268
  O  O141  1  0.402000  0.476100  0.105520  1.0  -0.5645
  O  O142  1  0.385000  0.563300  0.225610  1.0  -0.7342
  O  O143  1  0.803320  0.560980  0.624080  1.0  -0.66
  O  O144  1  0.637000  0.452200  0.556910  1.0  -0.7273
  O  O145  1  0.476100  0.402000  0.394480  1.0  -0.5644
  O  O146  1  0.563300  0.385000  0.274390  1.0  -0.7348
  O  O147  1  0.439020  0.242340  0.624080  1.0  -0.6613
  O  O148  1  0.547800  0.184800  0.556910  1.0  -0.7264
  O  O149  1  0.598000  0.074100  0.394480  1.0  -0.5636
  O  O150  1  0.615000  0.178300  0.274390  1.0  -0.7326
  O  O151  1  0.757660  0.196680  0.624080  1.0  -0.6618
  O  O152  1  0.815200  0.363000  0.556910  1.0  -0.7261
  O  O153  1  0.925900  0.523900  0.394480  1.0  -0.5639
  O  O154  1  0.821700  0.436700  0.274390  1.0  -0.7325
  O  O155  1  0.757660  0.560980  0.124080  1.0  -0.6604
  O  O156  1  0.815200  0.452200  0.056910  1.0  -0.7275
  O  O157  1  0.925900  0.402000  0.894480  1.0  -0.5641
  O  O158  1  0.821700  0.385000  0.774390  1.0  -0.7342
  O  O159  1  0.803320  0.242340  0.124080  1.0  -0.6609
  O  O160  1  0.637000  0.184800  0.056910  1.0  -0.7262
  O  O161  1  0.476100  0.074100  0.894480  1.0  -0.5638
  O  O162  1  0.563300  0.178300  0.774390  1.0  -0.7331
  O  O163  1  0.439020  0.196680  0.124080  1.0  -0.6622
  O  O164  1  0.547800  0.363000  0.056910  1.0  -0.7258
  O  O165  1  0.598000  0.523900  0.894480  1.0  -0.5641
  O  O166  1  0.615000  0.436700  0.774390  1.0  -0.733
  O  O167  1  0.196680  0.439020  0.375920  1.0  -0.6597
  O  O168  1  0.363000  0.547800  0.443090  1.0  -0.7285
  O  O169  1  0.523900  0.598000  0.605520  1.0  -0.5654
  O  O170  1  0.436700  0.615000  0.725610  1.0  -0.7375
  O  O171  1  0.560980  0.757660  0.375920  1.0  -0.6603
  O  O172  1  0.452200  0.815200  0.443090  1.0  -0.7268
  O  O173  1  0.402000  0.925900  0.605520  1.0  -0.5643
  O  O174  1  0.385000  0.821700  0.725610  1.0  -0.7353
  O  O175  1  0.242340  0.803320  0.375920  1.0  -0.6611
  O  O176  1  0.184800  0.637000  0.443090  1.0  -0.7265
  O  O177  1  0.074100  0.476100  0.605520  1.0  -0.565
  O  O178  1  0.178300  0.563300  0.725610  1.0  -0.7347
