# generated using pymatgen
data_ZrH4C14(N2O3)2
_symmetry_space_group_name_H-M   'P 1'
_cell_length_a   15.61520000
_cell_length_b   15.61520000
_cell_length_c   7.49630000
_cell_angle_alpha   90.00000000
_cell_angle_beta   90.00000000
_cell_angle_gamma   90.00000000
_symmetry_Int_Tables_number   1
_chemical_formula_structural   ZrH4C14(N2O3)2
_chemical_formula_sum   'Zr2 H8 C28 N8 O12'
_cell_volume   1827.85634526
_cell_formula_units_Z   2
loop_
 _symmetry_equiv_pos_site_id
 _symmetry_equiv_pos_as_xyz
  1  'x, y, z'
loop_
 _atom_site_type_symbol
 _atom_site_label
 _atom_site_symmetry_multiplicity
 _atom_site_fract_x
 _atom_site_fract_y
 _atom_site_fract_z
 _atom_site_occupancy
 _atom_site_charge
  Zr  Zr1  1  0.000000  0.000000  0.250000  1.0  1.917
  Zr  Zr2  1  0.000000  0.000000  0.750000  1.0  1.917
  H  H3  1  0.306600  0.000000  0.268020  1.0  0.1421
  H  H4  1  0.693400  0.000000  0.268020  1.0  0.1423
  H  H5  1  0.000000  0.306600  0.768020  1.0  0.1418
  H  H6  1  0.000000  0.693400  0.768020  1.0  0.1417
  H  H7  1  0.693400  0.000000  0.731980  1.0  0.1423
  H  H8  1  0.306600  0.000000  0.731980  1.0  0.1423
  H  H9  1  0.000000  0.306600  0.231980  1.0  0.1416
  H  H10  1  0.000000  0.693400  0.231980  1.0  0.1417
  C  C11  1  0.276820  0.000000  0.160580  1.0  -0.0857
  C  C12  1  0.187800  0.000000  0.160580  1.0  0.3334
  C  C13  1  0.723180  0.000000  0.160580  1.0  -0.0867
  C  C14  1  0.812200  0.000000  0.160580  1.0  0.3333
  C  C15  1  0.000000  0.276820  0.660580  1.0  -0.0856
  C  C16  1  0.000000  0.187800  0.660580  1.0  0.3337
  C  C17  1  0.000000  0.723180  0.660580  1.0  -0.0849
  C  C18  1  0.000000  0.812200  0.660580  1.0  0.3336
  C  C19  1  0.723180  0.000000  0.839420  1.0  -0.0854
  C  C20  1  0.812200  0.000000  0.839420  1.0  0.342
  C  C21  1  0.276820  0.000000  0.839420  1.0  -0.0865
  C  C22  1  0.187800  0.000000  0.839420  1.0  0.3406
  C  C23  1  0.000000  0.276820  0.339420  1.0  -0.0856
  C  C24  1  0.000000  0.187800  0.339420  1.0  0.3417
  C  C25  1  0.000000  0.723180  0.339420  1.0  -0.0848
  C  C26  1  0.000000  0.812200  0.339420  1.0  0.3409
  C  C27  1  0.415470  0.000000  0.000000  1.0  0.4272
  C  C28  1  0.321330  0.000000  0.000000  1.0  -0.1005
  C  C29  1  0.143300  0.000000  0.000000  1.0  0.2494
  C  C30  1  0.584530  0.000000  0.000000  1.0  0.4272
  C  C31  1  0.678670  0.000000  0.000000  1.0  -0.1004
  C  C32  1  0.856700  0.000000  0.000000  1.0  0.2455
  C  C33  1  0.000000  0.415470  0.500000  1.0  0.4279
  C  C34  1  0.000000  0.321330  0.500000  1.0  -0.1008
  C  C35  1  0.000000  0.143300  0.500000  1.0  0.2493
  C  C36  1  0.000000  0.584530  0.500000  1.0  0.4281
  C  C37  1  0.000000  0.678670  0.500000  1.0  -0.1019
  C  C38  1  0.000000  0.856700  0.500000  1.0  0.2491
  N  N39  1  0.457730  0.000000  0.152500  1.0  -0.2415
  N  N40  1  0.542270  0.000000  0.152500  1.0  -0.2397
  N  N41  1  0.000000  0.457730  0.652500  1.0  -0.2386
  N  N42  1  0.000000  0.542270  0.652500  1.0  -0.2387
  N  N43  1  0.542270  0.000000  0.847500  1.0  -0.2454
  N  N44  1  0.457730  0.000000  0.847500  1.0  -0.249
  N  N45  1  0.000000  0.457730  0.347500  1.0  -0.2477
  N  N46  1  0.000000  0.542270  0.347500  1.0  -0.244
  O  O47  1  0.146180  0.000000  0.310770  1.0  -0.6094
  O  O48  1  0.853820  0.000000  0.310770  1.0  -0.6093
  O  O49  1  0.000000  0.146180  0.810770  1.0  -0.6044
  O  O50  1  0.000000  0.853820  0.810770  1.0  -0.6028
  O  O51  1  0.853820  0.000000  0.689230  1.0  -0.6122
  O  O52  1  0.146180  0.000000  0.689230  1.0  -0.6088
  O  O53  1  0.000000  0.146180  0.189230  1.0  -0.6045
  O  O54  1  0.000000  0.853820  0.189230  1.0  -0.6031
  O  O55  1  0.066430  0.000000  0.000000  1.0  -0.6212
  O  O56  1  0.933570  0.000000  0.000000  1.0  -0.6222
  O  O57  1  0.000000  0.066430  0.500000  1.0  -0.6204
  O  O58  1  0.000000  0.933570  0.500000  1.0  -0.6208
