# generated using pymatgen
data_La2Cu3H30C24(NO4)6
_symmetry_space_group_name_H-M   'P 1'
_cell_length_a   13.47130000
_cell_length_b   13.47130000
_cell_length_c   14.92200000
_cell_angle_alpha   90.00000000
_cell_angle_beta   90.00000000
_cell_angle_gamma   120.00000000
_symmetry_Int_Tables_number   1
_chemical_formula_structural   La2Cu3H30C24(NO4)6
_chemical_formula_sum   'La4 Cu6 H60 C48 N12 O48'
_cell_volume   2345.18270607
_cell_formula_units_Z   2
loop_
 _symmetry_equiv_pos_site_id
 _symmetry_equiv_pos_as_xyz
  1  'x, y, z'
loop_
 _atom_site_type_symbol
 _atom_site_label
 _atom_site_symmetry_multiplicity
 _atom_site_fract_x
 _atom_site_fract_y
 _atom_site_fract_z
 _atom_site_occupancy
 _atom_site_charge
  La  La1  1  0.666667  0.333333  0.169560  1.0  2.1493
  La  La2  1  0.333333  0.666667  0.330440  1.0  2.1493
  La  La3  1  0.333333  0.666667  0.830440  1.0  2.1493
  La  La4  1  0.666667  0.333333  0.669560  1.0  2.1493
  Cu  Cu5  1  0.500000  0.500000  0.000000  1.0  0.8098
  Cu  Cu6  1  0.000000  0.500000  0.000000  1.0  0.8098
  Cu  Cu7  1  0.500000  0.000000  0.000000  1.0  0.8098
  Cu  Cu8  1  0.000000  0.500000  0.500000  1.0  0.8098
  Cu  Cu9  1  0.500000  0.500000  0.500000  1.0  0.8098
  Cu  Cu10  1  0.500000  0.000000  0.500000  1.0  0.8098
  H  H11  1  0.320100  0.182500  0.977600  1.0  0.1085
  H  H12  1  0.292200  0.253400  0.046400  1.0  0.1285
  H  H13  1  0.396300  0.316800  0.811500  1.0  0.138
  H  H14  1  0.457300  0.269300  0.873200  1.0  0.1293
  H  H15  1  0.325900  0.351900  0.923900  1.0  0.2587
  H  H16  1  0.862400  0.679900  0.977600  1.0  0.1082
  H  H17  1  0.961200  0.707800  0.046400  1.0  0.1268
  H  H18  1  0.920500  0.603700  0.811500  1.0  0.1379
  H  H19  1  0.812000  0.542700  0.873200  1.0  0.1279
  H  H20  1  0.026000  0.674100  0.923900  1.0  0.2583
  H  H21  1  0.817500  0.137600  0.977600  1.0  0.1094
  H  H22  1  0.746600  0.038800  0.046400  1.0  0.1276
  H  H23  1  0.683200  0.079500  0.811500  1.0  0.1385
  H  H24  1  0.730700  0.188000  0.873200  1.0  0.1318
  H  H25  1  0.648100  0.974000  0.923900  1.0  0.2591
  H  H26  1  0.137600  0.817500  0.522400  1.0  0.1088
  H  H27  1  0.038800  0.746600  0.453600  1.0  0.1279
  H  H28  1  0.079500  0.683200  0.688500  1.0  0.1376
  H  H29  1  0.188000  0.730700  0.626800  1.0  0.1283
  H  H30  1  0.974000  0.648100  0.576100  1.0  0.259
  H  H31  1  0.182500  0.320100  0.522400  1.0  0.1083
  H  H32  1  0.253400  0.292200  0.453600  1.0  0.1274
  H  H33  1  0.316800  0.396300  0.688500  1.0  0.1375
  H  H34  1  0.269300  0.457300  0.626800  1.0  0.1272
  H  H35  1  0.351900  0.325900  0.576100  1.0  0.2584
  H  H36  1  0.679900  0.862400  0.522400  1.0  0.1092
  H  H37  1  0.707800  0.961200  0.453600  1.0  0.1272
  H  H38  1  0.603700  0.920500  0.688500  1.0  0.1372
  H  H39  1  0.542700  0.812000  0.626800  1.0  0.1295
  H  H40  1  0.674100  0.026000  0.576100  1.0  0.2587
  H  H41  1  0.679900  0.817500  0.022400  1.0  0.1085
  H  H42  1  0.707800  0.746600  0.953600  1.0  0.1256
  H  H43  1  0.603700  0.683200  0.188500  1.0  0.1376
  H  H44  1  0.542700  0.730700  0.126800  1.0  0.129
  H  H45  1  0.674100  0.648100  0.076100  1.0  0.2582
  H  H46  1  0.137600  0.320100  0.022400  1.0  0.1087
  H  H47  1  0.038800  0.292200  0.953600  1.0  0.1255
  H  H48  1  0.079500  0.396300  0.188500  1.0  0.1374
  H  H49  1  0.188000  0.457300  0.126800  1.0  0.1321
  H  H50  1  0.974000  0.325900  0.076100  1.0  0.2584
  H  H51  1  0.182500  0.862400  0.022400  1.0  0.1094
  H  H52  1  0.253400  0.961200  0.953600  1.0  0.1258
  H  H53  1  0.316800  0.920500  0.188500  1.0  0.1382
  H  H54  1  0.269300  0.812000  0.126800  1.0  0.1298
  H  H55  1  0.351900  0.026000  0.076100  1.0  0.2591
  H  H56  1  0.862400  0.182500  0.477600  1.0  0.1096
  H  H57  1  0.961200  0.253400  0.546400  1.0  0.1258
  H  H58  1  0.920500  0.316800  0.311500  1.0  0.1378
  H  H59  1  0.812000  0.269300  0.373200  1.0  0.1294
  H  H60  1  0.026000  0.351900  0.423900  1.0  0.2584
  H  H61  1  0.817500  0.679900  0.477600  1.0  0.1087
  H  H62  1  0.746600  0.707800  0.546400  1.0  0.125
  H  H63  1  0.683200  0.603700  0.311500  1.0  0.1378
  H  H64  1  0.730700  0.542700  0.373200  1.0  0.1325
  H  H65  1  0.648100  0.674100  0.423900  1.0  0.2587
  H  H66  1  0.320100  0.137600  0.477600  1.0  0.1095
  H  H67  1  0.292200  0.038800  0.546400  1.0  0.1259
  H  H68  1  0.396300  0.079500  0.311500  1.0  0.1386
  H  H69  1  0.457300  0.188000  0.373200  1.0  0.1318
  H  H70  1  0.325900  0.974000  0.423900  1.0  0.2593
  C  C71  1  0.451500  0.271900  0.066800  1.0  0.6963
  C  C72  1  0.351800  0.255300  0.008700  1.0  -0.1875
  C  C73  1  0.445800  0.334000  0.863300  1.0  -0.2218
  C  C74  1  0.559700  0.438800  0.843700  1.0  0.7474
  C  C75  1  0.820400  0.548500  0.066800  1.0  0.6976
  C  C76  1  0.903500  0.648200  0.008700  1.0  -0.1881
  C  C77  1  0.888200  0.554200  0.863300  1.0  -0.2209
  C  C78  1  0.879100  0.440300  0.843700  1.0  0.7457
  C  C79  1  0.728100  0.179600  0.066800  1.0  0.6973
  C  C80  1  0.744700  0.096500  0.008700  1.0  -0.188
  C  C81  1  0.666000  0.111800  0.863300  1.0  -0.2216
  C  C82  1  0.561200  0.120900  0.843700  1.0  0.7451
  C  C83  1  0.179600  0.728100  0.433200  1.0  0.6965
  C  C84  1  0.096500  0.744700  0.491300  1.0  -0.1863
  C  C85  1  0.111800  0.666000  0.636700  1.0  -0.2219
  C  C86  1  0.120900  0.561200  0.656300  1.0  0.7463
  C  C87  1  0.271900  0.451500  0.433200  1.0  0.6982
  C  C88  1  0.255300  0.351800  0.491300  1.0  -0.1875
  C  C89  1  0.334000  0.445800  0.636700  1.0  -0.2215
  C  C90  1  0.438800  0.559700  0.656300  1.0  0.7465
  C  C91  1  0.548500  0.820400  0.433200  1.0  0.6984
  C  C92  1  0.648200  0.903500  0.491300  1.0  -0.1867
  C  C93  1  0.554200  0.888200  0.636700  1.0  -0.2213
  C  C94  1  0.440300  0.879100  0.656300  1.0  0.7446
  C  C95  1  0.548500  0.728100  0.933200  1.0  0.6962
  C  C96  1  0.648200  0.744700  0.991300  1.0  -0.1868
  C  C97  1  0.554200  0.666000  0.136700  1.0  -0.2211
  C  C98  1  0.440300  0.561200  0.156300  1.0  0.7463
  C  C99  1  0.179600  0.451500  0.933200  1.0  0.6976
  C  C100  1  0.096500  0.351800  0.991300  1.0  -0.1881
  C  C101  1  0.111800  0.445800  0.136700  1.0  -0.221
  C  C102  1  0.120900  0.559700  0.156300  1.0  0.7464
  C  C103  1  0.271900  0.820400  0.933200  1.0  0.6981
  C  C104  1  0.255300  0.903500  0.991300  1.0  -0.1871
  C  C105  1  0.334000  0.888200  0.136700  1.0  -0.2213
  C  C106  1  0.438800  0.879100  0.156300  1.0  0.7444
  C  C107  1  0.820400  0.271900  0.566800  1.0  0.6951
  C  C108  1  0.903500  0.255300  0.508700  1.0  -0.1876
  C  C109  1  0.888200  0.334000  0.363300  1.0  -0.2213
  C  C110  1  0.879100  0.438800  0.343700  1.0  0.7479
  C  C111  1  0.728100  0.548500  0.566800  1.0  0.6977
  C  C112  1  0.744700  0.648200  0.508700  1.0  -0.1882
  C  C113  1  0.666000  0.554200  0.363300  1.0  -0.2212
  C  C114  1  0.561200  0.440300  0.343700  1.0  0.7461
  C  C115  1  0.451500  0.179600  0.566800  1.0  0.6972
  C  C116  1  0.351800  0.096500  0.508700  1.0  -0.1875
  C  C117  1  0.445800  0.111800  0.363300  1.0  -0.2212
  C  C118  1  0.559700  0.120900  0.343700  1.0  0.7448
  N  N119  1  0.388500  0.348600  0.942470  1.0  -0.2779
  N  N120  1  0.960100  0.611500  0.942470  1.0  -0.279
  N  N121  1  0.651400  0.039900  0.942470  1.0  -0.2797
  N  N122  1  0.039900  0.651400  0.557530  1.0  -0.2777
  N  N123  1  0.348600  0.388500  0.557530  1.0  -0.2793
  N  N124  1  0.611500  0.960100  0.557530  1.0  -0.2792
  N  N125  1  0.611500  0.651400  0.057530  1.0  -0.2784
  N  N126  1  0.039900  0.388500  0.057530  1.0  -0.2792
  N  N127  1  0.348600  0.960100  0.057530  1.0  -0.2787
  N  N128  1  0.960100  0.348600  0.442470  1.0  -0.2784
  N  N129  1  0.651400  0.611500  0.442470  1.0  -0.2787
  N  N130  1  0.388500  0.039900  0.442470  1.0  -0.2789
  O  O131  1  0.437800  0.197000  0.122980  1.0  -0.6621
  O  O132  1  0.546000  0.363300  0.056820  1.0  -0.7001
  O  O133  1  0.597400  0.523400  0.895430  1.0  -0.564
  O  O134  1  0.613400  0.437600  0.775610  1.0  -0.7116
  O  O135  1  0.759200  0.562200  0.122980  1.0  -0.6597
  O  O136  1  0.817300  0.454000  0.056820  1.0  -0.7023
  O  O137  1  0.926000  0.402600  0.895430  1.0  -0.5644
  O  O138  1  0.824200  0.386600  0.775610  1.0  -0.7131
  O  O139  1  0.803000  0.240800  0.122980  1.0  -0.6598
  O  O140  1  0.636700  0.182700  0.056820  1.0  -0.7009
  O  O141  1  0.476600  0.074000  0.895430  1.0  -0.5638
  O  O142  1  0.562400  0.175800  0.775610  1.0  -0.7115
  O  O143  1  0.240800  0.803000  0.377020  1.0  -0.6617
  O  O144  1  0.182700  0.636700  0.443180  1.0  -0.701
  O  O145  1  0.074000  0.476600  0.604570  1.0  -0.5648
  O  O146  1  0.175800  0.562400  0.724390  1.0  -0.7124
  O  O147  1  0.197000  0.437800  0.377020  1.0  -0.6598
  O  O148  1  0.363300  0.546000  0.443180  1.0  -0.7032
  O  O149  1  0.523400  0.597400  0.604570  1.0  -0.5653
  O  O150  1  0.437600  0.613400  0.724390  1.0  -0.7152
  O  O151  1  0.562200  0.759200  0.377020  1.0  -0.6599
  O  O152  1  0.454000  0.817300  0.443180  1.0  -0.7014
  O  O153  1  0.402600  0.926000  0.604570  1.0  -0.5638
  O  O154  1  0.386600  0.824200  0.724390  1.0  -0.7127
  O  O155  1  0.562200  0.803000  0.877020  1.0  -0.6611
  O  O156  1  0.454000  0.636700  0.943180  1.0  -0.7017
  O  O157  1  0.402600  0.476600  0.104570  1.0  -0.5644
  O  O158  1  0.386600  0.562400  0.224390  1.0  -0.712
  O  O159  1  0.240800  0.437800  0.877020  1.0  -0.6594
  O  O160  1  0.182700  0.546000  0.943180  1.0  -0.7019
  O  O161  1  0.074000  0.597400  0.104570  1.0  -0.5647
  O  O162  1  0.175800  0.613400  0.224390  1.0  -0.7149
  O  O163  1  0.197000  0.759200  0.877020  1.0  -0.6604
  O  O164  1  0.363300  0.817300  0.943180  1.0  -0.7019
  O  O165  1  0.523400  0.926000  0.104570  1.0  -0.564
  O  O166  1  0.437600  0.824200  0.224390  1.0  -0.7125
  O  O167  1  0.759200  0.197000  0.622980  1.0  -0.6619
  O  O168  1  0.817300  0.363300  0.556820  1.0  -0.7009
  O  O169  1  0.926000  0.523400  0.395430  1.0  -0.5639
  O  O170  1  0.824200  0.437600  0.275610  1.0  -0.7111
  O  O171  1  0.803000  0.562200  0.622980  1.0  -0.6593
  O  O172  1  0.636700  0.454000  0.556820  1.0  -0.7012
  O  O173  1  0.476600  0.402600  0.395430  1.0  -0.5644
  O  O174  1  0.562400  0.386600  0.275610  1.0  -0.7129
  O  O175  1  0.437800  0.240800  0.622980  1.0  -0.6606
  O  O176  1  0.546000  0.182700  0.556820  1.0  -0.7015
  O  O177  1  0.597400  0.074000  0.395430  1.0  -0.5637
  O  O178  1  0.613400  0.175800  0.275610  1.0  -0.7111
