# generated using pymatgen
data_Eu2Cu3H30C24(NO4)6
_symmetry_space_group_name_H-M   'P 1'
_cell_length_a   13.30310000
_cell_length_b   13.30310000
_cell_length_c   14.56600000
_cell_angle_alpha   90.00000000
_cell_angle_beta   90.00000000
_cell_angle_gamma   120.00000000
_symmetry_Int_Tables_number   1
_chemical_formula_structural   Eu2Cu3H30C24(NO4)6
_chemical_formula_sum   'Eu4 Cu6 H60 C48 N12 O48'
_cell_volume   2232.42382476
_cell_formula_units_Z   2
loop_
 _symmetry_equiv_pos_site_id
 _symmetry_equiv_pos_as_xyz
  1  'x, y, z'
loop_
 _atom_site_type_symbol
 _atom_site_label
 _atom_site_symmetry_multiplicity
 _atom_site_fract_x
 _atom_site_fract_y
 _atom_site_fract_z
 _atom_site_occupancy
 _atom_site_charge
  Eu  Eu1  1  0.333333  0.666667  0.668590  1.0  2.1185
  Eu  Eu2  1  0.666667  0.333333  0.831420  1.0  2.1191
  Eu  Eu3  1  0.666667  0.333333  0.331420  1.0  2.1191
  Eu  Eu4  1  0.333333  0.666667  0.168580  1.0  2.1186
  Cu  Cu5  1  0.500000  0.000000  0.500000  1.0  0.8217
  Cu  Cu6  1  0.500000  0.500000  0.500000  1.0  0.8217
  Cu  Cu7  1  0.000000  0.500000  0.500000  1.0  0.8217
  Cu  Cu8  1  0.500000  0.000000  0.000000  1.0  0.8217
  Cu  Cu9  1  0.000000  0.500000  0.000000  1.0  0.8217
  Cu  Cu10  1  0.500000  0.500000  0.000000  1.0  0.8217
  H  H11  1  0.707600  0.961500  0.550500  1.0  0.129
  H  H12  1  0.682700  0.861700  0.480900  1.0  0.1069
  H  H13  1  0.675800  0.024600  0.422500  1.0  0.257
  H  H14  1  0.541600  0.807500  0.372100  1.0  0.1339
  H  H15  1  0.603800  0.916400  0.308200  1.0  0.1315
  H  H16  1  0.253900  0.292400  0.550500  1.0  0.1296
  H  H17  1  0.179000  0.317300  0.480900  1.0  0.1053
  H  H18  1  0.348800  0.324200  0.422500  1.0  0.2566
  H  H19  1  0.265900  0.458400  0.372100  1.0  0.1363
  H  H20  1  0.312600  0.396200  0.308200  1.0  0.1311
  H  H21  1  0.038500  0.746100  0.550500  1.0  0.1296
  H  H22  1  0.138300  0.821000  0.480900  1.0  0.1061
  H  H23  1  0.975400  0.651200  0.422500  1.0  0.2575
  H  H24  1  0.192500  0.734100  0.372100  1.0  0.1321
  H  H25  1  0.083600  0.687400  0.308200  1.0  0.1314
  H  H26  1  0.746100  0.038500  0.949500  1.0  0.1289
  H  H27  1  0.821000  0.138300  0.019100  1.0  0.1069
  H  H28  1  0.651200  0.975400  0.077500  1.0  0.2567
  H  H29  1  0.734100  0.192500  0.127900  1.0  0.1329
  H  H30  1  0.687400  0.083600  0.191800  1.0  0.1318
  H  H31  1  0.961500  0.707600  0.949500  1.0  0.1293
  H  H32  1  0.861700  0.682700  0.019100  1.0  0.1054
  H  H33  1  0.024600  0.675800  0.077500  1.0  0.2565
  H  H34  1  0.807500  0.541600  0.127900  1.0  0.1355
  H  H35  1  0.916400  0.603800  0.191800  1.0  0.1319
  H  H36  1  0.292400  0.253900  0.949500  1.0  0.1292
  H  H37  1  0.317300  0.179000  0.019100  1.0  0.1067
  H  H38  1  0.324200  0.348800  0.077500  1.0  0.2574
  H  H39  1  0.458400  0.265900  0.127900  1.0  0.1319
  H  H40  1  0.396200  0.312600  0.191800  1.0  0.1322
  H  H41  1  0.292400  0.038500  0.449500  1.0  0.1266
  H  H42  1  0.317300  0.138300  0.519100  1.0  0.1068
  H  H43  1  0.324200  0.975400  0.577500  1.0  0.2571
  H  H44  1  0.458400  0.192500  0.627900  1.0  0.1328
  H  H45  1  0.396200  0.083600  0.691800  1.0  0.1323
  H  H46  1  0.746100  0.707600  0.449500  1.0  0.1275
  H  H47  1  0.821000  0.682700  0.519100  1.0  0.1062
  H  H48  1  0.651200  0.675800  0.577500  1.0  0.2567
  H  H49  1  0.734100  0.541600  0.627900  1.0  0.1375
  H  H50  1  0.687400  0.603800  0.691800  1.0  0.1315
  H  H51  1  0.961500  0.253900  0.449500  1.0  0.1271
  H  H52  1  0.861700  0.179000  0.519100  1.0  0.107
  H  H53  1  0.024600  0.348800  0.577500  1.0  0.2572
  H  H54  1  0.807500  0.265900  0.627900  1.0  0.1324
  H  H55  1  0.916400  0.312600  0.691800  1.0  0.132
  H  H56  1  0.253900  0.961500  0.050500  1.0  0.1271
  H  H57  1  0.179000  0.861700  0.980900  1.0  0.1071
  H  H58  1  0.348800  0.024600  0.922500  1.0  0.2571
  H  H59  1  0.265900  0.807500  0.872100  1.0  0.1336
  H  H60  1  0.312600  0.916400  0.808200  1.0  0.1313
  H  H61  1  0.038500  0.292400  0.050500  1.0  0.1273
  H  H62  1  0.138300  0.317300  0.980900  1.0  0.1057
  H  H63  1  0.975400  0.324200  0.922500  1.0  0.2566
  H  H64  1  0.192500  0.458400  0.872100  1.0  0.1389
  H  H65  1  0.083600  0.396200  0.808200  1.0  0.1312
  H  H66  1  0.707600  0.746100  0.050500  1.0  0.1273
  H  H67  1  0.682700  0.821000  0.980900  1.0  0.1059
  H  H68  1  0.675800  0.651200  0.922500  1.0  0.2571
  H  H69  1  0.541600  0.734100  0.872100  1.0  0.1331
  H  H70  1  0.603800  0.687400  0.808200  1.0  0.1319
  C  C71  1  0.548400  0.817700  0.570000  1.0  0.7071
  C  C72  1  0.648600  0.902300  0.511500  1.0  -0.19
  C  C73  1  0.553600  0.884600  0.361300  1.0  -0.2239
  C  C74  1  0.439100  0.875800  0.340600  1.0  0.7561
  C  C75  1  0.269300  0.451600  0.570000  1.0  0.706
  C  C76  1  0.253700  0.351400  0.511500  1.0  -0.1892
  C  C77  1  0.331000  0.446400  0.361300  1.0  -0.2237
  C  C78  1  0.436700  0.560900  0.340600  1.0  0.7577
  C  C79  1  0.182300  0.730700  0.570000  1.0  0.7057
  C  C80  1  0.097700  0.746300  0.511500  1.0  -0.1883
  C  C81  1  0.115400  0.669000  0.361300  1.0  -0.2249
  C  C82  1  0.124200  0.563300  0.340600  1.0  0.7567
  C  C83  1  0.730700  0.182300  0.930000  1.0  0.7067
  C  C84  1  0.746300  0.097700  0.988500  1.0  -0.1887
  C  C85  1  0.669000  0.115400  0.138700  1.0  -0.224
  C  C86  1  0.563300  0.124200  0.159400  1.0  0.7554
  C  C87  1  0.817700  0.548400  0.930000  1.0  0.7059
  C  C88  1  0.902300  0.648600  0.988500  1.0  -0.1892
  C  C89  1  0.884600  0.553600  0.138700  1.0  -0.2238
  C  C90  1  0.875800  0.439100  0.159400  1.0  0.7574
  C  C91  1  0.451600  0.269300  0.930000  1.0  0.7051
  C  C92  1  0.351400  0.253700  0.988500  1.0  -0.1885
  C  C93  1  0.446400  0.331000  0.138700  1.0  -0.2253
  C  C94  1  0.560900  0.436700  0.159400  1.0  0.7576
  C  C95  1  0.451600  0.182300  0.430000  1.0  0.7064
  C  C96  1  0.351400  0.097700  0.488500  1.0  -0.189
  C  C97  1  0.446400  0.115400  0.638700  1.0  -0.2246
  C  C98  1  0.560900  0.124200  0.659400  1.0  0.7556
  C  C99  1  0.730700  0.548400  0.430000  1.0  0.7059
  C  C100  1  0.746300  0.648600  0.488500  1.0  -0.189
  C  C101  1  0.669000  0.553600  0.638700  1.0  -0.2234
  C  C102  1  0.563300  0.439100  0.659400  1.0  0.757
  C  C103  1  0.817700  0.269300  0.430000  1.0  0.7048
  C  C104  1  0.902300  0.253700  0.488500  1.0  -0.188
  C  C105  1  0.884600  0.331000  0.638700  1.0  -0.225
  C  C106  1  0.875800  0.436700  0.659400  1.0  0.7572
  C  C107  1  0.269300  0.817700  0.070000  1.0  0.7068
  C  C108  1  0.253700  0.902300  0.011500  1.0  -0.1894
  C  C109  1  0.331000  0.884600  0.861300  1.0  -0.2242
  C  C110  1  0.436700  0.875800  0.840600  1.0  0.7558
  C  C111  1  0.182300  0.451600  0.070000  1.0  0.7069
  C  C112  1  0.097700  0.351400  0.011500  1.0  -0.1894
  C  C113  1  0.115400  0.446400  0.861300  1.0  -0.2236
  C  C114  1  0.124200  0.560900  0.840600  1.0  0.7577
  C  C115  1  0.548400  0.730700  0.070000  1.0  0.7053
  C  C116  1  0.648600  0.746300  0.011500  1.0  -0.1889
  C  C117  1  0.553600  0.669000  0.861300  1.0  -0.2243
  C  C118  1  0.439100  0.563300  0.840600  1.0  0.7568
  N  N119  1  0.612200  0.958300  0.441980  1.0  -0.2742
  N  N120  1  0.346100  0.387800  0.441980  1.0  -0.2742
  N  N121  1  0.041700  0.653900  0.441980  1.0  -0.2726
  N  N122  1  0.653900  0.041700  0.058020  1.0  -0.2747
  N  N123  1  0.958300  0.612200  0.058020  1.0  -0.274
  N  N124  1  0.387800  0.346100  0.058020  1.0  -0.2727
  N  N125  1  0.387800  0.041700  0.558020  1.0  -0.2741
  N  N126  1  0.653900  0.612200  0.558020  1.0  -0.274
  N  N127  1  0.958300  0.346100  0.558020  1.0  -0.273
  N  N128  1  0.346100  0.958300  0.941980  1.0  -0.2735
  N  N129  1  0.041700  0.387800  0.941980  1.0  -0.2745
  N  N130  1  0.612200  0.653900  0.941980  1.0  -0.2733
  O  O131  1  0.452100  0.812700  0.559060  1.0  -0.748
  O  O132  1  0.561700  0.756000  0.626700  1.0  -0.643
  O  O133  1  0.401100  0.924900  0.393700  1.0  -0.5514
  O  O134  1  0.382900  0.818600  0.272330  1.0  -0.7045
  O  O135  1  0.360600  0.547900  0.559060  1.0  -0.7515
  O  O136  1  0.194300  0.438300  0.626700  1.0  -0.6418
  O  O137  1  0.523800  0.598900  0.393700  1.0  -0.5525
  O  O138  1  0.435700  0.617100  0.272330  1.0  -0.7058
  O  O139  1  0.187300  0.639400  0.559060  1.0  -0.749
  O  O140  1  0.244000  0.805700  0.626700  1.0  -0.6442
  O  O141  1  0.075100  0.476200  0.393700  1.0  -0.5531
  O  O142  1  0.181400  0.564300  0.272330  1.0  -0.7052
  O  O143  1  0.639400  0.187300  0.940940  1.0  -0.7484
  O  O144  1  0.805700  0.244000  0.873300  1.0  -0.642
  O  O145  1  0.476200  0.075100  0.106300  1.0  -0.5521
  O  O146  1  0.564300  0.181400  0.227670  1.0  -0.7051
  O  O147  1  0.812700  0.452100  0.940940  1.0  -0.7517
  O  O148  1  0.756000  0.561700  0.873300  1.0  -0.641
  O  O149  1  0.924900  0.401100  0.106300  1.0  -0.5527
  O  O150  1  0.818600  0.382900  0.227670  1.0  -0.7064
  O  O151  1  0.547900  0.360600  0.940940  1.0  -0.7494
  O  O152  1  0.438300  0.194300  0.873300  1.0  -0.6436
  O  O153  1  0.598900  0.523800  0.106300  1.0  -0.5537
  O  O154  1  0.617100  0.435700  0.227670  1.0  -0.7054
  O  O155  1  0.547900  0.187300  0.440940  1.0  -0.7481
  O  O156  1  0.438300  0.244000  0.373300  1.0  -0.6423
  O  O157  1  0.598900  0.075100  0.606300  1.0  -0.5519
  O  O158  1  0.617100  0.181400  0.727670  1.0  -0.7057
  O  O159  1  0.639400  0.452100  0.440940  1.0  -0.7518
  O  O160  1  0.805700  0.561700  0.373300  1.0  -0.6413
  O  O161  1  0.476200  0.401100  0.606300  1.0  -0.5529
  O  O162  1  0.564300  0.382900  0.727670  1.0  -0.7069
  O  O163  1  0.812700  0.360600  0.440940  1.0  -0.75
  O  O164  1  0.756000  0.194300  0.373300  1.0  -0.6435
  O  O165  1  0.924900  0.523800  0.606300  1.0  -0.5534
  O  O166  1  0.818600  0.435700  0.727670  1.0  -0.7053
  O  O167  1  0.360600  0.812700  0.059060  1.0  -0.7474
  O  O168  1  0.194300  0.756000  0.126700  1.0  -0.6436
  O  O169  1  0.523800  0.924900  0.893700  1.0  -0.5511
  O  O170  1  0.435700  0.818600  0.772330  1.0  -0.7051
  O  O171  1  0.187300  0.547900  0.059060  1.0  -0.7513
  O  O172  1  0.244000  0.438300  0.126700  1.0  -0.6419
  O  O173  1  0.075100  0.598900  0.893700  1.0  -0.5527
  O  O174  1  0.181400  0.617100  0.772330  1.0  -0.7064
  O  O175  1  0.452100  0.639400  0.059060  1.0  -0.7493
  O  O176  1  0.561700  0.805700  0.126700  1.0  -0.6437
  O  O177  1  0.401100  0.476200  0.893700  1.0  -0.5527
  O  O178  1  0.382900  0.564300  0.772330  1.0  -0.7051
