# generated using pymatgen
data_Co2B15H15C6O7
_symmetry_space_group_name_H-M   'P 1'
_cell_length_a   11.06070000
_cell_length_b   12.80790000
_cell_length_c   12.93600000
_cell_angle_alpha   107.50200000
_cell_angle_beta   105.81000000
_cell_angle_gamma   106.09700000
_symmetry_Int_Tables_number   1
_chemical_formula_structural   Co2B15H15C6O7
_chemical_formula_sum   'Co4 B30 H30 C12 O14'
_cell_volume   1547.42782328
_cell_formula_units_Z   2
loop_
 _symmetry_equiv_pos_site_id
 _symmetry_equiv_pos_as_xyz
  1  'x, y, z'
loop_
 _atom_site_type_symbol
 _atom_site_label
 _atom_site_symmetry_multiplicity
 _atom_site_fract_x
 _atom_site_fract_y
 _atom_site_fract_z
 _atom_site_occupancy
 _atom_site_charge
  Co  Co1  1  0.020670  0.100430  0.613670  1.0  1.1067
  Co  Co2  1  0.734230  0.831850  0.488930  1.0  0.988
  Co  Co3  1  0.979330  0.899570  0.386330  1.0  1.1048
  Co  Co4  1  0.265770  0.168150  0.511070  1.0  0.9862
  B  B5  1  0.855900  0.013900  0.929700  1.0  0.0541
  B  B6  1  0.024100  0.119900  0.966800  1.0  0.0589
  B  B7  1  0.867800  0.958200  0.038900  1.0  0.0415
  B  B8  1  0.962700  0.110300  0.079200  1.0  0.064
  B  B9  1  0.865000  0.873400  0.901600  1.0  0.0553
  B  B10  1  0.333333  0.477400  0.954800  1.0  0.0344
  B  B11  1  0.438000  0.532700  0.884600  1.0  0.0243
  B  B12  1  0.435900  0.529600  0.105200  1.0  0.0335
  B  B13  1  0.462500  0.622500  0.027200  1.0  0.0578
  B  B14  1  0.394400  0.380800  0.009100  1.0  0.0565
  B  B15  1  0.064300  0.505600  0.636000  1.0  0.043
  B  B16  1  0.168800  0.529700  0.553800  1.0  0.028
  B  B17  1  0.934300  0.556400  0.597100  1.0  0.0303
  B  B18  1  0.101800  0.636000  0.608700  1.0  0.0558
  B  B19  1  0.897400  0.403700  0.534900  1.0  0.0321
  B  B20  1  0.144100  0.986100  0.070300  1.0  0.0562
  B  B21  1  0.975900  0.880100  0.033200  1.0  0.0588
  B  B22  1  0.132200  0.041800  0.961100  1.0  0.0401
  B  B23  1  0.037300  0.889700  0.920800  1.0  0.0628
  B  B24  1  0.135000  0.126600  0.098400  1.0  0.0573
  B  B25  1  0.666667  0.522600  0.045200  1.0  0.0333
  B  B26  1  0.562000  0.467300  0.115400  1.0  0.0243
  B  B27  1  0.564100  0.470400  0.894800  1.0  0.032
  B  B28  1  0.537500  0.377500  0.972800  1.0  0.0571
  B  B29  1  0.605600  0.619200  0.990900  1.0  0.0549
  B  B30  1  0.935700  0.494400  0.364000  1.0  0.0422
  B  B31  1  0.831200  0.470300  0.446200  1.0  0.029
  B  B32  1  0.065700  0.443600  0.402900  1.0  0.0281
  B  B33  1  0.898200  0.364000  0.391300  1.0  0.0538
  B  B34  1  0.102600  0.596300  0.465100  1.0  0.0307
  H  H35  1  0.760800  0.022600  0.881700  1.0  0.0039
  H  H36  1  0.039400  0.198700  0.943400  1.0  -0.016
  H  H37  1  0.780800  0.930600  0.066600  1.0  -0.016
  H  H38  1  0.938800  0.182800  0.132000  1.0  -0.0089
  H  H39  1  0.775700  0.790100  0.835200  1.0  -0.0064
  H  H40  1  0.222100  0.460900  0.923500  1.0  -0.0139
  H  H41  1  0.395900  0.552400  0.806900  1.0  -0.0266
  H  H42  1  0.395300  0.551000  0.175900  1.0  -0.0113
  H  H43  1  0.439000  0.704200  0.046800  1.0  -0.0159
  H  H44  1  0.324200  0.301500  0.013200  1.0  0.0137
  H  H45  1  0.107800  0.508300  0.726200  1.0  -0.0065
  H  H46  1  0.280300  0.547900  0.589600  1.0  -0.02
  H  H47  1  0.891300  0.594700  0.661200  1.0  0.0151
  H  H48  1  0.168400  0.726700  0.680100  1.0  -0.0172
  H  H49  1  0.830100  0.338900  0.557600  1.0  -0.0154
  H  H50  1  0.239200  0.977400  0.118300  1.0  0.0046
  H  H51  1  0.960600  0.801300  0.056600  1.0  -0.015
  H  H52  1  0.219200  0.069400  0.933400  1.0  -0.0163
  H  H53  1  0.061200  0.817200  0.868000  1.0  -0.0101
  H  H54  1  0.224300  0.209900  0.164800  1.0  -0.0065
  H  H55  1  0.777900  0.539100  0.076500  1.0  -0.0134
  H  H56  1  0.604100  0.447600  0.193100  1.0  -0.0258
  H  H57  1  0.604700  0.449000  0.824100  1.0  -0.0111
  H  H58  1  0.561000  0.295800  0.953200  1.0  -0.0142
  H  H59  1  0.675800  0.698500  0.986800  1.0  0.0137
  H  H60  1  0.892200  0.491700  0.273800  1.0  -0.0047
  H  H61  1  0.719700  0.452100  0.410400  1.0  -0.0196
  H  H62  1  0.108700  0.405300  0.338800  1.0  0.0143
  H  H63  1  0.831600  0.273300  0.319900  1.0  -0.0171
  H  H64  1  0.169900  0.661100  0.442400  1.0  -0.0153
  C  C65  1  0.930400  0.952100  0.737000  1.0  0.6978
  C  C66  1  0.966700  0.975400  0.867900  1.0  -0.1117
  C  C67  1  0.309300  0.285600  0.765300  1.0  0.7243
  C  C68  1  0.403700  0.393600  0.882900  1.0  -0.1188
  C  C69  1  0.077100  0.293400  0.518500  1.0  0.739
  C  C70  1  0.040300  0.393300  0.508900  1.0  -0.1
  C  C71  1  0.069600  0.047900  0.263000  1.0  0.6978
  C  C72  1  0.033300  0.024600  0.132100  1.0  -0.1112
  C  C73  1  0.690700  0.714400  0.234700  1.0  0.7243
  C  C74  1  0.596300  0.606400  0.117100  1.0  -0.1181
  C  C75  1  0.922900  0.706600  0.481500  1.0  0.7393
  C  C76  1  0.959700  0.606700  0.491100  1.0  -0.0982
  O  O77  1  0.860900  0.965000  0.470500  1.0  -0.7899
  O  O78  1  0.805400  0.890900  0.669400  1.0  -0.6072
  O  O79  1  0.028900  0.998700  0.714000  1.0  -0.5964
  O  O80  1  0.185700  0.243500  0.750500  1.0  -0.6048
  O  O81  1  0.364900  0.253000  0.697100  1.0  -0.6029
  O  O82  1  0.987000  0.211900  0.527700  1.0  -0.6429
  O  O83  1  0.190900  0.297500  0.514500  1.0  -0.6082
  O  O84  1  0.139100  0.035000  0.529500  1.0  -0.7904
  O  O85  1  0.194600  0.109100  0.330600  1.0  -0.6075
  O  O86  1  0.971100  0.001300  0.286000  1.0  -0.5952
  O  O87  1  0.814300  0.756500  0.249500  1.0  -0.6041
  O  O88  1  0.635100  0.747000  0.302900  1.0  -0.6015
  O  O89  1  0.013000  0.788100  0.472300  1.0  -0.6418
  O  O90  1  0.809100  0.702500  0.485500  1.0  -0.6092
