# generated using pymatgen
data_Cd3H8(C6O7)2
_symmetry_space_group_name_H-M   'P 1'
_cell_length_a   10.82000000
_cell_length_b   11.41600000
_cell_length_c   12.43200000
_cell_angle_alpha   87.44000000
_cell_angle_beta   72.45000000
_cell_angle_gamma   70.11000000
_symmetry_Int_Tables_number   1
_chemical_formula_structural   Cd3H8(C6O7)2
_chemical_formula_sum   'Cd6 H16 C24 O28'
_cell_volume   1373.92250690
_cell_formula_units_Z   2
loop_
 _symmetry_equiv_pos_site_id
 _symmetry_equiv_pos_as_xyz
  1  'x, y, z'
loop_
 _atom_site_type_symbol
 _atom_site_label
 _atom_site_symmetry_multiplicity
 _atom_site_fract_x
 _atom_site_fract_y
 _atom_site_fract_z
 _atom_site_occupancy
 _atom_site_charge
  Cd  Cd1  1  0.893030  0.046480  0.132710  1.0  1.0591
  Cd  Cd2  1  0.234660  0.928720  0.109090  1.0  1.1743
  Cd  Cd3  1  0.605440  0.863610  0.020830  1.0  1.1559
  Cd  Cd4  1  0.106970  0.953520  0.867290  1.0  1.0759
  Cd  Cd5  1  0.765340  0.071280  0.890910  1.0  1.1795
  Cd  Cd6  1  0.394560  0.136390  0.979170  1.0  1.1571
  H  H7  1  0.865700  0.068600  0.515500  1.0  0.1244
  H  H8  1  0.843000  0.297500  0.922100  1.0  0.112
  H  H9  1  0.399300  0.511500  0.098400  1.0  0.1173
  H  H10  1  0.866000  0.307800  0.102800  1.0  0.1476
  H  H11  1  0.945900  0.384100  0.019600  1.0  0.1583
  H  H12  1  0.301800  0.048100  0.282900  1.0  0.1064
  H  H13  1  0.442100  0.145000  0.316900  1.0  0.1589
  H  H14  1  0.392800  0.203800  0.214500  1.0  0.1574
  H  H15  1  0.134300  0.931400  0.484500  1.0  0.1243
  H  H16  1  0.157000  0.702500  0.077900  1.0  0.1133
  H  H17  1  0.600700  0.488500  0.901600  1.0  0.1172
  H  H18  1  0.134000  0.692200  0.897200  1.0  0.146
  H  H19  1  0.054100  0.615900  0.980400  1.0  0.1597
  H  H20  1  0.698200  0.951900  0.717100  1.0  0.1083
  H  H21  1  0.557900  0.855000  0.683100  1.0  0.1595
  H  H22  1  0.607200  0.796200  0.785500  1.0  0.1563
  C  C23  1  0.955900  0.023500  0.473500  1.0  -0.162
  C  C24  1  0.074500  0.222100  0.057500  1.0  0.7857
  C  C25  1  0.926900  0.242100  0.937100  1.0  0.1618
  C  C26  1  0.487400  0.908800  0.276800  1.0  0.6343
  C  C27  1  0.457800  0.669200  0.048400  1.0  0.7282
  C  C28  1  0.459900  0.537700  0.040600  1.0  -0.1627
  C  C29  1  0.989500  0.010200  0.347900  1.0  0.7236
  C  C30  1  0.599700  0.106300  0.168600  1.0  0.7758
  C  C31  1  0.943600  0.300900  0.036100  1.0  -0.3951
  C  C32  1  0.396700  0.024300  0.232100  1.0  0.1667
  C  C33  1  0.451100  0.128900  0.238500  1.0  -0.3896
  C  C34  1  0.049300  0.236400  0.834300  1.0  0.5903
  C  C35  1  0.044100  0.976500  0.526500  1.0  -0.1618
  C  C36  1  0.925500  0.777900  0.942500  1.0  0.7841
  C  C37  1  0.073100  0.757900  0.062900  1.0  0.1634
  C  C38  1  0.512600  0.091200  0.723200  1.0  0.6076
  C  C39  1  0.542200  0.330800  0.951600  1.0  0.7275
  C  C40  1  0.540100  0.462300  0.959400  1.0  -0.1615
  C  C41  1  0.010500  0.989800  0.652100  1.0  0.7246
  C  C42  1  0.400300  0.893700  0.831400  1.0  0.7763
  C  C43  1  0.056400  0.699100  0.963900  1.0  -0.3921
  C  C44  1  0.603300  0.975700  0.767900  1.0  0.1691
  C  C45  1  0.548900  0.871100  0.761500  1.0  -0.3834
  C  C46  1  0.950700  0.763600  0.165700  1.0  0.5923
  O  O47  1  0.077500  0.121400  0.105000  1.0  -0.6512
  O  O48  1  0.654900  0.039100  0.076800  1.0  -0.7281
  O  O49  1  0.583400  0.826000  0.206000  1.0  -0.5127
  O  O50  1  0.353600  0.734300  0.121100  1.0  -0.5857
  O  O51  1  0.474400  0.901600  0.377600  1.0  -0.3283
  O  O52  1  0.112800  0.946500  0.291400  1.0  -0.6279
  O  O53  1  0.892600  0.065500  0.312000  1.0  -0.5183
  O  O54  1  0.178500  0.256900  0.025300  1.0  -0.5787
  O  O55  1  0.054300  0.333500  0.787800  1.0  -0.329
  O  O56  1  0.913400  0.123100  0.957700  1.0  -0.6943
  O  O57  1  0.395700  0.001600  0.120900  1.0  -0.6999
  O  O58  1  0.146700  0.133100  0.800800  1.0  -0.5305
  O  O59  1  0.548800  0.705400  0.984800  1.0  -0.603
  O  O60  1  0.666667  0.155300  0.206900  1.0  -0.5479
  O  O61  1  0.922500  0.878600  0.895000  1.0  -0.6507
  O  O62  1  0.345100  0.960900  0.923200  1.0  -0.7274
  O  O63  1  0.416600  0.174000  0.794000  1.0  -0.5154
  O  O64  1  0.646400  0.265700  0.878900  1.0  -0.5857
  O  O65  1  0.525600  0.098400  0.622400  1.0  -0.3282
  O  O66  1  0.887200  0.053500  0.708600  1.0  -0.6263
  O  O67  1  0.107400  0.934500  0.688000  1.0  -0.5188
  O  O68  1  0.821500  0.743100  0.974700  1.0  -0.5782
  O  O69  1  0.945700  0.666500  0.212200  1.0  -0.3261
  O  O70  1  0.086600  0.876900  0.042300  1.0  -0.6947
  O  O71  1  0.604300  0.998400  0.879100  1.0  -0.6992
  O  O72  1  0.853300  0.866900  0.199200  1.0  -0.5317
  O  O73  1  0.451200  0.294600  0.015200  1.0  -0.6041
  O  O74  1  0.333333  0.844700  0.793100  1.0  -0.5499
