# generated using pymatgen
data_LaBiC6(SN)6
_symmetry_space_group_name_H-M   'P 1'
_cell_length_a   8.25080000
_cell_length_b   8.25080000
_cell_length_c   18.74500000
_cell_angle_alpha   90.00000000
_cell_angle_beta   90.00000000
_cell_angle_gamma   120.00000000
_symmetry_Int_Tables_number   1
_chemical_formula_structural   LaBiC6(SN)6
_chemical_formula_sum   'La2 Bi2 C12 S12 N12'
_cell_volume   1105.11683859
_cell_formula_units_Z   2
loop_
 _symmetry_equiv_pos_site_id
 _symmetry_equiv_pos_as_xyz
  1  'x, y, z'
loop_
 _atom_site_type_symbol
 _atom_site_label
 _atom_site_symmetry_multiplicity
 _atom_site_fract_x
 _atom_site_fract_y
 _atom_site_fract_z
 _atom_site_occupancy
 _atom_site_charge
  La  La1  1  0.333333  0.666667  0.250000  1.0  2.159
  La  La2  1  0.666667  0.333333  0.750000  1.0  2.159
  Bi  Bi3  1  0.000000  0.000000  0.500000  1.0  0.8607
  Bi  Bi4  1  0.000000  0.000000  0.000000  1.0  0.8607
  C  C5  1  0.330200  0.323600  0.380500  1.0  0.3016
  C  C6  1  0.676400  0.006600  0.380500  1.0  0.3017
  C  C7  1  0.993400  0.669800  0.380500  1.0  0.3031
  C  C8  1  0.669800  0.676400  0.880500  1.0  0.3019
  C  C9  1  0.323600  0.993400  0.880500  1.0  0.3018
  C  C10  1  0.006600  0.330200  0.880500  1.0  0.302
  C  C11  1  0.669800  0.676400  0.619500  1.0  0.303
  C  C12  1  0.323600  0.993400  0.619500  1.0  0.3029
  C  C13  1  0.006600  0.330200  0.619500  1.0  0.3028
  C  C14  1  0.330200  0.323600  0.119500  1.0  0.3026
  C  C15  1  0.676400  0.006600  0.119500  1.0  0.3026
  C  C16  1  0.993400  0.669800  0.119500  1.0  0.304
  S  S17  1  0.345400  0.163000  0.428500  1.0  -0.2614
  S  S18  1  0.837000  0.182400  0.428500  1.0  -0.262
  S  S19  1  0.817600  0.654600  0.428500  1.0  -0.2619
  S  S20  1  0.654600  0.837000  0.928500  1.0  -0.261
  S  S21  1  0.163000  0.817600  0.928500  1.0  -0.2625
  S  S22  1  0.182400  0.345400  0.928500  1.0  -0.2611
  S  S23  1  0.654600  0.837000  0.571500  1.0  -0.2616
  S  S24  1  0.163000  0.817600  0.571500  1.0  -0.263
  S  S25  1  0.182400  0.345400  0.571500  1.0  -0.2615
  S  S26  1  0.345400  0.163000  0.071500  1.0  -0.2617
  S  S27  1  0.837000  0.182400  0.071500  1.0  -0.2626
  S  S28  1  0.817600  0.654600  0.071500  1.0  -0.2623
  N  N29  1  0.325700  0.433100  0.345200  1.0  -0.5444
  N  N30  1  0.566900  0.892600  0.345200  1.0  -0.5451
  N  N31  1  0.107400  0.674300  0.345200  1.0  -0.5434
  N  N32  1  0.674300  0.566900  0.845200  1.0  -0.5443
  N  N33  1  0.433100  0.107400  0.845200  1.0  -0.5451
  N  N34  1  0.892600  0.325700  0.845200  1.0  -0.5429
  N  N35  1  0.674300  0.566900  0.654800  1.0  -0.543
  N  N36  1  0.433100  0.107400  0.654800  1.0  -0.5445
  N  N37  1  0.892600  0.325700  0.654800  1.0  -0.5425
  N  N38  1  0.325700  0.433100  0.154800  1.0  -0.5442
  N  N39  1  0.566900  0.892600  0.154800  1.0  -0.544
  N  N40  1  0.107400  0.674300  0.154800  1.0  -0.543
