# generated using pymatgen
data_NdBiC6(SN)6
_symmetry_space_group_name_H-M   'P 1'
_cell_length_a   8.20000000
_cell_length_b   8.20000000
_cell_length_c   18.60600000
_cell_angle_alpha   90.00000000
_cell_angle_beta   90.00000000
_cell_angle_gamma   120.00000000
_symmetry_Int_Tables_number   1
_chemical_formula_structural   NdBiC6(SN)6
_chemical_formula_sum   'Nd2 Bi2 C12 S12 N12'
_cell_volume   1083.45618489
_cell_formula_units_Z   2
loop_
 _symmetry_equiv_pos_site_id
 _symmetry_equiv_pos_as_xyz
  1  'x, y, z'
loop_
 _atom_site_type_symbol
 _atom_site_label
 _atom_site_symmetry_multiplicity
 _atom_site_fract_x
 _atom_site_fract_y
 _atom_site_fract_z
 _atom_site_occupancy
 _atom_site_charge
  Nd  Nd1  1  0.333333  0.666667  0.250000  1.0  2.2027
  Nd  Nd2  1  0.666667  0.333333  0.750000  1.0  2.2027
  Bi  Bi3  1  0.000000  0.000000  0.500000  1.0  0.8735
  Bi  Bi4  1  0.000000  0.000000  0.000000  1.0  0.8735
  C  C5  1  0.331000  0.327200  0.379300  1.0  0.3028
  C  C6  1  0.672800  0.003800  0.379300  1.0  0.3028
  C  C7  1  0.996200  0.669000  0.379300  1.0  0.3034
  C  C8  1  0.669000  0.672800  0.879300  1.0  0.3024
  C  C9  1  0.327200  0.996200  0.879300  1.0  0.3029
  C  C10  1  0.003800  0.331000  0.879300  1.0  0.3029
  C  C11  1  0.669000  0.672800  0.620700  1.0  0.3023
  C  C12  1  0.327200  0.996200  0.620700  1.0  0.3029
  C  C13  1  0.003800  0.331000  0.620700  1.0  0.3023
  C  C14  1  0.331000  0.327200  0.120700  1.0  0.3024
  C  C15  1  0.672800  0.003800  0.120700  1.0  0.3023
  C  C16  1  0.996200  0.669000  0.120700  1.0  0.3032
  S  S17  1  0.347800  0.168400  0.428400  1.0  -0.2579
  S  S18  1  0.831600  0.179400  0.428400  1.0  -0.2586
  S  S19  1  0.820600  0.652200  0.428400  1.0  -0.2585
  S  S20  1  0.652200  0.831600  0.928400  1.0  -0.2577
  S  S21  1  0.168400  0.820600  0.928400  1.0  -0.2594
  S  S22  1  0.179400  0.347800  0.928400  1.0  -0.2577
  S  S23  1  0.652200  0.831600  0.571600  1.0  -0.258
  S  S24  1  0.168400  0.820600  0.571600  1.0  -0.2598
  S  S25  1  0.179400  0.347800  0.571600  1.0  -0.258
  S  S26  1  0.347800  0.168400  0.071600  1.0  -0.258
  S  S27  1  0.831600  0.179400  0.071600  1.0  -0.259
  S  S28  1  0.820600  0.652200  0.071600  1.0  -0.2588
  N  N29  1  0.325900  0.438800  0.343700  1.0  -0.5564
  N  N30  1  0.561200  0.887100  0.343700  1.0  -0.5565
  N  N31  1  0.112900  0.674100  0.343700  1.0  -0.5565
  N  N32  1  0.674100  0.561200  0.843700  1.0  -0.557
  N  N33  1  0.438800  0.112900  0.843700  1.0  -0.5571
  N  N34  1  0.887100  0.325900  0.843700  1.0  -0.5555
  N  N35  1  0.674100  0.561200  0.656300  1.0  -0.5577
  N  N36  1  0.438800  0.112900  0.656300  1.0  -0.5582
  N  N37  1  0.887100  0.325900  0.656300  1.0  -0.5563
  N  N38  1  0.325900  0.438800  0.156300  1.0  -0.5577
  N  N39  1  0.561200  0.887100  0.156300  1.0  -0.5573
  N  N40  1  0.112900  0.674100  0.156300  1.0  -0.5574
