# generated using pymatgen
data_Zr2P3O12F
_symmetry_space_group_name_H-M   'P 1'
_cell_length_a   11.50600000
_cell_length_b   6.63800000
_cell_length_c   17.14800000
_cell_angle_alpha   90.00000000
_cell_angle_beta   96.05000000
_cell_angle_gamma   90.00000000
_symmetry_Int_Tables_number   1
_chemical_formula_structural   Zr2P3O12F
_chemical_formula_sum   'Zr8 P12 O48 F4'
_cell_volume   1302.41515352
_cell_formula_units_Z   4
loop_
 _symmetry_equiv_pos_site_id
 _symmetry_equiv_pos_as_xyz
  1  'x, y, z'
loop_
 _atom_site_type_symbol
 _atom_site_label
 _atom_site_symmetry_multiplicity
 _atom_site_fract_x
 _atom_site_fract_y
 _atom_site_fract_z
 _atom_site_occupancy
 _atom_site_charge
  Zr  Zr1  1  0.402120  0.071490  0.137980  1.0  2.112
  Zr  Zr2  1  0.147520  0.579480  0.277620  1.0  2.1377
  Zr  Zr3  1  0.597880  0.571490  0.362020  1.0  2.109
  Zr  Zr4  1  0.852480  0.079480  0.222380  1.0  2.1371
  Zr  Zr5  1  0.597880  0.928510  0.862020  1.0  2.1088
  Zr  Zr6  1  0.852480  0.420520  0.722380  1.0  2.137
  Zr  Zr7  1  0.402120  0.428510  0.637980  1.0  2.1122
  Zr  Zr8  1  0.147520  0.920520  0.777620  1.0  2.1377
  P  P9  1  0.140880  0.074400  0.226810  1.0  1.7504
  P  P10  1  0.413070  0.570010  0.190470  1.0  1.845
  P  P11  1  0.669790  0.097400  0.049840  1.0  1.7762
  P  P12  1  0.859120  0.574400  0.273190  1.0  1.7496
  P  P13  1  0.586930  0.070010  0.309530  1.0  1.8432
  P  P14  1  0.330210  0.597400  0.450160  1.0  1.7759
  P  P15  1  0.859120  0.925600  0.773190  1.0  1.7496
  P  P16  1  0.586930  0.429990  0.809530  1.0  1.8434
  P  P17  1  0.330210  0.902600  0.950160  1.0  1.7748
  P  P18  1  0.140880  0.425600  0.726810  1.0  1.7504
  P  P19  1  0.413070  0.929990  0.690470  1.0  1.8449
  P  P20  1  0.669790  0.402600  0.549840  1.0  1.7751
  O  O21  1  0.155900  0.266700  0.276930  1.0  -0.8208
  O  O22  1  0.018200  0.072900  0.181500  1.0  -0.7069
  O  O23  1  0.234100  0.066900  0.168700  1.0  -0.813
  O  O24  1  0.154500  0.890700  0.282800  1.0  -0.7977
  O  O25  1  0.412200  0.754100  0.135620  1.0  -0.7714
  O  O26  1  0.525400  0.564400  0.246600  1.0  -0.8092
  O  O27  1  0.308300  0.583300  0.237900  1.0  -0.8176
  O  O28  1  0.403500  0.379200  0.138100  1.0  -0.8225
  O  O29  1  0.563500  0.073800  0.094100  1.0  -0.8367
  O  O30  1  0.668000  0.952600  0.980300  1.0  -0.7593
  O  O31  1  0.782400  0.069600  0.103600  1.0  -0.7619
  O  O32  1  0.673900  0.320700  0.018100  1.0  -0.4896
  O  O33  1  0.844100  0.766700  0.223070  1.0  -0.8199
  O  O34  1  0.981800  0.572900  0.318500  1.0  -0.7064
  O  O35  1  0.765900  0.566900  0.331300  1.0  -0.8134
  O  O36  1  0.845500  0.390700  0.217200  1.0  -0.795
  O  O37  1  0.587800  0.254100  0.364380  1.0  -0.7721
  O  O38  1  0.474600  0.064400  0.253400  1.0  -0.809
  O  O39  1  0.691700  0.083300  0.262100  1.0  -0.8172
  O  O40  1  0.596500  0.879200  0.361900  1.0  -0.822
  O  O41  1  0.436500  0.573800  0.405900  1.0  -0.8358
  O  O42  1  0.332000  0.452600  0.519700  1.0  -0.7604
  O  O43  1  0.217600  0.569600  0.396400  1.0  -0.7606
  O  O44  1  0.326100  0.820700  0.481900  1.0  -0.4905
  O  O45  1  0.844100  0.733300  0.723070  1.0  -0.8202
  O  O46  1  0.981800  0.927100  0.818500  1.0  -0.7063
  O  O47  1  0.765900  0.933100  0.831300  1.0  -0.8133
  O  O48  1  0.845500  0.109300  0.717200  1.0  -0.7951
  O  O49  1  0.587800  0.245900  0.864380  1.0  -0.7723
  O  O50  1  0.474600  0.435600  0.753400  1.0  -0.809
  O  O51  1  0.691700  0.416700  0.762100  1.0  -0.8171
  O  O52  1  0.596500  0.620800  0.861900  1.0  -0.8208
  O  O53  1  0.436500  0.926200  0.905900  1.0  -0.8358
  O  O54  1  0.332000  0.047400  0.019700  1.0  -0.7606
  O  O55  1  0.217600  0.930400  0.896400  1.0  -0.7605
  O  O56  1  0.326100  0.679300  0.981900  1.0  -0.4906
  O  O57  1  0.155900  0.233300  0.776930  1.0  -0.8209
  O  O58  1  0.018200  0.427100  0.681500  1.0  -0.7069
  O  O59  1  0.234100  0.433100  0.668700  1.0  -0.8128
  O  O60  1  0.154500  0.609300  0.782800  1.0  -0.7971
  O  O61  1  0.412200  0.745900  0.635620  1.0  -0.7717
  O  O62  1  0.525400  0.935600  0.746600  1.0  -0.8093
  O  O63  1  0.308300  0.916700  0.737900  1.0  -0.8175
  O  O64  1  0.403500  0.120800  0.638100  1.0  -0.8225
  O  O65  1  0.563500  0.426200  0.594100  1.0  -0.8369
  O  O66  1  0.668000  0.547400  0.480300  1.0  -0.7595
  O  O67  1  0.782400  0.430400  0.603600  1.0  -0.7618
  O  O68  1  0.673900  0.179300  0.518100  1.0  -0.4909
  F  F69  1  0.070600  0.586200  0.168500  1.0  -0.414
  F  F70  1  0.929400  0.086200  0.331500  1.0  -0.4118
  F  F71  1  0.929400  0.413800  0.831500  1.0  -0.4118
  F  F72  1  0.070600  0.913800  0.668500  1.0  -0.4138
