# generated using pymatgen
data_Na8H32C33(NO6)4
_symmetry_space_group_name_H-M   'P 1'
_cell_length_a   24.04480000
_cell_length_b   5.24320000
_cell_length_c   16.98330000
_cell_angle_alpha   90.00000000
_cell_angle_beta   103.36600000
_cell_angle_gamma   90.00000000
_symmetry_Int_Tables_number   1
_chemical_formula_structural   Na8H32C33(NO6)4
_chemical_formula_sum   'Na16 H64 C66 N8 O48'
_cell_volume   2083.11757460
_cell_formula_units_Z   2
loop_
 _symmetry_equiv_pos_site_id
 _symmetry_equiv_pos_as_xyz
  1  'x, y, z'
loop_
 _atom_site_type_symbol
 _atom_site_label
 _atom_site_symmetry_multiplicity
 _atom_site_fract_x
 _atom_site_fract_y
 _atom_site_fract_z
 _atom_site_occupancy
 _atom_site_charge
  Na  Na1  1  0.046190  0.968900  0.035900  1.0  0.9526
  Na  Na2  1  0.918800  0.009300  0.091500  1.0  0.9624
  Na  Na3  1  0.453030  0.426300  0.959200  1.0  0.9567
  Na  Na4  1  0.806170  0.433700  0.966100  1.0  0.9518
  Na  Na5  1  0.583300  0.466900  0.916100  1.0  0.9585
  Na  Na6  1  0.694300  0.915500  0.034400  1.0  0.979
  Na  Na7  1  0.837000  0.104700  0.233900  1.0  0.9827
  Na  Na8  1  0.664800  0.534200  0.769500  1.0  0.8667
  Na  Na9  1  0.953810  0.468900  0.964100  1.0  0.9526
  Na  Na10  1  0.081200  0.509300  0.908500  1.0  0.9612
  Na  Na11  1  0.546970  0.926300  0.040800  1.0  0.9575
  Na  Na12  1  0.193830  0.933700  0.033900  1.0  0.9532
  Na  Na13  1  0.416700  0.966900  0.083900  1.0  0.9576
  Na  Na14  1  0.305700  0.415500  0.965600  1.0  0.9801
  Na  Na15  1  0.163000  0.604700  0.766100  1.0  0.9836
  Na  Na16  1  0.335200  0.034200  0.230500  1.0  0.8591
  H  H17  1  0.792000  0.629800  0.114900  1.0  0.2477
  H  H18  1  0.741900  0.427800  0.085600  1.0  0.2926
  H  H19  1  0.711700  0.117600  0.887500  1.0  0.2791
  H  H20  1  0.763600  0.928900  0.920600  1.0  0.2625
  H  H21  1  0.955800  0.444600  0.349600  1.0  0.2618
  H  H22  1  0.549500  0.889700  0.655500  1.0  0.271
  H  H23  1  0.673300  0.290800  0.329600  1.0  0.2794
  H  H24  1  0.847700  0.912700  0.683900  1.0  0.285
  H  H25  1  0.963100  0.809100  0.237000  1.0  0.0977
  H  H26  1  0.617900  0.511800  0.193200  1.0  0.1158
  H  H27  1  0.683300  0.534800  0.188900  1.0  0.1257
  H  H28  1  0.540800  0.257400  0.768700  1.0  0.0933
  H  H29  1  0.038500  0.522000  0.255000  1.0  0.105
  H  H30  1  0.996200  0.281300  0.239400  1.0  0.1123
  H  H31  1  0.633300  0.039100  0.184500  1.0  0.0892
  H  H32  1  0.510500  0.726700  0.766700  1.0  0.1087
  H  H33  1  0.466600  0.961400  0.748300  1.0  0.1015
  H  H34  1  0.536800  0.848600  0.530000  1.0  0.1024
  H  H35  1  0.883900  0.067800  0.815000  1.0  0.091
  H  H36  1  0.818800  0.087700  0.820100  1.0  0.098
  H  H37  1  0.865100  0.595200  0.815800  1.0  0.0802
  H  H38  1  0.863900  0.035600  0.439400  1.0  0.1079
  H  H39  1  0.963800  0.406600  0.473500  1.0  0.107
  H  H40  1  0.552000  0.787900  0.401200  1.0  0.1028
  H  H41  1  0.646800  0.422800  0.427300  1.0  0.1179
  H  H42  1  0.631400  0.492600  0.553500  1.0  0.1181
  H  H43  1  0.938200  0.326500  0.594200  1.0  0.1102
  H  H44  1  0.838600  0.962000  0.563000  1.0  0.1238
  H  H45  1  0.717100  0.211900  0.657100  1.0  0.2107
  H  H46  1  0.701100  0.911600  0.759000  1.0  0.099
  H  H47  1  0.649800  0.949800  0.681100  1.0  0.1065
  H  H48  1  0.711500  0.863500  0.670400  1.0  0.1238
  H  H49  1  0.208000  0.129800  0.885100  1.0  0.2481
  H  H50  1  0.258100  0.927800  0.914400  1.0  0.2934
  H  H51  1  0.288300  0.617600  0.112500  1.0  0.2801
  H  H52  1  0.236400  0.428900  0.079400  1.0  0.2609
  H  H53  1  0.044200  0.944600  0.650400  1.0  0.2618
  H  H54  1  0.450500  0.389700  0.344500  1.0  0.2717
  H  H55  1  0.326700  0.790800  0.670400  1.0  0.2809
  H  H56  1  0.152300  0.412700  0.316100  1.0  0.2845
  H  H57  1  0.036900  0.309100  0.763000  1.0  0.098
  H  H58  1  0.382100  0.011800  0.806800  1.0  0.1162
  H  H59  1  0.316700  0.034800  0.811100  1.0  0.1271
  H  H60  1  0.459200  0.757400  0.231300  1.0  0.0932
  H  H61  1  0.961500  0.022000  0.745000  1.0  0.105
  H  H62  1  0.003800  0.781300  0.760600  1.0  0.1125
  H  H63  1  0.366700  0.539100  0.815500  1.0  0.0899
  H  H64  1  0.489500  0.226700  0.233300  1.0  0.1088
  H  H65  1  0.533400  0.461400  0.251700  1.0  0.1017
  H  H66  1  0.463200  0.348600  0.470000  1.0  0.1021
  H  H67  1  0.116100  0.567800  0.185000  1.0  0.0911
  H  H68  1  0.181200  0.587700  0.179900  1.0  0.0968
  H  H69  1  0.134900  0.095200  0.184200  1.0  0.0797
  H  H70  1  0.136100  0.535600  0.560600  1.0  0.1071
  H  H71  1  0.036200  0.906600  0.526500  1.0  0.1067
  H  H72  1  0.448000  0.287900  0.598800  1.0  0.1033
  H  H73  1  0.353200  0.922800  0.572700  1.0  0.1175
  H  H74  1  0.368600  0.992600  0.446500  1.0  0.1184
  H  H75  1  0.061800  0.826500  0.405800  1.0  0.11
  H  H76  1  0.161400  0.462000  0.437000  1.0  0.1226
  H  H77  1  0.282900  0.711900  0.342900  1.0  0.2085
  H  H78  1  0.298900  0.411600  0.241000  1.0  0.0977
  H  H79  1  0.350200  0.449800  0.318900  1.0  0.1076
  H  H80  1  0.288500  0.363500  0.329600  1.0  0.125
  C  C81  1  0.871300  0.962000  0.925100  1.0  0.7046
  C  C82  1  0.998500  0.476000  0.133200  1.0  0.7327
  C  C83  1  0.630900  0.423000  0.080500  1.0  0.6894
  C  C84  1  0.505300  0.926000  0.871500  1.0  0.7215
  C  C85  1  0.574500  0.232000  0.639000  1.0  0.571
  C  C86  1  0.952700  0.627000  0.243100  1.0  0.0526
  C  C87  1  0.928400  0.786000  0.365500  1.0  0.5376
  C  C88  1  0.582100  0.173000  0.556000  1.0  -0.0474
  C  C89  1  0.648600  0.428000  0.172700  1.0  -0.3252
  C  C90  1  0.551400  0.075000  0.762300  1.0  0.06
  C  C91  1  0.000900  0.460000  0.223800  1.0  -0.277
  C  C92  1  0.661200  0.166000  0.215200  1.0  0.0656
  C  C93  1  0.504300  0.906000  0.780800  1.0  -0.2788
  C  C94  1  0.608400  0.022000  0.822200  1.0  0.6261
  C  C95  1  0.916500  0.724000  0.444600  1.0  -0.0625
  C  C96  1  0.559800  0.967000  0.509400  1.0  -0.1134
  C  C97  1  0.853300  0.978000  0.834000  1.0  -0.2919
  C  C98  1  0.615000  0.033000  0.321900  1.0  0.5131
  C  C99  1  0.840100  0.733000  0.786100  1.0  0.0317
  C  C100  1  0.722300  0.074000  0.214100  1.0  0.6262
  C  C101  1  0.605500  0.087000  0.404700  1.0  -0.0502
  C  C102  1  0.879000  0.892000  0.471500  1.0  -0.0697
  C  C103  1  0.886000  0.638000  0.589500  1.0  -0.1009
  C  C104  1  0.895500  0.578000  0.184000  1.0  0.6653
  C  C105  1  0.938100  0.519000  0.491200  1.0  -0.1138
  C  C106  1  0.569900  0.927000  0.433400  1.0  -0.1208
  C  C107  1  0.625400  0.301000  0.449500  1.0  -0.0955
  C  C108  1  0.615700  0.346000  0.523600  1.0  -0.1743
  C  C109  1  0.923200  0.471000  0.562800  1.0  -0.0814
  C  C110  1  0.863700  0.849000  0.544500  1.0  -0.0703
  C  C111  1  0.869600  0.572000  0.668800  1.0  0.5704
  C  C112  1  0.775900  0.660000  0.781500  1.0  0.1569
  C  C113  1  0.691100  0.968000  0.702000  1.0  -0.0324
  C  C114  1  0.128700  0.462000  0.074900  1.0  0.7041
  C  C115  1  0.001500  0.976000  0.866800  1.0  0.7323
  C  C116  1  0.369100  0.923000  0.919500  1.0  0.6879
  C  C117  1  0.494700  0.426000  0.128500  1.0  0.7237
  C  C118  1  0.425500  0.732000  0.361000  1.0  0.5707
  C  C119  1  0.047300  0.127000  0.756900  1.0  0.053
  C  C120  1  0.071600  0.286000  0.634500  1.0  0.5389
  C  C121  1  0.417900  0.673000  0.444000  1.0  -0.0458
  C  C122  1  0.351400  0.928000  0.827300  1.0  -0.3259
  C  C123  1  0.448600  0.575000  0.237700  1.0  0.0584
  C  C124  1  0.999100  0.960000  0.776200  1.0  -0.2771
  C  C125  1  0.338800  0.666000  0.784800  1.0  0.0647
  C  C126  1  0.495700  0.406000  0.219200  1.0  -0.2803
  C  C127  1  0.391600  0.522000  0.177800  1.0  0.6273
  C  C128  1  0.083500  0.224000  0.555400  1.0  -0.0626
  C  C129  1  0.440200  0.467000  0.490600  1.0  -0.1149
  C  C130  1  0.146700  0.478000  0.166000  1.0  -0.2907
  C  C131  1  0.385000  0.533000  0.678100  1.0  0.5122
  C  C132  1  0.159900  0.233000  0.213900  1.0  0.0309
  C  C133  1  0.277700  0.574000  0.785900  1.0  0.6246
  C  C134  1  0.394500  0.587000  0.595300  1.0  -0.0497
  C  C135  1  0.121000  0.392000  0.528500  1.0  -0.068
  C  C136  1  0.114000  0.138000  0.410500  1.0  -0.1013
  C  C137  1  0.104500  0.078000  0.816000  1.0  0.6652
  C  C138  1  0.061900  0.019000  0.508800  1.0  -0.1114
  C  C139  1  0.430100  0.427000  0.566600  1.0  -0.1219
  C  C140  1  0.374600  0.801000  0.550500  1.0  -0.0952
  C  C141  1  0.384300  0.846000  0.476400  1.0  -0.1727
  C  C142  1  0.076800  0.971000  0.437200  1.0  -0.0805
  C  C143  1  0.136300  0.349000  0.455500  1.0  -0.072
  C  C144  1  0.130400  0.072000  0.331200  1.0  0.57
  C  C145  1  0.224100  0.160000  0.218500  1.0  0.1549
  C  C146  1  0.308900  0.468000  0.298000  1.0  -0.0335
  N  N147  1  0.947100  0.592000  0.325400  1.0  -0.3833
  N  N148  1  0.557300  0.039000  0.679200  1.0  -0.4504
  N  N149  1  0.652900  0.181000  0.295800  1.0  -0.3903
  N  N150  1  0.852200  0.762000  0.707100  1.0  -0.4824
  N  N151  1  0.052900  0.092000  0.674600  1.0  -0.3827
  N  N152  1  0.442700  0.539000  0.320800  1.0  -0.4503
  N  N153  1  0.347100  0.681000  0.704200  1.0  -0.3883
  N  N154  1  0.147800  0.262000  0.292900  1.0  -0.4821
  O  O155  1  0.881700  0.170600  0.962500  1.0  -0.7804
  O  O156  1  0.501000  0.731500  0.909900  1.0  -0.736
  O  O157  1  0.875400  0.750100  0.959800  1.0  -0.7386
  O  O158  1  0.622200  0.639100  0.047200  1.0  -0.7721
  O  O159  1  0.861900  0.759200  0.162500  1.0  -0.6798
  O  O160  1  0.990900  0.691600  0.100800  1.0  -0.7537
  O  O161  1  0.761700  0.575300  0.067900  1.0  -0.8543
  O  O162  1  0.639200  0.219000  0.845700  1.0  -0.6936
  O  O163  1  0.623400  0.218400  0.043300  1.0  -0.7571
  O  O164  1  0.003200  0.274400  0.096100  1.0  -0.7701
  O  O165  1  0.885600  0.349500  0.158700  1.0  -0.6666
  O  O166  1  0.741600  0.072600  0.936100  1.0  -0.8419
  O  O167  1  0.511700  0.149300  0.901200  1.0  -0.7719
  O  O168  1  0.741700  0.128100  0.153200  1.0  -0.6559
  O  O169  1  0.580700  0.452200  0.665100  1.0  -0.6108
  O  O170  1  0.761000  0.624800  0.844000  1.0  -0.6338
  O  O171  1  0.922100  0.004100  0.337500  1.0  -0.6154
  O  O172  1  0.619900  0.801100  0.844900  1.0  -0.6329
  O  O173  1  0.749200  0.937000  0.272100  1.0  -0.6658
  O  O174  1  0.590200  0.858000  0.281100  1.0  -0.519
  O  O175  1  0.871100  0.348000  0.693700  1.0  -0.5704
  O  O176  1  0.741200  0.693000  0.709200  1.0  -0.2965
  O  O177  1  0.704500  0.189000  0.698700  1.0  -0.377
  O  O178  1  0.759100  0.445000  0.734000  1.0  -0.3586
  O  O179  1  0.118300  0.670600  0.037500  1.0  -0.7803
  O  O180  1  0.499000  0.231500  0.090100  1.0  -0.7368
  O  O181  1  0.124600  0.250100  0.040200  1.0  -0.7388
  O  O182  1  0.377800  0.139100  0.952800  1.0  -0.772
  O  O183  1  0.138100  0.259200  0.837500  1.0  -0.6778
  O  O184  1  0.009100  0.191600  0.899200  1.0  -0.7523
  O  O185  1  0.238300  0.075300  0.932100  1.0  -0.8523
  O  O186  1  0.360800  0.719000  0.154300  1.0  -0.6941
  O  O187  1  0.376600  0.718400  0.956700  1.0  -0.7567
  O  O188  1  0.996800  0.774400  0.903900  1.0  -0.7704
  O  O189  1  0.114400  0.849500  0.841300  1.0  -0.665
  O  O190  1  0.258400  0.572600  0.063900  1.0  -0.8396
  O  O191  1  0.488300  0.649300  0.098800  1.0  -0.771
  O  O192  1  0.258300  0.628100  0.846800  1.0  -0.6557
  O  O193  1  0.419300  0.952200  0.334900  1.0  -0.6105
  O  O194  1  0.239000  0.124800  0.156000  1.0  -0.6355
  O  O195  1  0.077900  0.504100  0.662500  1.0  -0.6149
  O  O196  1  0.380100  0.301100  0.155100  1.0  -0.6324
  O  O197  1  0.250800  0.437000  0.727900  1.0  -0.6648
  O  O198  1  0.409800  0.358000  0.718900  1.0  -0.5193
  O  O199  1  0.128900  0.848000  0.306300  1.0  -0.5707
  O  O200  1  0.258800  0.193000  0.290800  1.0  -0.2992
  O  O201  1  0.295500  0.689000  0.301300  1.0  -0.375
  O  O202  1  0.240900  0.945000  0.266000  1.0  -0.3586
