# generated using pymatgen
data_Cu2Mo(CN)8
_symmetry_space_group_name_H-M   'P 1'
_cell_length_a   11.86800000
_cell_length_b   14.93100000
_cell_length_c   17.74100000
_cell_angle_alpha   90.00000000
_cell_angle_beta   90.00000000
_cell_angle_gamma   90.00000000
_symmetry_Int_Tables_number   1
_chemical_formula_structural   Cu2Mo(CN)8
_chemical_formula_sum   'Cu16 Mo8 C64 N64'
_cell_volume   3143.72485703
_cell_formula_units_Z   8
loop_
 _symmetry_equiv_pos_site_id
 _symmetry_equiv_pos_as_xyz
  1  'x, y, z'
loop_
 _atom_site_type_symbol
 _atom_site_label
 _atom_site_symmetry_multiplicity
 _atom_site_fract_x
 _atom_site_fract_y
 _atom_site_fract_z
 _atom_site_occupancy
 _atom_site_charge
  Cu  Cu1  1  0.290400  0.860670  0.430140  1.0  0.861
  Cu  Cu2  1  0.209600  0.639330  0.930140  1.0  0.8608
  Cu  Cu3  1  0.709600  0.860670  0.069860  1.0  0.8611
  Cu  Cu4  1  0.790400  0.639330  0.569860  1.0  0.8604
  Cu  Cu5  1  0.709600  0.139330  0.569860  1.0  0.8607
  Cu  Cu6  1  0.790400  0.360670  0.069860  1.0  0.8575
  Cu  Cu7  1  0.290400  0.139330  0.930140  1.0  0.8566
  Cu  Cu8  1  0.209600  0.360670  0.430140  1.0  0.8571
  Cu  Cu9  1  0.000000  0.896660  0.750000  1.0  0.8018
  Cu  Cu10  1  0.000000  0.342780  0.750000  1.0  0.8588
  Cu  Cu11  1  0.500000  0.603340  0.250000  1.0  0.8019
  Cu  Cu12  1  0.500000  0.157220  0.250000  1.0  0.8587
  Cu  Cu13  1  0.000000  0.103340  0.250000  1.0  0.8015
  Cu  Cu14  1  0.000000  0.657220  0.250000  1.0  0.8584
  Cu  Cu15  1  0.500000  0.396660  0.750000  1.0  0.8014
  Cu  Cu16  1  0.500000  0.842780  0.750000  1.0  0.8584
  Mo  Mo17  1  0.290450  0.119160  0.637220  1.0  -0.1899
  Mo  Mo18  1  0.209550  0.380840  0.137220  1.0  -0.1889
  Mo  Mo19  1  0.709550  0.119160  0.862780  1.0  -0.1844
  Mo  Mo20  1  0.790450  0.380840  0.362780  1.0  -0.1856
  Mo  Mo21  1  0.709550  0.880840  0.362780  1.0  -0.1842
  Mo  Mo22  1  0.790450  0.619160  0.862780  1.0  -0.1856
  Mo  Mo23  1  0.290450  0.880840  0.137220  1.0  -0.1906
  Mo  Mo24  1  0.209550  0.619160  0.637220  1.0  -0.1882
  C  C25  1  0.267400  0.031000  0.541600  1.0  0.1972
  C  C26  1  0.151000  0.034200  0.668000  1.0  0.1295
  C  C27  1  0.157100  0.203700  0.676200  1.0  0.2315
  C  C28  1  0.245700  0.209000  0.546800  1.0  0.1805
  C  C29  1  0.376600  0.999100  0.671400  1.0  0.1907
  C  C30  1  0.302400  0.113800  0.758100  1.0  0.2156
  C  C31  1  0.374800  0.239200  0.673300  1.0  0.1991
  C  C32  1  0.453900  0.125800  0.584600  1.0  0.1861
  C  C33  1  0.232600  0.469000  0.041600  1.0  0.1964
  C  C34  1  0.349000  0.465800  0.168000  1.0  0.1281
  C  C35  1  0.342900  0.296300  0.176200  1.0  0.2331
  C  C36  1  0.254300  0.291000  0.046800  1.0  0.1811
  C  C37  1  0.123400  0.500900  0.171400  1.0  0.191
  C  C38  1  0.197600  0.386200  0.258100  1.0  0.216
  C  C39  1  0.125200  0.260800  0.173300  1.0  0.1991
  C  C40  1  0.046100  0.374200  0.084600  1.0  0.1865
  C  C41  1  0.732600  0.031000  0.958400  1.0  0.1981
  C  C42  1  0.849000  0.034200  0.832000  1.0  0.1301
  C  C43  1  0.842900  0.203700  0.823800  1.0  0.2306
  C  C44  1  0.754300  0.209000  0.953200  1.0  0.1818
  C  C45  1  0.623400  0.999100  0.828600  1.0  0.1902
  C  C46  1  0.697600  0.113800  0.741900  1.0  0.2138
  C  C47  1  0.625200  0.239200  0.826700  1.0  0.1981
  C  C48  1  0.546100  0.125800  0.915400  1.0  0.1869
  C  C49  1  0.767400  0.469000  0.458400  1.0  0.1966
  C  C50  1  0.651000  0.465800  0.332000  1.0  0.1279
  C  C51  1  0.657100  0.296300  0.323800  1.0  0.2327
  C  C52  1  0.745700  0.291000  0.453200  1.0  0.1821
  C  C53  1  0.876600  0.500900  0.328600  1.0  0.1902
  C  C54  1  0.802400  0.386200  0.241900  1.0  0.2136
  C  C55  1  0.874800  0.260800  0.326700  1.0  0.1989
  C  C56  1  0.953900  0.374200  0.415400  1.0  0.1863
  C  C57  1  0.732600  0.969000  0.458400  1.0  0.1973
  C  C58  1  0.849000  0.965800  0.332000  1.0  0.1278
  C  C59  1  0.842900  0.796300  0.323800  1.0  0.2329
  C  C60  1  0.754300  0.791000  0.453200  1.0  0.1822
  C  C61  1  0.623400  0.000900  0.328600  1.0  0.1905
  C  C62  1  0.697600  0.886200  0.241900  1.0  0.2138
  C  C63  1  0.625200  0.760800  0.326700  1.0  0.1983
  C  C64  1  0.546100  0.874200  0.415400  1.0  0.1867
  C  C65  1  0.767400  0.531000  0.958400  1.0  0.1971
  C  C66  1  0.651000  0.534200  0.832000  1.0  0.1294
  C  C67  1  0.657100  0.703700  0.823800  1.0  0.2314
  C  C68  1  0.745700  0.709000  0.953200  1.0  0.1817
  C  C69  1  0.876600  0.499100  0.828600  1.0  0.1901
  C  C70  1  0.802400  0.613800  0.741900  1.0  0.2136
  C  C71  1  0.874800  0.739200  0.826700  1.0  0.1983
  C  C72  1  0.953900  0.625800  0.915400  1.0  0.1863
  C  C73  1  0.267400  0.969000  0.041600  1.0  0.1965
  C  C74  1  0.151000  0.965800  0.168000  1.0  0.1283
  C  C75  1  0.157100  0.796300  0.176200  1.0  0.2327
  C  C76  1  0.245700  0.791000  0.046800  1.0  0.1812
  C  C77  1  0.376600  0.000900  0.171400  1.0  0.1908
  C  C78  1  0.302400  0.886200  0.258100  1.0  0.2156
  C  C79  1  0.374800  0.760800  0.173300  1.0  0.1997
  C  C80  1  0.453900  0.874200  0.084600  1.0  0.186
  C  C81  1  0.232600  0.531000  0.541600  1.0  0.1974
  C  C82  1  0.349000  0.534200  0.668000  1.0  0.13
  C  C83  1  0.342900  0.703700  0.676200  1.0  0.2309
  C  C84  1  0.254300  0.709000  0.546800  1.0  0.1805
  C  C85  1  0.123400  0.499100  0.671400  1.0  0.1908
  C  C86  1  0.197600  0.613800  0.758100  1.0  0.2159
  C  C87  1  0.125200  0.739200  0.673300  1.0  0.1988
  C  C88  1  0.046100  0.625800  0.584600  1.0  0.1866
  N  N89  1  0.258800  0.980660  0.493100  1.0  -0.4223
  N  N90  1  0.081600  0.988410  0.691200  1.0  -0.3784
  N  N91  1  0.090300  0.250400  0.700090  1.0  -0.3888
  N  N92  1  0.224000  0.261100  0.502290  1.0  -0.3776
  N  N93  1  0.420200  0.936010  0.694430  1.0  -0.3844
  N  N94  1  0.301300  0.110200  0.821850  1.0  -0.3347
  N  N95  1  0.419600  0.302300  0.694560  1.0  -0.3675
  N  N96  1  0.543700  0.131600  0.561870  1.0  -0.3771
  N  N97  1  0.241200  0.519340  0.993100  1.0  -0.4231
  N  N98  1  0.418400  0.511590  0.191200  1.0  -0.3789
  N  N99  1  0.409700  0.249600  0.200090  1.0  -0.3898
  N  N100  1  0.276000  0.238900  0.002290  1.0  -0.3776
  N  N101  1  0.079800  0.563990  0.194430  1.0  -0.386
  N  N102  1  0.198700  0.389800  0.321850  1.0  -0.3346
  N  N103  1  0.080400  0.197700  0.194560  1.0  -0.3662
  N  N104  1  0.956300  0.368400  0.061870  1.0  -0.3782
  N  N105  1  0.741200  0.980660  0.006900  1.0  -0.422
  N  N106  1  0.918400  0.988410  0.808800  1.0  -0.3797
  N  N107  1  0.909700  0.250400  0.799910  1.0  -0.3896
  N  N108  1  0.776000  0.261100  0.997710  1.0  -0.3775
  N  N109  1  0.579800  0.936010  0.805570  1.0  -0.3848
  N  N110  1  0.698700  0.110200  0.678150  1.0  -0.3345
  N  N111  1  0.580400  0.302300  0.805440  1.0  -0.3677
  N  N112  1  0.456300  0.131600  0.938130  1.0  -0.3783
  N  N113  1  0.758800  0.519340  0.506900  1.0  -0.4217
  N  N114  1  0.581600  0.511590  0.308800  1.0  -0.3783
  N  N115  1  0.590300  0.249600  0.299910  1.0  -0.389
  N  N116  1  0.724000  0.238900  0.497710  1.0  -0.3768
  N  N117  1  0.920200  0.563990  0.305570  1.0  -0.387
  N  N118  1  0.801300  0.389800  0.178150  1.0  -0.3343
  N  N119  1  0.919600  0.197700  0.305440  1.0  -0.3666
  N  N120  1  0.043700  0.368400  0.438130  1.0  -0.3769
  N  N121  1  0.741200  0.019340  0.506900  1.0  -0.4228
  N  N122  1  0.918400  0.011590  0.308800  1.0  -0.3792
  N  N123  1  0.909700  0.749600  0.299910  1.0  -0.3898
  N  N124  1  0.776000  0.738900  0.497710  1.0  -0.3755
  N  N125  1  0.579800  0.063990  0.305570  1.0  -0.3866
  N  N126  1  0.698700  0.889800  0.178150  1.0  -0.3343
  N  N127  1  0.580400  0.697700  0.305440  1.0  -0.3667
  N  N128  1  0.456300  0.868400  0.438130  1.0  -0.3788
  N  N129  1  0.758800  0.480660  0.006900  1.0  -0.4225
  N  N130  1  0.581600  0.488410  0.808800  1.0  -0.3787
  N  N131  1  0.590300  0.750400  0.799910  1.0  -0.389
  N  N132  1  0.724000  0.761100  0.997710  1.0  -0.3757
  N  N133  1  0.920200  0.436010  0.805570  1.0  -0.385
  N  N134  1  0.801300  0.610200  0.678150  1.0  -0.3345
  N  N135  1  0.919600  0.802300  0.805440  1.0  -0.3686
  N  N136  1  0.043700  0.631600  0.938130  1.0  -0.3776
  N  N137  1  0.258800  0.019340  0.993100  1.0  -0.4214
  N  N138  1  0.081600  0.011590  0.191200  1.0  -0.3779
  N  N139  1  0.090300  0.749600  0.200090  1.0  -0.3889
  N  N140  1  0.224000  0.738900  0.002290  1.0  -0.3757
  N  N141  1  0.420200  0.063990  0.194430  1.0  -0.3863
  N  N142  1  0.301300  0.889800  0.321850  1.0  -0.3349
  N  N143  1  0.419600  0.697700  0.194560  1.0  -0.367
  N  N144  1  0.543700  0.868400  0.061870  1.0  -0.3776
  N  N145  1  0.241200  0.480660  0.493100  1.0  -0.422
  N  N146  1  0.418400  0.488410  0.691200  1.0  -0.3795
  N  N147  1  0.409700  0.750400  0.700090  1.0  -0.3895
  N  N148  1  0.276000  0.761100  0.502290  1.0  -0.3761
  N  N149  1  0.079800  0.436010  0.694430  1.0  -0.3842
  N  N150  1  0.198700  0.610200  0.821850  1.0  -0.3343
  N  N151  1  0.080400  0.802300  0.694560  1.0  -0.3677
  N  N152  1  0.956300  0.631600  0.561870  1.0  -0.3787
