# generated using pymatgen
data_Cd3H62(C11O3)8
_symmetry_space_group_name_H-M   'P 1'
_cell_length_a   15.64690000
_cell_length_b   18.47100000
_cell_length_c   27.45000000
_cell_angle_alpha   99.52500000
_cell_angle_beta   90.06300000
_cell_angle_gamma   103.87600000
_symmetry_Int_Tables_number   1
_chemical_formula_structural   Cd3H62(C11O3)8
_chemical_formula_sum   'Cd6 H124 C176 O48'
_cell_volume   7588.83300076
_cell_formula_units_Z   2
loop_
 _symmetry_equiv_pos_site_id
 _symmetry_equiv_pos_as_xyz
  1  'x, y, z'
loop_
 _atom_site_type_symbol
 _atom_site_label
 _atom_site_symmetry_multiplicity
 _atom_site_fract_x
 _atom_site_fract_y
 _atom_site_fract_z
 _atom_site_occupancy
 _atom_site_charge
  Cd  Cd1  1  0.547710  0.674920  0.087980  1.0  1.0758
  Cd  Cd2  1  0.092700  0.163770  0.586090  1.0  1.0595
  Cd  Cd3  1  0.452290  0.325080  0.912020  1.0  1.0764
  Cd  Cd4  1  0.907300  0.836230  0.413910  1.0  1.0595
  Cd  Cd5  1  0.500000  0.500000  0.000000  1.0  0.9717
  Cd  Cd6  1  0.000000  0.000000  0.500000  1.0  1.1252
  H  H7  1  0.578100  0.599000  0.915200  1.0  0.0964
  H  H8  1  0.563200  0.599700  0.831400  1.0  0.1159
  H  H9  1  0.453700  0.777100  0.861300  1.0  0.1185
  H  H10  1  0.468000  0.773500  0.943700  1.0  0.1043
  H  H11  1  0.431900  0.565300  0.774400  1.0  0.1029
  H  H12  1  0.424100  0.501100  0.620100  1.0  0.0918
  H  H13  1  0.343200  0.383000  0.588500  1.0  0.1081
  H  H14  1  0.203300  0.380600  0.711900  1.0  0.1025
  H  H15  1  0.290700  0.497500  0.745200  1.0  0.0953
  H  H16  1  0.530300  0.954200  0.611100  1.0  0.1062
  H  H17  1  0.504600  0.601500  0.595400  1.0  0.0998
  H  H18  1  0.528000  0.689800  0.610900  1.0  0.0859
  H  H19  1  0.460900  0.650500  0.566400  1.0  0.1247
  H  H20  1  0.655100  0.878300  0.799000  1.0  0.1324
  H  H21  1  0.659100  0.797500  0.772200  1.0  0.1283
  H  H22  1  0.629900  0.809200  0.826900  1.0  0.1102
  H  H23  1  0.752500  0.771900  0.652000  1.0  0.1244
  H  H24  1  0.696000  0.797400  0.613900  1.0  0.1066
  H  H25  1  0.665200  0.716500  0.627900  1.0  0.1026
  H  H26  1  0.318000  0.873600  0.716600  1.0  0.0932
  H  H27  1  0.346200  0.818400  0.747600  1.0  0.1052
  H  H28  1  0.249900  0.799700  0.724800  1.0  0.0909
  H  H29  1  0.279900  0.813200  0.589000  1.0  0.116
  H  H30  1  0.169800  0.866700  0.562700  1.0  0.1048
  H  H31  1  0.305400  0.070100  0.632500  1.0  0.0986
  H  H32  1  0.414200  0.017900  0.657300  1.0  0.1145
  H  H33  1  0.731900  0.947900  0.703900  1.0  0.1033
  H  H34  1  0.665800  0.929700  0.561300  1.0  0.1094
  H  H35  1  0.801600  0.002800  0.548800  1.0  0.1079
  H  H36  1  0.861400  0.029300  0.694800  1.0  0.1196
  H  H37  1  0.987900  0.276400  0.454800  1.0  0.1086
  H  H38  1  0.940200  0.277200  0.376200  1.0  0.1094
  H  H39  1  0.023000  0.089500  0.327200  1.0  0.1286
  H  H40  1  0.069400  0.088800  0.405600  1.0  0.0799
  H  H41  1  0.879100  0.070300  0.280800  1.0  0.1071
  H  H42  1  0.724400  0.012500  0.250200  1.0  0.102
  H  H43  1  0.640000  0.894300  0.214400  1.0  0.1081
  H  H44  1  0.998900  0.494300  0.176000  1.0  0.0809
  H  H45  1  0.830100  0.394600  0.275900  1.0  0.2266
  H  H46  1  0.733600  0.338700  0.275900  1.0  0.2188
  H  H47  1  0.126800  0.365300  0.323400  1.0  0.1259
  H  H48  1  0.130200  0.315300  0.271700  1.0  0.1259
  H  H49  1  0.104500  0.276900  0.318200  1.0  0.1116
  H  H50  1  0.145100  0.229000  0.137700  1.0  0.1418
  H  H51  1  0.045400  0.223300  0.126000  1.0  0.1263
  H  H52  1  0.073000  0.192100  0.171800  1.0  0.1332
  H  H53  1  0.733100  0.135200  0.106400  1.0  0.1157
  H  H54  1  0.730900  0.199800  0.150900  1.0  0.1395
  H  H55  1  0.721100  0.116700  0.160100  1.0  0.1113
  H  H56  1  0.732300  0.350100  0.133100  1.0  0.0971
  H  H57  1  0.632000  0.402400  0.099200  1.0  0.104
  H  H58  1  0.774400  0.606800  0.161200  1.0  0.1101
  H  H59  1  0.877800  0.554000  0.188500  1.0  0.1067
  H  H60  1  0.146600  0.354200  0.092700  1.0  0.1217
  H  H61  1  0.277200  0.419200  0.062100  1.0  0.1006
  H  H62  1  0.279600  0.604700  0.161800  1.0  0.1031
  H  H63  1  0.145600  0.544400  0.188400  1.0  0.1137
  H  H64  1  0.742100  0.934500  0.094200  1.0  0.0779
  H  H65  1  0.813400  0.035800  0.124900  1.0  0.0658
  H  H66  1  0.808000  0.896500  0.116600  1.0  0.086
  H  H67  1  0.880500  0.997700  0.146300  1.0  0.082
  H  H68  1  0.973100  0.449400  0.122700  1.0  0.1478
  H  H69  1  0.421900  0.401000  0.084800  1.0  0.0965
  H  H70  1  0.436800  0.400300  0.168600  1.0  0.1165
  H  H71  1  0.546300  0.222900  0.138700  1.0  0.1188
  H  H72  1  0.532000  0.226500  0.056300  1.0  0.1036
  H  H73  1  0.568100  0.434700  0.225600  1.0  0.1034
  H  H74  1  0.575900  0.498900  0.379900  1.0  0.0922
  H  H75  1  0.656800  0.617000  0.411500  1.0  0.1081
  H  H76  1  0.796700  0.619400  0.288100  1.0  0.1039
  H  H77  1  0.709300  0.502500  0.254800  1.0  0.0947
  H  H78  1  0.469700  0.045800  0.388900  1.0  0.1073
  H  H79  1  0.495400  0.398500  0.404600  1.0  0.0983
  H  H80  1  0.472000  0.310200  0.389100  1.0  0.0844
  H  H81  1  0.539100  0.349500  0.433600  1.0  0.1256
  H  H82  1  0.344900  0.121700  0.201000  1.0  0.1341
  H  H83  1  0.340900  0.202500  0.227800  1.0  0.1273
  H  H84  1  0.370100  0.190800  0.173100  1.0  0.1102
  H  H85  1  0.247500  0.228100  0.348000  1.0  0.125
  H  H86  1  0.304000  0.202600  0.386100  1.0  0.1066
  H  H87  1  0.334800  0.283500  0.372100  1.0  0.1053
  H  H88  1  0.682000  0.126400  0.283400  1.0  0.0926
  H  H89  1  0.653800  0.181600  0.252400  1.0  0.1048
  H  H90  1  0.750100  0.200300  0.275200  1.0  0.0904
  H  H91  1  0.720100  0.186800  0.411000  1.0  0.116
  H  H92  1  0.830200  0.133300  0.437300  1.0  0.1052
  H  H93  1  0.694600  0.929900  0.367500  1.0  0.0979
  H  H94  1  0.585800  0.982100  0.342700  1.0  0.1149
  H  H95  1  0.268100  0.052100  0.296100  1.0  0.1031
  H  H96  1  0.334200  0.070300  0.438700  1.0  0.1088
  H  H97  1  0.198400  0.997200  0.451200  1.0  0.1081
  H  H98  1  0.138600  0.970700  0.305200  1.0  0.1188
  H  H99  1  0.012100  0.723600  0.545200  1.0  0.1076
  H  H100  1  0.059800  0.722800  0.623800  1.0  0.1094
  H  H101  1  0.977000  0.910500  0.672800  1.0  0.1287
  H  H102  1  0.930600  0.911200  0.594400  1.0  0.0805
  H  H103  1  0.120900  0.929700  0.719200  1.0  0.1076
  H  H104  1  0.275600  0.987500  0.749800  1.0  0.1023
  H  H105  1  0.360000  0.105700  0.785600  1.0  0.1088
  H  H106  1  0.001100  0.505700  0.824000  1.0  0.0828
  H  H107  1  0.169900  0.605400  0.724100  1.0  0.2278
  H  H108  1  0.266400  0.661300  0.724100  1.0  0.2228
  H  H109  1  0.873200  0.634700  0.676600  1.0  0.1253
  H  H110  1  0.869800  0.684700  0.728300  1.0  0.1267
  H  H111  1  0.895500  0.723100  0.681800  1.0  0.1133
  H  H112  1  0.854900  0.771000  0.862300  1.0  0.1415
  H  H113  1  0.954600  0.776700  0.874000  1.0  0.1252
  H  H114  1  0.927000  0.807900  0.828200  1.0  0.1338
  H  H115  1  0.266900  0.864800  0.893600  1.0  0.1155
  H  H116  1  0.269100  0.800200  0.849100  1.0  0.1366
  H  H117  1  0.278900  0.883300  0.839900  1.0  0.1126
  H  H118  1  0.267700  0.649900  0.866900  1.0  0.0969
  H  H119  1  0.368000  0.597600  0.900800  1.0  0.1046
  H  H120  1  0.225600  0.393200  0.838800  1.0  0.1085
  H  H121  1  0.122200  0.446000  0.811500  1.0  0.1054
  H  H122  1  0.853400  0.645800  0.907300  1.0  0.1216
  H  H123  1  0.722800  0.580800  0.937900  1.0  0.1008
  H  H124  1  0.720400  0.395300  0.838200  1.0  0.1037
  H  H125  1  0.854400  0.455600  0.811600  1.0  0.1133
  H  H126  1  0.257900  0.065500  0.905800  1.0  0.079
  H  H127  1  0.186600  0.964200  0.875100  1.0  0.0641
  H  H128  1  0.192000  0.103500  0.883400  1.0  0.0844
  H  H129  1  0.119500  0.002300  0.853700  1.0  0.0827
  H  H130  1  0.026900  0.550600  0.877300  1.0  0.1478
  C  C131  1  0.527100  0.679700  0.990900  1.0  0.7033
  C  C132  1  0.524000  0.684200  0.937400  1.0  -0.0993
  C  C133  1  0.552100  0.634200  0.904500  1.0  -0.1229
  C  C134  1  0.542800  0.634600  0.853700  1.0  -0.1209
  C  C135  1  0.504000  0.685500  0.835900  1.0  0.0866
  C  C136  1  0.477400  0.740200  0.871500  1.0  -0.1665
  C  C137  1  0.486700  0.738200  0.920700  1.0  -0.0556
  C  C138  1  0.484200  0.678400  0.782600  1.0  0.0051
  C  C139  1  0.499900  0.737000  0.754800  1.0  0.215
  C  C140  1  0.476400  0.726200  0.704800  1.0  0.0114
  C  C141  1  0.434900  0.649800  0.680700  1.0  0.1894
  C  C142  1  0.416800  0.590700  0.707500  1.0  -0.0321
  C  C143  1  0.442600  0.605500  0.757000  1.0  -0.1932
  C  C144  1  0.365400  0.514100  0.685500  1.0  0.0674
  C  C145  1  0.380000  0.477000  0.638600  1.0  -0.1477
  C  C146  1  0.331200  0.406400  0.619600  1.0  -0.0908
  C  C147  1  0.262300  0.367900  0.646500  1.0  -0.1366
  C  C148  1  0.248200  0.404400  0.693500  1.0  -0.0425
  C  C149  1  0.299600  0.475200  0.713300  1.0  -0.172
  C  C150  1  0.207600  0.292300  0.623600  1.0  0.6539
  C  C151  1  0.492500  0.790300  0.677700  1.0  -0.0626
  C  C152  1  0.577500  0.825300  0.665600  1.0  0.1983
  C  C153  1  0.591800  0.888700  0.642200  1.0  0.0382
  C  C154  1  0.520500  0.913600  0.628100  1.0  -0.1252
  C  C155  1  0.432500  0.879000  0.638800  1.0  0.0156
  C  C156  1  0.422500  0.817800  0.664400  1.0  0.1538
  C  C157  1  0.482000  0.645900  0.598300  1.0  -0.0552
  C  C158  1  0.627900  0.825200  0.795500  1.0  -0.0689
  C  C159  1  0.693700  0.768500  0.640100  1.0  -0.043
  C  C160  1  0.310700  0.821500  0.719800  1.0  -0.0031
  C  C161  1  0.359600  0.910200  0.624800  1.0  0.039
  C  C162  1  0.285600  0.865200  0.597100  1.0  -0.1075
  C  C163  1  0.219100  0.897100  0.581200  1.0  -0.0526
  C  C164  1  0.228900  0.975300  0.593900  1.0  -0.1387
  C  C165  1  0.300600  0.018500  0.622900  1.0  -0.0289
  C  C166  1  0.365900  0.987200  0.638100  1.0  -0.2109
  C  C167  1  0.158700  0.008900  0.575700  1.0  0.6751
  C  C168  1  0.744400  0.961700  0.673100  1.0  -0.1191
  C  C169  1  0.681400  0.933200  0.634600  1.0  0.0603
  C  C170  1  0.705700  0.949600  0.588100  1.0  -0.1485
  C  C171  1  0.786700  0.994200  0.580500  1.0  -0.0762
  C  C172  1  0.846400  0.026500  0.620000  1.0  -0.0529
  C  C173  1  0.822600  0.008600  0.667600  1.0  -0.0991
  C  C174  1  0.935300  0.075500  0.611700  1.0  0.674
  C  C175  1  0.056400  0.174900  0.489400  1.0  0.6831
  C  C176  1  0.033300  0.180500  0.439700  1.0  -0.1129
  C  C177  1  0.994500  0.238400  0.429300  1.0  -0.0986
  C  C178  1  0.966500  0.239200  0.382100  1.0  -0.1348
  C  C179  1  0.976700  0.184400  0.343200  1.0  0.0111
  C  C180  1  0.015800  0.127100  0.352800  1.0  -0.1663
  C  C181  1  0.043000  0.126800  0.399900  1.0  -0.0903
  C  C182  1  0.941700  0.181300  0.292900  1.0  0.0084
  C  C183  1  0.960900  0.243800  0.268000  1.0  0.1923
  C  C184  1  0.928900  0.239700  0.220500  1.0  -0.016
  C  C185  1  0.871600  0.170600  0.196300  1.0  0.1359
  C  C186  1  0.856800  0.106400  0.217900  1.0  -0.0173
  C  C187  1  0.890700  0.113200  0.265900  1.0  -0.1143
  C  C188  1  0.803700  0.031400  0.193000  1.0  0.085
  C  C189  1  0.735700  0.991400  0.218500  1.0  -0.1769
  C  C190  1  0.684500  0.920300  0.196800  1.0  -0.0534
  C  C191  1  0.699600  0.888700  0.150200  1.0  0.0608
  C  C192  1  0.767800  0.928800  0.125100  1.0  -0.258
  C  C193  1  0.819400  0.000600  0.146500  1.0  -0.2095
  C  C194  1  0.646800  0.810600  0.125600  1.0  0.6601
  C  C195  1  0.946500  0.309100  0.195800  1.0  -0.0094
  C  C196  1  0.027900  0.337500  0.178400  1.0  0.1994
  C  C197  1  0.045800  0.406700  0.160300  1.0  0.0992
  C  C198  1  0.978900  0.443700  0.156900  1.0  -0.349
  C  C199  1  0.891700  0.411800  0.172500  1.0  0.0646
  C  C200  1  0.879800  0.346300  0.192000  1.0  0.2073
  C  C201  1  0.785700  0.354400  0.260100  1.0  0.3515
  C  C202  1  0.100200  0.318400  0.302200  1.0  -0.0448
  C  C203  1  0.089500  0.231000  0.151900  1.0  -0.065
  C  C204  1  0.749300  0.153800  0.140700  1.0  -0.0279
  C  C205  1  0.819900  0.445600  0.161400  1.0  0.0883
  C  C206  1  0.743000  0.402500  0.136800  1.0  -0.1167
  C  C207  1  0.681300  0.433000  0.117500  1.0  -0.1291
  C  C208  1  0.695100  0.511100  0.126300  1.0  -0.1176
  C  C209  1  0.767200  0.554700  0.153800  1.0  -0.0766
  C  C210  1  0.828400  0.522900  0.170400  1.0  -0.153
  C  C211  1  0.629800  0.546100  0.101800  1.0  0.698
  C  C212  1  0.131700  0.442900  0.144700  1.0  0.055
  C  C213  1  0.171900  0.404400  0.106200  1.0  -0.1849
  C  C214  1  0.251500  0.443900  0.088200  1.0  -0.0575
  C  C215  1  0.293700  0.520600  0.109000  1.0  -0.1159
  C  C216  1  0.253200  0.555300  0.146900  1.0  -0.0242
  C  C217  1  0.172700  0.518100  0.163700  1.0  -0.1849
  C  C218  1  0.375600  0.557800  0.088800  1.0  0.7257
  C  C219  1  0.472900  0.320300  0.009100  1.0  0.7013
  C  C220  1  0.476000  0.315800  0.062600  1.0  -0.0976
  C  C221  1  0.447900  0.365800  0.095500  1.0  -0.1222
  C  C222  1  0.457200  0.365400  0.146300  1.0  -0.1217
  C  C223  1  0.496000  0.314500  0.164100  1.0  0.0862
  C  C224  1  0.522600  0.259800  0.128500  1.0  -0.1662
  C  C225  1  0.513300  0.261800  0.079300  1.0  -0.0547
  C  C226  1  0.515800  0.321600  0.217400  1.0  0.0033
  C  C227  1  0.500100  0.263000  0.245200  1.0  0.2133
  C  C228  1  0.523600  0.273800  0.295200  1.0  0.0107
  C  C229  1  0.565100  0.350200  0.319300  1.0  0.1902
  C  C230  1  0.583200  0.409300  0.292500  1.0  -0.0322
  C  C231  1  0.557400  0.394500  0.243000  1.0  -0.1943
  C  C232  1  0.634600  0.485900  0.314500  1.0  0.0662
  C  C233  1  0.620000  0.523000  0.361400  1.0  -0.1477
  C  C234  1  0.668800  0.593600  0.380400  1.0  -0.0907
  C  C235  1  0.737700  0.632100  0.353500  1.0  -0.1378
  C  C236  1  0.751800  0.595600  0.306500  1.0  -0.0431
  C  C237  1  0.700400  0.524800  0.286700  1.0  -0.1717
  C  C238  1  0.792400  0.707700  0.376400  1.0  0.6534
  C  C239  1  0.507500  0.209700  0.322300  1.0  -0.0631
  C  C240  1  0.422500  0.174700  0.334400  1.0  0.1975
  C  C241  1  0.408200  0.111300  0.357800  1.0  0.0384
  C  C242  1  0.479500  0.086400  0.371900  1.0  -0.1245
  C  C243  1  0.567500  0.121000  0.361200  1.0  0.0161
  C  C244  1  0.577500  0.182200  0.335600  1.0  0.1568
  C  C245  1  0.518000  0.354100  0.401700  1.0  -0.0574
  C  C246  1  0.372100  0.174800  0.204500  1.0  -0.0657
  C  C247  1  0.306300  0.231500  0.359900  1.0  -0.0426
  C  C248  1  0.689300  0.178500  0.280200  1.0  -0.004
  C  C249  1  0.640400  0.089800  0.375200  1.0  0.0389
  C  C250  1  0.714400  0.134800  0.402900  1.0  -0.1108
  C  C251  1  0.780900  0.102900  0.418800  1.0  -0.0536
  C  C252  1  0.771100  0.024700  0.406100  1.0  -0.1395
  C  C253  1  0.699400  0.981500  0.377100  1.0  -0.0292
  C  C254  1  0.634100  0.012800  0.361900  1.0  -0.2091
  C  C255  1  0.841300  0.991100  0.424300  1.0  0.6738
  C  C256  1  0.255600  0.038300  0.326900  1.0  -0.1197
  C  C257  1  0.318600  0.066800  0.365400  1.0  0.0616
  C  C258  1  0.294300  0.050400  0.411900  1.0  -0.1501
  C  C259  1  0.213300  0.005800  0.419500  1.0  -0.0762
  C  C260  1  0.153600  0.973500  0.380000  1.0  -0.056
  C  C261  1  0.177400  0.991400  0.332400  1.0  -0.0998
  C  C262  1  0.064700  0.924500  0.388300  1.0  0.6752
  C  C263  1  0.943600  0.825100  0.510600  1.0  0.6829
  C  C264  1  0.966700  0.819500  0.560300  1.0  -0.1135
  C  C265  1  0.005500  0.761600  0.570700  1.0  -0.0963
  C  C266  1  0.033500  0.760800  0.617900  1.0  -0.1367
  C  C267  1  0.023300  0.815600  0.656800  1.0  0.011
  C  C268  1  0.984200  0.872900  0.647200  1.0  -0.1668
  C  C269  1  0.957000  0.873200  0.600100  1.0  -0.0902
  C  C270  1  0.058300  0.818700  0.707100  1.0  0.0081
  C  C271  1  0.039100  0.756200  0.732000  1.0  0.1923
  C  C272  1  0.071100  0.760300  0.779500  1.0  -0.0176
  C  C273  1  0.128400  0.829400  0.803700  1.0  0.1348
  C  C274  1  0.143200  0.893600  0.782100  1.0  -0.0179
  C  C275  1  0.109300  0.886800  0.734100  1.0  -0.1157
  C  C276  1  0.196300  0.968600  0.807000  1.0  0.0854
  C  C277  1  0.264300  0.008600  0.781500  1.0  -0.1769
  C  C278  1  0.315500  0.079700  0.803200  1.0  -0.0564
  C  C279  1  0.300400  0.111300  0.849800  1.0  0.0629
  C  C280  1  0.232200  0.071200  0.874900  1.0  -0.2604
  C  C281  1  0.180600  0.999400  0.853500  1.0  -0.2115
  C  C282  1  0.353200  0.189400  0.874400  1.0  0.6599
  C  C283  1  0.053500  0.690900  0.804200  1.0  -0.0099
  C  C284  1  0.972100  0.662500  0.821600  1.0  0.1987
  C  C285  1  0.954200  0.593300  0.839700  1.0  0.0989
  C  C286  1  0.021100  0.556300  0.843100  1.0  -0.3489
  C  C287  1  0.108300  0.588200  0.827500  1.0  0.0649
  C  C288  1  0.120200  0.653700  0.808000  1.0  0.2079
  C  C289  1  0.214300  0.645600  0.739900  1.0  0.3508
  C  C290  1  0.899800  0.681600  0.697800  1.0  -0.0413
  C  C291  1  0.910500  0.769000  0.848100  1.0  -0.064
  C  C292  1  0.250700  0.846200  0.859300  1.0  -0.0289
  C  C293  1  0.180100  0.554400  0.838600  1.0  0.0873
  C  C294  1  0.257000  0.597500  0.863200  1.0  -0.1176
  C  C295  1  0.318700  0.567000  0.882500  1.0  -0.1296
  C  C296  1  0.304900  0.488900  0.873700  1.0  -0.1164
  C  C297  1  0.232800  0.445300  0.846200  1.0  -0.0799
  C  C298  1  0.171600  0.477100  0.829600  1.0  -0.1516
  C  C299  1  0.370200  0.453900  0.898200  1.0  0.6969
  C  C300  1  0.868300  0.557100  0.855300  1.0  0.054
  C  C301  1  0.828100  0.595600  0.893800  1.0  -0.1852
  C  C302  1  0.748500  0.556100  0.911800  1.0  -0.057
  C  C303  1  0.706300  0.479400  0.891000  1.0  -0.1174
  C  C304  1  0.746800  0.444700  0.853100  1.0  -0.0263
  C  C305  1  0.827300  0.481900  0.836300  1.0  -0.1835
  C  C306  1  0.624400  0.442200  0.911200  1.0  0.727
  O  O307  1  0.560900  0.629900  0.003390  1.0  -0.6773
  O  O308  1  0.498100  0.725600  0.021200  1.0  -0.5787
  O  O309  1  0.980200  0.121100  0.647200  1.0  -0.6538
  O  O310  1  0.960700  0.074400  0.568400  1.0  -0.6753
  O  O311  1  0.160600  0.075400  0.598800  1.0  -0.6672
  O  O312  1  0.108400  0.973600  0.540000  1.0  -0.6316
  O  O313  1  0.230100  0.253900  0.587300  1.0  -0.5616
  O  O314  1  0.135000  0.270200  0.644600  1.0  -0.6391
  O  O315  1  0.411200  0.639700  0.631400  1.0  -0.2868
  O  O316  1  0.537300  0.811000  0.778000  1.0  -0.2781
  O  O317  1  0.336700  0.782100  0.676900  1.0  -0.3141
  O  O318  1  0.645200  0.797800  0.679800  1.0  -0.2682
  O  O319  1  0.088900  0.119600  0.497490  1.0  -0.7143
  O  O320  1  0.045500  0.224000  0.525600  1.0  -0.6248
  O  O321  1  0.395900  0.527100  0.048000  1.0  -0.6546
  O  O322  1  0.416600  0.619900  0.112400  1.0  -0.5888
  O  O323  1  0.577800  0.782700  0.146100  1.0  -0.5908
  O  O324  1  0.673300  0.779800  0.086800  1.0  -0.5856
  O  O325  1  0.584900  0.505800  0.066100  1.0  -0.6454
  O  O326  1  0.631800  0.613600  0.119800  1.0  -0.6088
  O  O327  1  0.797700  0.316700  0.211400  1.0  -0.2945
  O  O328  1  0.097300  0.305000  0.182800  1.0  -0.2711
  O  O329  1  0.843600  0.168500  0.148000  1.0  -0.2699
  O  O330  1  0.009400  0.315000  0.292100  1.0  -0.2682
  O  O331  1  0.439100  0.370100  0.996610  1.0  -0.6788
  O  O332  1  0.501900  0.274400  0.978800  1.0  -0.5795
  O  O333  1  0.019800  0.878900  0.352800  1.0  -0.6548
  O  O334  1  0.039300  0.925600  0.431600  1.0  -0.6762
  O  O335  1  0.839400  0.924600  0.401200  1.0  -0.6668
  O  O336  1  0.891600  0.026400  0.460000  1.0  -0.6315
  O  O337  1  0.769900  0.746100  0.412700  1.0  -0.5595
  O  O338  1  0.865000  0.729800  0.355400  1.0  -0.6406
  O  O339  1  0.588800  0.360300  0.368600  1.0  -0.2832
  O  O340  1  0.462700  0.189000  0.222000  1.0  -0.2793
  O  O341  1  0.663300  0.217900  0.323100  1.0  -0.3157
  O  O342  1  0.354800  0.202200  0.320200  1.0  -0.265
  O  O343  1  0.911100  0.880400  0.502510  1.0  -0.7125
  O  O344  1  0.954500  0.776000  0.474400  1.0  -0.6231
  O  O345  1  0.604100  0.472900  0.952000  1.0  -0.6527
  O  O346  1  0.583400  0.380100  0.887600  1.0  -0.5889
  O  O347  1  0.422200  0.217300  0.853900  1.0  -0.5936
  O  O348  1  0.326700  0.220200  0.913200  1.0  -0.5822
  O  O349  1  0.415100  0.494200  0.933900  1.0  -0.645
  O  O350  1  0.368200  0.386400  0.880200  1.0  -0.6089
  O  O351  1  0.202300  0.683300  0.788600  1.0  -0.294
  O  O352  1  0.902700  0.695000  0.817200  1.0  -0.2704
  O  O353  1  0.156400  0.831500  0.852000  1.0  -0.2715
  O  O354  1  0.990600  0.685000  0.707900  1.0  -0.2715
