# generated using pymatgen
data_Co3H60(C11O3)8
_symmetry_space_group_name_H-M   'P 1'
_cell_length_a   15.46800000
_cell_length_b   15.78500000
_cell_length_c   18.03800000
_cell_angle_alpha   107.27000000
_cell_angle_beta   103.94900000
_cell_angle_gamma   107.16300000
_symmetry_Int_Tables_number   1
_chemical_formula_structural   Co3H60(C11O3)8
_chemical_formula_sum   'Co3 H60 C88 O24'
_cell_volume   3748.59771135
_cell_formula_units_Z   1
loop_
 _symmetry_equiv_pos_site_id
 _symmetry_equiv_pos_as_xyz
  1  'x, y, z'
loop_
 _atom_site_type_symbol
 _atom_site_label
 _atom_site_symmetry_multiplicity
 _atom_site_fract_x
 _atom_site_fract_y
 _atom_site_fract_z
 _atom_site_occupancy
 _atom_site_charge
  Co  Co1  1  0.025360  0.177880  0.914840  1.0  1.0249
  Co  Co2  1  0.974640  0.822120  0.085160  1.0  1.0231
  Co  Co3  1  0.000000  0.000000  0.000000  1.0  1.0501
  H  H4  1  0.848600  0.845000  0.821700  1.0  0.1028
  H  H5  1  0.785000  0.686400  0.735100  1.0  0.1264
  H  H6  1  0.918500  0.747100  0.582700  1.0  0.1077
  H  H7  1  0.986200  0.912400  0.668600  1.0  0.126
  H  H8  1  0.870100  0.571400  0.708100  1.0  0.1108
  H  H9  1  0.684800  0.674600  0.444600  1.0  0.1414
  H  H10  1  0.696200  0.670000  0.531900  1.0  0.1313
  H  H11  1  0.623000  0.580100  0.450700  1.0  0.1439
  H  H12  1  0.817200  0.200800  0.469000  1.0  0.1427
  H  H13  1  0.888200  0.302700  0.538200  1.0  0.1282
  H  H14  1  0.862300  0.286100  0.444100  1.0  0.1385
  H  H15  1  0.778600  0.203900  0.709300  1.0  0.099
  H  H16  1  0.729600  0.267400  0.618800  1.0  0.1258
  H  H17  1  0.979900  0.501800  0.742300  1.0  0.0972
  H  H18  1  0.038300  0.428500  0.821100  1.0  0.1318
  H  H19  1  0.943700  0.181200  0.203500  1.0  0.0893
  H  H20  1  0.877800  0.258500  0.292100  1.0  0.1143
  H  H21  1  0.789200  0.376600  0.131300  1.0  0.113
  H  H22  1  0.864300  0.306000  0.046800  1.0  0.1076
  H  H23  1  0.007400  0.517000  0.430400  1.0  0.113
  H  H24  1  0.927800  0.554300  0.447200  1.0  0.1238
  H  H25  1  0.927200  0.514100  0.356400  1.0  0.1088
  H  H26  1  0.637200  0.296200  0.158300  1.0  0.0943
  H  H27  1  0.481100  0.350000  0.443300  1.0  0.1363
  H  H28  1  0.580600  0.339300  0.466800  1.0  0.1336
  H  H29  1  0.495600  0.264800  0.383400  1.0  0.1292
  H  H30  1  0.507800  0.383500  0.132000  1.0  0.1282
  H  H31  1  0.346100  0.328400  0.055000  1.0  0.0947
  H  H32  1  0.280500  0.132400  0.141800  1.0  0.088
  H  H33  1  0.436500  0.198600  0.237800  1.0  0.0899
  H  H34  1  0.151400  0.155000  0.178300  1.0  0.1021
  H  H35  1  0.215000  0.313600  0.264900  1.0  0.1261
  H  H36  1  0.081500  0.252900  0.417300  1.0  0.1075
  H  H37  1  0.013800  0.087600  0.331400  1.0  0.1267
  H  H38  1  0.129900  0.428600  0.291900  1.0  0.1122
  H  H39  1  0.315200  0.325400  0.555400  1.0  0.1423
  H  H40  1  0.303800  0.330000  0.468100  1.0  0.1321
  H  H41  1  0.377000  0.419900  0.549300  1.0  0.1436
  H  H42  1  0.182800  0.799200  0.531000  1.0  0.141
  H  H43  1  0.111800  0.697300  0.461800  1.0  0.1308
  H  H44  1  0.137700  0.713900  0.555900  1.0  0.1399
  H  H45  1  0.221400  0.796100  0.290700  1.0  0.0993
  H  H46  1  0.270400  0.732600  0.381200  1.0  0.1265
  H  H47  1  0.020100  0.498200  0.257700  1.0  0.0973
  H  H48  1  0.961700  0.571500  0.178900  1.0  0.1316
  H  H49  1  0.056300  0.818800  0.796500  1.0  0.0896
  H  H50  1  0.122200  0.741500  0.707900  1.0  0.1145
  H  H51  1  0.210800  0.623400  0.868700  1.0  0.1117
  H  H52  1  0.135700  0.694000  0.953200  1.0  0.1079
  H  H53  1  0.992600  0.483000  0.569600  1.0  0.1115
  H  H54  1  0.072200  0.445700  0.552800  1.0  0.1239
  H  H55  1  0.072800  0.485900  0.643600  1.0  0.1079
  H  H56  1  0.362800  0.703800  0.841700  1.0  0.097
  H  H57  1  0.518900  0.650000  0.556700  1.0  0.1378
  H  H58  1  0.419400  0.660700  0.533200  1.0  0.1341
  H  H59  1  0.504400  0.735200  0.616600  1.0  0.1315
  H  H60  1  0.492200  0.616500  0.868000  1.0  0.1291
  H  H61  1  0.653900  0.671600  0.945000  1.0  0.0949
  H  H62  1  0.719500  0.867600  0.858200  1.0  0.0876
  H  H63  1  0.563500  0.801400  0.762200  1.0  0.0896
  C  C64  1  0.971600  0.999600  0.812800  1.0  0.6305
  C  C65  1  0.924300  0.897300  0.756300  1.0  -0.0535
  C  C66  1  0.863700  0.826600  0.774100  1.0  -0.0671
  C  C67  1  0.826800  0.731600  0.722900  1.0  -0.1284
  C  C68  1  0.850100  0.700300  0.652800  1.0  0.0328
  C  C69  1  0.906500  0.767600  0.631700  1.0  -0.0996
  C  C70  1  0.946600  0.867500  0.682600  1.0  -0.0842
  C  C71  1  0.821000  0.594600  0.605900  1.0  0.0086
  C  C72  1  0.841100  0.540700  0.650400  1.0  -0.118
  C  C73  1  0.819900  0.442100  0.612900  1.0  0.0464
  C  C74  1  0.779900  0.396700  0.529800  1.0  0.2441
  C  C75  1  0.758900  0.449100  0.481400  1.0  0.0058
  C  C76  1  0.782600  0.546400  0.520400  1.0  0.201
  C  C77  1  0.684700  0.633700  0.474800  1.0  -0.146
  C  C78  1  0.837900  0.269200  0.484200  1.0  -0.1268
  C  C79  1  0.947700  0.255300  0.822900  1.0  0.6666
  C  C80  1  0.912400  0.303300  0.772500  1.0  -0.1258
  C  C81  1  0.821400  0.262200  0.713500  1.0  -0.0307
  C  C82  1  0.790300  0.301400  0.661000  1.0  -0.1982
  C  C83  1  0.848300  0.392100  0.669500  1.0  0.0729
  C  C84  1  0.941200  0.439500  0.733600  1.0  -0.1198
  C  C85  1  0.975400  0.397600  0.782100  1.0  -0.0931
  C  C86  1  0.954400  0.180000  0.063000  1.0  0.607
  C  C87  1  0.912500  0.237200  0.117300  1.0  -0.1044
  C  C88  1  0.914200  0.220800  0.189700  1.0  -0.0749
  C  C89  1  0.871200  0.264200  0.241400  1.0  -0.0917
  C  C90  1  0.816600  0.317800  0.216500  1.0  -0.0339
  C  C91  1  0.818400  0.336900  0.145300  1.0  -0.1098
  C  C92  1  0.865000  0.295300  0.094900  1.0  -0.0492
  C  C93  1  0.751400  0.342700  0.259800  1.0  0.0111
  C  C94  1  0.785300  0.386600  0.349100  1.0  0.1262
  C  C95  1  0.940600  0.507200  0.408600  1.0  -0.0247
  C  C96  1  0.719800  0.401800  0.387700  1.0  -0.0541
  C  C97  1  0.623800  0.372700  0.340100  1.0  0.1997
  C  C98  1  0.591100  0.331100  0.253300  1.0  -0.0143
  C  C99  1  0.657800  0.320200  0.216000  1.0  -0.1484
  C  C100  1  0.526600  0.331300  0.421700  1.0  -0.0606
  C  C101  1  0.489500  0.296600  0.199700  1.0  0.1088
  C  C102  1  0.461800  0.335300  0.138100  1.0  -0.2082
  C  C103  1  0.365200  0.298200  0.089200  1.0  -0.0498
  C  C104  1  0.297700  0.222400  0.087600  1.0  -0.0303
  C  C105  1  0.325900  0.186200  0.141600  1.0  -0.0653
  C  C106  1  0.421900  0.225200  0.199200  1.0  -0.1587
  C  C107  1  0.196100  0.184400  0.030600  1.0  0.7014
  C  C108  1  0.028400  0.000400  0.187200  1.0  0.6297
  C  C109  1  0.075700  0.102700  0.243700  1.0  -0.0531
  C  C110  1  0.136300  0.173400  0.225900  1.0  -0.0685
  C  C111  1  0.173200  0.268400  0.277100  1.0  -0.1281
  C  C112  1  0.149900  0.299700  0.347200  1.0  0.0368
  C  C113  1  0.093500  0.232400  0.368300  1.0  -0.1033
  C  C114  1  0.053400  0.132500  0.317400  1.0  -0.0871
  C  C115  1  0.179000  0.405400  0.394100  1.0  0.0084
  C  C116  1  0.158900  0.459300  0.349600  1.0  -0.1168
  C  C117  1  0.180100  0.557900  0.387100  1.0  0.0478
  C  C118  1  0.220100  0.603300  0.470200  1.0  0.2441
  C  C119  1  0.241100  0.550900  0.518600  1.0  0.0079
  C  C120  1  0.217400  0.453600  0.479600  1.0  0.203
  C  C121  1  0.315300  0.366300  0.525200  1.0  -0.1455
  C  C122  1  0.162100  0.730800  0.515800  1.0  -0.1277
  C  C123  1  0.052300  0.744700  0.177100  1.0  0.6676
  C  C124  1  0.087600  0.696700  0.227500  1.0  -0.1257
  C  C125  1  0.178600  0.737800  0.286500  1.0  -0.0295
  C  C126  1  0.209700  0.698600  0.339000  1.0  -0.1942
  C  C127  1  0.151700  0.607900  0.330500  1.0  0.0745
  C  C128  1  0.058800  0.560500  0.266400  1.0  -0.1199
  C  C129  1  0.024600  0.602400  0.217900  1.0  -0.0913
  C  C130  1  0.045600  0.820000  0.937000  1.0  0.6059
  C  C131  1  0.087500  0.762800  0.882700  1.0  -0.1027
  C  C132  1  0.085800  0.779200  0.810300  1.0  -0.075
  C  C133  1  0.128800  0.735800  0.758600  1.0  -0.0904
  C  C134  1  0.183400  0.682200  0.783500  1.0  -0.0309
  C  C135  1  0.181600  0.663100  0.854700  1.0  -0.1106
  C  C136  1  0.135000  0.704700  0.905100  1.0  -0.0489
  C  C137  1  0.248600  0.657300  0.740200  1.0  0.0118
  C  C138  1  0.214700  0.613400  0.650900  1.0  0.1249
  C  C139  1  0.059400  0.492800  0.591400  1.0  -0.0244
  C  C140  1  0.280200  0.598200  0.612300  1.0  -0.054
  C  C141  1  0.376200  0.627300  0.659900  1.0  0.2007
  C  C142  1  0.408900  0.668900  0.746700  1.0  -0.0128
  C  C143  1  0.342200  0.679800  0.784000  1.0  -0.1502
  C  C144  1  0.473400  0.668700  0.578300  1.0  -0.0628
  C  C145  1  0.510500  0.703400  0.800300  1.0  0.1079
  C  C146  1  0.538200  0.664700  0.861900  1.0  -0.2068
  C  C147  1  0.634800  0.701800  0.910800  1.0  -0.0516
  C  C148  1  0.702300  0.777600  0.912400  1.0  -0.0292
  C  C149  1  0.674100  0.813800  0.858400  1.0  -0.0663
  C  C150  1  0.578100  0.774800  0.800800  1.0  -0.1592
  C  C151  1  0.803900  0.815600  0.969400  1.0  0.6996
  O  O152  1  0.958300  0.104600  0.062000  1.0  -0.6031
  O  O153  1  0.976800  0.228000  0.012800  1.0  -0.6451
  O  O154  1  0.948900  0.020100  0.880400  1.0  -0.7002
  O  O155  1  0.024900  0.064800  0.797400  1.0  -0.5748
  O  O156  1  0.890400  0.178200  0.821400  1.0  -0.584
  O  O157  1  0.035900  0.292100  0.870500  1.0  -0.5687
  O  O158  1  0.172400  0.227300  0.987900  1.0  -0.5677
  O  O159  1  0.142000  0.103700  0.028200  1.0  -0.6488
  O  O160  1  0.763600  0.596800  0.470300  1.0  -0.2836
  O  O161  1  0.753600  0.297200  0.485900  1.0  -0.2853
  O  O162  1  0.561500  0.392200  0.378300  1.0  -0.2665
  O  O163  1  0.879500  0.411600  0.396300  1.0  -0.342
  O  O164  1  0.041700  0.895400  0.938000  1.0  -0.6032
  O  O165  1  0.023200  0.772000  0.987200  1.0  -0.6459
  O  O166  1  0.051100  0.979900  0.119600  1.0  -0.7011
  O  O167  1  0.975100  0.935200  0.202600  1.0  -0.5758
  O  O168  1  0.109600  0.821800  0.178600  1.0  -0.5849
  O  O169  1  0.964100  0.707900  0.129500  1.0  -0.5676
  O  O170  1  0.827600  0.772700  0.012100  1.0  -0.5619
  O  O171  1  0.858000  0.896300  0.971800  1.0  -0.6531
  O  O172  1  0.236400  0.403200  0.529700  1.0  -0.2862
  O  O173  1  0.246400  0.702800  0.514100  1.0  -0.2807
  O  O174  1  0.438500  0.607800  0.621700  1.0  -0.2675
  O  O175  1  0.120500  0.588400  0.603700  1.0  -0.3427
