# generated using pymatgen
data_Cd3H60(C11O3)8
_symmetry_space_group_name_H-M   'P 1'
_cell_length_a   15.45620000
_cell_length_b   16.27800000
_cell_length_c   18.34600000
_cell_angle_alpha   108.55900000
_cell_angle_beta   103.79900000
_cell_angle_gamma   108.45300000
_symmetry_Int_Tables_number   1
_chemical_formula_structural   Cd3H60(C11O3)8
_chemical_formula_sum   'Cd3 H60 C88 O24'
_cell_volume   3844.03238644
_cell_formula_units_Z   1
loop_
 _symmetry_equiv_pos_site_id
 _symmetry_equiv_pos_as_xyz
  1  'x, y, z'
loop_
 _atom_site_type_symbol
 _atom_site_label
 _atom_site_symmetry_multiplicity
 _atom_site_fract_x
 _atom_site_fract_y
 _atom_site_fract_z
 _atom_site_occupancy
 _atom_site_charge
  Cd  Cd1  1  0.485690  0.833970  0.588420  1.0  1.0737
  Cd  Cd2  1  0.514310  0.166030  0.411580  1.0  1.0724
  Cd  Cd3  1  0.500000  0.000000  0.500000  1.0  1.1281
  H  H4  1  0.656100  0.173500  0.673600  1.0  0.0996
  H  H5  1  0.709300  0.336800  0.755500  1.0  0.1192
  H  H6  1  0.600400  0.274700  0.916700  1.0  0.1068
  H  H7  1  0.548200  0.113400  0.837600  1.0  0.1114
  H  H8  1  0.466400  0.581900  0.673900  1.0  0.1107
  H  H9  1  0.515900  0.507900  0.751400  1.0  0.1034
  H  H10  1  0.775200  0.741200  0.885000  1.0  0.1145
  H  H11  1  0.728000  0.813000  0.804000  1.0  0.1038
  H  H12  1  0.140200  0.668900  0.442800  1.0  0.1102
  H  H13  1  0.980500  0.617100  0.341500  1.0  0.1142
  H  H14  1  0.080900  0.843600  0.301200  1.0  0.1034
  H  H15  1  0.238100  0.881500  0.381400  1.0  0.0904
  H  H16  1  0.556200  0.817000  0.292400  1.0  0.0913
  H  H17  1  0.630600  0.755900  0.209700  1.0  0.1145
  H  H18  1  0.726900  0.650900  0.368000  1.0  0.1128
  H  H19  1  0.642900  0.704100  0.444400  1.0  0.1019
  H  H20  1  0.628200  0.441200  0.787700  1.0  0.1018
  H  H21  1  0.873900  0.727600  0.338800  1.0  0.0991
  H  H22  1  0.860900  0.380300  0.045900  1.0  0.1251
  H  H23  1  0.822900  0.367500  0.954000  1.0  0.094
  H  H24  1  0.899100  0.468100  0.025100  1.0  0.1071
  H  H25  1  0.676100  0.799600  0.038200  1.0  0.1118
  H  H26  1  0.617500  0.714100  0.949700  1.0  0.0889
  H  H27  1  0.613200  0.697200  0.028500  1.0  0.1087
  H  H28  1  0.494300  0.493900  0.063700  1.0  0.1024
  H  H29  1  0.581000  0.462800  0.075700  1.0  0.1199
  H  H30  1  0.564700  0.521500  0.153300  1.0  0.106
  H  H31  1  0.035500  0.692600  0.068600  1.0  0.124
  H  H32  1  0.940300  0.710600  0.055700  1.0  0.1079
  H  H33  1  0.027900  0.768100  0.142200  1.0  0.1221
  H  H34  1  0.343900  0.826500  0.326400  1.0  0.0999
  H  H35  1  0.290700  0.663200  0.244500  1.0  0.1191
  H  H36  1  0.399600  0.725300  0.083300  1.0  0.1071
  H  H37  1  0.451800  0.886600  0.162400  1.0  0.1117
  H  H38  1  0.533600  0.418100  0.326100  1.0  0.1105
  H  H39  1  0.484100  0.492100  0.248600  1.0  0.1023
  H  H40  1  0.224800  0.258800  0.115000  1.0  0.1142
  H  H41  1  0.272000  0.187000  0.196000  1.0  0.103
  H  H42  1  0.859800  0.331100  0.557200  1.0  0.11
  H  H43  1  0.019500  0.382900  0.658500  1.0  0.1145
  H  H44  1  0.919100  0.156400  0.698800  1.0  0.1028
  H  H45  1  0.761900  0.118500  0.618600  1.0  0.09
  H  H46  1  0.443800  0.183000  0.707600  1.0  0.0911
  H  H47  1  0.369400  0.244100  0.790300  1.0  0.1141
  H  H48  1  0.273100  0.349100  0.632000  1.0  0.1127
  H  H49  1  0.357100  0.295900  0.555600  1.0  0.1022
  H  H50  1  0.371800  0.558800  0.212300  1.0  0.1015
  H  H51  1  0.126100  0.272400  0.661200  1.0  0.0995
  H  H52  1  0.139100  0.619700  0.954100  1.0  0.1219
  H  H53  1  0.177100  0.632500  0.046000  1.0  0.0935
  H  H54  1  0.100900  0.531900  0.974900  1.0  0.1073
  H  H55  1  0.323900  0.200400  0.961800  1.0  0.1152
  H  H56  1  0.382500  0.285900  0.050300  1.0  0.088
  H  H57  1  0.386800  0.302800  0.971500  1.0  0.1069
  H  H58  1  0.505700  0.506100  0.936300  1.0  0.1032
  H  H59  1  0.419000  0.537200  0.924300  1.0  0.1201
  H  H60  1  0.435300  0.478500  0.846700  1.0  0.1063
  H  H61  1  0.964500  0.307400  0.931400  1.0  0.1247
  H  H62  1  0.059700  0.289400  0.944300  1.0  0.1079
  H  H63  1  0.972100  0.231900  0.857800  1.0  0.1204
  C  C64  1  0.554000  0.024500  0.689800  1.0  0.6453
  C  C65  1  0.594900  0.127400  0.744800  1.0  -0.0648
  C  C66  1  0.643700  0.193000  0.722000  1.0  -0.1014
  C  C67  1  0.676200  0.291600  0.771600  1.0  -0.1362
  C  C68  1  0.658900  0.321200  0.844200  1.0  0.0449
  C  C69  1  0.611500  0.254800  0.867800  1.0  -0.1081
  C  C70  1  0.579600  0.158100  0.820200  1.0  -0.0719
  C  C71  1  0.562200  0.753500  0.681100  1.0  0.644
  C  C72  1  0.592800  0.707300  0.731500  1.0  -0.123
  C  C73  1  0.528400  0.613600  0.716300  1.0  -0.0917
  C  C74  1  0.557300  0.570200  0.763500  1.0  -0.132
  C  C75  1  0.648900  0.618300  0.830600  1.0  0.031
  C  C76  1  0.712900  0.709600  0.843100  1.0  -0.1226
  C  C77  1  0.684600  0.752600  0.794400  1.0  -0.0868
  C  C78  1  0.308500  0.803500  0.476300  1.0  0.7509
  C  C79  1  0.208600  0.772100  0.412600  1.0  -0.0453
  C  C80  1  0.131400  0.699100  0.408200  1.0  -0.0605
  C  C81  1  0.033900  0.669300  0.347800  1.0  -0.1691
  C  C82  1  0.020700  0.717800  0.300200  1.0  0.1055
  C  C83  1  0.093300  0.801100  0.321400  1.0  -0.1653
  C  C84  1  0.187200  0.825900  0.373000  1.0  -0.1275
  C  C85  1  0.556900  0.822900  0.440000  1.0  0.6607
  C  C86  1  0.596600  0.772000  0.380200  1.0  -0.1058
  C  C87  1  0.591100  0.784000  0.307600  1.0  -0.0712
  C  C88  1  0.636300  0.747900  0.258400  1.0  -0.1017
  C  C89  1  0.691100  0.699300  0.279900  1.0  0.0828
  C  C90  1  0.692600  0.684100  0.352300  1.0  -0.1327
  C  C91  1  0.644100  0.717800  0.399000  1.0  -0.0476
  C  C92  1  0.659100  0.474000  0.845100  1.0  -0.1036
  C  C93  1  0.676300  0.570800  0.882900  1.0  0.0327
  C  C94  1  0.717800  0.615800  0.970400  1.0  0.2078
  C  C95  1  0.747000  0.570700  0.016600  1.0  -0.0031
  C  C96  1  0.733400  0.476600  0.975900  1.0  0.1941
  C  C97  1  0.685800  0.425900  0.889400  1.0  -0.0046
  C  C98  1  0.786600  0.618600  0.108200  1.0  0.0252
  C  C99  1  0.723600  0.631600  0.149700  1.0  0.2014
  C  C100  1  0.753800  0.674300  0.236100  1.0  0.053
  C  C101  1  0.852000  0.700400  0.281100  1.0  -0.1607
  C  C102  1  0.918800  0.688600  0.245500  1.0  -0.0073
  C  C103  1  0.885200  0.648900  0.157600  1.0  0.1493
  C  C104  1  0.843300  0.410400  0.011100  1.0  -0.0634
  C  C105  1  0.654300  0.732200  0.006800  1.0  -0.0342
  C  C106  1  0.560900  0.512300  0.098100  1.0  -0.0233
  C  C107  1  0.991800  0.707400  0.094400  1.0  -0.0535
  C  C108  1  0.446000  0.975500  0.310200  1.0  0.6468
  C  C109  1  0.405100  0.872600  0.255200  1.0  -0.0641
  C  C110  1  0.356300  0.807000  0.278000  1.0  -0.1006
  C  C111  1  0.323800  0.708400  0.228400  1.0  -0.134
  C  C112  1  0.341100  0.678800  0.155800  1.0  0.0436
  C  C113  1  0.388500  0.745200  0.132200  1.0  -0.1085
  C  C114  1  0.420400  0.841900  0.179800  1.0  -0.0678
  C  C115  1  0.437800  0.246500  0.318900  1.0  0.6433
  C  C116  1  0.407200  0.292700  0.268500  1.0  -0.1232
  C  C117  1  0.471600  0.386400  0.283700  1.0  -0.0933
  C  C118  1  0.442700  0.429800  0.236500  1.0  -0.1323
  C  C119  1  0.351100  0.381700  0.169400  1.0  0.0293
  C  C120  1  0.287100  0.290400  0.156900  1.0  -0.1225
  C  C121  1  0.315400  0.247400  0.205600  1.0  -0.0854
  C  C122  1  0.691500  0.196500  0.523700  1.0  0.7532
  C  C123  1  0.791400  0.227900  0.587400  1.0  -0.0464
  C  C124  1  0.868600  0.300900  0.591800  1.0  -0.0621
  C  C125  1  0.966100  0.330700  0.652200  1.0  -0.1681
  C  C126  1  0.979300  0.282200  0.699800  1.0  0.1046
  C  C127  1  0.906700  0.198900  0.678600  1.0  -0.1666
  C  C128  1  0.812800  0.174100  0.627000  1.0  -0.1269
  C  C129  1  0.443100  0.177100  0.560000  1.0  0.662
  C  C130  1  0.403400  0.228000  0.619800  1.0  -0.1049
  C  C131  1  0.408900  0.216000  0.692400  1.0  -0.0716
  C  C132  1  0.363700  0.252100  0.741600  1.0  -0.1014
  C  C133  1  0.308900  0.300700  0.720100  1.0  0.0816
  C  C134  1  0.307400  0.315900  0.647700  1.0  -0.1328
  C  C135  1  0.355900  0.282200  0.601000  1.0  -0.047
  C  C136  1  0.340900  0.526000  0.154900  1.0  -0.1051
  C  C137  1  0.323700  0.429200  0.117100  1.0  0.0309
  C  C138  1  0.282200  0.384200  0.029600  1.0  0.2091
  C  C139  1  0.253000  0.429300  0.983400  1.0  -0.0045
  C  C140  1  0.266600  0.523400  0.024100  1.0  0.195
  C  C141  1  0.314200  0.574100  0.110600  1.0  -0.0053
  C  C142  1  0.213400  0.381400  0.891800  1.0  0.0261
  C  C143  1  0.276400  0.368400  0.850300  1.0  0.2011
  C  C144  1  0.246200  0.325700  0.763900  1.0  0.0526
  C  C145  1  0.148000  0.299600  0.718900  1.0  -0.1603
  C  C146  1  0.081200  0.311400  0.754500  1.0  -0.0085
  C  C147  1  0.114800  0.351100  0.842400  1.0  0.1491
  C  C148  1  0.156700  0.589600  0.988900  1.0  -0.0601
  C  C149  1  0.345700  0.267800  0.993200  1.0  -0.033
  C  C150  1  0.439100  0.487700  0.901900  1.0  -0.0233
  C  C151  1  0.008200  0.292600  0.905600  1.0  -0.0518
  O  O152  1  0.575500  0.998000  0.625000  1.0  -0.6834
  O  O153  1  0.499300  0.961500  0.706000  1.0  -0.6434
  O  O154  1  0.470100  0.718300  0.634100  1.0  -0.6218
  O  O155  1  0.621300  0.829700  0.685200  1.0  -0.6031
  O  O156  1  0.369700  0.883200  0.498500  1.0  -0.6804
  O  O157  1  0.323500  0.749400  0.505000  1.0  -0.5743
  O  O158  1  0.537000  0.785400  0.488000  1.0  -0.6212
  O  O159  1  0.549000  0.894900  0.434900  1.0  -0.6593
  O  O160  1  0.764300  0.432900  0.023400  1.0  -0.2738
  O  O161  1  0.737100  0.711000  0.012800  1.0  -0.2641
  O  O162  1  0.625100  0.600700  0.100400  1.0  -0.2927
  O  O163  1  0.949600  0.634300  0.119500  1.0  -0.2621
  O  O164  1  0.424500  0.002000  0.375000  1.0  -0.6817
  O  O165  1  0.500700  0.038500  0.294000  1.0  -0.641
  O  O166  1  0.529900  0.281700  0.365900  1.0  -0.6226
  O  O167  1  0.378700  0.170300  0.314800  1.0  -0.602
  O  O168  1  0.630300  0.116800  0.501500  1.0  -0.6797
  O  O169  1  0.676500  0.250600  0.495000  1.0  -0.5722
  O  O170  1  0.463000  0.214600  0.512000  1.0  -0.6229
  O  O171  1  0.451000  0.105100  0.565100  1.0  -0.6592
  O  O172  1  0.235700  0.567100  0.976600  1.0  -0.2717
  O  O173  1  0.262900  0.289000  0.987200  1.0  -0.2639
  O  O174  1  0.374900  0.399300  0.899600  1.0  -0.2925
  O  O175  1  0.050400  0.365700  0.880500  1.0  -0.2599
