# generated using pymatgen
data_EuCd5H120(C11O3)16
_symmetry_space_group_name_H-M   'P 1'
_cell_length_a   15.97000000
_cell_length_b   18.59700000
_cell_length_c   28.43400000
_cell_angle_alpha   100.53600000
_cell_angle_beta   95.13000000
_cell_angle_gamma   109.61500000
_symmetry_Int_Tables_number   1
_chemical_formula_structural   EuCd5H120(C11O3)16
_chemical_formula_sum   'Eu1 Cd5 H120 C176 O48'
_cell_volume   7716.18641041
_cell_formula_units_Z   1
loop_
 _symmetry_equiv_pos_site_id
 _symmetry_equiv_pos_as_xyz
  1  'x, y, z'
loop_
 _atom_site_type_symbol
 _atom_site_label
 _atom_site_symmetry_multiplicity
 _atom_site_fract_x
 _atom_site_fract_y
 _atom_site_fract_z
 _atom_site_occupancy
 _atom_site_charge
  Eu  Eu1  1  0.806670  0.774630  0.768270  1.0  2.1849
  Cd  Cd2  1  0.193330  0.225370  0.231730  1.0  0.9273
  Cd  Cd3  1  0.382150  0.144100  0.240880  1.0  1.0729
  Cd  Cd4  1  0.044040  0.345340  0.265250  1.0  1.0784
  Cd  Cd5  1  0.617850  0.855900  0.759120  1.0  1.0715
  Cd  Cd6  1  0.955960  0.654660  0.734750  1.0  1.0779
  H  H7  1  0.797500  0.122500  0.180700  1.0  0.1244
  H  H8  1  0.710800  0.997500  0.138200  1.0  0.0984
  H  H9  1  0.874100  0.911400  0.200500  1.0  0.0935
  H  H10  1  0.970100  0.033700  0.238600  1.0  0.0989
  H  H11  1  0.725000  0.902900  0.071400  1.0  0.0957
  H  H12  1  0.589000  0.854700  0.999400  1.0  0.12
  H  H13  1  0.595900  0.873900  0.920100  1.0  0.1056
  H  H14  1  0.744000  0.742800  0.898200  1.0  0.0904
  H  H15  1  0.742500  0.722700  0.976300  1.0  0.1239
  H  H16  1  0.715900  0.614900  0.041000  1.0  0.1199
  H  H17  1  0.652400  0.575300  0.990900  1.0  0.1202
  H  H18  1  0.621400  0.550100  0.038100  1.0  0.1261
  H  H19  1  0.681700  0.812200  0.255400  1.0  0.0931
  H  H20  1  0.606000  0.770000  0.210000  1.0  0.1004
  H  H21  1  0.661700  0.859800  0.218500  1.0  0.0954
  H  H22  1  0.375200  0.621400  0.097600  1.0  0.1282
  H  H23  1  0.418400  0.557000  0.087900  1.0  0.1243
  H  H24  1  0.449000  0.629300  0.064000  1.0  0.132
  H  H25  1  0.918300  0.706200  0.167300  1.0  0.1165
  H  H26  1  0.857700  0.661800  0.201000  1.0  0.0995
  H  H27  1  0.848700  0.738800  0.190100  1.0  0.11
  H  H28  1  0.578500  0.475300  0.187300  1.0  0.101
  H  H29  1  0.417800  0.408400  0.146200  1.0  0.0981
  H  H30  1  0.282300  0.353900  0.172300  1.0  0.1051
  H  H31  1  0.304400  0.566500  0.244800  1.0  0.1047
  H  H32  1  0.436700  0.622100  0.213400  1.0  0.1109
  H  H33  1  0.709800  0.502700  0.245300  1.0  0.0954
  H  H34  1  0.809600  0.449900  0.272100  1.0  0.1155
  H  H35  1  0.901400  0.447900  0.145100  1.0  0.1073
  H  H36  1  0.804100  0.505500  0.120700  1.0  0.1093
  H  H37  1  0.138500  0.136500  0.328300  1.0  0.088
  H  H38  1  0.009200  0.081400  0.359900  1.0  0.1228
  H  H39  1  0.993600  0.867200  0.290800  1.0  0.1252
  H  H40  1  0.121200  0.923400  0.260500  1.0  0.1028
  H  H41  1  0.853000  0.017800  0.320300  1.0  0.1002
  H  H42  1  0.041100  0.847200  0.409000  1.0  0.1386
  H  H43  1  0.981300  0.884200  0.438400  1.0  0.1375
  H  H44  1  0.032300  0.925400  0.400400  1.0  0.1191
  H  H45  1  0.507000  0.798900  0.347600  1.0  0.1247
  H  H46  1  0.570300  0.768400  0.317100  1.0  0.111
  H  H47  1  0.562000  0.849300  0.314500  1.0  0.1104
  H  H48  1  0.723100  0.995500  0.262800  1.0  0.1039
  H  H49  1  0.624700  0.051800  0.238600  1.0  0.0973
  H  H50  1  0.534100  0.055300  0.364800  1.0  0.1095
  H  H51  1  0.631800  0.998300  0.390000  1.0  0.1092
  H  H52  1  0.707300  0.678300  0.247900  1.0  0.1076
  H  H53  1  0.742000  0.637300  0.284800  1.0  0.1136
  H  H54  1  0.789300  0.727500  0.289200  1.0  0.1197
  H  H55  1  0.814500  0.922200  0.520100  1.0  0.1197
  H  H56  1  0.724100  0.859300  0.490200  1.0  0.1006
  H  H57  1  0.782700  0.925500  0.467000  1.0  0.1164
  H  H58  1  0.686700  0.587900  0.435300  1.0  0.1077
  H  H59  1  0.845300  0.631800  0.493600  1.0  0.1296
  H  H60  1  0.898400  0.640900  0.575500  1.0  0.0944
  H  H61  1  0.736200  0.747100  0.616100  1.0  0.0859
  H  H62  1  0.704900  0.758900  0.539000  1.0  0.0819
  H  H63  1  0.515700  0.588900  0.318000  1.0  0.1078
  H  H64  1  0.416200  0.466800  0.279700  1.0  0.0687
  H  H65  1  0.590900  0.369700  0.314600  1.0  0.102
  H  H66  1  0.695200  0.493000  0.357400  1.0  0.1267
  H  H67  1  0.202500  0.877500  0.819300  1.0  0.1235
  H  H68  1  0.289200  0.002500  0.861800  1.0  0.0989
  H  H69  1  0.125900  0.088600  0.799500  1.0  0.0942
  H  H70  1  0.029900  0.966300  0.761400  1.0  0.0996
  H  H71  1  0.275000  0.097100  0.928600  1.0  0.0962
  H  H72  1  0.411000  0.145300  0.000600  1.0  0.1206
  H  H73  1  0.404100  0.126100  0.079900  1.0  0.1046
  H  H74  1  0.256000  0.257200  0.101800  1.0  0.0896
  H  H75  1  0.257500  0.277300  0.023700  1.0  0.1241
  H  H76  1  0.284100  0.385100  0.959000  1.0  0.1186
  H  H77  1  0.347600  0.424700  0.009100  1.0  0.1188
  H  H78  1  0.378600  0.449900  0.961900  1.0  0.127
  H  H79  1  0.318300  0.187800  0.744600  1.0  0.093
  H  H80  1  0.394000  0.230000  0.790000  1.0  0.1013
  H  H81  1  0.338300  0.140200  0.781500  1.0  0.0958
  H  H82  1  0.624800  0.378600  0.902400  1.0  0.133
  H  H83  1  0.581600  0.443000  0.912100  1.0  0.126
  H  H84  1  0.551000  0.370700  0.936000  1.0  0.1311
  H  H85  1  0.081700  0.293800  0.832700  1.0  0.1174
  H  H86  1  0.142300  0.338200  0.799000  1.0  0.0979
  H  H87  1  0.151300  0.261200  0.809900  1.0  0.1087
  H  H88  1  0.421500  0.524700  0.812700  1.0  0.1025
  H  H89  1  0.582200  0.591600  0.853800  1.0  0.0978
  H  H90  1  0.717700  0.646100  0.827700  1.0  0.0919
  H  H91  1  0.695600  0.433500  0.755200  1.0  0.1048
  H  H92  1  0.563300  0.377900  0.786600  1.0  0.1119
  H  H93  1  0.290200  0.497300  0.754700  1.0  0.0951
  H  H94  1  0.190400  0.550100  0.727900  1.0  0.1155
  H  H95  1  0.098600  0.552100  0.854900  1.0  0.1077
  H  H96  1  0.195900  0.494500  0.879300  1.0  0.1097
  H  H97  1  0.861500  0.863500  0.671700  1.0  0.0878
  H  H98  1  0.990800  0.918600  0.640100  1.0  0.1222
  H  H99  1  0.006400  0.132800  0.709200  1.0  0.1242
  H  H100  1  0.878800  0.076600  0.739500  1.0  0.1035
  H  H101  1  0.147000  0.982200  0.679700  1.0  0.1003
  H  H102  1  0.958900  0.152800  0.591000  1.0  0.1391
  H  H103  1  0.018700  0.115800  0.561600  1.0  0.1361
  H  H104  1  0.967700  0.074600  0.599600  1.0  0.12
  H  H105  1  0.493000  0.201100  0.652400  1.0  0.1246
  H  H106  1  0.429700  0.231600  0.682900  1.0  0.1104
  H  H107  1  0.438000  0.150700  0.685500  1.0  0.1121
  H  H108  1  0.276900  0.004500  0.737200  1.0  0.1044
  H  H109  1  0.375300  0.948200  0.761400  1.0  0.0983
  H  H110  1  0.465900  0.944700  0.635200  1.0  0.1087
  H  H111  1  0.368200  0.001700  0.610000  1.0  0.1082
  H  H112  1  0.292700  0.321700  0.752100  1.0  0.1062
  H  H113  1  0.258000  0.362700  0.715200  1.0  0.1139
  H  H114  1  0.210700  0.272500  0.710800  1.0  0.1201
  H  H115  1  0.185500  0.077800  0.479900  1.0  0.1189
  H  H116  1  0.275900  0.140700  0.509800  1.0  0.1042
  H  H117  1  0.217300  0.074500  0.533000  1.0  0.1161
  H  H118  1  0.313300  0.412100  0.564700  1.0  0.1066
  H  H119  1  0.154700  0.368200  0.506400  1.0  0.1289
  H  H120  1  0.101600  0.359100  0.424500  1.0  0.095
  H  H121  1  0.263800  0.252900  0.383900  1.0  0.0867
  H  H122  1  0.295100  0.241100  0.461000  1.0  0.0811
  H  H123  1  0.484300  0.411100  0.682000  1.0  0.1079
  H  H124  1  0.583800  0.533200  0.720300  1.0  0.0676
  H  H125  1  0.409100  0.630300  0.685400  1.0  0.1015
  H  H126  1  0.304800  0.507000  0.642600  1.0  0.1252
  C  C127  1  0.815900  0.080600  0.182900  1.0  -0.1032
  C  C128  1  0.763500  0.005600  0.158600  1.0  -0.1392
  C  C129  1  0.861300  0.954600  0.194800  1.0  -0.1234
  C  C130  1  0.918100  0.027300  0.218100  1.0  -0.1034
  C  C131  1  0.733000  0.862200  0.131000  1.0  0.0031
  C  C132  1  0.713100  0.856900  0.082400  1.0  -0.103
  C  C133  1  0.675900  0.785800  0.048800  1.0  -0.0078
  C  C134  1  0.657500  0.718300  0.064800  1.0  0.2399
  C  C135  1  0.672000  0.720800  0.113900  1.0  -0.0276
  C  C136  1  0.711400  0.792700  0.147200  1.0  0.1902
  C  C137  1  0.667900  0.788900  0.996400  1.0  0.0178
  C  C138  1  0.621400  0.832700  0.979600  1.0  -0.125
  C  C139  1  0.624600  0.842900  0.931400  1.0  -0.045
  C  C140  1  0.668700  0.808200  0.901300  1.0  -0.1615
  C  C141  1  0.712600  0.765400  0.918500  1.0  -0.0123
  C  C142  1  0.712900  0.753600  0.965700  1.0  -0.1755
  C  C143  1  0.670400  0.822500  0.852100  1.0  0.7463
  C  C144  1  0.654400  0.593300  0.025000  1.0  -0.0294
  C  C145  1  0.664200  0.810100  0.221900  1.0  0.0088
  C  C146  1  0.429500  0.612000  0.092400  1.0  -0.0978
  C  C147  1  0.859900  0.692100  0.176900  1.0  -0.0539
  C  C148  1  0.644600  0.648600  0.133800  1.0  -0.0216
  C  C149  1  0.557500  0.616400  0.143400  1.0  0.2287
  C  C150  1  0.532700  0.553900  0.165100  1.0  0.0451
  C  C151  1  0.596100  0.519700  0.174600  1.0  -0.13
  C  C152  1  0.683100  0.548300  0.166000  1.0  0.0055
  C  C153  1  0.706700  0.614100  0.145800  1.0  0.2085
  C  C154  1  0.395000  0.440700  0.165800  1.0  -0.1172
  C  C155  1  0.314300  0.407500  0.182200  1.0  -0.0645
  C  C156  1  0.327100  0.534700  0.224700  1.0  -0.0685
  C  C157  1  0.407200  0.568100  0.206400  1.0  -0.1313
  C  C158  1  0.200100  0.415600  0.234900  1.0  0.6579
  C  C159  1  0.749300  0.513100  0.181300  1.0  0.0483
  C  C160  1  0.750500  0.493600  0.225700  1.0  -0.1575
  C  C161  1  0.809200  0.461600  0.241700  1.0  -0.0836
  C  C162  1  0.869300  0.446200  0.211700  1.0  -0.1258
  C  C163  1  0.864600  0.460900  0.166100  1.0  -0.0626
  C  C164  1  0.805800  0.494700  0.151400  1.0  -0.1174
  C  C165  1  0.934300  0.409500  0.228800  1.0  0.6605
  C  C166  1  0.225500  0.072500  0.269200  1.0  0.6982
  C  C167  1  0.141300  0.035300  0.289800  1.0  -0.1821
  C  C168  1  0.108400  0.082500  0.320300  1.0  -0.0338
  C  C169  1  0.030700  0.049600  0.338900  1.0  -0.1455
  C  C170  1  0.985900  0.970400  0.326500  1.0  0.0665
  C  C171  1  0.021600  0.921500  0.297600  1.0  -0.2095
  C  C172  1  0.097700  0.955300  0.279900  1.0  -0.0515
  C  C173  1  0.894700  0.937600  0.341400  1.0  -0.011
  C  C174  1  0.834100  0.973600  0.333100  1.0  -0.112
  C  C175  1  0.746200  0.947800  0.342800  1.0  -0.0016
  C  C176  1  0.720400  0.882000  0.363400  1.0  0.1909
  C  C177  1  0.780800  0.844200  0.372300  1.0  -0.0287
  C  C178  1  0.865500  0.872300  0.361900  1.0  0.1811
  C  C179  1  0.001200  0.875800  0.407600  1.0  -0.1286
  C  C180  1  0.562800  0.814100  0.335200  1.0  -0.0589
  C  C181  1  0.685000  0.987200  0.329000  1.0  0.0539
  C  C182  1  0.684300  0.006200  0.283200  1.0  -0.2005
  C  C183  1  0.626000  0.040600  0.269200  1.0  -0.0181
  C  C184  1  0.569400  0.059300  0.298500  1.0  -0.1542
  C  C185  1  0.571800  0.042800  0.344300  1.0  -0.0664
  C  C186  1  0.629800  0.008000  0.359100  1.0  -0.0748
  C  C187  1  0.502400  0.094600  0.280700  1.0  0.6808
  C  C188  1  0.732700  0.684400  0.281000  1.0  0.0117
  C  C189  1  0.784000  0.891400  0.488400  1.0  -0.0747
  C  C190  1  0.750800  0.772000  0.391900  1.0  -0.0288
  C  C191  1  0.697400  0.700600  0.361100  1.0  0.2165
  C  C192  1  0.671700  0.629700  0.376300  1.0  0.0665
  C  C193  1  0.701600  0.634000  0.424300  1.0  -0.1331
  C  C194  1  0.753400  0.704900  0.457100  1.0  -0.0261
  C  C195  1  0.777700  0.774000  0.439900  1.0  0.1824
  C  C196  1  0.829100  0.661800  0.518500  1.0  -0.1999
  C  C197  1  0.857200  0.664300  0.568300  1.0  -0.045
  C  C198  1  0.765500  0.729000  0.592400  1.0  -0.1334
  C  C199  1  0.744600  0.733800  0.545600  1.0  -0.1471
  C  C200  1  0.851300  0.694200  0.655600  1.0  0.7187
  C  C201  1  0.613000  0.555500  0.345200  1.0  0.0896
  C  C202  1  0.531200  0.545300  0.319600  1.0  -0.1274
  C  C203  1  0.471400  0.471500  0.296200  1.0  -0.0483
  C  C204  1  0.490100  0.406000  0.296300  1.0  -0.1207
  C  C205  1  0.574900  0.413800  0.317200  1.0  -0.0477
  C  C206  1  0.638500  0.488300  0.342700  1.0  -0.1371
  C  C207  1  0.425700  0.325100  0.270400  1.0  0.7013
  C  C208  1  0.282300  0.453600  0.212500  1.0  -0.1429
  C  C209  1  0.785900  0.942700  0.163200  1.0  0.0374
  C  C210  1  0.441200  0.519500  0.177900  1.0  0.0218
  C  C211  1  0.898100  0.092200  0.211300  1.0  -0.0978
  C  C212  1  0.778700  0.704000  0.508900  1.0  0.1194
  C  C213  1  0.826400  0.699100  0.604700  1.0  -0.0428
  C  C214  1  0.962800  0.173800  0.231800  1.0  0.703
  C  C215  1  0.184100  0.919400  0.817100  1.0  -0.1044
  C  C216  1  0.236500  0.994400  0.841400  1.0  -0.1394
  C  C217  1  0.138700  0.045400  0.805200  1.0  -0.1228
  C  C218  1  0.081900  0.972700  0.781900  1.0  -0.1043
  C  C219  1  0.267000  0.137800  0.869000  1.0  0.0055
  C  C220  1  0.286900  0.143100  0.917600  1.0  -0.1017
  C  C221  1  0.324100  0.214200  0.951200  1.0  -0.0069
  C  C222  1  0.342500  0.281700  0.935200  1.0  0.2393
  C  C223  1  0.328000  0.279200  0.886100  1.0  -0.0278
  C  C224  1  0.288600  0.207300  0.852800  1.0  0.1893
  C  C225  1  0.332100  0.211100  0.003600  1.0  0.0177
  C  C226  1  0.378600  0.167300  0.020400  1.0  -0.1236
  C  C227  1  0.375400  0.157100  0.068600  1.0  -0.0427
  C  C228  1  0.331300  0.191800  0.098700  1.0  -0.1618
  C  C229  1  0.287400  0.234600  0.081500  1.0  -0.0121
  C  C230  1  0.287100  0.246400  0.034300  1.0  -0.176
  C  C231  1  0.329600  0.177500  0.147900  1.0  0.7462
  C  C232  1  0.345600  0.406700  0.975000  1.0  -0.0279
  C  C233  1  0.335800  0.189900  0.778100  1.0  0.0084
  C  C234  1  0.570500  0.388000  0.907600  1.0  -0.0978
  C  C235  1  0.140100  0.307900  0.823100  1.0  -0.0553
  C  C236  1  0.355400  0.351400  0.866200  1.0  -0.0209
  C  C237  1  0.442500  0.383600  0.856600  1.0  0.2293
  C  C238  1  0.467300  0.446100  0.834900  1.0  0.0469
  C  C239  1  0.403900  0.480300  0.825400  1.0  -0.1309
  C  C240  1  0.316900  0.451700  0.834000  1.0  0.0031
  C  C241  1  0.293300  0.385900  0.854200  1.0  0.2046
  C  C242  1  0.605000  0.559300  0.834200  1.0  -0.1154
  C  C243  1  0.685700  0.592500  0.817800  1.0  -0.0644
  C  C244  1  0.672900  0.465300  0.775300  1.0  -0.068
  C  C245  1  0.592800  0.431900  0.793600  1.0  -0.1321
  C  C246  1  0.799900  0.584400  0.765100  1.0  0.6578
  C  C247  1  0.250700  0.486900  0.818700  1.0  0.0481
  C  C248  1  0.249500  0.506400  0.774300  1.0  -0.1617
  C  C249  1  0.190800  0.538400  0.758300  1.0  -0.0825
  C  C250  1  0.130700  0.553800  0.788300  1.0  -0.1251
  C  C251  1  0.135400  0.539100  0.833900  1.0  -0.0618
  C  C252  1  0.194200  0.505300  0.848600  1.0  -0.1188
  C  C253  1  0.065700  0.590500  0.771200  1.0  0.6617
  C  C254  1  0.774500  0.927500  0.730800  1.0  0.6974
  C  C255  1  0.858700  0.964700  0.710200  1.0  -0.1822
  C  C256  1  0.891600  0.917500  0.679700  1.0  -0.0332
  C  C257  1  0.969300  0.950400  0.661100  1.0  -0.1468
  C  C258  1  0.014100  0.029600  0.673500  1.0  0.067
  C  C259  1  0.978400  0.078500  0.702400  1.0  -0.2091
  C  C260  1  0.902300  0.044700  0.720100  1.0  -0.0522
  C  C261  1  0.105300  0.062400  0.658600  1.0  -0.0117
  C  C262  1  0.165900  0.026400  0.666900  1.0  -0.1086
  C  C263  1  0.253800  0.052200  0.657200  1.0  0.0015
  C  C264  1  0.279600  0.118000  0.636600  1.0  0.1935
  C  C265  1  0.219200  0.155800  0.627700  1.0  -0.0287
  C  C266  1  0.134500  0.127700  0.638100  1.0  0.1808
  C  C267  1  0.998800  0.124200  0.592400  1.0  -0.1287
  C  C268  1  0.437200  0.185900  0.664800  1.0  -0.0574
  C  C269  1  0.315000  0.012800  0.671000  1.0  0.0544
  C  C270  1  0.315700  0.993800  0.716800  1.0  -0.199
  C  C271  1  0.374000  0.959400  0.730800  1.0  -0.0154
  C  C272  1  0.430600  0.940700  0.701500  1.0  -0.1539
  C  C273  1  0.428200  0.957200  0.655700  1.0  -0.0665
  C  C274  1  0.370200  0.992000  0.640900  1.0  -0.0748
  C  C275  1  0.497600  0.905400  0.719300  1.0  0.6805
  C  C276  1  0.267300  0.315600  0.719000  1.0  0.0133
  C  C277  1  0.216000  0.108600  0.511600  1.0  -0.0741
  C  C278  1  0.249200  0.228000  0.608100  1.0  -0.0281
  C  C279  1  0.302600  0.299400  0.638900  1.0  0.2168
  C  C280  1  0.328300  0.370300  0.623700  1.0  0.0658
  C  C281  1  0.298400  0.366000  0.575700  1.0  -0.1337
  C  C282  1  0.246600  0.295100  0.542900  1.0  -0.0276
  C  C283  1  0.222300  0.226000  0.560100  1.0  0.1817
  C  C284  1  0.170900  0.338200  0.481500  1.0  -0.2045
  C  C285  1  0.142800  0.335700  0.431700  1.0  -0.0448
  C  C286  1  0.234500  0.271000  0.407600  1.0  -0.1338
  C  C287  1  0.255400  0.266200  0.454400  1.0  -0.1467
  C  C288  1  0.148700  0.305800  0.344400  1.0  0.7199
  C  C289  1  0.387000  0.444500  0.654800  1.0  0.0893
  C  C290  1  0.468800  0.454700  0.680400  1.0  -0.1268
  C  C291  1  0.528600  0.528500  0.703800  1.0  -0.0485
  C  C292  1  0.509900  0.594000  0.703700  1.0  -0.1194
  C  C293  1  0.425100  0.586200  0.682800  1.0  -0.047
  C  C294  1  0.361500  0.511700  0.657300  1.0  -0.1364
  C  C295  1  0.574300  0.674900  0.729600  1.0  0.7036
  C  C296  1  0.717700  0.546400  0.787500  1.0  -0.1442
  C  C297  1  0.214100  0.057300  0.836800  1.0  0.0377
  C  C298  1  0.558800  0.480500  0.822100  1.0  0.0223
  C  C299  1  0.101900  0.907800  0.788700  1.0  -0.1001
  C  C300  1  0.221300  0.296000  0.491100  1.0  0.1186
  C  C301  1  0.173600  0.300900  0.395300  1.0  -0.0407
  C  C302  1  0.037200  0.826200  0.768200  1.0  0.7036
  O  O303  1  0.045800  0.187800  0.245000  1.0  -0.7452
  O  O304  1  0.943000  0.406200  0.272600  1.0  -0.5882
  O  O305  1  0.975600  0.383800  0.199100  1.0  -0.5761
  O  O306  1  0.169100  0.457500  0.260100  1.0  -0.6005
  O  O307  1  0.165800  0.341700  0.225100  1.0  -0.7065
  O  O308  1  0.251700  0.145900  0.272700  1.0  -0.6738
  O  O309  1  0.264200  0.030400  0.249100  1.0  -0.6096
  O  O310  1  0.710800  0.788100  0.824600  1.0  -0.7939
  O  O311  1  0.631800  0.865300  0.838500  1.0  -0.6115
  O  O312  1  0.342000  0.317200  0.265100  1.0  -0.7408
  O  O313  1  0.453900  0.273500  0.267000  1.0  -0.5894
  O  O314  1  0.494100  0.096500  0.236900  1.0  -0.5831
  O  O315  1  0.459800  0.119100  0.309700  1.0  -0.5696
  O  O316  1  0.909800  0.663200  0.662200  1.0  -0.6334
  O  O317  1  0.812800  0.720000  0.686400  1.0  -0.6664
  O  O318  1  0.499600  0.655200  0.134500  1.0  -0.32
  O  O319  1  0.793100  0.647000  0.135900  1.0  -0.2607
  O  O320  1  0.617600  0.648200  0.031900  1.0  -0.2823
  O  O321  1  0.727500  0.793100  0.195100  1.0  -0.2746
  O  O322  1  0.670800  0.700100  0.313100  1.0  -0.2881
  O  O323  1  0.831600  0.843100  0.470400  1.0  -0.2775
  O  O324  1  0.636300  0.852700  0.374900  1.0  -0.2769
  O  O325  1  0.921500  0.829900  0.369000  1.0  -0.3594
  O  O326  1  0.933900  0.229400  0.234100  1.0  -0.6133
  O  O327  1  0.954200  0.812200  0.755000  1.0  -0.7443
  O  O328  1  0.057000  0.593800  0.727400  1.0  -0.5887
  O  O329  1  0.024400  0.616200  0.800900  1.0  -0.5736
  O  O330  1  0.830900  0.542500  0.739900  1.0  -0.5998
  O  O331  1  0.834200  0.658300  0.774900  1.0  -0.6984
  O  O332  1  0.748300  0.854100  0.727300  1.0  -0.6768
  O  O333  1  0.735800  0.969600  0.750900  1.0  -0.6097
  O  O334  1  0.289200  0.211900  0.175400  1.0  -0.8
  O  O335  1  0.368200  0.134700  0.161500  1.0  -0.6083
  O  O336  1  0.658000  0.682800  0.734900  1.0  -0.7371
  O  O337  1  0.546100  0.726500  0.733000  1.0  -0.5913
  O  O338  1  0.505900  0.903500  0.763100  1.0  -0.5783
  O  O339  1  0.540200  0.880900  0.690300  1.0  -0.5735
  O  O340  1  0.090200  0.336800  0.337800  1.0  -0.6361
  O  O341  1  0.187200  0.280000  0.313600  1.0  -0.6618
  O  O342  1  0.500400  0.344800  0.865500  1.0  -0.3195
  O  O343  1  0.206900  0.353000  0.864100  1.0  -0.265
  O  O344  1  0.382400  0.351800  0.968100  1.0  -0.282
  O  O345  1  0.272500  0.206900  0.804900  1.0  -0.2756
  O  O346  1  0.329200  0.299900  0.686900  1.0  -0.2883
  O  O347  1  0.168400  0.156900  0.529600  1.0  -0.2753
  O  O348  1  0.363700  0.147300  0.625100  1.0  -0.2742
  O  O349  1  0.078500  0.170100  0.631000  1.0  -0.3594
  O  O350  1  0.066100  0.770600  0.765900  1.0  -0.6156
