# generated using pymatgen
data_Mn2CdH60(C11O3)8
_symmetry_space_group_name_H-M   'P 1'
_cell_length_a   15.95700000
_cell_length_b   16.46000000
_cell_length_c   17.30000000
_cell_angle_alpha   106.07000000
_cell_angle_beta   100.85000000
_cell_angle_gamma   113.40800000
_symmetry_Int_Tables_number   1
_chemical_formula_structural   Mn2CdH60(C11O3)8
_chemical_formula_sum   'Mn2 Cd1 H60 C88 O24'
_cell_volume   3770.90863251
_cell_formula_units_Z   1
loop_
 _symmetry_equiv_pos_site_id
 _symmetry_equiv_pos_as_xyz
  1  'x, y, z'
loop_
 _atom_site_type_symbol
 _atom_site_label
 _atom_site_symmetry_multiplicity
 _atom_site_fract_x
 _atom_site_fract_y
 _atom_site_fract_z
 _atom_site_occupancy
 _atom_site_charge
  Mn  Mn1  1  0.748960  0.596770  0.573390  1.0  1.1058
  Mn  Mn2  1  0.500000  0.500000  0.500000  1.0  1.1023
  Cd  Cd3  1  0.251040  0.403230  0.426610  1.0  1.1062
  H  H4  1  0.328200  0.679300  0.798300  1.0  0.1184
  H  H5  1  0.646800  0.730900  0.011200  1.0  0.1324
  H  H6  1  0.543200  0.667800  0.011800  1.0  0.1467
  H  H7  1  0.628900  0.737300  0.098300  1.0  0.1396
  H  H8  1  0.305600  0.921600  0.032100  1.0  0.134
  H  H9  1  0.213200  0.878500  0.057500  1.0  0.1302
  H  H10  1  0.207500  0.838500  0.962200  1.0  0.1018
  H  H11  1  0.549100  0.081800  0.068800  1.0  0.1236
  H  H12  1  0.589900  0.011700  0.079200  1.0  0.13
  H  H13  1  0.612500  0.100500  0.159300  1.0  0.1254
  H  H14  1  0.337100  0.578700  0.122800  1.0  0.1539
  H  H15  1  0.323500  0.618400  0.051500  1.0  0.1414
  H  H16  1  0.317800  0.667200  0.140600  1.0  0.1323
  H  H17  1  0.595700  0.979100  0.364400  1.0  0.1042
  H  H18  1  0.439200  0.686800  0.293300  1.0  0.1069
  H  H19  1  0.765400  0.822400  0.434500  1.0  0.1151
  H  H20  1  0.711400  0.902600  0.370700  1.0  0.1258
  H  H21  1  0.702900  0.148600  0.375100  1.0  0.1276
  H  H22  1  0.731900  0.307200  0.445100  1.0  0.1079
  H  H23  1  0.456300  0.224700  0.328100  1.0  0.0957
  H  H24  1  0.430500  0.081000  0.248000  1.0  0.1092
  H  H25  1  0.630800  0.838500  0.910800  1.0  0.1127
  H  H26  1  0.712600  0.804200  0.817400  1.0  0.1206
  H  H27  1  0.490900  0.537500  0.692200  1.0  0.0797
  H  H28  1  0.397000  0.572400  0.771900  1.0  0.1475
  H  H29  1  0.089000  0.719500  0.673200  1.0  0.1083
  H  H30  1  0.240000  0.755500  0.756900  1.0  0.1115
  H  H31  1  0.117100  0.653900  0.918300  1.0  0.1277
  H  H32  1  0.962800  0.600400  0.820200  1.0  0.1102
  H  H33  1  0.493200  0.615900  0.377600  1.0  0.1261
  H  H34  1  0.671800  0.320700  0.201700  1.0  0.1178
  H  H35  1  0.353200  0.269100  0.988800  1.0  0.1313
  H  H36  1  0.456800  0.332200  0.988200  1.0  0.147
  H  H37  1  0.371100  0.262700  0.901700  1.0  0.1396
  H  H38  1  0.694400  0.078400  0.967900  1.0  0.1319
  H  H39  1  0.786800  0.121500  0.942500  1.0  0.1297
  H  H40  1  0.792500  0.161500  0.037800  1.0  0.1017
  H  H41  1  0.450900  0.918200  0.931200  1.0  0.1241
  H  H42  1  0.410100  0.988300  0.920800  1.0  0.13
  H  H43  1  0.387500  0.899500  0.840700  1.0  0.1265
  H  H44  1  0.662900  0.421300  0.877200  1.0  0.1522
  H  H45  1  0.676500  0.381600  0.948500  1.0  0.1405
  H  H46  1  0.682200  0.332800  0.859400  1.0  0.1328
  H  H47  1  0.404300  0.020900  0.635600  1.0  0.1044
  H  H48  1  0.560800  0.313200  0.706700  1.0  0.1077
  H  H49  1  0.234600  0.177600  0.565500  1.0  0.1159
  H  H50  1  0.288600  0.097400  0.629300  1.0  0.1258
  H  H51  1  0.297100  0.851400  0.624900  1.0  0.1297
  H  H52  1  0.268100  0.692800  0.554900  1.0  0.1074
  H  H53  1  0.543700  0.775300  0.671900  1.0  0.0957
  H  H54  1  0.569500  0.919000  0.752000  1.0  0.1092
  H  H55  1  0.369200  0.161500  0.089200  1.0  0.1128
  H  H56  1  0.287400  0.195800  0.182600  1.0  0.12
  H  H57  1  0.509100  0.462500  0.307800  1.0  0.0795
  H  H58  1  0.603000  0.427600  0.228100  1.0  0.1468
  H  H59  1  0.911000  0.280500  0.326800  1.0  0.1082
  H  H60  1  0.760000  0.244500  0.243100  1.0  0.1111
  H  H61  1  0.882900  0.346100  0.081700  1.0  0.1269
  H  H62  1  0.037200  0.399600  0.179800  1.0  0.111
  H  H63  1  0.506800  0.384100  0.622400  1.0  0.1251
  C  C64  1  0.448100  0.730000  0.900500  1.0  0.0382
  C  C65  1  0.352900  0.709300  0.857600  1.0  -0.1238
  C  C66  1  0.293500  0.732200  0.901100  1.0  0.0713
  C  C67  1  0.328700  0.773800  0.986800  1.0  0.2325
  C  C68  1  0.423400  0.800100  0.036800  1.0  0.0521
  C  C69  1  0.481100  0.777100  0.991500  1.0  0.0824
  C  C70  1  0.601000  0.728900  0.040500  1.0  -0.1605
  C  C71  1  0.247900  0.864000  0.020700  1.0  -0.0224
  C  C72  1  0.564700  0.051900  0.105600  1.0  -0.0625
  C  C73  1  0.349000  0.635600  0.111800  1.0  -0.0555
  C  C74  1  0.462800  0.849200  0.130700  1.0  -0.0171
  C  C75  1  0.481500  0.803000  0.185900  1.0  0.1213
  C  C76  1  0.532700  0.850400  0.269500  1.0  0.0474
  C  C77  1  0.561300  0.946300  0.306100  1.0  -0.0847
  C  C78  1  0.541400  0.995500  0.260400  1.0  0.0432
  C  C79  1  0.491200  0.945900  0.170700  1.0  0.1726
  C  C80  1  0.566700  0.804500  0.325000  1.0  0.0214
  C  C81  1  0.504500  0.716800  0.325800  1.0  -0.1125
  C  C82  1  0.637000  0.713700  0.417000  1.0  -0.087
  C  C83  1  0.698900  0.797500  0.409900  1.0  -0.0517
  C  C84  1  0.667400  0.844200  0.369500  1.0  -0.1547
  C  C85  1  0.672800  0.669200  0.463400  1.0  0.6218
  C  C86  1  0.560700  0.094500  0.300700  1.0  0.085
  C  C87  1  0.653600  0.164700  0.363500  1.0  -0.1221
  C  C88  1  0.670000  0.259900  0.408300  1.0  -0.0548
  C  C89  1  0.596600  0.281600  0.397800  1.0  -0.0771
  C  C90  1  0.507200  0.210300  0.336500  1.0  -0.0501
  C  C91  1  0.491000  0.123700  0.289700  1.0  -0.1748
  C  C92  1  0.611400  0.380300  0.446800  1.0  0.6884
  C  C93  1  0.507200  0.709800  0.851900  1.0  0.064
  C  C94  1  0.601500  0.779000  0.865600  1.0  -0.1516
  C  C95  1  0.651500  0.757800  0.810700  1.0  -0.0642
  C  C96  1  0.606400  0.662600  0.743600  1.0  -0.1363
  C  C97  1  0.517600  0.598900  0.734200  1.0  -0.06
  C  C98  1  0.460700  0.617500  0.783500  1.0  -0.2024
  C  C99  1  0.659100  0.645400  0.686000  1.0  0.6118
  C  C100  1  0.916600  0.622000  0.676200  1.0  0.6399
  C  C101  1  0.009500  0.650900  0.732700  1.0  -0.0324
  C  C102  1  0.093300  0.700400  0.718900  1.0  -0.0471
  C  C103  1  0.185300  0.723700  0.770000  1.0  -0.1672
  C  C104  1  0.194700  0.698500  0.841900  1.0  0.0292
  C  C105  1  0.111300  0.660300  0.866000  1.0  -0.1474
  C  C106  1  0.018400  0.631900  0.808100  1.0  -0.0567
  C  C107  1  0.536800  0.671500  0.374300  1.0  -0.1035
  C  C108  1  0.551900  0.270000  0.099500  1.0  0.038
  C  C109  1  0.647100  0.290700  0.142400  1.0  -0.127
  C  C110  1  0.706500  0.267800  0.098900  1.0  0.0701
  C  C111  1  0.671300  0.226200  0.013200  1.0  0.2331
  C  C112  1  0.576600  0.199900  0.963200  1.0  0.0522
  C  C113  1  0.518900  0.222900  0.008500  1.0  0.0822
  C  C114  1  0.399000  0.271100  0.959500  1.0  -0.1598
  C  C115  1  0.752100  0.136000  0.979300  1.0  -0.0206
  C  C116  1  0.435300  0.948100  0.894400  1.0  -0.0621
  C  C117  1  0.651000  0.364400  0.888200  1.0  -0.0604
  C  C118  1  0.537200  0.150800  0.869300  1.0  -0.0181
  C  C119  1  0.518500  0.197000  0.814100  1.0  0.1227
  C  C120  1  0.467300  0.149600  0.730500  1.0  0.0483
  C  C121  1  0.438700  0.053700  0.693900  1.0  -0.083
  C  C122  1  0.458600  0.004500  0.739600  1.0  0.0424
  C  C123  1  0.508800  0.054100  0.829300  1.0  0.1724
  C  C124  1  0.433300  0.195500  0.675000  1.0  0.0203
  C  C125  1  0.495500  0.283200  0.674200  1.0  -0.1102
  C  C126  1  0.363000  0.286300  0.583000  1.0  -0.0859
  C  C127  1  0.301100  0.202500  0.590100  1.0  -0.0517
  C  C128  1  0.332600  0.155800  0.630500  1.0  -0.1538
  C  C129  1  0.327200  0.330800  0.536600  1.0  0.6234
  C  C130  1  0.439300  0.905500  0.699300  1.0  0.0824
  C  C131  1  0.346400  0.835300  0.636500  1.0  -0.1228
  C  C132  1  0.330000  0.740100  0.591700  1.0  -0.0519
  C  C133  1  0.403400  0.718400  0.602200  1.0  -0.0784
  C  C134  1  0.492800  0.789700  0.663500  1.0  -0.0523
  C  C135  1  0.509000  0.876300  0.710300  1.0  -0.1761
  C  C136  1  0.388600  0.619700  0.553200  1.0  0.6887
  C  C137  1  0.492800  0.290200  0.148100  1.0  0.0639
  C  C138  1  0.398500  0.221000  0.134400  1.0  -0.151
  C  C139  1  0.348500  0.242200  0.189300  1.0  -0.0649
  C  C140  1  0.393600  0.337400  0.256400  1.0  -0.1371
  C  C141  1  0.482400  0.401100  0.265800  1.0  -0.0622
  C  C142  1  0.539300  0.382500  0.216500  1.0  -0.2035
  C  C143  1  0.340900  0.354600  0.314000  1.0  0.612
  C  C144  1  0.083400  0.378000  0.323800  1.0  0.6404
  C  C145  1  0.990500  0.349100  0.267300  1.0  -0.0308
  C  C146  1  0.906700  0.299600  0.281100  1.0  -0.0432
  C  C147  1  0.814700  0.276300  0.230000  1.0  -0.1642
  C  C148  1  0.805300  0.301500  0.158100  1.0  0.0287
  C  C149  1  0.888700  0.339700  0.134000  1.0  -0.1481
  C  C150  1  0.981600  0.368100  0.191900  1.0  -0.0569
  C  C151  1  0.463200  0.328500  0.625700  1.0  -0.1049
  O  O152  1  0.617100  0.556500  0.624200  1.0  -0.6865
  O  O153  1  0.742200  0.709600  0.694300  1.0  -0.5976
  O  O154  1  0.618100  0.589900  0.468300  1.0  -0.6861
  O  O155  1  0.765500  0.703800  0.504900  1.0  -0.6456
  O  O156  1  0.539700  0.391900  0.456300  1.0  -0.6271
  O  O157  1  0.701900  0.453100  0.484700  1.0  -0.6079
  O  O158  1  0.837800  0.573200  0.686800  1.0  -0.607
  O  O159  1  0.910300  0.652600  0.612300  1.0  -0.5993
  O  O160  1  0.272600  0.797300  0.035600  1.0  -0.2666
  O  O161  1  0.576100  0.808000  0.041100  1.0  -0.2796
  O  O162  1  0.474900  0.992000  0.120400  1.0  -0.4019
  O  O163  1  0.454300  0.701100  0.143500  1.0  -0.3405
  O  O164  1  0.382900  0.443500  0.375800  1.0  -0.6853
  O  O165  1  0.257800  0.290400  0.305700  1.0  -0.5936
  O  O166  1  0.381900  0.410100  0.531700  1.0  -0.6859
  O  O167  1  0.234500  0.296200  0.495100  1.0  -0.6451
  O  O168  1  0.460300  0.608100  0.543700  1.0  -0.6267
  O  O169  1  0.298100  0.546900  0.515300  1.0  -0.61
  O  O170  1  0.162200  0.426800  0.313200  1.0  -0.6117
  O  O171  1  0.089700  0.347400  0.387700  1.0  -0.5962
  O  O172  1  0.727400  0.202700  0.964400  1.0  -0.266
  O  O173  1  0.423900  0.192000  0.958900  1.0  -0.28
  O  O174  1  0.525100  0.008000  0.879600  1.0  -0.4029
  O  O175  1  0.545700  0.298900  0.856500  1.0  -0.3372
