# generated using pymatgen
data_NdCd2H60(C11O3)8
_symmetry_space_group_name_H-M   'P 1'
_cell_length_a   15.78500000
_cell_length_b   18.27500000
_cell_length_c   28.06600000
_cell_angle_alpha   104.47800000
_cell_angle_beta   92.04800000
_cell_angle_gamma   107.86000000
_symmetry_Int_Tables_number   1
_chemical_formula_structural   NdCd2H60(C11O3)8
_chemical_formula_sum   'Nd2 Cd4 H120 C176 O48'
_cell_volume   7405.62586953
_cell_formula_units_Z   2
loop_
 _symmetry_equiv_pos_site_id
 _symmetry_equiv_pos_as_xyz
  1  'x, y, z'
loop_
 _atom_site_type_symbol
 _atom_site_label
 _atom_site_symmetry_multiplicity
 _atom_site_fract_x
 _atom_site_fract_y
 _atom_site_fract_z
 _atom_site_occupancy
 _atom_site_charge
  Nd  Nd1  1  0.177860  0.234490  0.232240  1.0  2.3144
  Nd  Nd2  1  0.822140  0.765510  0.767760  1.0  2.3154
  Cd  Cd3  1  0.369350  0.148930  0.241100  1.0  1.0877
  Cd  Cd4  1  0.025740  0.361050  0.277780  1.0  1.0219
  Cd  Cd5  1  0.630650  0.851070  0.758900  1.0  1.0862
  Cd  Cd6  1  0.974260  0.638950  0.722220  1.0  1.0227
  H  H7  1  0.783900  0.137600  0.189100  1.0  0.1052
  H  H8  1  0.690900  0.010700  0.147100  1.0  0.114
  H  H9  1  0.852500  0.917000  0.206700  1.0  0.0954
  H  H10  1  0.951300  0.044900  0.245200  1.0  0.1145
  H  H11  1  0.713100  0.911600  0.076700  1.0  0.1049
  H  H12  1  0.585500  0.868700  0.004700  1.0  0.1137
  H  H13  1  0.590800  0.881900  0.926300  1.0  0.1079
  H  H14  1  0.739200  0.737900  0.895900  1.0  0.1011
  H  H15  1  0.727100  0.717800  0.974200  1.0  0.1064
  H  H16  1  0.599600  0.546200  0.034600  1.0  0.1166
  H  H17  1  0.695100  0.610300  0.042400  1.0  0.1141
  H  H18  1  0.641700  0.572100  0.989200  1.0  0.118
  H  H19  1  0.646900  0.827400  0.262400  1.0  0.1092
  H  H20  1  0.577000  0.780300  0.215200  1.0  0.1155
  H  H21  1  0.628700  0.871600  0.223800  1.0  0.1074
  H  H22  1  0.373300  0.649900  0.090200  1.0  0.1152
  H  H23  1  0.375100  0.569500  0.099900  1.0  0.094
  H  H24  1  0.440200  0.608200  0.065500  1.0  0.1114
  H  H25  1  0.895800  0.715900  0.165000  1.0  0.1199
  H  H26  1  0.845000  0.665200  0.199100  1.0  0.0955
  H  H27  1  0.821800  0.740800  0.194400  1.0  0.1044
  H  H28  1  0.554900  0.484900  0.190500  1.0  0.0966
  H  H29  1  0.392900  0.413000  0.142200  1.0  0.1179
  H  H30  1  0.257300  0.364300  0.172600  1.0  0.0805
  H  H31  1  0.411400  0.634600  0.222700  1.0  0.1061
  H  H32  1  0.282900  0.583500  0.256300  1.0  0.1227
  H  H33  1  0.680000  0.512100  0.248400  1.0  0.0771
  H  H34  1  0.781100  0.465900  0.280300  1.0  0.1231
  H  H35  1  0.897400  0.459000  0.154300  1.0  0.1095
  H  H36  1  0.798200  0.511300  0.125400  1.0  0.1116
  H  H37  1  0.126400  0.148400  0.336200  1.0  0.0702
  H  H38  1  0.001900  0.099500  0.371100  1.0  0.1194
  H  H39  1  0.979300  0.876400  0.291200  1.0  0.1051
  H  H40  1  0.107500  0.927200  0.258100  1.0  0.1204
  H  H41  1  0.837300  0.033300  0.332600  1.0  0.0966
  H  H42  1  0.025900  0.850300  0.412900  1.0  0.1223
  H  H43  1  0.979100  0.910000  0.440800  1.0  0.1036
  H  H44  1  0.032100  0.927500  0.396500  1.0  0.1002
  H  H45  1  0.538400  0.860400  0.332300  1.0  0.1185
  H  H46  1  0.494300  0.827000  0.375000  1.0  0.1045
  H  H47  1  0.542700  0.778400  0.338200  1.0  0.121
  H  H48  1  0.718900  0.006700  0.276400  1.0  0.0943
  H  H49  1  0.619100  0.059700  0.246800  1.0  0.0929
  H  H50  1  0.509500  0.068600  0.374800  1.0  0.1151
  H  H51  1  0.610200  0.017400  0.402900  1.0  0.1061
  H  H52  1  0.678900  0.695700  0.252900  1.0  0.0885
  H  H53  1  0.723500  0.654600  0.284500  1.0  0.092
  H  H54  1  0.763300  0.747000  0.291600  1.0  0.0953
  H  H55  1  0.766000  0.919700  0.494500  1.0  0.1123
  H  H56  1  0.862400  0.951200  0.523800  1.0  0.1123
  H  H57  1  0.787900  0.880000  0.534800  1.0  0.121
  H  H58  1  0.678600  0.597700  0.438300  1.0  0.1125
  H  H59  1  0.909600  0.719600  0.497400  1.0  0.0957
  H  H60  1  0.956800  0.695000  0.569100  1.0  0.1186
  H  H61  1  0.730400  0.706400  0.618800  1.0  0.0887
  H  H62  1  0.679500  0.717400  0.542900  1.0  0.1239
  H  H63  1  0.501700  0.606400  0.325200  1.0  0.1263
  H  H64  1  0.404600  0.482600  0.282800  1.0  0.056
  H  H65  1  0.574400  0.375400  0.317600  1.0  0.1141
  H  H66  1  0.670800  0.498500  0.362800  1.0  0.101
  H  H67  1  0.216100  0.862400  0.810900  1.0  0.1051
  H  H68  1  0.309100  0.989300  0.852900  1.0  0.1135
  H  H69  1  0.147500  0.083000  0.793300  1.0  0.096
  H  H70  1  0.048700  0.955100  0.754800  1.0  0.1154
  H  H71  1  0.286900  0.088400  0.923300  1.0  0.1056
  H  H72  1  0.414500  0.131300  0.995300  1.0  0.1134
  H  H73  1  0.409200  0.118100  0.073700  1.0  0.1069
  H  H74  1  0.260800  0.262100  0.104100  1.0  0.1003
  H  H75  1  0.272900  0.282200  0.025800  1.0  0.1066
  H  H76  1  0.400400  0.453800  0.965400  1.0  0.1183
  H  H77  1  0.304900  0.389700  0.957600  1.0  0.1157
  H  H78  1  0.358300  0.427900  0.010800  1.0  0.1166
  H  H79  1  0.353100  0.172600  0.737600  1.0  0.1094
  H  H80  1  0.423000  0.219700  0.784800  1.0  0.1151
  H  H81  1  0.371300  0.128400  0.776200  1.0  0.1061
  H  H82  1  0.626700  0.350100  0.909800  1.0  0.1163
  H  H83  1  0.624900  0.430500  0.900100  1.0  0.0956
  H  H84  1  0.559800  0.391800  0.934500  1.0  0.1139
  H  H85  1  0.104200  0.284100  0.835000  1.0  0.1187
  H  H86  1  0.155000  0.334800  0.800900  1.0  0.0945
  H  H87  1  0.178200  0.259200  0.805600  1.0  0.1021
  H  H88  1  0.445100  0.515100  0.809500  1.0  0.0966
  H  H89  1  0.607100  0.587000  0.857800  1.0  0.1178
  H  H90  1  0.742700  0.635700  0.827400  1.0  0.0801
  H  H91  1  0.588600  0.365400  0.777300  1.0  0.1068
  H  H92  1  0.717100  0.416500  0.743700  1.0  0.123
  H  H93  1  0.320000  0.487900  0.751600  1.0  0.0767
  H  H94  1  0.218900  0.534100  0.719700  1.0  0.1231
  H  H95  1  0.102600  0.541000  0.845700  1.0  0.1097
  H  H96  1  0.201800  0.488700  0.874600  1.0  0.1118
  H  H97  1  0.873600  0.851600  0.663800  1.0  0.0703
  H  H98  1  0.998100  0.900500  0.628900  1.0  0.1199
  H  H99  1  0.020700  0.123600  0.708800  1.0  0.1042
  H  H100  1  0.892500  0.072800  0.741900  1.0  0.1207
  H  H101  1  0.162700  0.966700  0.667400  1.0  0.0962
  H  H102  1  0.974100  0.149700  0.587100  1.0  0.1223
  H  H103  1  0.020900  0.090000  0.559200  1.0  0.1031
  H  H104  1  0.967900  0.072500  0.603500  1.0  0.0987
  H  H105  1  0.461600  0.139600  0.667700  1.0  0.1176
  H  H106  1  0.505700  0.173000  0.625000  1.0  0.1063
  H  H107  1  0.457300  0.221600  0.661800  1.0  0.1234
  H  H108  1  0.281100  0.993300  0.723600  1.0  0.0942
  H  H109  1  0.380900  0.940300  0.753200  1.0  0.0941
  H  H110  1  0.490500  0.931400  0.625200  1.0  0.1149
  H  H111  1  0.389800  0.982600  0.597100  1.0  0.1062
  H  H112  1  0.321100  0.304300  0.747100  1.0  0.0878
  H  H113  1  0.276500  0.345400  0.715500  1.0  0.091
  H  H114  1  0.236700  0.253000  0.708400  1.0  0.0961
  H  H115  1  0.234000  0.080300  0.505500  1.0  0.1107
  H  H116  1  0.137600  0.048800  0.476200  1.0  0.1147
  H  H117  1  0.212100  0.120000  0.465200  1.0  0.1211
  H  H118  1  0.321400  0.402300  0.561700  1.0  0.1117
  H  H119  1  0.090400  0.280400  0.502600  1.0  0.095
  H  H120  1  0.043200  0.305000  0.430900  1.0  0.1202
  H  H121  1  0.269600  0.293600  0.381200  1.0  0.0891
  H  H122  1  0.320500  0.282600  0.457100  1.0  0.1216
  H  H123  1  0.498300  0.393600  0.674800  1.0  0.1264
  H  H124  1  0.595400  0.517400  0.717200  1.0  0.0559
  H  H125  1  0.425600  0.624600  0.682400  1.0  0.114
  H  H126  1  0.329200  0.501500  0.637200  1.0  0.1016
  C  C127  1  0.944600  0.185700  0.240700  1.0  0.737
  C  C128  1  0.877600  0.104500  0.219600  1.0  -0.1054
  C  C129  1  0.799400  0.093400  0.191500  1.0  -0.0571
  C  C130  1  0.742800  0.017000  0.166700  1.0  -0.1684
  C  C131  1  0.763400  0.950200  0.170900  1.0  0.0455
  C  C132  1  0.840100  0.961400  0.201800  1.0  -0.0708
  C  C133  1  0.899100  0.038200  0.225700  1.0  -0.077
  C  C134  1  0.714800  0.870600  0.136700  1.0  0.0396
  C  C135  1  0.699100  0.864900  0.086800  1.0  -0.1849
  C  C136  1  0.663500  0.792700  0.051700  1.0  -0.0463
  C  C137  1  0.639000  0.721400  0.066400  1.0  0.1343
  C  C138  1  0.652700  0.727000  0.117800  1.0  -0.003
  C  C139  1  0.690000  0.799700  0.150600  1.0  0.2049
  C  C140  1  0.656800  0.793000  0.998900  1.0  -0.0202
  C  C141  1  0.616100  0.841600  0.983000  1.0  -0.1234
  C  C142  1  0.620300  0.850400  0.936300  1.0  -0.0561
  C  C143  1  0.668200  0.813000  0.903100  1.0  -0.1138
  C  C144  1  0.707800  0.763900  0.917700  1.0  -0.0377
  C  C145  1  0.701500  0.752500  0.965100  1.0  -0.1157
  C  C146  1  0.673600  0.825400  0.853400  1.0  0.714
  C  C147  1  0.636600  0.590100  0.023800  1.0  -0.0604
  C  C148  1  0.633000  0.822100  0.227800  1.0  0.0089
  C  C149  1  0.411000  0.619000  0.094600  1.0  -0.038
  C  C150  1  0.839300  0.696400  0.177000  1.0  -0.0407
  C  C151  1  0.622800  0.653000  0.135600  1.0  -0.0288
  C  C152  1  0.535400  0.624300  0.145100  1.0  0.1429
  C  C153  1  0.509400  0.559200  0.165500  1.0  -0.0287
  C  C154  1  0.572300  0.527000  0.176200  1.0  -0.1294
  C  C155  1  0.661500  0.553200  0.166900  1.0  0.0169
  C  C156  1  0.686200  0.617800  0.146600  1.0  0.1944
  C  C157  1  0.417300  0.529200  0.180700  1.0  0.0523
  C  C158  1  0.371000  0.447300  0.164800  1.0  -0.1558
  C  C159  1  0.290600  0.418300  0.184000  1.0  -0.0603
  C  C160  1  0.382100  0.579700  0.213800  1.0  -0.1287
  C  C161  1  0.305100  0.549600  0.233500  1.0  -0.127
  C  C162  1  0.260200  0.467000  0.218700  1.0  -0.0843
  C  C163  1  0.182400  0.436800  0.243500  1.0  0.5736
  C  C164  1  0.726000  0.517600  0.183800  1.0  0.0516
  C  C165  1  0.724600  0.502200  0.229500  1.0  -0.1313
  C  C166  1  0.783900  0.473700  0.248900  1.0  -0.1178
  C  C167  1  0.849800  0.456500  0.219800  1.0  -0.1319
  C  C168  1  0.853900  0.470400  0.173600  1.0  -0.0945
  C  C169  1  0.793900  0.501100  0.156200  1.0  -0.0889
  C  C170  1  0.914000  0.423500  0.238300  1.0  0.649
  C  C171  1  0.207800  0.075100  0.270100  1.0  0.5782
  C  C172  1  0.127000  0.047400  0.292100  1.0  -0.0515
  C  C173  1  0.095900  0.093700  0.326300  1.0  -0.1043
  C  C174  1  0.021700  0.064800  0.347500  1.0  -0.128
  C  C175  1  0.973600  0.980800  0.333700  1.0  0.0671
  C  C176  1  0.008300  0.931300  0.300100  1.0  -0.0739
  C  C177  1  0.083800  0.961300  0.279700  1.0  -0.1424
  C  C178  1  0.887200  0.952200  0.350900  1.0  0.0466
  C  C179  1  0.820500  0.988900  0.344900  1.0  -0.1614
  C  C180  1  0.735300  0.964300  0.355700  1.0  0.0511
  C  C181  1  0.711000  0.898600  0.375500  1.0  0.1714
  C  C182  1  0.771900  0.859100  0.382400  1.0  -0.0764
  C  C183  1  0.858600  0.887500  0.371400  1.0  0.2134
  C  C184  1  0.994500  0.886300  0.409200  1.0  -0.0521
  C  C185  1  0.543600  0.831100  0.355700  1.0  -0.0498
  C  C186  1  0.672100  0.003000  0.342200  1.0  0.0483
  C  C187  1  0.675900  0.018600  0.295900  1.0  -0.1927
  C  C188  1  0.616600  0.051800  0.278300  1.0  -0.0829
  C  C189  1  0.553200  0.073200  0.307900  1.0  -0.1282
  C  C190  1  0.551800  0.057000  0.354700  1.0  -0.0639
  C  C191  1  0.611400  0.024700  0.371300  1.0  -0.1083
  C  C192  1  0.709100  0.702000  0.284700  1.0  -0.0064
  C  C193  1  0.811300  0.904500  0.509400  1.0  -0.0368
  C  C194  1  0.741000  0.784300  0.398500  1.0  -0.0697
  C  C195  1  0.685500  0.713700  0.367300  1.0  0.2467
  C  C196  1  0.659900  0.641600  0.379700  1.0  0.0081
  C  C197  1  0.695100  0.644300  0.428100  1.0  -0.0776
  C  C198  1  0.753700  0.714500  0.460500  1.0  0.0028
  C  C199  1  0.776600  0.784700  0.445700  1.0  0.1505
  C  C200  1  0.786700  0.709900  0.510600  1.0  0.0976
  C  C201  1  0.869700  0.710700  0.520600  1.0  -0.0885
  C  C202  1  0.899700  0.698600  0.564400  1.0  -0.125
  C  C203  1  0.844200  0.692200  0.600200  1.0  -0.0617
  C  C204  1  0.765700  0.703600  0.593100  1.0  -0.0481
  C  C205  1  0.735300  0.711300  0.547500  1.0  -0.1384
  C  C206  1  0.872600  0.680000  0.647700  1.0  0.7553
  C  C207  1  0.599500  0.566400  0.349000  1.0  0.066
  C  C208  1  0.516400  0.560700  0.324700  1.0  -0.1769
  C  C209  1  0.457400  0.485400  0.300000  1.0  -0.0332
  C  C210  1  0.471500  0.416600  0.299400  1.0  -0.1014
  C  C211  1  0.558400  0.421200  0.320900  1.0  -0.0918
  C  C212  1  0.617000  0.495700  0.346500  1.0  -0.1925
  C  C213  1  0.406200  0.333800  0.274600  1.0  0.6913
  C  C214  1  0.491000  0.105200  0.289200  1.0  0.6269
  C  C215  1  0.055400  0.814300  0.759300  1.0  0.7361
  C  C216  1  0.122400  0.895500  0.780400  1.0  -0.1053
  C  C217  1  0.200600  0.906600  0.808500  1.0  -0.0617
  C  C218  1  0.257200  0.983000  0.833300  1.0  -0.17
  C  C219  1  0.236600  0.049800  0.829100  1.0  0.0469
  C  C220  1  0.159900  0.038600  0.798200  1.0  -0.0721
  C  C221  1  0.100900  0.961800  0.774300  1.0  -0.0798
  C  C222  1  0.285200  0.129400  0.863300  1.0  0.04
  C  C223  1  0.300900  0.135100  0.913200  1.0  -0.1859
  C  C224  1  0.336500  0.207300  0.948300  1.0  -0.045
  C  C225  1  0.361000  0.278600  0.933600  1.0  0.1342
  C  C226  1  0.347300  0.273000  0.882200  1.0  -0.0029
  C  C227  1  0.310000  0.200300  0.849400  1.0  0.2044
  C  C228  1  0.343200  0.207000  0.001100  1.0  -0.0192
  C  C229  1  0.383900  0.158400  0.017000  1.0  -0.1227
  C  C230  1  0.379700  0.149600  0.063700  1.0  -0.0561
  C  C231  1  0.331800  0.187000  0.096900  1.0  -0.115
  C  C232  1  0.292200  0.236100  0.082300  1.0  -0.0379
  C  C233  1  0.298500  0.247500  0.034900  1.0  -0.1166
  C  C234  1  0.326400  0.174600  0.146600  1.0  0.7133
  C  C235  1  0.363400  0.409900  0.976200  1.0  -0.0577
  C  C236  1  0.367000  0.177900  0.772200  1.0  0.0072
  C  C237  1  0.589000  0.381000  0.905400  1.0  -0.0372
  C  C238  1  0.160700  0.303600  0.823000  1.0  -0.0417
  C  C239  1  0.377200  0.347000  0.864400  1.0  -0.0282
  C  C240  1  0.464600  0.375700  0.854900  1.0  0.1439
  C  C241  1  0.490600  0.440800  0.834500  1.0  -0.0276
  C  C242  1  0.427700  0.473000  0.823800  1.0  -0.1299
  C  C243  1  0.338500  0.446800  0.833100  1.0  0.0154
  C  C244  1  0.313800  0.382200  0.853400  1.0  0.1934
  C  C245  1  0.582700  0.470800  0.819300  1.0  0.0518
  C  C246  1  0.629000  0.552700  0.835200  1.0  -0.1555
  C  C247  1  0.709400  0.581700  0.816000  1.0  -0.0594
  C  C248  1  0.617900  0.420300  0.786200  1.0  -0.1276
  C  C249  1  0.694900  0.450400  0.766500  1.0  -0.1259
  C  C250  1  0.739800  0.533000  0.781300  1.0  -0.0828
  C  C251  1  0.817600  0.563200  0.756500  1.0  0.5712
  C  C252  1  0.274000  0.482400  0.816200  1.0  0.0525
  C  C253  1  0.275400  0.497800  0.770500  1.0  -0.1354
  C  C254  1  0.216100  0.526300  0.751100  1.0  -0.1167
  C  C255  1  0.150200  0.543500  0.780200  1.0  -0.1321
  C  C256  1  0.146100  0.529600  0.826400  1.0  -0.0963
  C  C257  1  0.206100  0.498900  0.843800  1.0  -0.0863
  C  C258  1  0.086000  0.576500  0.761700  1.0  0.6476
  C  C259  1  0.792200  0.924900  0.729900  1.0  0.5785
  C  C260  1  0.873000  0.952600  0.707900  1.0  -0.0508
  C  C261  1  0.904100  0.906300  0.673700  1.0  -0.1045
  C  C262  1  0.978300  0.935200  0.652500  1.0  -0.1282
  C  C263  1  0.026400  0.019200  0.666300  1.0  0.0676
  C  C264  1  0.991700  0.068700  0.699900  1.0  -0.0737
  C  C265  1  0.916200  0.038700  0.720300  1.0  -0.1436
  C  C266  1  0.112800  0.047800  0.649100  1.0  0.0454
  C  C267  1  0.179500  0.011100  0.655100  1.0  -0.1611
  C  C268  1  0.264700  0.035700  0.644300  1.0  0.05
  C  C269  1  0.289000  0.101400  0.624500  1.0  0.1714
  C  C270  1  0.228100  0.140900  0.617600  1.0  -0.0762
  C  C271  1  0.141400  0.112500  0.628600  1.0  0.2128
  C  C272  1  0.005500  0.113700  0.590800  1.0  -0.052
  C  C273  1  0.456400  0.168900  0.644300  1.0  -0.0481
  C  C274  1  0.327900  0.997000  0.657800  1.0  0.048
  C  C275  1  0.324100  0.981400  0.704100  1.0  -0.1938
  C  C276  1  0.383400  0.948200  0.721700  1.0  -0.0816
  C  C277  1  0.446800  0.926800  0.692100  1.0  -0.1282
  C  C278  1  0.448200  0.943000  0.645300  1.0  -0.0639
  C  C279  1  0.388600  0.975300  0.628700  1.0  -0.1094
  C  C280  1  0.290900  0.298000  0.715300  1.0  -0.0067
  C  C281  1  0.188700  0.095500  0.490600  1.0  -0.0378
  C  C282  1  0.259000  0.215700  0.601500  1.0  -0.0696
  C  C283  1  0.314500  0.286300  0.632700  1.0  0.247
  C  C284  1  0.340100  0.358400  0.620300  1.0  0.0096
  C  C285  1  0.304900  0.355700  0.571900  1.0  -0.0786
  C  C286  1  0.246300  0.285500  0.539500  1.0  0.002
  C  C287  1  0.223400  0.215300  0.554300  1.0  0.1505
  C  C288  1  0.213300  0.290100  0.489400  1.0  0.0971
  C  C289  1  0.130300  0.289300  0.479400  1.0  -0.0888
  C  C290  1  0.100300  0.301400  0.435600  1.0  -0.1215
  C  C291  1  0.155800  0.307800  0.399800  1.0  -0.0606
  C  C292  1  0.234300  0.296400  0.406900  1.0  -0.0483
  C  C293  1  0.264700  0.288700  0.452500  1.0  -0.1379
  C  C294  1  0.127400  0.320000  0.352300  1.0  0.7529
  C  C295  1  0.400500  0.433600  0.651000  1.0  0.0662
  C  C296  1  0.483600  0.439300  0.675300  1.0  -0.1732
  C  C297  1  0.542600  0.514600  0.700000  1.0  -0.0337
  C  C298  1  0.528500  0.583400  0.700600  1.0  -0.0997
  C  C299  1  0.441600  0.578800  0.679100  1.0  -0.0887
  C  C300  1  0.383000  0.504300  0.653500  1.0  -0.1924
  C  C301  1  0.593800  0.666200  0.725400  1.0  0.6919
  C  C302  1  0.509000  0.894800  0.710800  1.0  0.6267
  O  O303  1  0.025000  0.192500  0.247700  1.0  -0.7597
  O  O304  1  0.916500  0.244700  0.247300  1.0  -0.6322
  O  O305  1  0.921400  0.425300  0.284700  1.0  -0.6466
  O  O306  1  0.964600  0.397500  0.211000  1.0  -0.5828
  O  O307  1  0.149700  0.475500  0.276400  1.0  -0.583
  O  O308  1  0.144000  0.354700  0.229520  1.0  -0.737
  O  O309  1  0.235400  0.156800  0.274100  1.0  -0.7489
  O  O310  1  0.254000  0.037100  0.248200  1.0  -0.5616
  O  O311  1  0.720000  0.788900  0.824700  1.0  -0.7943
  O  O312  1  0.635300  0.867600  0.839900  1.0  -0.5763
  O  O313  1  0.324300  0.329700  0.265970  1.0  -0.7193
  O  O314  1  0.438800  0.277500  0.264900  1.0  -0.6197
  O  O315  1  0.485400  0.102600  0.243100  1.0  -0.5903
  O  O316  1  0.436600  0.132200  0.315200  1.0  -0.6555
  O  O317  1  0.936300  0.652400  0.648800  1.0  -0.611
  O  O318  1  0.832300  0.698500  0.683800  1.0  -0.7432
  O  O319  1  0.475700  0.662100  0.135700  1.0  -0.2697
  O  O320  1  0.773600  0.648300  0.136500  1.0  -0.2723
  O  O321  1  0.598400  0.649800  0.031400  1.0  -0.2685
  O  O322  1  0.703100  0.802700  0.201000  1.0  -0.283
  O  O323  1  0.652700  0.715200  0.321600  1.0  -0.2807
  O  O324  1  0.835300  0.854300  0.476000  1.0  -0.2855
  O  O325  1  0.623400  0.870500  0.386700  1.0  -0.4092
  O  O326  1  0.915400  0.843800  0.375800  1.0  -0.2722
  O  O327  1  0.975000  0.807500  0.752300  1.0  -0.7583
  O  O328  1  0.083500  0.755300  0.752700  1.0  -0.6313
  O  O329  1  0.078600  0.574700  0.715300  1.0  -0.6431
  O  O330  1  0.035400  0.602500  0.789000  1.0  -0.5782
  O  O331  1  0.850300  0.524500  0.723600  1.0  -0.583
  O  O332  1  0.856000  0.645300  0.770480  1.0  -0.7374
  O  O333  1  0.764600  0.843200  0.725900  1.0  -0.7488
  O  O334  1  0.746000  0.962900  0.751800  1.0  -0.5606
  O  O335  1  0.280000  0.211100  0.175300  1.0  -0.7935
  O  O336  1  0.364700  0.132400  0.160100  1.0  -0.575
  O  O337  1  0.675700  0.670300  0.734030  1.0  -0.7214
  O  O338  1  0.561200  0.722500  0.735100  1.0  -0.6177
  O  O339  1  0.514600  0.897400  0.756900  1.0  -0.5898
  O  O340  1  0.563400  0.867800  0.684800  1.0  -0.6561
  O  O341  1  0.063700  0.347600  0.351200  1.0  -0.6103
  O  O342  1  0.167700  0.301500  0.316200  1.0  -0.7424
  O  O343  1  0.524300  0.337900  0.864300  1.0  -0.2669
  O  O344  1  0.226400  0.351700  0.863500  1.0  -0.2754
  O  O345  1  0.401600  0.350200  0.968600  1.0  -0.2673
  O  O346  1  0.296900  0.197300  0.799000  1.0  -0.2857
  O  O347  1  0.347300  0.284800  0.678400  1.0  -0.2794
  O  O348  1  0.164700  0.145700  0.524000  1.0  -0.2863
  O  O349  1  0.376600  0.129500  0.613300  1.0  -0.4114
  O  O350  1  0.084600  0.156200  0.624200  1.0  -0.2726
