# generated using pymatgen
data_CuH30(C11O3)4
_symmetry_space_group_name_H-M   'P 1'
_cell_length_a   15.50800000
_cell_length_b   16.24100000
_cell_length_c   18.38300000
_cell_angle_alpha   108.70900000
_cell_angle_beta   104.27900000
_cell_angle_gamma   107.16000000
_symmetry_Int_Tables_number   1
_chemical_formula_structural   CuH30(C11O3)4
_chemical_formula_sum   'Cu2 H60 C88 O24'
_cell_volume   3880.80888522
_cell_formula_units_Z   2
loop_
 _symmetry_equiv_pos_site_id
 _symmetry_equiv_pos_as_xyz
  1  'x, y, z'
loop_
 _atom_site_type_symbol
 _atom_site_label
 _atom_site_symmetry_multiplicity
 _atom_site_fract_x
 _atom_site_fract_y
 _atom_site_fract_z
 _atom_site_occupancy
 _atom_site_charge
  Cu  Cu1  1  0.516430  0.669480  0.912960  1.0  0.5736
  Cu  Cu2  1  0.483570  0.330520  0.087040  1.0  0.5744
  H  H3  1  0.774300  0.619200  0.123100  1.0  0.1083
  H  H4  1  0.924200  0.673800  0.216300  1.0  0.0941
  H  H5  1  0.010400  0.887100  0.156900  1.0  0.1359
  H  H6  1  0.852800  0.835700  0.068300  1.0  0.1024
  H  H7  1  0.126200  0.775100  0.161500  1.0  0.1168
  H  H8  1  0.016400  0.747800  0.375500  1.0  0.1166
  H  H9  1  0.063100  0.828200  0.466100  1.0  0.1295
  H  H10  1  0.956800  0.802900  0.409200  1.0  0.1254
  H  H11  1  0.504400  0.998300  0.418600  1.0  0.1138
  H  H12  1  0.417500  0.993400  0.349700  1.0  0.1093
  H  H13  1  0.433600  0.043400  0.443300  1.0  0.1126
  H  H14  1  0.371700  0.746600  0.290500  1.0  0.1317
  H  H15  1  0.441600  0.680900  0.201700  1.0  0.0878
  H  H16  1  0.355100  0.796200  0.053200  1.0  0.126
  H  H17  1  0.273900  0.853300  0.132100  1.0  0.1223
  H  H18  1  0.375100  0.061400  0.710000  1.0  0.1071
  H  H19  1  0.335800  0.724900  0.441700  1.0  0.1324
  H  H20  1  0.403000  0.826700  0.513000  1.0  0.1014
  H  H21  1  0.352700  0.743400  0.534200  1.0  0.1103
  H  H22  1  0.160600  0.149600  0.467600  1.0  0.147
  H  H23  1  0.101700  0.043500  0.448700  1.0  0.1509
  H  H24  1  0.166400  0.118400  0.540300  1.0  0.1409
  H  H25  1  0.401000  0.227700  0.581800  1.0  0.1146
  H  H26  1  0.463900  0.393100  0.667600  1.0  0.123
  H  H27  1  0.345200  0.334000  0.822600  1.0  0.0886
  H  H28  1  0.291700  0.171700  0.743800  1.0  0.1481
  H  H29  1  0.485200  0.994000  0.748500  1.0  0.1302
  H  H30  1  0.531800  0.918200  0.822600  1.0  0.0967
  H  H31  1  0.278800  0.697300  0.700000  1.0  0.1203
  H  H32  1  0.227300  0.769900  0.619700  1.0  0.1421
  H  H33  1  0.225700  0.380800  0.876900  1.0  0.1085
  H  H34  1  0.075800  0.326200  0.783700  1.0  0.0941
  H  H35  1  0.989600  0.112900  0.843100  1.0  0.1354
  H  H36  1  0.147200  0.164300  0.931700  1.0  0.1029
  H  H37  1  0.873800  0.224900  0.838500  1.0  0.1169
  H  H38  1  0.983600  0.252200  0.624500  1.0  0.1174
  H  H39  1  0.936900  0.171800  0.533900  1.0  0.1279
  H  H40  1  0.043200  0.197100  0.590800  1.0  0.128
  H  H41  1  0.495600  0.001700  0.581400  1.0  0.1128
  H  H42  1  0.582500  0.006600  0.650300  1.0  0.1088
  H  H43  1  0.566400  0.956600  0.556700  1.0  0.113
  H  H44  1  0.628300  0.253400  0.709500  1.0  0.1296
  H  H45  1  0.558400  0.319100  0.798300  1.0  0.0885
  H  H46  1  0.644900  0.203800  0.946800  1.0  0.1251
  H  H47  1  0.726100  0.146700  0.867900  1.0  0.1219
  H  H48  1  0.624900  0.938600  0.290000  1.0  0.1073
  H  H49  1  0.664200  0.275100  0.558300  1.0  0.1327
  H  H50  1  0.597000  0.173300  0.487000  1.0  0.1019
  H  H51  1  0.647300  0.256600  0.465800  1.0  0.1096
  H  H52  1  0.839400  0.850400  0.532400  1.0  0.149
  H  H53  1  0.898300  0.956500  0.551300  1.0  0.1507
  H  H54  1  0.833600  0.881600  0.459700  1.0  0.1406
  H  H55  1  0.599000  0.772300  0.418200  1.0  0.1145
  H  H56  1  0.536100  0.606900  0.332400  1.0  0.1237
  H  H57  1  0.654800  0.666000  0.177400  1.0  0.0884
  H  H58  1  0.708300  0.828300  0.256200  1.0  0.1476
  H  H59  1  0.514800  0.006000  0.251500  1.0  0.1306
  H  H60  1  0.468200  0.081800  0.177400  1.0  0.0965
  H  H61  1  0.721200  0.302700  0.300000  1.0  0.1206
  H  H62  1  0.772700  0.230100  0.380300  1.0  0.1416
  C  C63  1  0.695700  0.693200  0.029000  1.0  0.7325
  C  C64  1  0.793800  0.726900  0.089600  1.0  -0.0433
  C  C65  1  0.820600  0.677100  0.132500  1.0  -0.1812
  C  C66  1  0.911400  0.709400  0.187400  1.0  -0.1498
  C  C67  1  0.982500  0.787000  0.202800  1.0  0.1376
  C  C68  1  0.961300  0.834700  0.153300  1.0  -0.2034
  C  C69  1  0.866300  0.802400  0.099300  1.0  -0.0484
  C  C70  1  0.085900  0.817600  0.255900  1.0  -0.0251
  C  C71  1  0.149400  0.803800  0.219100  1.0  -0.1396
  C  C72  1  0.248100  0.830200  0.263200  1.0  0.0596
  C  C73  1  0.282000  0.876200  0.350600  1.0  0.0705
  C  C74  1  0.214300  0.887000  0.391200  1.0  0.0029
  C  C75  1  0.117700  0.858500  0.343500  1.0  0.2149
  C  C76  1  0.020500  0.808400  0.410300  1.0  -0.0465
  C  C77  1  0.438200  0.991900  0.402800  1.0  0.0083
  C  C78  1  0.309700  0.804700  0.220100  1.0  0.0574
  C  C79  1  0.364600  0.754500  0.241800  1.0  -0.1147
  C  C80  1  0.408300  0.716700  0.188800  1.0  -0.0038
  C  C81  1  0.403400  0.730600  0.120600  1.0  -0.1449
  C  C82  1  0.355300  0.784100  0.099400  1.0  -0.0529
  C  C83  1  0.308000  0.819200  0.147500  1.0  -0.0933
  C  C84  1  0.448900  0.680800  0.061300  1.0  0.7331
  C  C85  1  0.256900  0.934600  0.483100  1.0  -0.0106
  C  C86  1  0.271900  0.031300  0.523400  1.0  0.2143
  C  C87  1  0.317700  0.080800  0.608300  1.0  0.0436
  C  C88  1  0.343200  0.028800  0.652700  1.0  -0.1037
  C  C89  1  0.324400  0.935500  0.617400  1.0  0.0706
  C  C90  1  0.283900  0.891800  0.531600  1.0  0.2215
  C  C91  1  0.345400  0.770400  0.494800  1.0  -0.0527
  C  C92  1  0.161100  0.099000  0.483700  1.0  -0.1534
  C  C93  1  0.346300  0.185700  0.655500  1.0  0.09
  C  C94  1  0.392100  0.248500  0.631600  1.0  -0.1137
  C  C95  1  0.428000  0.348700  0.682300  1.0  -0.0946
  C  C96  1  0.407900  0.378600  0.754700  1.0  -0.0253
  C  C97  1  0.358700  0.313600  0.775000  1.0  -0.0906
  C  C98  1  0.325900  0.215700  0.727900  1.0  -0.1621
  C  C99  1  0.447400  0.477400  0.812700  1.0  0.6673
  C  C100  1  0.354300  0.888000  0.672100  1.0  0.067
  C  C101  1  0.443500  0.932700  0.736300  1.0  -0.202
  C  C102  1  0.470000  0.887600  0.781000  1.0  -0.0256
  C  C103  1  0.413100  0.801400  0.769800  1.0  -0.1275
  C  C104  1  0.320600  0.756800  0.708500  1.0  -0.0187
  C  C105  1  0.290000  0.799500  0.660000  1.0  -0.101
  C  C106  1  0.443700  0.748400  0.821600  1.0  0.645
  C  C107  1  0.304300  0.306800  0.971000  1.0  0.7327
  C  C108  1  0.206200  0.273100  0.910400  1.0  -0.0406
  C  C109  1  0.179400  0.322900  0.867500  1.0  -0.1803
  C  C110  1  0.088600  0.290600  0.812600  1.0  -0.1502
  C  C111  1  0.017500  0.213000  0.797200  1.0  0.1366
  C  C112  1  0.038700  0.165300  0.846700  1.0  -0.2038
  C  C113  1  0.133700  0.197600  0.900700  1.0  -0.0455
  C  C114  1  0.914100  0.182400  0.744100  1.0  -0.0255
  C  C115  1  0.850600  0.196200  0.780900  1.0  -0.1394
  C  C116  1  0.751900  0.169800  0.736800  1.0  0.0611
  C  C117  1  0.718000  0.123800  0.649400  1.0  0.0698
  C  C118  1  0.785700  0.113000  0.608800  1.0  0.0016
  C  C119  1  0.882300  0.141500  0.656500  1.0  0.2159
  C  C120  1  0.979500  0.191600  0.589700  1.0  -0.0463
  C  C121  1  0.561800  0.008100  0.597200  1.0  0.0062
  C  C122  1  0.690300  0.195300  0.779900  1.0  0.0594
  C  C123  1  0.635400  0.245500  0.758200  1.0  -0.1153
  C  C124  1  0.591700  0.283300  0.811200  1.0  -0.0027
  C  C125  1  0.596600  0.269400  0.879400  1.0  -0.1455
  C  C126  1  0.644700  0.215900  0.900600  1.0  -0.053
  C  C127  1  0.692000  0.180800  0.852500  1.0  -0.093
  C  C128  1  0.551100  0.319200  0.938700  1.0  0.7313
  C  C129  1  0.743100  0.065400  0.516900  1.0  -0.0109
  C  C130  1  0.728100  0.968700  0.476600  1.0  0.2137
  C  C131  1  0.682300  0.919200  0.391700  1.0  0.0443
  C  C132  1  0.656800  0.971200  0.347300  1.0  -0.104
  C  C133  1  0.675600  0.064500  0.382600  1.0  0.0702
  C  C134  1  0.716100  0.108200  0.468400  1.0  0.2225
  C  C135  1  0.654600  0.229600  0.505200  1.0  -0.0534
  C  C136  1  0.838900  0.901000  0.516300  1.0  -0.154
  C  C137  1  0.653700  0.814300  0.344500  1.0  0.0913
  C  C138  1  0.607900  0.751500  0.368400  1.0  -0.1149
  C  C139  1  0.572000  0.651300  0.317700  1.0  -0.0999
  C  C140  1  0.592100  0.621400  0.245300  1.0  -0.0265
  C  C141  1  0.641300  0.686400  0.225000  1.0  -0.0901
  C  C142  1  0.674100  0.784300  0.272100  1.0  -0.1621
  C  C143  1  0.552600  0.522600  0.187300  1.0  0.6666
  C  C144  1  0.645700  0.112000  0.327900  1.0  0.0655
  C  C145  1  0.556500  0.067300  0.263700  1.0  -0.2021
  C  C146  1  0.530000  0.112400  0.219000  1.0  -0.025
  C  C147  1  0.586900  0.198600  0.230200  1.0  -0.1269
  C  C148  1  0.679400  0.243200  0.291500  1.0  -0.0173
  C  C149  1  0.710000  0.200500  0.340000  1.0  -0.1021
  C  C150  1  0.556300  0.251600  0.178400  1.0  0.6449
  O  O151  1  0.636000  0.615800  0.009000  1.0  -0.4741
  O  O152  1  0.672900  0.739900  0.991500  1.0  -0.5945
  O  O153  1  0.454800  0.612300  0.065200  1.0  -0.4523
  O  O154  1  0.465300  0.719000  0.015100  1.0  -0.5919
  O  O155  1  0.428900  0.505700  0.875800  1.0  -0.5953
  O  O156  1  0.503100  0.542600  0.794300  1.0  -0.6214
  O  O157  1  0.535400  0.786700  0.868600  1.0  -0.6094
  O  O158  1  0.385200  0.675900  0.815800  1.0  -0.5302
  O  O159  1  0.246400  0.076600  0.475300  1.0  -0.3494
  O  O160  1  0.263700  0.794100  0.488300  1.0  -0.2963
  O  O161  1  0.377600  0.904300  0.398000  1.0  -0.2949
  O  O162  1  0.056700  0.875100  0.381600  1.0  -0.2592
  O  O163  1  0.364000  0.384200  0.991000  1.0  -0.4738
  O  O164  1  0.327100  0.260100  0.008500  1.0  -0.592
  O  O165  1  0.545200  0.387700  0.934800  1.0  -0.4525
  O  O166  1  0.534700  0.281000  0.984900  1.0  -0.5884
  O  O167  1  0.571100  0.494300  0.124200  1.0  -0.5934
  O  O168  1  0.496900  0.457400  0.205700  1.0  -0.621
  O  O169  1  0.464600  0.213300  0.131400  1.0  -0.6074
  O  O170  1  0.614800  0.324100  0.184200  1.0  -0.5301
  O  O171  1  0.753600  0.923400  0.524700  1.0  -0.3528
  O  O172  1  0.736300  0.205900  0.511700  1.0  -0.2958
  O  O173  1  0.622400  0.095700  0.602000  1.0  -0.2957
  O  O174  1  0.943300  0.124900  0.618400  1.0  -0.2593
