# generated using pymatgen
data_LaCd4H120(C11O3)16
_symmetry_space_group_name_H-M   'P 1'
_cell_length_a   15.74400000
_cell_length_b   18.34300000
_cell_length_c   28.12100000
_cell_angle_alpha   104.42200000
_cell_angle_beta   92.25200000
_cell_angle_gamma   108.12200000
_symmetry_Int_Tables_number   1
_chemical_formula_structural   LaCd4H120(C11O3)16
_chemical_formula_sum   'La1 Cd4 H120 C176 O48'
_cell_volume   7414.67724055
_cell_formula_units_Z   1
loop_
 _symmetry_equiv_pos_site_id
 _symmetry_equiv_pos_as_xyz
  1  'x, y, z'
loop_
 _atom_site_type_symbol
 _atom_site_label
 _atom_site_symmetry_multiplicity
 _atom_site_fract_x
 _atom_site_fract_y
 _atom_site_fract_z
 _atom_site_occupancy
 _atom_site_charge
  La  La1  1  0.323510  0.265390  0.768710  1.0  2.1947
  Cd  Cd2  1  0.521890  0.859820  0.277710  1.0  1.0439
  Cd  Cd3  1  0.870490  0.649480  0.240770  1.0  1.0751
  Cd  Cd4  1  0.478110  0.140180  0.722290  1.0  1.0442
  Cd  Cd5  1  0.129510  0.350520  0.759230  1.0  1.0748
  H  H6  1  0.280900  0.430300  0.503700  1.0  0.1152
  H  H7  1  0.359900  0.428900  0.538800  1.0  0.1293
  H  H8  1  0.265900  0.361500  0.529500  1.0  0.1173
  H  H9  1  0.903800  0.980400  0.282000  1.0  0.078
  H  H10  1  0.007300  0.106000  0.321100  1.0  0.1116
  H  H11  1  0.173700  0.997000  0.361500  1.0  0.1035
  H  H12  1  0.076400  0.877500  0.319400  1.0  0.1014
  H  H13  1  0.180500  0.098700  0.438600  1.0  0.1095
  H  H14  1  0.180500  0.192800  0.252500  1.0  0.0881
  H  H15  1  0.229600  0.157900  0.286200  1.0  0.0977
  H  H16  1  0.264200  0.249600  0.290800  1.0  0.1061
  H  H17  1  0.184400  0.219500  0.543300  1.0  0.0965
  H  H18  1  0.233400  0.209000  0.618900  1.0  0.1074
  H  H19  1  0.459500  0.193100  0.569500  1.0  0.118
  H  H20  1  0.409400  0.219800  0.497200  1.0  0.0801
  H  H21  1  0.339600  0.533500  0.333200  1.0  0.1094
  H  H22  1  0.131000  0.345900  0.448200  1.0  0.1183
  H  H23  1  0.042000  0.361500  0.434400  1.0  0.1193
  H  H24  1  0.132500  0.433100  0.452200  1.0  0.1146
  H  H25  1  0.535000  0.355500  0.406100  1.0  0.1239
  H  H26  1  0.482100  0.399100  0.442600  1.0  0.1152
  H  H27  1  0.526400  0.436400  0.401500  1.0  0.098
  H  H28  1  0.216900  0.505800  0.275500  1.0  0.0937
  H  H29  1  0.119100  0.561300  0.248300  1.0  0.0964
  H  H30  1  0.009800  0.571200  0.375300  1.0  0.1122
  H  H31  1  0.105800  0.513100  0.402100  1.0  0.0914
  H  H32  1  0.478300  0.378000  0.291400  1.0  0.1063
  H  H33  1  0.604200  0.427300  0.257800  1.0  0.1133
  H  H34  1  0.627900  0.649800  0.336500  1.0  0.0804
  H  H35  1  0.499600  0.598700  0.371200  1.0  0.1149
  H  H36  1  0.753800  0.864400  0.172000  1.0  0.1051
  H  H37  1  0.885500  0.917200  0.140100  1.0  0.1062
  H  H38  1  0.911700  0.134100  0.223800  1.0  0.1053
  H  H39  1  0.783800  0.084600  0.258400  1.0  0.1208
  H  H40  1  0.051100  0.982700  0.188800  1.0  0.1039
  H  H41  1  0.868200  0.148800  0.092200  1.0  0.1122
  H  H42  1  0.875400  0.068600  0.099100  1.0  0.0868
  H  H43  1  0.937500  0.112600  0.065500  1.0  0.1106
  H  H44  1  0.394800  0.205800  0.165400  1.0  0.114
  H  H45  1  0.333100  0.166700  0.201000  1.0  0.0894
  H  H46  1  0.324700  0.243700  0.189500  1.0  0.11
  H  H47  1  0.211900  0.411800  0.077900  1.0  0.1059
  H  H48  1  0.147600  0.321800  0.263400  1.0  0.0973
  H  H49  1  0.076400  0.279500  0.216000  1.0  0.1089
  H  H50  1  0.130000  0.371100  0.228100  1.0  0.1085
  H  H51  1  0.350800  0.418100  0.208700  1.0  0.0938
  H  H52  1  0.450800  0.548000  0.246300  1.0  0.1002
  H  H53  1  0.277700  0.635000  0.190200  1.0  0.099
  H  H54  1  0.187700  0.508400  0.146900  1.0  0.1198
  H  H55  1  0.083500  0.368500  0.005900  1.0  0.1059
  H  H56  1  0.088400  0.385400  0.927400  1.0  0.1127
  H  H57  1  0.237200  0.238200  0.897200  1.0  0.1036
  H  H58  1  0.224400  0.217700  0.974100  1.0  0.111
  H  H59  1  0.291800  0.009900  0.125200  1.0  0.1104
  H  H60  1  0.391700  0.955900  0.154500  1.0  0.105
  H  H61  1  0.278200  0.966200  0.280500  1.0  0.1136
  H  H62  1  0.174400  0.011700  0.248300  1.0  0.0825
  H  H63  1  0.141300  0.071300  0.988300  1.0  0.1314
  H  H64  1  0.101300  0.044800  0.033900  1.0  0.1318
  H  H65  1  0.196100  0.110600  0.041200  1.0  0.1328
  H  H66  1  0.719100  0.569700  0.496300  1.0  0.1148
  H  H67  1  0.640100  0.571100  0.461200  1.0  0.1297
  H  H68  1  0.734100  0.638500  0.470500  1.0  0.1171
  H  H69  1  0.096200  0.019600  0.718000  1.0  0.0777
  H  H70  1  0.992700  0.894000  0.678900  1.0  0.111
  H  H71  1  0.826300  0.003000  0.638500  1.0  0.1032
  H  H72  1  0.923600  0.122500  0.680600  1.0  0.1012
  H  H73  1  0.819500  0.901300  0.561400  1.0  0.1086
  H  H74  1  0.819500  0.807200  0.747500  1.0  0.0881
  H  H75  1  0.770400  0.842100  0.713800  1.0  0.0973
  H  H76  1  0.735800  0.750400  0.709200  1.0  0.1064
  H  H77  1  0.815600  0.780500  0.456700  1.0  0.1027
  H  H78  1  0.766600  0.791000  0.381100  1.0  0.1079
  H  H79  1  0.540500  0.806900  0.430500  1.0  0.1194
  H  H80  1  0.590600  0.780200  0.502800  1.0  0.0796
  H  H81  1  0.660400  0.466500  0.666800  1.0  0.1087
  H  H82  1  0.869000  0.654100  0.551800  1.0  0.1163
  H  H83  1  0.958000  0.638500  0.565600  1.0  0.1189
  H  H84  1  0.867500  0.566900  0.547800  1.0  0.1142
  H  H85  1  0.465000  0.644500  0.593900  1.0  0.1224
  H  H86  1  0.517900  0.600900  0.557400  1.0  0.1156
  H  H87  1  0.473600  0.563600  0.598500  1.0  0.097
  H  H88  1  0.783100  0.494200  0.724500  1.0  0.093
  H  H89  1  0.880900  0.438700  0.751700  1.0  0.0969
  H  H90  1  0.990200  0.428800  0.624700  1.0  0.1121
  H  H91  1  0.894200  0.486900  0.597900  1.0  0.0911
  H  H92  1  0.521700  0.622000  0.708600  1.0  0.106
  H  H93  1  0.395800  0.572700  0.742200  1.0  0.1134
  H  H94  1  0.372100  0.350200  0.663500  1.0  0.0801
  H  H95  1  0.500400  0.401300  0.628800  1.0  0.1153
  H  H96  1  0.246200  0.135600  0.828000  1.0  0.096
  H  H97  1  0.114500  0.082800  0.859900  1.0  0.1062
  H  H98  1  0.088300  0.865900  0.776200  1.0  0.1056
  H  H99  1  0.216200  0.915400  0.741600  1.0  0.12
  H  H100  1  0.948900  0.017300  0.811200  1.0  0.1033
  H  H101  1  0.131800  0.851200  0.907800  1.0  0.1099
  H  H102  1  0.124600  0.931400  0.900900  1.0  0.0879
  H  H103  1  0.062500  0.887400  0.934500  1.0  0.1113
  H  H104  1  0.605200  0.794200  0.834600  1.0  0.1143
  H  H105  1  0.666900  0.833300  0.799000  1.0  0.0874
  H  H106  1  0.675300  0.756300  0.810500  1.0  0.108
  H  H107  1  0.788100  0.588200  0.922100  1.0  0.1065
  H  H108  1  0.852400  0.678200  0.736600  1.0  0.0974
  H  H109  1  0.923600  0.720500  0.784000  1.0  0.1095
  H  H110  1  0.870000  0.628900  0.771900  1.0  0.1094
  H  H111  1  0.649200  0.581900  0.791300  1.0  0.0943
  H  H112  1  0.549200  0.452000  0.753700  1.0  0.1006
  H  H113  1  0.722300  0.365000  0.809800  1.0  0.0991
  H  H114  1  0.812300  0.491600  0.853100  1.0  0.1192
  H  H115  1  0.916500  0.631500  0.994100  1.0  0.106
  H  H116  1  0.911600  0.614600  0.072600  1.0  0.1119
  H  H117  1  0.762800  0.761800  0.102800  1.0  0.1054
  H  H118  1  0.775600  0.782300  0.025900  1.0  0.1105
  H  H119  1  0.708200  0.990100  0.874800  1.0  0.1112
  H  H120  1  0.608300  0.044100  0.845500  1.0  0.105
  H  H121  1  0.721800  0.033800  0.719500  1.0  0.1137
  H  H122  1  0.825600  0.988300  0.751700  1.0  0.0823
  H  H123  1  0.858700  0.928700  0.011700  1.0  0.1309
  H  H124  1  0.898700  0.955200  0.966100  1.0  0.1321
  H  H125  1  0.803900  0.889400  0.958800  1.0  0.1328
  C  C126  1  0.308500  0.396500  0.514800  1.0  -0.0174
  C  C127  1  0.910800  0.834400  0.273900  1.0  0.6901
  C  C128  1  0.977900  0.916100  0.296900  1.0  -0.1218
  C  C129  1  0.958600  0.984400  0.297900  1.0  -0.03
  C  C130  1  0.019900  0.060100  0.322400  1.0  -0.1293
  C  C131  1  0.100400  0.066000  0.348900  1.0  0.0829
  C  C132  1  0.119300  0.994300  0.345700  1.0  -0.1309
  C  C133  1  0.061400  0.923100  0.320900  1.0  -0.0649
  C  C134  1  0.161100  0.142000  0.381200  1.0  0.0156
  C  C135  1  0.186500  0.215700  0.368800  1.0  0.1895
  C  C136  1  0.242500  0.284900  0.399500  1.0  -0.0748
  C  C137  1  0.278600  0.285100  0.446200  1.0  0.2025
  C  C138  1  0.254600  0.214600  0.460200  1.0  -0.031
  C  C139  1  0.196600  0.145100  0.428400  1.0  -0.0724
  C  C140  1  0.211800  0.202900  0.284700  1.0  0.0088
  C  C141  1  0.288900  0.210600  0.510700  1.0  0.1981
  C  C142  1  0.240000  0.212600  0.547700  1.0  -0.1466
  C  C143  1  0.268200  0.204800  0.593000  1.0  -0.1027
  C  C144  1  0.345500  0.191400  0.599100  1.0  -0.0959
  C  C145  1  0.402600  0.197400  0.564800  1.0  -0.1178
  C  C146  1  0.369800  0.210600  0.520400  1.0  -0.0752
  C  C147  1  0.374400  0.177600  0.648200  1.0  0.7418
  C  C148  1  0.270100  0.358400  0.382700  1.0  -0.078
  C  C149  1  0.358300  0.386700  0.370700  1.0  0.1683
  C  C150  1  0.387000  0.453800  0.352400  1.0  0.037
  C  C151  1  0.322500  0.489500  0.345800  1.0  -0.1348
  C  C152  1  0.234100  0.463600  0.356700  1.0  0.0298
  C  C153  1  0.209300  0.396300  0.374600  1.0  0.2066
  C  C154  1  0.105900  0.378100  0.433700  1.0  -0.0478
  C  C155  1  0.496300  0.387500  0.409300  1.0  -0.0487
  C  C156  1  0.171200  0.502200  0.342300  1.0  0.0806
  C  C157  1  0.174800  0.518200  0.295400  1.0  -0.1557
  C  C158  1  0.116600  0.551800  0.279300  1.0  -0.0395
  C  C159  1  0.054100  0.571900  0.308900  1.0  -0.1483
  C  C160  1  0.050900  0.557500  0.355100  1.0  -0.0794
  C  C161  1  0.108900  0.522800  0.371100  1.0  -0.1363
  C  C162  1  0.989300  0.605600  0.289600  1.0  0.6703
  C  C163  1  0.473300  0.482800  0.334400  1.0  0.0687
  C  C164  1  0.507900  0.432900  0.300300  1.0  -0.1416
  C  C165  1  0.583100  0.462300  0.280100  1.0  -0.0855
  C  C166  1  0.631200  0.546500  0.292100  1.0  -0.1434
  C  C167  1  0.597700  0.595100  0.326900  1.0  -0.036
  C  C168  1  0.520100  0.564400  0.348000  1.0  -0.2162
  C  C169  1  0.711700  0.577100  0.269100  1.0  0.6727
  C  C170  1  0.676500  0.934100  0.242600  1.0  0.672
  C  C171  1  0.754800  0.968200  0.218000  1.0  -0.1421
  C  C172  1  0.785900  0.918700  0.183100  1.0  -0.0491
  C  C173  1  0.865500  0.950400  0.164300  1.0  -0.1547
  C  C174  1  0.914900  0.030100  0.181200  1.0  0.0311
  C  C175  1  0.881000  0.079500  0.214500  1.0  -0.1399
  C  C176  1  0.803600  0.050600  0.234500  1.0  -0.1082
  C  C177  1  0.006200  0.060400  0.166000  1.0  -0.0124
  C  C178  1  0.068700  0.026200  0.175800  1.0  -0.1129
  C  C179  1  0.159300  0.055100  0.166600  1.0  0.0336
  C  C180  1  0.183100  0.117800  0.146900  1.0  0.2569
  C  C181  1  0.121900  0.153600  0.136100  1.0  -0.0365
  C  C182  1  0.033400  0.123800  0.144600  1.0  0.1765
  C  C183  1  0.908600  0.119800  0.095000  1.0  -0.0415
  C  C184  1  0.336000  0.194600  0.176100  1.0  -0.0421
  C  C185  1  0.150400  0.226100  0.117100  1.0  -0.0586
  C  C186  1  0.188300  0.299500  0.150700  1.0  0.2035
  C  C187  1  0.212400  0.370900  0.137200  1.0  0.0227
  C  C188  1  0.197300  0.365100  0.087700  1.0  -0.1225
  C  C189  1  0.161100  0.292200  0.051400  1.0  -0.0257
  C  C190  1  0.136200  0.221000  0.066800  1.0  0.1707
  C  C191  1  0.133400  0.320300  0.229600  1.0  0.009
  C  C192  1  0.263100  0.449600  0.170400  1.0  0.049
  C  C193  1  0.338700  0.461800  0.202800  1.0  -0.0693
  C  C194  1  0.397800  0.540200  0.226900  1.0  -0.0714
  C  C195  1  0.374700  0.605100  0.220900  1.0  -0.0937
  C  C196  1  0.294900  0.591700  0.192300  1.0  -0.0778
  C  C197  1  0.240000  0.515600  0.166600  1.0  -0.2394
  C  C198  1  0.436100  0.685700  0.240500  1.0  0.7403
  C  C199  1  0.154000  0.293600  0.998700  1.0  -0.0043
  C  C200  1  0.114000  0.342200  0.983900  1.0  -0.1128
  C  C201  1  0.117600  0.353400  0.936900  1.0  -0.0943
  C  C202  1  0.166100  0.315700  0.903600  1.0  -0.1137
  C  C203  1  0.206000  0.264300  0.918800  1.0  -0.045
  C  C204  1  0.199200  0.252700  0.964900  1.0  -0.1371
  C  C205  1  0.171700  0.327300  0.854400  1.0  0.715
  C  C206  1  0.224000  0.017700  0.183800  1.0  0.0108
  C  C207  1  0.288400  0.000500  0.156200  1.0  -0.1053
  C  C208  1  0.349600  0.968900  0.174200  1.0  -0.0518
  C  C209  1  0.347900  0.957100  0.220300  1.0  -0.1028
  C  C210  1  0.280800  0.974100  0.249100  1.0  -0.0606
  C  C211  1  0.219800  0.002400  0.230000  1.0  -0.1454
  C  C212  1  0.414700  0.924000  0.240200  1.0  0.6752
  C  C213  1  0.136900  0.089000  0.023000  1.0  -0.0422
  C  C214  1  0.691500  0.603500  0.485200  1.0  -0.0185
  C  C215  1  0.089200  0.165600  0.726100  1.0  0.704
  C  C216  1  0.022100  0.083900  0.703100  1.0  -0.1191
  C  C217  1  0.041400  0.015600  0.702100  1.0  -0.0288
  C  C218  1  0.980100  0.939900  0.677600  1.0  -0.1267
  C  C219  1  0.899600  0.934000  0.651100  1.0  0.0826
  C  C220  1  0.880700  0.005700  0.654300  1.0  -0.1318
  C  C221  1  0.938600  0.076900  0.679100  1.0  -0.0614
  C  C222  1  0.838900  0.858000  0.618800  1.0  0.0154
  C  C223  1  0.813500  0.784300  0.631200  1.0  0.189
  C  C224  1  0.757500  0.715100  0.600500  1.0  -0.075
  C  C225  1  0.721400  0.714900  0.553800  1.0  0.2004
  C  C226  1  0.745400  0.785400  0.539800  1.0  -0.0308
  C  C227  1  0.803400  0.854900  0.571600  1.0  -0.0735
  C  C228  1  0.788200  0.797100  0.715300  1.0  0.0094
  C  C229  1  0.711100  0.789400  0.489300  1.0  0.1973
  C  C230  1  0.760000  0.787400  0.452300  1.0  -0.1447
  C  C231  1  0.731800  0.795200  0.407000  1.0  -0.0998
  C  C232  1  0.654500  0.808600  0.400900  1.0  -0.096
  C  C233  1  0.597400  0.802600  0.435200  1.0  -0.1191
  C  C234  1  0.630200  0.789400  0.479600  1.0  -0.0778
  C  C235  1  0.625600  0.822400  0.351800  1.0  0.7337
  C  C236  1  0.729900  0.641600  0.617300  1.0  -0.0782
  C  C237  1  0.641700  0.613300  0.629300  1.0  0.1677
  C  C238  1  0.613000  0.546200  0.647600  1.0  0.0359
  C  C239  1  0.677500  0.510500  0.654200  1.0  -0.1332
  C  C240  1  0.765900  0.536400  0.643300  1.0  0.0274
  C  C241  1  0.790700  0.603700  0.625400  1.0  0.2077
  C  C242  1  0.894100  0.621900  0.566300  1.0  -0.0471
  C  C243  1  0.503700  0.612500  0.590700  1.0  -0.0488
  C  C244  1  0.828800  0.497800  0.657700  1.0  0.08
  C  C245  1  0.825200  0.481800  0.704600  1.0  -0.1525
  C  C246  1  0.883400  0.448200  0.720700  1.0  -0.0416
  C  C247  1  0.945900  0.428100  0.691100  1.0  -0.148
  C  C248  1  0.949100  0.442500  0.644900  1.0  -0.0779
  C  C249  1  0.891100  0.477200  0.628900  1.0  -0.1391
  C  C250  1  0.010700  0.394400  0.710400  1.0  0.6686
  C  C251  1  0.526700  0.517200  0.665600  1.0  0.0681
  C  C252  1  0.492100  0.567100  0.699700  1.0  -0.1425
  C  C253  1  0.416900  0.537700  0.719900  1.0  -0.0824
  C  C254  1  0.368800  0.453500  0.707900  1.0  -0.1482
  C  C255  1  0.402300  0.404900  0.673100  1.0  -0.038
  C  C256  1  0.479900  0.435600  0.652000  1.0  -0.2112
  C  C257  1  0.288300  0.422900  0.730900  1.0  0.6736
  C  C258  1  0.323500  0.065900  0.757400  1.0  0.6733
  C  C259  1  0.245200  0.031800  0.782000  1.0  -0.1474
  C  C260  1  0.214100  0.081300  0.816900  1.0  -0.0484
  C  C261  1  0.134500  0.049600  0.835700  1.0  -0.1524
  C  C262  1  0.085100  0.969900  0.818800  1.0  0.032
  C  C263  1  0.119000  0.920500  0.785500  1.0  -0.1402
  C  C264  1  0.196400  0.949400  0.765500  1.0  -0.1069
  C  C265  1  0.993800  0.939600  0.834000  1.0  -0.0117
  C  C266  1  0.931300  0.973800  0.824200  1.0  -0.1114
  C  C267  1  0.840700  0.944900  0.833400  1.0  0.0295
  C  C268  1  0.816900  0.882200  0.853100  1.0  0.256
  C  C269  1  0.878100  0.846400  0.863900  1.0  -0.0359
  C  C270  1  0.966600  0.876200  0.855400  1.0  0.177
  C  C271  1  0.091400  0.880200  0.905000  1.0  -0.0408
  C  C272  1  0.664000  0.805400  0.823900  1.0  -0.0439
  C  C273  1  0.849600  0.773900  0.882900  1.0  -0.0588
  C  C274  1  0.811700  0.700500  0.849300  1.0  0.2035
  C  C275  1  0.787600  0.629100  0.862800  1.0  0.0218
  C  C276  1  0.802700  0.634900  0.912300  1.0  -0.1227
  C  C277  1  0.838900  0.707800  0.948600  1.0  -0.0249
  C  C278  1  0.863800  0.779000  0.933200  1.0  0.1693
  C  C279  1  0.866600  0.679700  0.770400  1.0  0.0078
  C  C280  1  0.736900  0.550400  0.829600  1.0  0.048
  C  C281  1  0.661300  0.538200  0.797200  1.0  -0.0704
  C  C282  1  0.602200  0.459800  0.773100  1.0  -0.0728
  C  C283  1  0.625300  0.394900  0.779100  1.0  -0.0949
  C  C284  1  0.705100  0.408300  0.807700  1.0  -0.0786
  C  C285  1  0.760000  0.484400  0.833400  1.0  -0.239
  C  C286  1  0.563900  0.314300  0.759500  1.0  0.733
  C  C287  1  0.846000  0.706400  0.001300  1.0  -0.0032
  C  C288  1  0.886000  0.657800  0.016100  1.0  -0.1112
  C  C289  1  0.882400  0.646600  0.063100  1.0  -0.0933
  C  C290  1  0.833900  0.684300  0.096400  1.0  -0.1195
  C  C291  1  0.794000  0.735700  0.081200  1.0  -0.0456
  C  C292  1  0.800800  0.747300  0.035100  1.0  -0.1382
  C  C293  1  0.828300  0.672700  0.145600  1.0  0.7123
  C  C294  1  0.776000  0.982300  0.816200  1.0  0.0114
  C  C295  1  0.711600  0.999500  0.843800  1.0  -0.1018
  C  C296  1  0.650400  0.031100  0.825800  1.0  -0.0519
  C  C297  1  0.652100  0.042900  0.779700  1.0  -0.1028
  C  C298  1  0.719200  0.025900  0.750900  1.0  -0.0625
  C  C299  1  0.780200  0.997600  0.770000  1.0  -0.1468
  C  C300  1  0.585300  0.076000  0.759800  1.0  0.6752
  C  C301  1  0.863100  0.911000  0.977000  1.0  -0.0394
  O  O302  1  0.639100  0.857800  0.228750  1.0  -0.6064
  O  O303  1  0.646900  0.975700  0.275900  1.0  -0.6224
  O  O304  1  0.974000  0.162500  0.136040  1.0  -0.2651
  O  O305  1  0.270700  0.146900  0.135450  1.0  -0.269
  O  O306  1  0.094500  0.150200  0.031190  1.0  -0.2779
  O  O307  1  0.202100  0.302900  0.201420  1.0  -0.2772
  O  O308  1  0.217600  0.291700  0.825760  1.0  -0.7298
  O  O309  1  0.134800  0.372600  0.841200  1.0  -0.6058
  O  O310  1  0.407700  0.743200  0.248500  1.0  -0.6044
  O  O311  1  0.521100  0.695700  0.249000  1.0  -0.5533
  O  O312  1  0.461000  0.896200  0.211300  1.0  -0.5572
  O  O313  1  0.417000  0.925400  0.285250  1.0  -0.5956
  O  O314  1  0.828400  0.830000  0.265120  1.0  -0.5418
  O  O315  1  0.940900  0.778200  0.265500  1.0  -0.621
  O  O316  1  0.153700  0.215200  0.321260  1.0  -0.2728
  O  O317  1  0.334700  0.353700  0.476400  1.0  -0.2982
  O  O318  1  0.332300  0.195800  0.683240  1.0  -0.7042
  O  O319  1  0.438300  0.152000  0.648760  1.0  -0.5994
  O  O320  1  0.415400  0.344900  0.376100  1.0  -0.2676
  O  O321  1  0.123700  0.369300  0.385600  1.0  -0.2729
  O  O322  1  0.938600  0.632700  0.316100  1.0  -0.5943
  O  O323  1  0.986600  0.603500  0.243700  1.0  -0.625
  O  O324  1  0.754400  0.535300  0.247800  1.0  -0.5777
  O  O325  1  0.735700  0.653400  0.273920  1.0  -0.6595
  O  O326  1  0.360900  0.142200  0.771250  1.0  -0.705
  O  O327  1  0.353100  0.024300  0.724100  1.0  -0.6224
  O  O328  1  0.026000  0.837500  0.863960  1.0  -0.2622
  O  O329  1  0.729300  0.853100  0.864550  1.0  -0.2731
  O  O330  1  0.905500  0.849800  0.968810  1.0  -0.2793
  O  O331  1  0.797900  0.697100  0.798580  1.0  -0.2784
  O  O332  1  0.782400  0.708300  0.174240  1.0  -0.5654
  O  O333  1  0.865200  0.627400  0.158800  1.0  -0.6029
  O  O334  1  0.592300  0.256800  0.751500  1.0  -0.6111
  O  O335  1  0.478900  0.304300  0.751000  1.0  -0.8022
  O  O336  1  0.539000  0.103800  0.788700  1.0  -0.5578
  O  O337  1  0.583000  0.074600  0.714750  1.0  -0.5953
  O  O338  1  0.171600  0.170000  0.734880  1.0  -0.7169
  O  O339  1  0.059100  0.221800  0.734500  1.0  -0.6235
  O  O340  1  0.846300  0.784800  0.678740  1.0  -0.2717
  O  O341  1  0.665300  0.646300  0.523600  1.0  -0.3008
  O  O342  1  0.667700  0.804200  0.316760  1.0  -0.5306
  O  O343  1  0.561700  0.848000  0.351240  1.0  -0.5975
  O  O344  1  0.584600  0.655100  0.623900  1.0  -0.2687
  O  O345  1  0.876300  0.630700  0.614400  1.0  -0.2708
  O  O346  1  0.061400  0.367300  0.683900  1.0  -0.5995
  O  O347  1  0.013400  0.396500  0.756300  1.0  -0.6217
  O  O348  1  0.245600  0.464700  0.752200  1.0  -0.584
  O  O349  1  0.264300  0.346600  0.726080  1.0  -0.7074
