# generated using pymatgen
data_PrCd4H120(C11O3)16
_symmetry_space_group_name_H-M   'P 1'
_cell_length_a   15.89000000
_cell_length_b   18.59600000
_cell_length_c   28.50000000
_cell_angle_alpha   101.97900000
_cell_angle_beta   94.41400000
_cell_angle_gamma   108.93100000
_symmetry_Int_Tables_number   1
_chemical_formula_structural   PrCd4H120(C11O3)16
_chemical_formula_sum   'Pr1 Cd4 H120 C176 O48'
_cell_volume   7697.15367398
_cell_formula_units_Z   1
loop_
 _symmetry_equiv_pos_site_id
 _symmetry_equiv_pos_as_xyz
  1  'x, y, z'
loop_
 _atom_site_type_symbol
 _atom_site_label
 _atom_site_symmetry_multiplicity
 _atom_site_fract_x
 _atom_site_fract_y
 _atom_site_fract_z
 _atom_site_occupancy
 _atom_site_charge
  Pr  Pr1  1  0.805350  0.771100  0.768760  1.0  2.215
  Cd  Cd2  1  0.386830  0.145320  0.239160  1.0  1.0869
  Cd  Cd3  1  0.040150  0.351040  0.269620  1.0  1.0528
  Cd  Cd4  1  0.613170  0.854680  0.760840  1.0  1.0893
  Cd  Cd5  1  0.959850  0.648960  0.730380  1.0  1.0571
  H  H6  1  0.798300  0.127100  0.186800  1.0  0.1092
  H  H7  1  0.705700  0.002300  0.143500  1.0  0.1137
  H  H8  1  0.870800  0.913400  0.202700  1.0  0.091
  H  H9  1  0.970900  0.037600  0.239300  1.0  0.0994
  H  H10  1  0.726400  0.905200  0.073300  1.0  0.0879
  H  H11  1  0.590500  0.863900  0.004000  1.0  0.1243
  H  H12  1  0.592500  0.880600  0.925800  1.0  0.1006
  H  H13  1  0.732600  0.740700  0.895900  1.0  0.105
  H  H14  1  0.733900  0.720400  0.976200  1.0  0.1214
  H  H15  1  0.657100  0.576400  0.990500  1.0  0.1331
  H  H16  1  0.611900  0.543800  0.032400  1.0  0.1421
  H  H17  1  0.707000  0.610200  0.044300  1.0  0.1273
  H  H18  1  0.674400  0.812100  0.256300  1.0  0.1171
  H  H19  1  0.601200  0.773100  0.209700  1.0  0.1211
  H  H20  1  0.657900  0.862900  0.221300  1.0  0.1155
  H  H21  1  0.380500  0.644800  0.091800  1.0  0.1219
  H  H22  1  0.391200  0.565300  0.095700  1.0  0.1058
  H  H23  1  0.449300  0.615600  0.064100  1.0  0.1401
  H  H24  1  0.572500  0.474500  0.185500  1.0  0.1116
  H  H25  1  0.406300  0.410300  0.143100  1.0  0.1056
  H  H26  1  0.276500  0.356900  0.173500  1.0  0.1006
  H  H27  1  0.428500  0.625900  0.215000  1.0  0.101
  H  H28  1  0.306600  0.576000  0.252000  1.0  0.1267
  H  H29  1  0.700200  0.502900  0.243400  1.0  0.0789
  H  H30  1  0.798700  0.454100  0.271200  1.0  0.1067
  H  H31  1  0.900600  0.450900  0.147600  1.0  0.1022
  H  H32  1  0.802200  0.503800  0.120700  1.0  0.1195
  H  H33  1  0.141000  0.140300  0.328800  1.0  0.0951
  H  H34  1  0.018500  0.087600  0.360600  1.0  0.1115
  H  H35  1  0.000000  0.872200  0.291700  1.0  0.0878
  H  H36  1  0.123500  0.922300  0.258500  1.0  0.1154
  H  H37  1  0.859200  0.021300  0.322700  1.0  0.1072
  H  H38  1  0.064000  0.868300  0.395800  1.0  0.1395
  H  H39  1  0.004400  0.864800  0.437200  1.0  0.1351
  H  H40  1  0.024700  0.935000  0.412300  1.0  0.137
  H  H41  1  0.727100  0.995600  0.265500  1.0  0.0908
  H  H42  1  0.636300  0.056200  0.240600  1.0  0.105
  H  H43  1  0.539200  0.064700  0.369800  1.0  0.1159
  H  H44  1  0.630900  0.001000  0.392100  1.0  0.111
  H  H45  1  0.714400  0.680100  0.247800  1.0  0.1013
  H  H46  1  0.755000  0.644300  0.285100  1.0  0.109
  H  H47  1  0.796400  0.734200  0.287800  1.0  0.1178
  H  H48  1  0.837700  0.951900  0.492700  1.0  0.1158
  H  H49  1  0.805700  0.898700  0.528600  1.0  0.1204
  H  H50  1  0.743100  0.884900  0.479900  1.0  0.1084
  H  H51  1  0.694000  0.590600  0.434700  1.0  0.122
  H  H52  1  0.709400  0.759300  0.537500  1.0  0.1187
  H  H53  1  0.739500  0.744600  0.614400  1.0  0.0837
  H  H54  1  0.921800  0.661000  0.576300  1.0  0.0937
  H  H55  1  0.873000  0.645600  0.492800  1.0  0.124
  H  H56  1  0.531100  0.595500  0.313500  1.0  0.0925
  H  H57  1  0.422400  0.473200  0.278100  1.0  0.0895
  H  H58  1  0.598700  0.373100  0.314900  1.0  0.1089
  H  H59  1  0.695500  0.490900  0.359300  1.0  0.1127
  H  H60  1  0.511700  0.813400  0.353400  1.0  0.1269
  H  H61  1  0.568800  0.769900  0.324700  1.0  0.1285
  H  H62  1  0.569800  0.851100  0.316900  1.0  0.1239
  H  H63  1  0.911300  0.712100  0.166100  1.0  0.1449
  H  H64  1  0.857400  0.659000  0.197700  1.0  0.1217
  H  H65  1  0.837100  0.734400  0.192700  1.0  0.1339
  H  H66  1  0.201700  0.872900  0.813200  1.0  0.1091
  H  H67  1  0.294300  0.997700  0.856500  1.0  0.1137
  H  H68  1  0.129200  0.086600  0.797300  1.0  0.0917
  H  H69  1  0.029100  0.962400  0.760700  1.0  0.1019
  H  H70  1  0.273600  0.094800  0.926700  1.0  0.0883
  H  H71  1  0.409500  0.136100  0.996000  1.0  0.1248
  H  H72  1  0.407500  0.119400  0.074200  1.0  0.0997
  H  H73  1  0.267400  0.259300  0.104100  1.0  0.105
  H  H74  1  0.266100  0.279600  0.023800  1.0  0.1206
  H  H75  1  0.342900  0.423600  0.009500  1.0  0.1323
  H  H76  1  0.388100  0.456200  0.967600  1.0  0.1424
  H  H77  1  0.293000  0.389800  0.955700  1.0  0.1265
  H  H78  1  0.325600  0.187900  0.743700  1.0  0.1166
  H  H79  1  0.398800  0.226900  0.790300  1.0  0.1223
  H  H80  1  0.342100  0.137100  0.778700  1.0  0.1147
  H  H81  1  0.619500  0.355200  0.908200  1.0  0.1215
  H  H82  1  0.608800  0.434700  0.904300  1.0  0.1075
  H  H83  1  0.550700  0.384400  0.935900  1.0  0.1399
  H  H84  1  0.427500  0.525500  0.814500  1.0  0.1118
  H  H85  1  0.593700  0.589700  0.856900  1.0  0.1055
  H  H86  1  0.723500  0.643100  0.826500  1.0  0.0886
  H  H87  1  0.571500  0.374100  0.785000  1.0  0.1025
  H  H88  1  0.693400  0.424000  0.748000  1.0  0.1262
  H  H89  1  0.299800  0.497100  0.756600  1.0  0.079
  H  H90  1  0.201300  0.545900  0.728800  1.0  0.1075
  H  H91  1  0.099400  0.549100  0.852400  1.0  0.1029
  H  H92  1  0.197800  0.496200  0.879300  1.0  0.1195
  H  H93  1  0.859000  0.859700  0.671200  1.0  0.0929
  H  H94  1  0.981500  0.912400  0.639400  1.0  0.1111
  H  H95  1  0.000000  0.127800  0.708300  1.0  0.0879
  H  H96  1  0.876500  0.077700  0.741500  1.0  0.1163
  H  H97  1  0.140800  0.978700  0.677300  1.0  0.1072
  H  H98  1  0.936000  0.131700  0.604200  1.0  0.1361
  H  H99  1  0.995600  0.135200  0.562800  1.0  0.1368
  H  H100  1  0.975300  0.065000  0.587700  1.0  0.1334
  H  H101  1  0.272900  0.004400  0.734500  1.0  0.09
  H  H102  1  0.363700  0.943800  0.759400  1.0  0.1057
  H  H103  1  0.460800  0.935300  0.630200  1.0  0.1155
  H  H104  1  0.369100  0.999000  0.607900  1.0  0.1112
  H  H105  1  0.285600  0.319900  0.752200  1.0  0.1009
  H  H106  1  0.245000  0.355700  0.714900  1.0  0.1096
  H  H107  1  0.203600  0.265800  0.712200  1.0  0.1186
  H  H108  1  0.162300  0.048100  0.507300  1.0  0.1136
  H  H109  1  0.194300  0.101300  0.471400  1.0  0.1218
  H  H110  1  0.256900  0.115100  0.520100  1.0  0.1101
  H  H111  1  0.306000  0.409400  0.565300  1.0  0.1206
  H  H112  1  0.290600  0.240700  0.462500  1.0  0.1178
  H  H113  1  0.260500  0.255400  0.385600  1.0  0.0846
  H  H114  1  0.078200  0.339000  0.423700  1.0  0.0942
  H  H115  1  0.127000  0.354400  0.507200  1.0  0.1233
  H  H116  1  0.468900  0.404500  0.686500  1.0  0.092
  H  H117  1  0.577600  0.526800  0.721900  1.0  0.0916
  H  H118  1  0.401300  0.626900  0.685100  1.0  0.1087
  H  H119  1  0.304500  0.509100  0.640700  1.0  0.113
  H  H120  1  0.488300  0.186600  0.646600  1.0  0.127
  H  H121  1  0.431200  0.230100  0.675300  1.0  0.1279
  H  H122  1  0.430200  0.148900  0.683100  1.0  0.1244
  H  H123  1  0.088700  0.287900  0.833900  1.0  0.1433
  H  H124  1  0.142600  0.341000  0.802300  1.0  0.1207
  H  H125  1  0.162900  0.265600  0.807300  1.0  0.1335
  C  C126  1  0.898600  0.096300  0.213800  1.0  -0.0673
  C  C127  1  0.816100  0.084400  0.187700  1.0  -0.094
  C  C128  1  0.759100  0.008900  0.162600  1.0  -0.1407
  C  C129  1  0.781600  0.944000  0.166000  1.0  0.0707
  C  C130  1  0.858200  0.956500  0.196900  1.0  -0.1133
  C  C131  1  0.918000  0.031300  0.219900  1.0  -0.1069
  C  C132  1  0.729100  0.865800  0.133100  1.0  -0.0022
  C  C133  1  0.710900  0.859200  0.083800  1.0  -0.0723
  C  C134  1  0.672300  0.790600  0.049900  1.0  -0.0285
  C  C135  1  0.648200  0.717700  0.064700  1.0  0.1573
  C  C136  1  0.665200  0.720800  0.114300  1.0  0.0076
  C  C137  1  0.705800  0.793700  0.147000  1.0  0.1701
  C  C138  1  0.660800  0.791000  0.996800  1.0  -0.0299
  C  C139  1  0.619200  0.838600  0.982600  1.0  -0.1282
  C  C140  1  0.620600  0.848200  0.935600  1.0  -0.0342
  C  C141  1  0.661200  0.812200  0.904100  1.0  -0.1115
  C  C142  1  0.704000  0.765000  0.917900  1.0  -0.0586
  C  C143  1  0.705300  0.752200  0.966200  1.0  -0.1475
  C  C144  1  0.667000  0.820000  0.853000  1.0  0.5501
  C  C145  1  0.649300  0.589800  0.023900  1.0  -0.0601
  C  C146  1  0.659300  0.812200  0.223000  1.0  -0.0496
  C  C147  1  0.422400  0.617700  0.093100  1.0  -0.0389
  C  C148  1  0.637200  0.648400  0.133600  1.0  -0.0316
  C  C149  1  0.550600  0.618900  0.143600  1.0  0.1626
  C  C150  1  0.524100  0.555300  0.164100  1.0  0.0164
  C  C151  1  0.589500  0.519100  0.173500  1.0  -0.1424
  C  C152  1  0.676800  0.549700  0.164800  1.0  -0.0234
  C  C153  1  0.700700  0.614100  0.145200  1.0  0.2135
  C  C154  1  0.432800  0.523300  0.177900  1.0  0.045
  C  C155  1  0.385200  0.443000  0.164500  1.0  -0.1344
  C  C156  1  0.307000  0.410800  0.182600  1.0  -0.0837
  C  C157  1  0.399300  0.571900  0.208400  1.0  -0.1376
  C  C158  1  0.324800  0.543000  0.229100  1.0  -0.1033
  C  C159  1  0.274100  0.458300  0.214100  1.0  -0.0796
  C  C160  1  0.200100  0.428000  0.238600  1.0  0.6245
  C  C161  1  0.740900  0.511200  0.180800  1.0  0.0802
  C  C162  1  0.742100  0.493800  0.224100  1.0  -0.1311
  C  C163  1  0.800400  0.464200  0.240600  1.0  -0.1031
  C  C164  1  0.865600  0.447500  0.212900  1.0  -0.1187
  C  C165  1  0.861100  0.462700  0.167800  1.0  -0.0449
  C  C166  1  0.802200  0.493900  0.151400  1.0  -0.1677
  C  C167  1  0.934500  0.411000  0.229700  1.0  0.6701
  C  C168  1  0.227900  0.066800  0.268400  1.0  0.5485
  C  C169  1  0.112600  0.086100  0.320600  1.0  -0.1077
  C  C170  1  0.039400  0.054800  0.339200  1.0  -0.149
  C  C171  1  0.992200  0.972500  0.327400  1.0  0.0897
  C  C172  1  0.027800  0.926400  0.298300  1.0  -0.1466
  C  C173  1  0.101700  0.955900  0.278800  1.0  -0.1109
  C  C174  1  0.903700  0.942300  0.343900  1.0  0.0283
  C  C175  1  0.841300  0.978300  0.336100  1.0  -0.1512
  C  C176  1  0.751500  0.954000  0.347400  1.0  0.0219
  C  C177  1  0.726900  0.886500  0.366900  1.0  0.1684
  C  C178  1  0.790200  0.850600  0.374900  1.0  -0.0147
  C  C179  1  0.872200  0.876300  0.364000  1.0  0.2904
  C  C180  1  0.013400  0.879800  0.407200  1.0  -0.087
  C  C181  1  0.693000  0.992700  0.332600  1.0  0.0515
  C  C182  1  0.689500  0.009500  0.286200  1.0  -0.1665
  C  C183  1  0.633600  0.044900  0.270800  1.0  -0.0516
  C  C184  1  0.571500  0.065000  0.299100  1.0  -0.1054
  C  C185  1  0.575300  0.049600  0.348400  1.0  -0.0922
  C  C186  1  0.632300  0.013000  0.362000  1.0  -0.148
  C  C187  1  0.741700  0.689500  0.280700  1.0  -0.008
  C  C188  1  0.804300  0.899900  0.495000  1.0  -0.0307
  C  C189  1  0.757500  0.775300  0.394400  1.0  -0.0564
  C  C190  1  0.705200  0.705900  0.362700  1.0  0.2038
  C  C191  1  0.682200  0.634800  0.375600  1.0  0.0151
  C  C192  1  0.709700  0.636600  0.424100  1.0  -0.1319
  C  C193  1  0.760700  0.708100  0.456100  1.0  -0.0115
  C  C194  1  0.790400  0.778400  0.439500  1.0  0.2949
  C  C195  1  0.790400  0.705400  0.506700  1.0  0.0758
  C  C196  1  0.749900  0.734600  0.543800  1.0  -0.1668
  C  C197  1  0.769700  0.727000  0.590400  1.0  -0.0452
  C  C198  1  0.829200  0.695800  0.602000  1.0  -0.1153
  C  C199  1  0.872400  0.674600  0.567600  1.0  -0.0463
  C  C200  1  0.848800  0.670800  0.517000  1.0  -0.1632
  C  C201  1  0.854600  0.691300  0.655400  1.0  0.732
  C  C202  1  0.620900  0.558200  0.343800  1.0  0.0645
  C  C203  1  0.542300  0.550600  0.316800  1.0  -0.1002
  C  C204  1  0.477800  0.476900  0.293700  1.0  -0.0433
  C  C205  1  0.496900  0.409900  0.294300  1.0  -0.0857
  C  C206  1  0.582700  0.417400  0.317300  1.0  -0.0595
  C  C207  1  0.641300  0.487700  0.342500  1.0  -0.1222
  C  C208  1  0.427400  0.324800  0.270300  1.0  0.6598
  C  C209  1  0.510100  0.098000  0.281800  1.0  0.6566
  C  C210  1  0.957300  0.178900  0.235000  1.0  0.6921
  C  C211  1  0.566900  0.820200  0.340200  1.0  -0.0361
  C  C212  1  0.853800  0.691700  0.176200  1.0  -0.0454
  C  C213  1  0.147500  0.039800  0.289200  1.0  -0.0996
  C  C214  1  0.101400  0.903700  0.786200  1.0  -0.0755
  C  C215  1  0.183900  0.915600  0.812300  1.0  -0.0951
  C  C216  1  0.240900  0.991100  0.837400  1.0  -0.1428
  C  C217  1  0.218400  0.056000  0.834000  1.0  0.0728
  C  C218  1  0.141800  0.043500  0.803100  1.0  -0.1136
  C  C219  1  0.082000  0.968700  0.780100  1.0  -0.1115
  C  C220  1  0.270900  0.134200  0.866900  1.0  -0.0022
  C  C221  1  0.289100  0.140800  0.916200  1.0  -0.0736
  C  C222  1  0.327700  0.209400  0.950100  1.0  -0.0274
  C  C223  1  0.351800  0.282300  0.935300  1.0  0.1567
  C  C224  1  0.334800  0.279200  0.885700  1.0  0.0077
  C  C225  1  0.294200  0.206300  0.853000  1.0  0.1708
  C  C226  1  0.339200  0.209000  0.003200  1.0  -0.0297
  C  C227  1  0.380800  0.161400  0.017400  1.0  -0.1271
  C  C228  1  0.379400  0.151800  0.064400  1.0  -0.0347
  C  C229  1  0.338800  0.187800  0.095900  1.0  -0.109
  C  C230  1  0.296000  0.235000  0.082100  1.0  -0.0617
  C  C231  1  0.294700  0.247800  0.033800  1.0  -0.1502
  C  C232  1  0.333000  0.180000  0.147000  1.0  0.545
  C  C233  1  0.350700  0.410200  0.976100  1.0  -0.0577
  C  C234  1  0.340700  0.187800  0.777000  1.0  -0.0493
  C  C235  1  0.577600  0.382300  0.906900  1.0  -0.0376
  C  C236  1  0.362800  0.351600  0.866400  1.0  -0.03
  C  C237  1  0.449400  0.381100  0.856400  1.0  0.1628
  C  C238  1  0.475900  0.444700  0.835900  1.0  0.0173
  C  C239  1  0.410500  0.480900  0.826500  1.0  -0.1436
  C  C240  1  0.323200  0.450300  0.835200  1.0  -0.0238
  C  C241  1  0.299300  0.385900  0.854800  1.0  0.2122
  C  C242  1  0.567200  0.476700  0.822100  1.0  0.0443
  C  C243  1  0.614800  0.557000  0.835500  1.0  -0.1362
  C  C244  1  0.693000  0.589200  0.817400  1.0  -0.0824
  C  C245  1  0.600700  0.428100  0.791600  1.0  -0.1354
  C  C246  1  0.675200  0.457000  0.770900  1.0  -0.1035
  C  C247  1  0.725900  0.541700  0.785900  1.0  -0.0862
  C  C248  1  0.799900  0.572000  0.761400  1.0  0.6242
  C  C249  1  0.259100  0.488800  0.819200  1.0  0.0811
  C  C250  1  0.257900  0.506200  0.775900  1.0  -0.1345
  C  C251  1  0.199600  0.535800  0.759400  1.0  -0.1026
  C  C252  1  0.134400  0.552500  0.787100  1.0  -0.1179
  C  C253  1  0.138900  0.537300  0.832200  1.0  -0.0472
  C  C254  1  0.197800  0.506100  0.848600  1.0  -0.1658
  C  C255  1  0.065500  0.589000  0.770300  1.0  0.67
  C  C256  1  0.772100  0.933200  0.731600  1.0  0.5156
  C  C257  1  0.887400  0.913900  0.679400  1.0  -0.1071
  C  C258  1  0.960600  0.945200  0.660800  1.0  -0.1472
  C  C259  1  0.007800  0.027500  0.672600  1.0  0.0891
  C  C260  1  0.972200  0.073600  0.701700  1.0  -0.1475
  C  C261  1  0.898300  0.044100  0.721200  1.0  -0.1127
  C  C262  1  0.096300  0.057700  0.656100  1.0  0.0253
  C  C263  1  0.158700  0.021700  0.663900  1.0  -0.1516
  C  C264  1  0.248500  0.046000  0.652600  1.0  0.0242
  C  C265  1  0.273100  0.113500  0.633100  1.0  0.1674
  C  C266  1  0.209800  0.149400  0.625100  1.0  -0.0138
  C  C267  1  0.127800  0.123700  0.636000  1.0  0.2901
  C  C268  1  0.986600  0.120200  0.592800  1.0  -0.086
  C  C269  1  0.307000  0.007300  0.667400  1.0  0.0511
  C  C270  1  0.310500  0.990500  0.713800  1.0  -0.1651
  C  C271  1  0.366400  0.955100  0.729200  1.0  -0.0494
  C  C272  1  0.428500  0.935000  0.700900  1.0  -0.1074
  C  C273  1  0.424700  0.950400  0.651600  1.0  -0.0902
  C  C274  1  0.367700  0.987000  0.638000  1.0  -0.1489
  C  C275  1  0.258300  0.310500  0.719300  1.0  -0.0072
  C  C276  1  0.195700  0.100100  0.505000  1.0  -0.0293
  C  C277  1  0.242500  0.224700  0.605600  1.0  -0.0554
  C  C278  1  0.294800  0.294100  0.637300  1.0  0.2051
  C  C279  1  0.317800  0.365200  0.624400  1.0  0.0153
  C  C280  1  0.290300  0.363400  0.575900  1.0  -0.1326
  C  C281  1  0.239300  0.291900  0.543900  1.0  -0.0111
  C  C282  1  0.209600  0.221600  0.560500  1.0  0.2951
  C  C283  1  0.209600  0.294600  0.493300  1.0  0.0754
  C  C284  1  0.250100  0.265400  0.456200  1.0  -0.166
  C  C285  1  0.230300  0.273000  0.409600  1.0  -0.0465
  C  C286  1  0.170800  0.304200  0.398000  1.0  -0.1145
  C  C287  1  0.127600  0.325400  0.432400  1.0  -0.0481
  C  C288  1  0.151200  0.329200  0.483000  1.0  -0.1682
  C  C289  1  0.145400  0.308700  0.344600  1.0  0.7406
  C  C290  1  0.379100  0.441800  0.656200  1.0  0.0646
  C  C291  1  0.457700  0.449400  0.683200  1.0  -0.0983
  C  C292  1  0.522200  0.523100  0.706300  1.0  -0.0404
  C  C293  1  0.503100  0.590100  0.705700  1.0  -0.0815
  C  C294  1  0.417300  0.582600  0.682700  1.0  -0.0566
  C  C295  1  0.358700  0.512300  0.657500  1.0  -0.1238
  C  C296  1  0.572600  0.675200  0.729700  1.0  0.682
  C  C297  1  0.489900  0.902000  0.718200  1.0  0.6562
  C  C298  1  0.042700  0.821100  0.765000  1.0  0.7022
  C  C299  1  0.433100  0.179800  0.659800  1.0  -0.0344
  C  C300  1  0.146200  0.308300  0.823800  1.0  -0.0466
  C  C301  1  0.852500  0.960200  0.710800  1.0  -0.1034
  O  O302  1  0.937600  0.410300  0.274800  1.0  -0.6104
  O  O303  1  0.974400  0.386100  0.200500  1.0  -0.5762
  O  O304  1  0.165300  0.467400  0.266300  1.0  -0.6273
  O  O305  1  0.161700  0.348400  0.228100  1.0  -0.6235
  O  O306  1  0.256600  0.149300  0.271800  1.0  -0.6437
  O  O307  1  0.270600  0.032500  0.246300  1.0  -0.5851
  O  O308  1  0.703700  0.789500  0.824700  1.0  -0.7051
  O  O309  1  0.623200  0.869000  0.840400  1.0  -0.6128
  O  O310  1  0.345900  0.321800  0.264700  1.0  -0.475
  O  O311  1  0.450200  0.272000  0.262600  1.0  -0.6094
  O  O312  1  0.500400  0.098400  0.238800  1.0  -0.5617
  O  O313  1  0.458300  0.123400  0.308200  1.0  -0.6288
  O  O314  1  0.914300  0.661700  0.658800  1.0  -0.6198
  O  O315  1  0.811300  0.713600  0.684200  1.0  -0.6598
  O  O316  1  0.490700  0.658200  0.134300  1.0  -0.2704
  O  O317  1  0.785700  0.645300  0.133400  1.0  -0.3152
  O  O318  1  0.606600  0.649000  0.030800  1.0  -0.2811
  O  O319  1  0.726300  0.794900  0.195500  1.0  -0.336
  O  O320  1  0.680700  0.704600  0.313000  1.0  -0.2829
  O  O321  1  0.843000  0.847600  0.471700  1.0  -0.2756
  O  O322  1  0.642500  0.859800  0.378900  1.0  -0.2745
  O  O323  1  0.932100  0.835800  0.370800  1.0  -0.2817
  O  O324  1  0.929400  0.235700  0.239100  1.0  -0.6034
  O  O325  1  0.045200  0.192000  0.246200  1.0  -0.5158
  O  O326  1  0.062400  0.589700  0.725200  1.0  -0.6141
  O  O327  1  0.025600  0.613900  0.799500  1.0  -0.5794
  O  O328  1  0.834700  0.532600  0.733700  1.0  -0.6309
  O  O329  1  0.838300  0.651600  0.771900  1.0  -0.7133
  O  O330  1  0.743400  0.850700  0.728200  1.0  -0.7248
  O  O331  1  0.729400  0.967500  0.753700  1.0  -0.5906
  O  O332  1  0.296300  0.210500  0.175300  1.0  -0.4663
  O  O333  1  0.376800  0.131000  0.159600  1.0  -0.6074
  O  O334  1  0.654100  0.678200  0.735300  1.0  -0.7185
  O  O335  1  0.549800  0.728000  0.737400  1.0  -0.616
  O  O336  1  0.499600  0.901600  0.761200  1.0  -0.5581
  O  O337  1  0.541700  0.876600  0.691800  1.0  -0.6325
  O  O338  1  0.085700  0.338300  0.341200  1.0  -0.6166
  O  O339  1  0.188700  0.286400  0.315800  1.0  -0.4653
  O  O340  1  0.509300  0.341800  0.865700  1.0  -0.2673
  O  O341  1  0.214300  0.354700  0.866600  1.0  -0.3186
  O  O342  1  0.393400  0.351000  0.969200  1.0  -0.2832
  O  O343  1  0.273700  0.205100  0.804500  1.0  -0.3372
  O  O344  1  0.319300  0.295400  0.687000  1.0  -0.2828
  O  O345  1  0.157000  0.152400  0.528300  1.0  -0.2789
  O  O346  1  0.357500  0.140200  0.621100  1.0  -0.274
  O  O347  1  0.067900  0.164200  0.629200  1.0  -0.2854
  O  O348  1  0.070600  0.764300  0.760900  1.0  -0.614
  O  O349  1  0.954800  0.808000  0.753800  1.0  -0.7367
