# generated using pymatgen
data_SmCd5H120(C11O3)16
_symmetry_space_group_name_H-M   'P 1'
_cell_length_a   15.81300000
_cell_length_b   18.21300000
_cell_length_c   27.96100000
_cell_angle_alpha   104.73600000
_cell_angle_beta   91.53800000
_cell_angle_gamma   107.95500000
_symmetry_Int_Tables_number   1
_chemical_formula_structural   SmCd5H120(C11O3)16
_chemical_formula_sum   'Sm1 Cd5 H120 C176 O48'
_cell_volume   7360.03059239
_cell_formula_units_Z   1
loop_
 _symmetry_equiv_pos_site_id
 _symmetry_equiv_pos_as_xyz
  1  'x, y, z'
loop_
 _atom_site_type_symbol
 _atom_site_label
 _atom_site_symmetry_multiplicity
 _atom_site_fract_x
 _atom_site_fract_y
 _atom_site_fract_z
 _atom_site_occupancy
 _atom_site_charge
  Sm  Sm1  1  0.830180  0.766440  0.268230  1.0  2.3071
  Cd  Cd2  1  0.358750  0.146710  0.741350  1.0  1.0625
  Cd  Cd3  1  0.169820  0.233560  0.731770  1.0  0.895
  Cd  Cd4  1  0.022690  0.366100  0.782570  1.0  1.002
  Cd  Cd5  1  0.641250  0.853290  0.258650  1.0  1.0609
  Cd  Cd6  1  0.977310  0.633900  0.217430  1.0  1.0031
  H  H7  1  0.560100  0.375200  0.815900  1.0  0.0951
  H  H8  1  0.660000  0.496600  0.860300  1.0  0.1072
  H  H9  1  0.486500  0.605400  0.828700  1.0  0.1056
  H  H10  1  0.383200  0.482300  0.792400  1.0  0.0913
  H  H11  1  0.667300  0.596500  0.938000  1.0  0.0979
  H  H12  1  0.683400  0.735300  0.053100  1.0  0.1216
  H  H13  1  0.737800  0.718400  0.123400  1.0  0.0645
  H  H14  1  0.941900  0.678300  0.064700  1.0  0.0931
  H  H15  1  0.886600  0.685400  0.987900  1.0  0.1152
  H  H16  1  0.668600  0.697200  0.753800  1.0  0.0995
  H  H17  1  0.704700  0.649000  0.783800  1.0  0.1055
  H  H18  1  0.753100  0.741400  0.793300  1.0  0.1099
  H  H19  1  0.825100  0.957700  0.021900  1.0  0.1064
  H  H20  1  0.807500  0.889200  0.048500  1.0  0.1085
  H  H21  1  0.731300  0.890600  0.012100  1.0  0.1118
  H  H22  1  0.831600  0.036100  0.835600  1.0  0.087
  H  H23  1  0.014900  0.849200  0.912700  1.0  0.1361
  H  H24  1  0.968100  0.907400  0.943200  1.0  0.1333
  H  H25  1  0.020300  0.928600  0.899000  1.0  0.1119
  H  H26  1  0.483100  0.804300  0.863700  1.0  0.138
  H  H27  1  0.549400  0.788200  0.824800  1.0  0.1252
  H  H28  1  0.522900  0.866300  0.833500  1.0  0.1156
  H  H29  1  0.963900  0.874500  0.790900  1.0  0.1128
  H  H30  1  0.094000  0.924900  0.756400  1.0  0.1031
  H  H31  1  0.115000  0.149300  0.836900  1.0  0.0876
  H  H32  1  0.988400  0.098200  0.872100  1.0  0.1201
  H  H33  1  0.709900  0.009600  0.778500  1.0  0.0823
  H  H34  1  0.613300  0.063000  0.749000  1.0  0.1073
  H  H35  1  0.501800  0.076100  0.876100  1.0  0.1028
  H  H36  1  0.599600  0.015900  0.903400  1.0  0.1031
  H  H37  1  0.254700  0.364500  0.676000  1.0  0.0797
  H  H38  1  0.384700  0.411600  0.641500  1.0  0.1129
  H  H39  1  0.408000  0.635300  0.722000  1.0  0.1085
  H  H40  1  0.279500  0.584500  0.755800  1.0  0.1108
  H  H41  1  0.551100  0.480200  0.688800  1.0  0.108
  H  H42  1  0.370600  0.650400  0.589000  1.0  0.1332
  H  H43  1  0.369500  0.568900  0.598500  1.0  0.1176
  H  H44  1  0.436400  0.606800  0.564200  1.0  0.1343
  H  H45  1  0.892300  0.711400  0.668300  1.0  0.1109
  H  H46  1  0.831000  0.671500  0.704100  1.0  0.0883
  H  H47  1  0.820000  0.747600  0.691800  1.0  0.1198
  H  H48  1  0.670800  0.511400  0.750500  1.0  0.0911
  H  H49  1  0.779100  0.467500  0.782200  1.0  0.0986
  H  H50  1  0.894900  0.458800  0.655300  1.0  0.115
  H  H51  1  0.787800  0.509100  0.625400  1.0  0.1023
  H  H52  1  0.711300  0.912000  0.577400  1.0  0.084
  H  H53  1  0.636900  0.827200  0.763200  1.0  0.1019
  H  H54  1  0.568800  0.780500  0.715300  1.0  0.1116
  H  H55  1  0.620100  0.872500  0.725000  1.0  0.1101
  H  H56  1  0.626800  0.558900  0.491000  1.0  0.1071
  H  H57  1  0.610600  0.554900  0.545500  1.0  0.1063
  H  H58  1  0.700000  0.613400  0.535500  1.0  0.0987
  H  H59  1  0.844000  0.921600  0.712100  1.0  0.0845
  H  H60  1  0.947100  0.046300  0.743800  1.0  0.0848
  H  H61  1  0.780000  0.142000  0.690400  1.0  0.1036
  H  H62  1  0.690900  0.014100  0.645900  1.0  0.1067
  H  H63  1  0.730500  0.717800  0.474300  1.0  0.1067
  H  H64  1  0.746100  0.738500  0.398000  1.0  0.1047
  H  H65  1  0.597100  0.883400  0.424900  1.0  0.1013
  H  H66  1  0.588600  0.870400  0.504000  1.0  0.1128
  H  H67  1  0.439900  0.624800  0.184100  1.0  0.0954
  H  H68  1  0.340000  0.503400  0.139700  1.0  0.1078
  H  H69  1  0.513500  0.394600  0.171300  1.0  0.1047
  H  H70  1  0.616800  0.517700  0.207600  1.0  0.0914
  H  H71  1  0.332700  0.403500  0.062000  1.0  0.0973
  H  H72  1  0.316600  0.264700  0.946900  1.0  0.1196
  H  H73  1  0.262200  0.281600  0.876600  1.0  0.0643
  H  H74  1  0.058100  0.321700  0.935300  1.0  0.0959
  H  H75  1  0.113400  0.314600  0.012100  1.0  0.1158
  H  H76  1  0.331400  0.302800  0.246200  1.0  0.0981
  H  H77  1  0.295300  0.351000  0.216200  1.0  0.105
  H  H78  1  0.246900  0.258600  0.206700  1.0  0.1103
  H  H79  1  0.174900  0.042300  0.978100  1.0  0.1077
  H  H80  1  0.192500  0.110800  0.951500  1.0  0.1081
  H  H81  1  0.268700  0.109400  0.987900  1.0  0.1086
  H  H82  1  0.168400  0.963900  0.164400  1.0  0.0858
  H  H83  1  0.985100  0.150800  0.087300  1.0  0.1355
  H  H84  1  0.031900  0.092600  0.056800  1.0  0.1325
  H  H85  1  0.979700  0.071400  0.101000  1.0  0.1115
  H  H86  1  0.516900  0.195700  0.136300  1.0  0.1365
  H  H87  1  0.450600  0.211800  0.175200  1.0  0.1247
  H  H88  1  0.477100  0.133700  0.166500  1.0  0.115
  H  H89  1  0.036100  0.125500  0.209100  1.0  0.1127
  H  H90  1  0.906000  0.075100  0.243600  1.0  0.1037
  H  H91  1  0.885000  0.850700  0.163100  1.0  0.0873
  H  H92  1  0.011600  0.901800  0.127900  1.0  0.1197
  H  H93  1  0.290100  0.990400  0.221500  1.0  0.0818
  H  H94  1  0.386700  0.937000  0.251000  1.0  0.1076
  H  H95  1  0.498200  0.923900  0.123900  1.0  0.1024
  H  H96  1  0.400400  0.984100  0.096600  1.0  0.1033
  H  H97  1  0.745300  0.635500  0.324000  1.0  0.0377
  H  H98  1  0.615300  0.588400  0.358500  1.0  0.1131
  H  H99  1  0.592000  0.364700  0.278000  1.0  0.1089
  H  H100  1  0.720500  0.415500  0.244200  1.0  0.1108
  H  H101  1  0.448900  0.519800  0.311200  1.0  0.1076
  H  H102  1  0.629400  0.349600  0.411000  1.0  0.135
  H  H103  1  0.630500  0.431100  0.401500  1.0  0.1186
  H  H104  1  0.563600  0.393200  0.435800  1.0  0.1364
  H  H105  1  0.107700  0.288600  0.331700  1.0  0.1098
  H  H106  1  0.169000  0.328500  0.295900  1.0  0.0857
  H  H107  1  0.180000  0.252400  0.308200  1.0  0.1171
  H  H108  1  0.329200  0.488600  0.249500  1.0  0.0905
  H  H109  1  0.220900  0.532500  0.217800  1.0  0.0996
  H  H110  1  0.105100  0.541200  0.344700  1.0  0.1152
  H  H111  1  0.212200  0.490900  0.374600  1.0  0.1028
  H  H112  1  0.288700  0.088000  0.422600  1.0  0.0844
  H  H113  1  0.363100  0.172800  0.236800  1.0  0.1033
  H  H114  1  0.431200  0.219500  0.284700  1.0  0.112
  H  H115  1  0.379900  0.127500  0.275000  1.0  0.109
  H  H116  1  0.373200  0.441100  0.509000  1.0  0.1066
  H  H117  1  0.389400  0.445100  0.454500  1.0  0.1067
  H  H118  1  0.300000  0.386600  0.464500  1.0  0.0982
  H  H119  1  0.156000  0.078400  0.287900  1.0  0.0846
  H  H120  1  0.052900  0.953700  0.256200  1.0  0.0859
  H  H121  1  0.220000  0.858000  0.309600  1.0  0.1033
  H  H122  1  0.309100  0.985900  0.354100  1.0  0.1067
  H  H123  1  0.269500  0.282200  0.525700  1.0  0.106
  H  H124  1  0.253900  0.261500  0.602000  1.0  0.1044
  H  H125  1  0.402900  0.116600  0.575100  1.0  0.1004
  H  H126  1  0.411400  0.129600  0.496000  1.0  0.1125
  C  C127  1  0.395800  0.334400  0.774800  1.0  0.7179
  C  C128  1  0.461100  0.415200  0.799300  1.0  -0.1514
  C  C129  1  0.544500  0.421500  0.819900  1.0  -0.0458
  C  C130  1  0.605300  0.494800  0.846100  1.0  -0.1643
  C  C131  1  0.585900  0.567100  0.851900  1.0  0.0379
  C  C132  1  0.500800  0.559300  0.828200  1.0  -0.1393
  C  C133  1  0.439800  0.485500  0.804800  1.0  -0.0562
  C  C134  1  0.646300  0.643000  0.883900  1.0  0.0596
  C  C135  1  0.682300  0.644100  0.928700  1.0  -0.0811
  C  C136  1  0.740700  0.713400  0.961500  1.0  -0.0193
  C  C137  1  0.762100  0.784300  0.947100  1.0  0.1843
  C  C138  1  0.729400  0.784700  0.902100  1.0  -0.0076
  C  C139  1  0.673800  0.715600  0.870700  1.0  0.1765
  C  C140  1  0.776300  0.709100  0.011300  1.0  0.1014
  C  C141  1  0.734800  0.720600  0.053300  1.0  -0.2139
  C  C142  1  0.768300  0.710400  0.095600  1.0  -0.0649
  C  C143  1  0.839800  0.690500  0.100300  1.0  0.0198
  C  C144  1  0.886800  0.685900  0.061500  1.0  -0.0739
  C  C145  1  0.854700  0.692400  0.015200  1.0  -0.1517
  C  C146  1  0.872300  0.674600  0.145100  1.0  0.6964
  C  C147  1  0.696200  0.699500  0.785400  1.0  -0.0377
  C  C148  1  0.794600  0.901800  0.018400  1.0  -0.0327
  C  C149  1  0.758300  0.858800  0.884000  1.0  0.0035
  C  C150  1  0.847500  0.886500  0.871700  1.0  0.2397
  C  C151  1  0.873600  0.953500  0.852700  1.0  -0.0123
  C  C152  1  0.812900  0.990500  0.847000  1.0  -0.1141
  C  C153  1  0.724500  0.964800  0.857100  1.0  0.0392
  C  C154  1  0.701500  0.900700  0.877400  1.0  0.2054
  C  C155  1  0.983200  0.885700  0.910800  1.0  -0.059
  C  C156  1  0.535000  0.828900  0.849200  1.0  -0.1581
  C  C157  1  0.963500  0.981800  0.834300  1.0  0.0126
  C  C158  1  0.994500  0.929400  0.799900  1.0  -0.115
  C  C159  1  0.072000  0.959800  0.778900  1.0  -0.0419
  C  C160  1  0.116800  0.042500  0.791300  1.0  -0.1531
  C  C161  1  0.084600  0.094300  0.827400  1.0  -0.0407
  C  C162  1  0.009200  0.063900  0.848400  1.0  -0.1352
  C  C163  1  0.199600  0.075300  0.769600  1.0  0.6392
  C  C164  1  0.661500  0.005900  0.843500  1.0  0.0663
  C  C165  1  0.666400  0.021500  0.797900  1.0  -0.1628
  C  C166  1  0.609400  0.053800  0.780200  1.0  -0.0924
  C  C167  1  0.544700  0.073100  0.809500  1.0  -0.1258
  C  C168  1  0.542300  0.061200  0.855500  1.0  -0.0613
  C  C169  1  0.602300  0.025400  0.872200  1.0  -0.086
  C  C170  1  0.476800  0.104600  0.789700  1.0  0.6483
  C  C171  1  0.174200  0.432100  0.744800  1.0  0.6534
  C  C172  1  0.256200  0.467200  0.718700  1.0  -0.0912
  C  C173  1  0.286800  0.419100  0.685900  1.0  -0.0497
  C  C174  1  0.365500  0.446800  0.665500  1.0  -0.1807
  C  C175  1  0.415800  0.529200  0.681800  1.0  0.0783
  C  C176  1  0.379300  0.580000  0.713700  1.0  -0.1228
  C  C177  1  0.301800  0.550000  0.733100  1.0  -0.0921
  C  C178  1  0.504900  0.558600  0.666500  1.0  0.0503
  C  C179  1  0.568800  0.524900  0.676600  1.0  -0.1221
  C  C180  1  0.659600  0.555800  0.669000  1.0  0.0451
  C  C181  1  0.682600  0.617700  0.647600  1.0  0.2099
  C  C182  1  0.621600  0.654500  0.636300  1.0  -0.0242
  C  C183  1  0.533500  0.623400  0.645500  1.0  0.2111
  C  C184  1  0.406800  0.618300  0.593400  1.0  -0.0653
  C  C185  1  0.833400  0.698900  0.678800  1.0  -0.0503
  C  C186  1  0.721800  0.518500  0.685100  1.0  0.0213
  C  C187  1  0.716500  0.503200  0.731900  1.0  -0.1629
  C  C188  1  0.781100  0.475000  0.750500  1.0  -0.021
  C  C189  1  0.846000  0.458900  0.722900  1.0  -0.1405
  C  C190  1  0.851300  0.470400  0.674700  1.0  -0.1076
  C  C191  1  0.786000  0.501100  0.657000  1.0  -0.0996
  C  C192  1  0.912900  0.428000  0.743200  1.0  0.6407
  C  C193  1  0.649700  0.726400  0.617500  1.0  -0.0401
  C  C194  1  0.686500  0.801600  0.651500  1.0  0.2061
  C  C195  1  0.711300  0.872500  0.637400  1.0  0.0156
  C  C196  1  0.697000  0.865100  0.587400  1.0  -0.1279
  C  C197  1  0.663000  0.793200  0.551400  1.0  -0.0057
  C  C198  1  0.640000  0.722900  0.567800  1.0  0.1911
  C  C199  1  0.624400  0.822600  0.728500  1.0  0.0041
  C  C200  1  0.636800  0.589500  0.525300  1.0  -0.0717
  C  C201  1  0.761300  0.953500  0.671000  1.0  0.0434
  C  C202  1  0.835000  0.965600  0.704500  1.0  -0.0837
  C  C203  1  0.893800  0.040400  0.726000  1.0  -0.0625
  C  C204  1  0.874500  0.108300  0.721500  1.0  -0.1462
  C  C205  1  0.795800  0.097600  0.692400  1.0  -0.0773
  C  C206  1  0.741300  0.020600  0.666500  1.0  -0.149
  C  C207  1  0.939900  0.189100  0.741000  1.0  0.754
  C  C208  1  0.658600  0.793700  0.498700  1.0  0.0129
  C  C209  1  0.705400  0.752700  0.465000  1.0  -0.1509
  C  C210  1  0.713500  0.764400  0.419300  1.0  -0.0194
  C  C211  1  0.674600  0.814200  0.402900  1.0  -0.1366
  C  C212  1  0.625900  0.851700  0.435300  1.0  -0.0424
  C  C213  1  0.619500  0.842900  0.482600  1.0  -0.1236
  C  C214  1  0.685600  0.826900  0.352700  1.0  0.7347
  C  C215  1  0.604200  0.665600  0.225200  1.0  0.717
  C  C216  1  0.538900  0.584800  0.200700  1.0  -0.1498
  C  C217  1  0.455500  0.578500  0.180100  1.0  -0.0454
  C  C218  1  0.394700  0.505200  0.153900  1.0  -0.1629
  C  C219  1  0.414100  0.432900  0.148100  1.0  0.0385
  C  C220  1  0.499200  0.440700  0.171800  1.0  -0.1376
  C  C221  1  0.560200  0.514500  0.195200  1.0  -0.0572
  C  C222  1  0.353700  0.357000  0.116100  1.0  0.0586
  C  C223  1  0.317700  0.355900  0.071300  1.0  -0.0827
  C  C224  1  0.259300  0.286600  0.038500  1.0  -0.0188
  C  C225  1  0.237900  0.215700  0.052900  1.0  0.1844
  C  C226  1  0.270600  0.215300  0.097900  1.0  -0.0077
  C  C227  1  0.326200  0.284400  0.129300  1.0  0.1758
  C  C228  1  0.223700  0.290900  0.988700  1.0  0.1012
  C  C229  1  0.265200  0.279400  0.946700  1.0  -0.2147
  C  C230  1  0.231700  0.289600  0.904400  1.0  -0.0634
  C  C231  1  0.160200  0.309500  0.899700  1.0  0.0223
  C  C232  1  0.113200  0.314100  0.938500  1.0  -0.0725
  C  C233  1  0.145300  0.307600  0.984800  1.0  -0.1536
  C  C234  1  0.127700  0.325400  0.854900  1.0  0.6983
  C  C235  1  0.303800  0.300500  0.214600  1.0  -0.0382
  C  C236  1  0.205400  0.098200  0.981600  1.0  -0.0322
  C  C237  1  0.241700  0.141200  0.116000  1.0  0.0035
  C  C238  1  0.152500  0.113500  0.128300  1.0  0.2403
  C  C239  1  0.126400  0.046500  0.147300  1.0  -0.013
  C  C240  1  0.187100  0.009500  0.153000  1.0  -0.1142
  C  C241  1  0.275500  0.035200  0.142900  1.0  0.0434
  C  C242  1  0.298500  0.099300  0.122600  1.0  0.2032
  C  C243  1  0.016800  0.114300  0.089200  1.0  -0.059
  C  C244  1  0.465000  0.171100  0.150800  1.0  -0.1552
  C  C245  1  0.036500  0.018200  0.165700  1.0  0.0116
  C  C246  1  0.005500  0.070600  0.200100  1.0  -0.1168
  C  C247  1  0.928000  0.040200  0.221100  1.0  -0.0444
  C  C248  1  0.883200  0.957500  0.208700  1.0  -0.1523
  C  C249  1  0.915400  0.905700  0.172600  1.0  -0.0414
  C  C250  1  0.990800  0.936100  0.151600  1.0  -0.1356
  C  C251  1  0.800400  0.924700  0.230400  1.0  0.6327
  C  C252  1  0.338500  0.994100  0.156500  1.0  0.0667
  C  C253  1  0.333600  0.978500  0.202100  1.0  -0.1615
  C  C254  1  0.390600  0.946200  0.219800  1.0  -0.0931
  C  C255  1  0.455300  0.926900  0.190500  1.0  -0.1263
  C  C256  1  0.457700  0.938800  0.144500  1.0  -0.0598
  C  C257  1  0.397700  0.974600  0.127800  1.0  -0.0897
  C  C258  1  0.523200  0.895400  0.210300  1.0  0.6486
  C  C259  1  0.825800  0.567900  0.255200  1.0  0.653
  C  C260  1  0.743800  0.532800  0.281300  1.0  -0.0884
  C  C261  1  0.713200  0.580900  0.314100  1.0  -0.0474
  C  C262  1  0.634500  0.553200  0.334500  1.0  -0.1806
  C  C263  1  0.584200  0.470800  0.318200  1.0  0.078
  C  C264  1  0.620700  0.420000  0.286300  1.0  -0.1228
  C  C265  1  0.698200  0.450000  0.266900  1.0  -0.0902
  C  C266  1  0.495100  0.441400  0.333500  1.0  0.051
  C  C267  1  0.431200  0.475100  0.323400  1.0  -0.1232
  C  C268  1  0.340400  0.444200  0.331000  1.0  0.0421
  C  C269  1  0.317400  0.382300  0.352400  1.0  0.2093
  C  C270  1  0.378400  0.345500  0.363700  1.0  -0.024
  C  C271  1  0.466500  0.376600  0.354500  1.0  0.2123
  C  C272  1  0.593200  0.381700  0.406600  1.0  -0.0659
  C  C273  1  0.166600  0.301100  0.321200  1.0  -0.0522
  C  C274  1  0.278200  0.481500  0.314900  1.0  0.022
  C  C275  1  0.283500  0.496800  0.268100  1.0  -0.164
  C  C276  1  0.218900  0.525000  0.249500  1.0  -0.0242
  C  C277  1  0.154000  0.541100  0.277100  1.0  -0.1391
  C  C278  1  0.148700  0.529600  0.325300  1.0  -0.1096
  C  C279  1  0.214000  0.498900  0.343000  1.0  -0.1
  C  C280  1  0.087100  0.572000  0.256800  1.0  0.64
  C  C281  1  0.350300  0.273600  0.382500  1.0  -0.0381
  C  C282  1  0.313500  0.198400  0.348500  1.0  0.2054
  C  C283  1  0.288700  0.127500  0.362600  1.0  0.0174
  C  C284  1  0.303000  0.134900  0.412600  1.0  -0.1276
  C  C285  1  0.337000  0.206800  0.448600  1.0  -0.0061
  C  C286  1  0.360000  0.277100  0.432200  1.0  0.1927
  C  C287  1  0.375600  0.177400  0.271500  1.0  0.0026
  C  C288  1  0.363200  0.410500  0.474700  1.0  -0.0707
  C  C289  1  0.238700  0.046500  0.329000  1.0  0.0442
  C  C290  1  0.165000  0.034400  0.295500  1.0  -0.0846
  C  C291  1  0.106200  0.959600  0.274000  1.0  -0.0648
  C  C292  1  0.125500  0.891700  0.278500  1.0  -0.1464
  C  C293  1  0.204200  0.902400  0.307600  1.0  -0.0783
  C  C294  1  0.258700  0.979400  0.333500  1.0  -0.1535
  C  C295  1  0.060100  0.810900  0.259000  1.0  0.7526
  C  C296  1  0.341400  0.206300  0.501300  1.0  0.0124
  C  C297  1  0.294600  0.247300  0.535000  1.0  -0.1511
  C  C298  1  0.286500  0.235600  0.580700  1.0  -0.0206
  C  C299  1  0.325400  0.185800  0.597100  1.0  -0.1399
  C  C300  1  0.374100  0.148300  0.564700  1.0  -0.0418
  C  C301  1  0.380500  0.157100  0.517400  1.0  -0.1228
  C  C302  1  0.314400  0.173100  0.647300  1.0  0.7368
  O  O303  1  0.314900  0.326900  0.765800  1.0  -0.7034
  O  O304  1  0.423700  0.275700  0.765200  1.0  -0.626
  O  O305  1  0.835600  0.701900  0.184600  1.0  -0.6736
  O  O306  1  0.933200  0.646000  0.146700  1.0  -0.5823
  O  O307  1  0.243000  0.032800  0.747100  1.0  -0.61
  O  O308  1  0.223900  0.155400  0.775700  1.0  -0.6928
  O  O309  1  0.474500  0.101300  0.743000  1.0  -0.6033
  O  O310  1  0.425900  0.129700  0.816500  1.0  -0.5694
  O  O311  1  0.639300  0.715900  0.823500  1.0  -0.2994
  O  O312  1  0.824000  0.854900  0.978500  1.0  -0.2986
  O  O313  1  0.613300  0.872800  0.889600  1.0  -0.3084
  O  O314  1  0.901000  0.842900  0.876300  1.0  -0.2787
  O  O315  1  0.473600  0.662200  0.636500  1.0  -0.2925
  O  O316  1  0.770100  0.648900  0.637700  1.0  -0.2772
  O  O317  1  0.597100  0.650800  0.531200  1.0  -0.2729
  O  O318  1  0.695500  0.804200  0.701800  1.0  -0.2741
  O  O319  1  0.149700  0.476300  0.775600  1.0  -0.6027
  O  O320  1  0.138100  0.355600  0.732020  1.0  -0.6793
  O  O321  1  0.915400  0.427300  0.787800  1.0  -0.584
  O  O322  1  0.965800  0.404200  0.714000  1.0  -0.5828
  O  O323  1  0.020600  0.195700  0.748900  1.0  -0.7559
  O  O324  1  0.911700  0.247600  0.750100  1.0  -0.6115
  O  O325  1  0.728500  0.788700  0.324700  1.0  -0.7584
  O  O326  1  0.649200  0.872700  0.340300  1.0  -0.5947
  O  O327  1  0.685100  0.673100  0.234200  1.0  -0.7048
  O  O328  1  0.576300  0.724300  0.234800  1.0  -0.6263
  O  O329  1  0.164400  0.298100  0.815400  1.0  -0.6809
  O  O330  1  0.066800  0.354000  0.853300  1.0  -0.5833
  O  O331  1  0.757000  0.967200  0.252900  1.0  -0.6076
  O  O332  1  0.776100  0.844600  0.224300  1.0  -0.6903
  O  O333  1  0.525500  0.898700  0.257000  1.0  -0.5982
  O  O334  1  0.574100  0.870300  0.183500  1.0  -0.5705
  O  O335  1  0.360700  0.284100  0.176500  1.0  -0.2993
  O  O336  1  0.176000  0.145100  0.021500  1.0  -0.2985
  O  O337  1  0.386700  0.127200  0.110400  1.0  -0.3073
  O  O338  1  0.099000  0.157100  0.123700  1.0  -0.2808
  O  O339  1  0.526400  0.337800  0.363500  1.0  -0.291
  O  O340  1  0.229900  0.351100  0.362300  1.0  -0.2813
  O  O341  1  0.402900  0.349200  0.468800  1.0  -0.2746
  O  O342  1  0.304500  0.195800  0.298200  1.0  -0.2758
  O  O343  1  0.850300  0.523700  0.224400  1.0  -0.6056
  O  O344  1  0.861900  0.644400  0.267980  1.0  -0.6857
  O  O345  1  0.084600  0.572700  0.212200  1.0  -0.5834
  O  O346  1  0.034200  0.595800  0.286000  1.0  -0.5799
  O  O347  1  0.979400  0.804300  0.251100  1.0  -0.7633
  O  O348  1  0.088300  0.752400  0.249900  1.0  -0.6132
  O  O349  1  0.271500  0.211300  0.675300  1.0  -0.7592
  O  O350  1  0.350800  0.127300  0.659700  1.0  -0.5934
