# generated using pymatgen
data_ZnH30(C11O3)4
_symmetry_space_group_name_H-M   'P 1'
_cell_length_a   15.11600000
_cell_length_b   15.39300000
_cell_length_c   18.22500000
_cell_angle_alpha   105.73200000
_cell_angle_beta   106.55300000
_cell_angle_gamma   104.40500000
_symmetry_Int_Tables_number   1
_chemical_formula_structural   ZnH30(C11O3)4
_chemical_formula_sum   'Zn2 H60 C88 O24'
_cell_volume   3660.18796488
_cell_formula_units_Z   2
loop_
 _symmetry_equiv_pos_site_id
 _symmetry_equiv_pos_as_xyz
  1  'x, y, z'
loop_
 _atom_site_type_symbol
 _atom_site_label
 _atom_site_symmetry_multiplicity
 _atom_site_fract_x
 _atom_site_fract_y
 _atom_site_fract_z
 _atom_site_occupancy
 _atom_site_charge
  Zn  Zn1  1  0.191690  0.027080  0.930060  1.0  1.0647
  Zn  Zn2  1  0.808310  0.972920  0.069940  1.0  1.0643
  H  H3  1  0.322800  0.639200  0.160400  1.0  0.1128
  H  H4  1  0.708100  0.790800  0.730600  1.0  0.142
  H  H5  1  0.771900  0.946700  0.591800  1.0  0.1295
  H  H6  1  0.499200  0.977800  0.737800  1.0  0.099
  H  H7  1  0.870500  0.858700  0.818700  1.0  0.0984
  H  H8  1  0.414200  0.021100  0.820700  1.0  0.1108
  H  H9  1  0.227900  0.448600  0.255500  1.0  0.1282
  H  H10  1  0.583100  0.870700  0.705100  1.0  0.1028
  H  H11  1  0.153700  0.290600  0.161700  1.0  0.092
  H  H12  1  0.403500  0.503500  0.133600  1.0  0.1228
  H  H13  1  0.398100  0.786200  0.134700  1.0  0.1114
  H  H14  1  0.263900  0.870500  0.284800  1.0  0.1033
  H  H15  1  0.198400  0.762900  0.698000  1.0  0.1151
  H  H16  1  0.338300  0.335900  0.049200  1.0  0.1122
  H  H17  1  0.934300  0.004700  0.680700  1.0  0.1084
  H  H18  1  0.277300  0.722700  0.609100  1.0  0.1075
  H  H19  1  0.191800  0.943500  0.201500  1.0  0.0949
  H  H20  1  0.203400  0.802800  0.442800  1.0  0.1447
  H  H21  1  0.309100  0.875500  0.465800  1.0  0.125
  H  H22  1  0.272300  0.861700  0.535500  1.0  0.13
  H  H23  1  0.534700  0.008700  0.446500  1.0  0.1023
  H  H24  1  0.526100  0.945400  0.359600  1.0  0.1109
  H  H25  1  0.569600  0.919900  0.436600  1.0  0.1164
  H  H26  1  0.336900  0.874700  0.056500  1.0  0.1138
  H  H27  1  0.729500  0.720700  0.471700  1.0  0.1179
  H  H28  1  0.623800  0.642100  0.435800  1.0  0.1155
  H  H29  1  0.677800  0.698300  0.531100  1.0  0.1084
  H  H30  1  0.410900  0.552100  0.484700  1.0  0.1424
  H  H31  1  0.316500  0.484900  0.406100  1.0  0.137
  H  H32  1  0.335800  0.595400  0.443700  1.0  0.1286
  H  H33  1  0.677200  0.360800  0.839600  1.0  0.113
  H  H34  1  0.291900  0.209200  0.269400  1.0  0.1418
  H  H35  1  0.228100  0.053300  0.408200  1.0  0.1296
  H  H36  1  0.500800  0.022200  0.262200  1.0  0.1002
  H  H37  1  0.129500  0.141300  0.181300  1.0  0.098
  H  H38  1  0.585800  0.978900  0.179300  1.0  0.1105
  H  H39  1  0.772100  0.551400  0.744500  1.0  0.1271
  H  H40  1  0.416900  0.129300  0.294900  1.0  0.1031
  H  H41  1  0.846300  0.709400  0.838300  1.0  0.0942
  H  H42  1  0.596500  0.496500  0.866400  1.0  0.1234
  H  H43  1  0.601900  0.213800  0.865300  1.0  0.1115
  H  H44  1  0.736100  0.129500  0.715200  1.0  0.1034
  H  H45  1  0.801600  0.237100  0.302000  1.0  0.1152
  H  H46  1  0.661700  0.664100  0.950800  1.0  0.113
  H  H47  1  0.065700  0.995300  0.319300  1.0  0.1088
  H  H48  1  0.722700  0.277300  0.390900  1.0  0.1067
  H  H49  1  0.808200  0.056500  0.798500  1.0  0.0941
  H  H50  1  0.796600  0.197200  0.557200  1.0  0.1465
  H  H51  1  0.690900  0.124500  0.534200  1.0  0.1234
  H  H52  1  0.727700  0.138300  0.464500  1.0  0.1306
  H  H53  1  0.465300  0.991300  0.553500  1.0  0.1018
  H  H54  1  0.473900  0.054600  0.640400  1.0  0.1099
  H  H55  1  0.430400  0.080100  0.563400  1.0  0.1148
  H  H56  1  0.663100  0.125300  0.943500  1.0  0.1139
  H  H57  1  0.270500  0.279300  0.528300  1.0  0.1138
  H  H58  1  0.376200  0.357900  0.564200  1.0  0.1162
  H  H59  1  0.322200  0.301700  0.468900  1.0  0.1103
  H  H60  1  0.589100  0.447900  0.515300  1.0  0.1402
  H  H61  1  0.683500  0.515100  0.593900  1.0  0.1366
  H  H62  1  0.664200  0.404600  0.556300  1.0  0.1281
  C  C63  1  0.468800  0.766900  0.481300  1.0  -0.0369
  C  C64  1  0.347600  0.661100  0.217600  1.0  -0.1557
  C  C65  1  0.403600  0.784800  0.345800  1.0  0.2424
  C  C66  1  0.611600  0.826800  0.603800  1.0  0.0021
  C  C67  1  0.570900  0.788900  0.519700  1.0  0.2742
  C  C68  1  0.337400  0.817100  0.216800  1.0  0.0936
  C  C69  1  0.021000  0.987900  0.819300  1.0  0.6597
  C  C70  1  0.254000  0.912100  0.119200  1.0  -0.0885
  C  C71  1  0.323000  0.492300  0.202200  1.0  0.0594
  C  C72  1  0.423000  0.723800  0.386700  1.0  -0.0189
  C  C73  1  0.450000  0.820900  0.610500  1.0  0.0566
  C  C74  1  0.916400  0.939400  0.759600  1.0  -0.1413
  C  C75  1  0.402000  0.629900  0.341600  1.0  0.1698
  C  C76  1  0.410700  0.780400  0.525500  1.0  0.222
  C  C77  1  0.361800  0.596300  0.254700  1.0  -0.0315
  C  C78  1  0.753200  0.835600  0.721300  1.0  -0.1616
  C  C79  1  0.791200  0.928600  0.636800  1.0  -0.1964
  C  C80  1  0.437700  0.935200  0.728200  1.0  -0.1889
  C  C81  1  0.237500  0.298900  0.097600  1.0  -0.1421
  C  C82  1  0.850000  0.875700  0.773100  1.0  0.0196
  C  C83  1  0.723200  0.863200  0.653900  1.0  -0.01
  C  C84  1  0.387200  0.960600  0.778700  1.0  -0.0308
  C  C85  1  0.248700  0.428200  0.212600  1.0  -0.1661
  C  C86  1  0.187000  0.191700  0.039700  1.0  0.6737
  C  C87  1  0.553500  0.843400  0.648000  1.0  -0.1128
  C  C88  1  0.206100  0.332500  0.157000  1.0  -0.0
  C  C89  1  0.355000  0.460500  0.141500  1.0  -0.1365
  C  C90  1  0.297400  0.896900  0.767200  1.0  -0.1578
  C  C91  1  0.357900  0.818800  0.149600  1.0  -0.1552
  C  C92  1  0.396500  0.845800  0.662800  1.0  0.0621
  C  C93  1  0.369000  0.758500  0.262100  1.0  0.0561
  C  C94  1  0.276300  0.867500  0.237200  1.0  -0.1065
  C  C95  1  0.257500  0.807000  0.704800  1.0  -0.067
  C  C96  1  0.313600  0.359300  0.088600  1.0  -0.0484
  C  C97  1  0.886800  0.963200  0.690600  1.0  -0.0708
  C  C98  1  0.305900  0.782400  0.652100  1.0  -0.1094
  C  C99  1  0.203100  0.952300  0.060900  1.0  0.6658
  C  C100  1  0.233800  0.912800  0.187800  1.0  -0.0632
  C  C101  1  0.270400  0.829800  0.481600  1.0  -0.0487
  C  C102  1  0.241700  0.922200  0.818700  1.0  0.668
  C  C103  1  0.521800  0.944400  0.410900  1.0  -0.0157
  C  C104  1  0.318500  0.870300  0.100300  1.0  -0.0862
  C  C105  1  0.667500  0.703200  0.478200  1.0  -0.0658
  C  C106  1  0.366300  0.548100  0.433400  1.0  -0.1458
  C  C107  1  0.531200  0.233100  0.518700  1.0  -0.0378
  C  C108  1  0.652400  0.338900  0.782400  1.0  -0.1532
  C  C109  1  0.596400  0.215200  0.654200  1.0  0.2422
  C  C110  1  0.388400  0.173200  0.396200  1.0  0.001
  C  C111  1  0.429100  0.211100  0.480300  1.0  0.2732
  C  C112  1  0.662600  0.182900  0.783200  1.0  0.0944
  C  C113  1  0.979000  0.012100  0.180700  1.0  0.6597
  C  C114  1  0.746000  0.087900  0.880800  1.0  -0.0896
  C  C115  1  0.677000  0.507700  0.797800  1.0  0.0592
  C  C116  1  0.577000  0.276200  0.613300  1.0  -0.0181
  C  C117  1  0.550000  0.179100  0.389500  1.0  0.0546
  C  C118  1  0.083600  0.060600  0.240400  1.0  -0.1409
  C  C119  1  0.598000  0.370100  0.658400  1.0  0.1665
  C  C120  1  0.589300  0.219600  0.474500  1.0  0.2215
  C  C121  1  0.638200  0.403700  0.745300  1.0  -0.0321
  C  C122  1  0.246800  0.164400  0.278700  1.0  -0.1614
  C  C123  1  0.208800  0.071400  0.363200  1.0  -0.1967
  C  C124  1  0.562300  0.064800  0.271800  1.0  -0.1878
  C  C125  1  0.762500  0.701100  0.902400  1.0  -0.1428
  C  C126  1  0.150000  0.124300  0.226900  1.0  0.0204
  C  C127  1  0.276800  0.136800  0.346100  1.0  -0.0112
  C  C128  1  0.612800  0.039400  0.221300  1.0  -0.0307
  C  C129  1  0.751300  0.571800  0.787400  1.0  -0.1648
  C  C130  1  0.813000  0.808300  0.960300  1.0  0.6741
  C  C131  1  0.446500  0.156600  0.352000  1.0  -0.1141
  C  C132  1  0.793900  0.667500  0.843000  1.0  -0.0023
  C  C133  1  0.645000  0.539500  0.858500  1.0  -0.1373
  C  C134  1  0.702600  0.103100  0.232800  1.0  -0.1585
  C  C135  1  0.642100  0.181200  0.850400  1.0  -0.1548
  C  C136  1  0.603500  0.154200  0.337200  1.0  0.0626
  C  C137  1  0.631000  0.241500  0.737900  1.0  0.0582
  C  C138  1  0.723700  0.132500  0.762800  1.0  -0.1067
  C  C139  1  0.742500  0.193000  0.295200  1.0  -0.069
  C  C140  1  0.686400  0.640700  0.911400  1.0  -0.0501
  C  C141  1  0.113200  0.036800  0.309400  1.0  -0.0726
  C  C142  1  0.694100  0.217600  0.347900  1.0  -0.1082
  C  C143  1  0.796900  0.047700  0.939100  1.0  0.665
  C  C144  1  0.766200  0.087200  0.812200  1.0  -0.0627
  C  C145  1  0.729600  0.170200  0.518400  1.0  -0.0492
  C  C146  1  0.758300  0.077800  0.181300  1.0  0.6688
  C  C147  1  0.478200  0.055600  0.589100  1.0  -0.016
  C  C148  1  0.681500  0.129700  0.899700  1.0  -0.0872
  C  C149  1  0.332500  0.296800  0.521800  1.0  -0.0642
  C  C150  1  0.633700  0.451900  0.566600  1.0  -0.1467
  O  O151  1  0.624900  0.774700  0.472000  1.0  -0.268
  O  O152  1  0.083800  0.040800  0.805300  1.0  -0.5899
  O  O153  1  0.422900  0.567000  0.379400  1.0  -0.297
  O  O154  1  0.310500  0.752700  0.482600  1.0  -0.2707
  O  O155  1  0.043500  0.968800  0.885900  1.0  -0.5903
  O  O156  1  0.424800  0.883500  0.396100  1.0  -0.3202
  O  O157  1  0.234600  0.163300  0.995300  1.0  -0.5857
  O  O158  1  0.120100  0.954700  0.061900  1.0  -0.5616
  O  O159  1  0.242900  0.975400  0.014100  1.0  -0.5818
  O  O160  1  0.108900  0.144300  0.042900  1.0  -0.5338
  O  O161  1  0.278500  0.010100  0.870600  1.0  -0.5737
  O  O162  1  0.165900  0.862700  0.814100  1.0  -0.5311
  O  O163  1  0.375100  0.225300  0.528000  1.0  -0.2731
  O  O164  1  0.916200  0.959200  0.194700  1.0  -0.592
  O  O165  1  0.577100  0.433000  0.620600  1.0  -0.2971
  O  O166  1  0.689500  0.247300  0.517400  1.0  -0.2689
  O  O167  1  0.956500  0.031200  0.114100  1.0  -0.5889
  O  O168  1  0.575200  0.116500  0.603900  1.0  -0.3211
  O  O169  1  0.765400  0.836700  0.004700  1.0  -0.5845
  O  O170  1  0.879900  0.045300  0.938100  1.0  -0.5615
  O  O171  1  0.757100  0.024600  0.985900  1.0  -0.5817
  O  O172  1  0.891100  0.855700  0.957100  1.0  -0.5379
  O  O173  1  0.721500  0.989900  0.129400  1.0  -0.5738
  O  O174  1  0.834100  0.137300  0.185900  1.0  -0.5293
