# generated using pymatgen
data_CuH6C3IN
_symmetry_space_group_name_H-M   'P 1'
_cell_length_a   17.02800000
_cell_length_b   17.02800000
_cell_length_c   23.14390000
_cell_angle_alpha   90.00000000
_cell_angle_beta   90.00000000
_cell_angle_gamma   90.00000000
_symmetry_Int_Tables_number   1
_chemical_formula_structural   CuH6C3IN
_chemical_formula_sum   'Cu32 H192 C96 I32 N32'
_cell_volume   6710.63823762
_cell_formula_units_Z   32
loop_
 _symmetry_equiv_pos_site_id
 _symmetry_equiv_pos_as_xyz
  1  'x, y, z'
loop_
 _atom_site_type_symbol
 _atom_site_label
 _atom_site_symmetry_multiplicity
 _atom_site_fract_x
 _atom_site_fract_y
 _atom_site_fract_z
 _atom_site_occupancy
 _atom_site_charge
  Cu  Cu1  1  0.088570  0.750000  0.984240  1.0  0.1087
  Cu  Cu2  1  0.411430  0.250000  0.484240  1.0  0.1091
  Cu  Cu3  1  0.500000  0.838570  0.234240  1.0  0.1073
  Cu  Cu4  1  0.000000  0.338570  0.734240  1.0  0.1073
  Cu  Cu5  1  0.000000  0.161430  0.734240  1.0  0.1069
  Cu  Cu6  1  0.500000  0.661430  0.234240  1.0  0.1069
  Cu  Cu7  1  0.588570  0.250000  0.484240  1.0  0.1087
  Cu  Cu8  1  0.911430  0.750000  0.984240  1.0  0.1091
  Cu  Cu9  1  0.000000  0.828100  0.900060  1.0  0.0807
  Cu  Cu10  1  0.500000  0.328100  0.400060  1.0  0.0807
  Cu  Cu11  1  0.500000  0.171900  0.400060  1.0  0.0789
  Cu  Cu12  1  0.000000  0.671900  0.900060  1.0  0.0789
  Cu  Cu13  1  0.421900  0.750000  0.150060  1.0  0.0807
  Cu  Cu14  1  0.078100  0.250000  0.650060  1.0  0.0826
  Cu  Cu15  1  0.921900  0.250000  0.650060  1.0  0.0807
  Cu  Cu16  1  0.578100  0.750000  0.150060  1.0  0.0826
  Cu  Cu17  1  0.411430  0.750000  0.515760  1.0  0.1071
  Cu  Cu18  1  0.088570  0.250000  0.015760  1.0  0.1067
  Cu  Cu19  1  0.000000  0.838570  0.265760  1.0  0.1057
  Cu  Cu20  1  0.500000  0.338570  0.765760  1.0  0.1057
  Cu  Cu21  1  0.500000  0.161430  0.765760  1.0  0.1043
  Cu  Cu22  1  0.000000  0.661430  0.265760  1.0  0.1043
  Cu  Cu23  1  0.911430  0.250000  0.015760  1.0  0.1071
  Cu  Cu24  1  0.588570  0.750000  0.515760  1.0  0.1067
  Cu  Cu25  1  0.500000  0.828100  0.599940  1.0  0.0798
  Cu  Cu26  1  0.000000  0.328100  0.099940  1.0  0.0798
  Cu  Cu27  1  0.000000  0.171900  0.099940  1.0  0.0783
  Cu  Cu28  1  0.500000  0.671900  0.599940  1.0  0.0783
  Cu  Cu29  1  0.078100  0.750000  0.349940  1.0  0.0819
  Cu  Cu30  1  0.421900  0.250000  0.849940  1.0  0.0803
  Cu  Cu31  1  0.578100  0.250000  0.849940  1.0  0.0819
  Cu  Cu32  1  0.921900  0.750000  0.349940  1.0  0.0803
  H  H33  1  0.263100  0.703900  0.975700  1.0  0.079
  H  H34  1  0.369200  0.796100  0.027500  1.0  0.0668
  H  H35  1  0.257500  0.822000  0.151900  1.0  0.0772
  H  H36  1  0.300800  0.867200  0.102100  1.0  0.0729
  H  H37  1  0.192300  0.867100  0.051900  1.0  0.0825
  H  H38  1  0.149900  0.819200  0.100800  1.0  0.0747
  H  H39  1  0.763100  0.203900  0.475700  1.0  0.079
  H  H40  1  0.869200  0.296100  0.527500  1.0  0.0668
  H  H41  1  0.757500  0.322000  0.651900  1.0  0.0772
  H  H42  1  0.800800  0.367200  0.602100  1.0  0.0729
  H  H43  1  0.692300  0.367100  0.551900  1.0  0.0825
  H  H44  1  0.649900  0.319200  0.600800  1.0  0.0747
  H  H45  1  0.236900  0.296100  0.475700  1.0  0.0785
  H  H46  1  0.130800  0.203900  0.527500  1.0  0.0676
  H  H47  1  0.242500  0.178000  0.651900  1.0  0.0783
  H  H48  1  0.199200  0.132800  0.602100  1.0  0.0699
  H  H49  1  0.307700  0.132900  0.551900  1.0  0.0787
  H  H50  1  0.350100  0.180800  0.600800  1.0  0.0772
  H  H51  1  0.736900  0.796100  0.975700  1.0  0.0785
  H  H52  1  0.630800  0.703900  0.027500  1.0  0.0676
  H  H53  1  0.742500  0.678000  0.151900  1.0  0.0783
  H  H54  1  0.699200  0.632800  0.102100  1.0  0.0699
  H  H55  1  0.807700  0.632900  0.051900  1.0  0.0787
  H  H56  1  0.850100  0.680800  0.100800  1.0  0.0772
  H  H57  1  0.546100  0.013100  0.225700  1.0  0.0773
  H  H58  1  0.453900  0.119200  0.277500  1.0  0.0655
  H  H59  1  0.428000  0.007500  0.401900  1.0  0.0793
  H  H60  1  0.382800  0.050800  0.352100  1.0  0.0716
  H  H61  1  0.382900  0.942300  0.301900  1.0  0.0804
  H  H62  1  0.430800  0.899900  0.350800  1.0  0.0817
  H  H63  1  0.046100  0.513100  0.725700  1.0  0.0773
  H  H64  1  0.953900  0.619200  0.777500  1.0  0.0655
  H  H65  1  0.928000  0.507500  0.901900  1.0  0.0793
  H  H66  1  0.882800  0.550800  0.852100  1.0  0.0716
  H  H67  1  0.882900  0.442300  0.801900  1.0  0.0804
  H  H68  1  0.930800  0.399900  0.850800  1.0  0.0817
  H  H69  1  0.953900  0.986900  0.725700  1.0  0.0767
  H  H70  1  0.046100  0.880800  0.777500  1.0  0.0673
  H  H71  1  0.072000  0.992500  0.901900  1.0  0.0785
  H  H72  1  0.117200  0.949200  0.852100  1.0  0.0705
  H  H73  1  0.117100  0.057700  0.801900  1.0  0.0804
  H  H74  1  0.069200  0.100100  0.850800  1.0  0.079
  H  H75  1  0.453900  0.486900  0.225700  1.0  0.0767
  H  H76  1  0.546100  0.380800  0.277500  1.0  0.0673
  H  H77  1  0.572000  0.492500  0.401900  1.0  0.0785
  H  H78  1  0.617200  0.449200  0.352100  1.0  0.0705
  H  H79  1  0.617100  0.557700  0.301900  1.0  0.0804
  H  H80  1  0.569200  0.600100  0.350800  1.0  0.079
  H  H81  1  0.763100  0.296100  0.475700  1.0  0.0819
  H  H82  1  0.869200  0.203900  0.527500  1.0  0.0681
  H  H83  1  0.757500  0.178000  0.651900  1.0  0.0743
  H  H84  1  0.800800  0.132800  0.602100  1.0  0.07
  H  H85  1  0.692300  0.132900  0.551900  1.0  0.0783
  H  H86  1  0.649900  0.180800  0.600800  1.0  0.0751
  H  H87  1  0.263100  0.796100  0.975700  1.0  0.0819
  H  H88  1  0.369200  0.703900  0.027500  1.0  0.0681
  H  H89  1  0.257500  0.678000  0.151900  1.0  0.0743
  H  H90  1  0.300800  0.632800  0.102100  1.0  0.07
  H  H91  1  0.192300  0.632900  0.051900  1.0  0.0783
  H  H92  1  0.149900  0.680800  0.100800  1.0  0.0751
  H  H93  1  0.736900  0.703900  0.975700  1.0  0.0803
  H  H94  1  0.630800  0.796100  0.027500  1.0  0.0656
  H  H95  1  0.742500  0.822000  0.151900  1.0  0.0758
  H  H96  1  0.699200  0.867200  0.102100  1.0  0.0735
  H  H97  1  0.807700  0.867100  0.051900  1.0  0.0821
  H  H98  1  0.850100  0.819200  0.100800  1.0  0.0768
  H  H99  1  0.236900  0.203900  0.475700  1.0  0.0803
  H  H100  1  0.130800  0.296100  0.527500  1.0  0.0656
  H  H101  1  0.242500  0.322000  0.651900  1.0  0.0758
  H  H102  1  0.199200  0.367200  0.602100  1.0  0.0735
  H  H103  1  0.307700  0.367100  0.551900  1.0  0.0821
  H  H104  1  0.350100  0.319200  0.600800  1.0  0.0768
  H  H105  1  0.046100  0.986900  0.725700  1.0  0.0791
  H  H106  1  0.953900  0.880800  0.777500  1.0  0.0671
  H  H107  1  0.928000  0.992500  0.901900  1.0  0.0766
  H  H108  1  0.882800  0.949200  0.852100  1.0  0.071
  H  H109  1  0.882900  0.057700  0.801900  1.0  0.0802
  H  H110  1  0.930800  0.100100  0.850800  1.0  0.08
  H  H111  1  0.546100  0.486900  0.225700  1.0  0.0791
  H  H112  1  0.453900  0.380800  0.277500  1.0  0.0671
  H  H113  1  0.428000  0.492500  0.401900  1.0  0.0766
  H  H114  1  0.382800  0.449200  0.352100  1.0  0.071
  H  H115  1  0.382900  0.557700  0.301900  1.0  0.0802
  H  H116  1  0.430800  0.600100  0.350800  1.0  0.08
  H  H117  1  0.453900  0.013100  0.225700  1.0  0.0789
  H  H118  1  0.546100  0.119200  0.277500  1.0  0.0667
  H  H119  1  0.572000  0.007500  0.401900  1.0  0.0755
  H  H120  1  0.617200  0.050800  0.352100  1.0  0.0708
  H  H121  1  0.617100  0.942300  0.301900  1.0  0.0804
  H  H122  1  0.569200  0.899900  0.350800  1.0  0.0811
  H  H123  1  0.953900  0.513100  0.725700  1.0  0.0789
  H  H124  1  0.046100  0.619200  0.777500  1.0  0.0667
  H  H125  1  0.072000  0.507500  0.901900  1.0  0.0755
  H  H126  1  0.117200  0.550800  0.852100  1.0  0.0708
  H  H127  1  0.117100  0.442300  0.801900  1.0  0.0804
  H  H128  1  0.069200  0.399900  0.850800  1.0  0.0811
  H  H129  1  0.236900  0.703900  0.524300  1.0  0.0813
  H  H130  1  0.130800  0.796100  0.472500  1.0  0.0668
  H  H131  1  0.242500  0.822000  0.348100  1.0  0.0776
  H  H132  1  0.199200  0.867200  0.397900  1.0  0.0736
  H  H133  1  0.307700  0.867100  0.448100  1.0  0.0822
  H  H134  1  0.350100  0.819200  0.399200  1.0  0.0766
  H  H135  1  0.736900  0.203900  0.024300  1.0  0.0813
  H  H136  1  0.630800  0.296100  0.972500  1.0  0.0668
  H  H137  1  0.742500  0.322000  0.848100  1.0  0.0776
  H  H138  1  0.699200  0.367200  0.897900  1.0  0.0736
  H  H139  1  0.807700  0.367100  0.948100  1.0  0.0822
  H  H140  1  0.850100  0.319200  0.899200  1.0  0.0766
  H  H141  1  0.263100  0.296100  0.024300  1.0  0.0787
  H  H142  1  0.369200  0.203900  0.972500  1.0  0.0674
  H  H143  1  0.257500  0.178000  0.848100  1.0  0.0768
  H  H144  1  0.300800  0.132800  0.897900  1.0  0.0702
  H  H145  1  0.192300  0.132900  0.948100  1.0  0.0801
  H  H146  1  0.149900  0.180800  0.899200  1.0  0.0748
  H  H147  1  0.763100  0.796100  0.524300  1.0  0.0787
  H  H148  1  0.869200  0.703900  0.472500  1.0  0.0674
  H  H149  1  0.757500  0.678000  0.348100  1.0  0.0768
  H  H150  1  0.800800  0.632800  0.397900  1.0  0.0702
  H  H151  1  0.692300  0.632900  0.448100  1.0  0.0801
  H  H152  1  0.649900  0.680800  0.399200  1.0  0.0748
  H  H153  1  0.953900  0.013100  0.274300  1.0  0.0788
  H  H154  1  0.046100  0.119200  0.222500  1.0  0.0657
  H  H155  1  0.072000  0.007500  0.098100  1.0  0.079
  H  H156  1  0.117200  0.050800  0.147900  1.0  0.0707
  H  H157  1  0.117100  0.942300  0.198100  1.0  0.0804
  H  H158  1  0.069200  0.899900  0.149200  1.0  0.0806
  H  H159  1  0.453900  0.513100  0.774300  1.0  0.0788
  H  H160  1  0.546100  0.619200  0.722500  1.0  0.0657
  H  H161  1  0.572000  0.507500  0.598100  1.0  0.079
  H  H162  1  0.617200  0.550800  0.647900  1.0  0.0707
  H  H163  1  0.617100  0.442300  0.698100  1.0  0.0804
  H  H164  1  0.569200  0.399900  0.649200  1.0  0.0806
  H  H165  1  0.546100  0.986900  0.774300  1.0  0.0777
  H  H166  1  0.453900  0.880800  0.722500  1.0  0.0682
  H  H167  1  0.428000  0.992500  0.598100  1.0  0.0779
  H  H168  1  0.382800  0.949200  0.647900  1.0  0.0718
  H  H169  1  0.382900  0.057700  0.698100  1.0  0.0813
  H  H170  1  0.430800  0.100100  0.649200  1.0  0.0803
  H  H171  1  0.046100  0.486900  0.274300  1.0  0.0777
  H  H172  1  0.953900  0.380800  0.222500  1.0  0.0682
  H  H173  1  0.928000  0.492500  0.098100  1.0  0.0779
  H  H174  1  0.882800  0.449200  0.147900  1.0  0.0718
  H  H175  1  0.882900  0.557700  0.198100  1.0  0.0813
  H  H176  1  0.930800  0.600100  0.149200  1.0  0.0803
  H  H177  1  0.736900  0.296100  0.024300  1.0  0.0823
  H  H178  1  0.630800  0.203900  0.972500  1.0  0.0689
  H  H179  1  0.742500  0.178000  0.848100  1.0  0.0741
  H  H180  1  0.699200  0.132800  0.897900  1.0  0.0706
  H  H181  1  0.807700  0.132900  0.948100  1.0  0.0807
  H  H182  1  0.850100  0.180800  0.899200  1.0  0.0762
  H  H183  1  0.236900  0.796100  0.524300  1.0  0.0823
  H  H184  1  0.130800  0.703900  0.472500  1.0  0.0689
  H  H185  1  0.242500  0.678000  0.348100  1.0  0.0741
  H  H186  1  0.199200  0.632800  0.397900  1.0  0.0706
  H  H187  1  0.307700  0.632900  0.448100  1.0  0.0807
  H  H188  1  0.350100  0.680800  0.399200  1.0  0.0762
  H  H189  1  0.763100  0.703900  0.524300  1.0  0.0822
  H  H190  1  0.869200  0.796100  0.472500  1.0  0.066
  H  H191  1  0.757500  0.822000  0.348100  1.0  0.0746
  H  H192  1  0.800800  0.867200  0.397900  1.0  0.0729
  H  H193  1  0.692300  0.867100  0.448100  1.0  0.0823
  H  H194  1  0.649900  0.819200  0.399200  1.0  0.0751
  H  H195  1  0.263100  0.203900  0.024300  1.0  0.0822
  H  H196  1  0.369200  0.296100  0.972500  1.0  0.066
  H  H197  1  0.257500  0.322000  0.848100  1.0  0.0746
  H  H198  1  0.300800  0.367200  0.897900  1.0  0.0729
  H  H199  1  0.192300  0.367100  0.948100  1.0  0.0823
  H  H200  1  0.149900  0.319200  0.899200  1.0  0.0751
  H  H201  1  0.453900  0.986900  0.774300  1.0  0.0812
  H  H202  1  0.546100  0.880800  0.722500  1.0  0.0668
  H  H203  1  0.572000  0.992500  0.598100  1.0  0.0759
  H  H204  1  0.617200  0.949200  0.647900  1.0  0.0704
  H  H205  1  0.617100  0.057700  0.698100  1.0  0.0802
  H  H206  1  0.569200  0.100100  0.649200  1.0  0.0797
  H  H207  1  0.953900  0.486900  0.274300  1.0  0.0812
  H  H208  1  0.046100  0.380800  0.222500  1.0  0.0668
  H  H209  1  0.072000  0.492500  0.098100  1.0  0.0759
  H  H210  1  0.117200  0.449200  0.147900  1.0  0.0704
  H  H211  1  0.117100  0.557700  0.198100  1.0  0.0802
  H  H212  1  0.069200  0.600100  0.149200  1.0  0.0797
  H  H213  1  0.046100  0.013100  0.274300  1.0  0.0773
  H  H214  1  0.953900  0.119200  0.222500  1.0  0.0664
  H  H215  1  0.928000  0.007500  0.098100  1.0  0.0755
  H  H216  1  0.882800  0.050800  0.147900  1.0  0.072
  H  H217  1  0.882900  0.942300  0.198100  1.0  0.0813
  H  H218  1  0.930800  0.899900  0.149200  1.0  0.0809
  H  H219  1  0.546100  0.513100  0.774300  1.0  0.0794
  H  H220  1  0.453900  0.619200  0.722500  1.0  0.0664
  H  H221  1  0.428000  0.507500  0.598100  1.0  0.0755
  H  H222  1  0.382800  0.550800  0.647900  1.0  0.072
  H  H223  1  0.382900  0.442300  0.698100  1.0  0.0813
  H  H224  1  0.430800  0.399900  0.649200  1.0  0.0809
  C  C225  1  0.270810  0.820330  0.111130  1.0  -0.0641
  C  C226  1  0.194890  0.819680  0.075100  1.0  -0.056
  C  C227  1  0.770810  0.320330  0.611130  1.0  -0.0641
  C  C228  1  0.694890  0.319680  0.575100  1.0  -0.056
  C  C229  1  0.229190  0.179670  0.611130  1.0  -0.0652
  C  C230  1  0.305110  0.180320  0.575100  1.0  -0.0558
  C  C231  1  0.729190  0.679670  0.111130  1.0  -0.0652
  C  C232  1  0.805110  0.680320  0.075100  1.0  -0.0558
  C  C233  1  0.429670  0.020810  0.361130  1.0  -0.0625
  C  C234  1  0.430320  0.944890  0.325100  1.0  -0.0557
  C  C235  1  0.929670  0.520810  0.861130  1.0  -0.0625
  C  C236  1  0.930320  0.444890  0.825100  1.0  -0.0557
  C  C237  1  0.070330  0.979190  0.861130  1.0  -0.0609
  C  C238  1  0.069680  0.055110  0.825100  1.0  -0.0545
  C  C239  1  0.570330  0.479190  0.361130  1.0  -0.0609
  C  C240  1  0.569680  0.555110  0.325100  1.0  -0.0545
  C  C241  1  0.770810  0.179670  0.611130  1.0  -0.0661
  C  C242  1  0.694890  0.180320  0.575100  1.0  -0.0559
  C  C243  1  0.270810  0.679670  0.111130  1.0  -0.0661
  C  C244  1  0.194890  0.680320  0.075100  1.0  -0.0559
  C  C245  1  0.729190  0.820330  0.111130  1.0  -0.0658
  C  C246  1  0.805110  0.819680  0.075100  1.0  -0.0565
  C  C247  1  0.229190  0.320330  0.611130  1.0  -0.0658
  C  C248  1  0.305110  0.319680  0.575100  1.0  -0.0565
  C  C249  1  0.929670  0.979190  0.861130  1.0  -0.0637
  C  C250  1  0.930320  0.055110  0.825100  1.0  -0.0551
  C  C251  1  0.429670  0.479190  0.361130  1.0  -0.0637
  C  C252  1  0.430320  0.555110  0.325100  1.0  -0.0551
  C  C253  1  0.570330  0.020810  0.361130  1.0  -0.0605
  C  C254  1  0.569680  0.944890  0.325100  1.0  -0.0564
  C  C255  1  0.070330  0.520810  0.861130  1.0  -0.0605
  C  C256  1  0.069680  0.444890  0.825100  1.0  -0.0564
  C  C257  1  0.263360  0.750000  0.000330  1.0  -0.0255
  C  C258  1  0.338200  0.750000  0.036750  1.0  -0.0411
  C  C259  1  0.236640  0.250000  0.500330  1.0  -0.0263
  C  C260  1  0.161800  0.250000  0.536750  1.0  -0.0442
  C  C261  1  0.500000  0.013360  0.250330  1.0  -0.0275
  C  C262  1  0.500000  0.088200  0.286750  1.0  -0.0474
  C  C263  1  0.000000  0.513360  0.750330  1.0  -0.0275
  C  C264  1  0.000000  0.588200  0.786750  1.0  -0.0474
  C  C265  1  0.000000  0.986640  0.750330  1.0  -0.0276
  C  C266  1  0.000000  0.911800  0.786750  1.0  -0.048
  C  C267  1  0.500000  0.486640  0.250330  1.0  -0.0276
  C  C268  1  0.500000  0.411800  0.286750  1.0  -0.048
  C  C269  1  0.763360  0.250000  0.500330  1.0  -0.0255
  C  C270  1  0.838200  0.250000  0.536750  1.0  -0.0411
  C  C271  1  0.736640  0.750000  0.000330  1.0  -0.0263
  C  C272  1  0.661800  0.750000  0.036750  1.0  -0.0442
  C  C273  1  0.229190  0.820330  0.388870  1.0  -0.0634
  C  C274  1  0.305110  0.819680  0.424900  1.0  -0.056
  C  C275  1  0.729190  0.320330  0.888870  1.0  -0.0634
  C  C276  1  0.805110  0.319680  0.924900  1.0  -0.056
  C  C277  1  0.270810  0.179670  0.888870  1.0  -0.0657
  C  C278  1  0.194890  0.180320  0.924900  1.0  -0.0555
  C  C279  1  0.770810  0.679670  0.388870  1.0  -0.0657
  C  C280  1  0.694890  0.680320  0.424900  1.0  -0.0555
  C  C281  1  0.070330  0.020810  0.138870  1.0  -0.0596
  C  C282  1  0.069680  0.944890  0.174900  1.0  -0.0561
  C  C283  1  0.570330  0.520810  0.638870  1.0  -0.0596
  C  C284  1  0.569680  0.444890  0.674900  1.0  -0.0561
  C  C285  1  0.429670  0.979190  0.638870  1.0  -0.0622
  C  C286  1  0.430320  0.055110  0.674900  1.0  -0.0544
  C  C287  1  0.929670  0.479190  0.138870  1.0  -0.0622
  C  C288  1  0.930320  0.555110  0.174900  1.0  -0.0544
  C  C289  1  0.729190  0.179670  0.888870  1.0  -0.0653
  C  C290  1  0.805110  0.180320  0.924900  1.0  -0.0565
  C  C291  1  0.229190  0.679670  0.388870  1.0  -0.0653
  C  C292  1  0.305110  0.680320  0.424900  1.0  -0.0565
  C  C293  1  0.770810  0.820330  0.388870  1.0  -0.0659
  C  C294  1  0.694890  0.819680  0.424900  1.0  -0.0567
  C  C295  1  0.270810  0.320330  0.888870  1.0  -0.0659
  C  C296  1  0.194890  0.319680  0.924900  1.0  -0.0567
  C  C297  1  0.570330  0.979190  0.638870  1.0  -0.0631
  C  C298  1  0.569680  0.055110  0.674900  1.0  -0.0549
  C  C299  1  0.070330  0.479190  0.138870  1.0  -0.0631
  C  C300  1  0.069680  0.555110  0.174900  1.0  -0.0549
  C  C301  1  0.929670  0.020810  0.138870  1.0  -0.0622
  C  C302  1  0.930320  0.944890  0.174900  1.0  -0.0563
  C  C303  1  0.429670  0.520810  0.638870  1.0  -0.0622
  C  C304  1  0.430320  0.444890  0.674900  1.0  -0.0563
  C  C305  1  0.236640  0.750000  0.499670  1.0  -0.0262
  C  C306  1  0.161800  0.750000  0.463250  1.0  -0.0449
  C  C307  1  0.263360  0.250000  0.999670  1.0  -0.0251
  C  C308  1  0.338200  0.250000  0.963250  1.0  -0.0438
  C  C309  1  0.000000  0.013360  0.249670  1.0  -0.0275
  C  C310  1  0.000000  0.088200  0.213250  1.0  -0.0496
  C  C311  1  0.500000  0.513360  0.749670  1.0  -0.0275
  C  C312  1  0.500000  0.588200  0.713250  1.0  -0.0496
  C  C313  1  0.500000  0.986640  0.749670  1.0  -0.0275
  C  C314  1  0.500000  0.911800  0.713250  1.0  -0.0483
  C  C315  1  0.000000  0.486640  0.249670  1.0  -0.0275
  C  C316  1  0.000000  0.411800  0.213250  1.0  -0.0483
  C  C317  1  0.736640  0.250000  0.999670  1.0  -0.0262
  C  C318  1  0.661800  0.250000  0.963250  1.0  -0.0449
  C  C319  1  0.763360  0.750000  0.499670  1.0  -0.0251
  C  C320  1  0.838200  0.750000  0.463250  1.0  -0.0438
  I  I321  1  0.131120  0.750000  0.871980  1.0  -0.2312
  I  I322  1  0.368880  0.250000  0.371980  1.0  -0.2327
  I  I323  1  0.500000  0.881120  0.121980  1.0  -0.236
  I  I324  1  0.000000  0.381120  0.621980  1.0  -0.236
  I  I325  1  0.000000  0.118880  0.621980  1.0  -0.2356
  I  I326  1  0.500000  0.618880  0.121980  1.0  -0.2356
  I  I327  1  0.631120  0.250000  0.371980  1.0  -0.2312
  I  I328  1  0.868880  0.750000  0.871980  1.0  -0.2327
  I  I329  1  0.000000  0.875960  0.009400  1.0  -0.2817
  I  I330  1  0.500000  0.375960  0.509400  1.0  -0.2817
  I  I331  1  0.500000  0.124040  0.509400  1.0  -0.282
  I  I332  1  0.000000  0.624040  0.009400  1.0  -0.282
  I  I333  1  0.374040  0.750000  0.259400  1.0  -0.2821
  I  I334  1  0.125960  0.250000  0.759400  1.0  -0.2817
  I  I335  1  0.874040  0.250000  0.759400  1.0  -0.2821
  I  I336  1  0.625960  0.750000  0.259400  1.0  -0.2817
  I  I337  1  0.368880  0.750000  0.628020  1.0  -0.2336
  I  I338  1  0.131120  0.250000  0.128020  1.0  -0.2321
  I  I339  1  0.000000  0.881120  0.378020  1.0  -0.2366
  I  I340  1  0.500000  0.381120  0.878020  1.0  -0.2366
  I  I341  1  0.500000  0.118880  0.878020  1.0  -0.237
  I  I342  1  0.000000  0.618880  0.378020  1.0  -0.237
  I  I343  1  0.868880  0.250000  0.128020  1.0  -0.2336
  I  I344  1  0.631120  0.750000  0.628020  1.0  -0.2321
  I  I345  1  0.500000  0.875960  0.490600  1.0  -0.2818
  I  I346  1  0.000000  0.375960  0.990600  1.0  -0.2818
  I  I347  1  0.000000  0.124040  0.990600  1.0  -0.2822
  I  I348  1  0.500000  0.624040  0.490600  1.0  -0.2822
  I  I349  1  0.125960  0.750000  0.240600  1.0  -0.282
  I  I350  1  0.374040  0.250000  0.740600  1.0  -0.2822
  I  I351  1  0.625960  0.250000  0.740600  1.0  -0.282
  I  I352  1  0.874040  0.750000  0.240600  1.0  -0.2822
  N  N353  1  0.191560  0.750000  0.036580  1.0  -0.1325
  N  N354  1  0.319400  0.750000  0.099480  1.0  -0.1358
  N  N355  1  0.308440  0.250000  0.536580  1.0  -0.1313
  N  N356  1  0.180600  0.250000  0.599480  1.0  -0.1362
  N  N357  1  0.500000  0.941560  0.286580  1.0  -0.1309
  N  N358  1  0.500000  0.069400  0.349480  1.0  -0.1354
  N  N359  1  0.000000  0.441560  0.786580  1.0  -0.1309
  N  N360  1  0.000000  0.569400  0.849480  1.0  -0.1354
  N  N361  1  0.000000  0.058440  0.786580  1.0  -0.1297
  N  N362  1  0.000000  0.930600  0.849480  1.0  -0.1343
  N  N363  1  0.500000  0.558440  0.286580  1.0  -0.1297
  N  N364  1  0.500000  0.430600  0.349480  1.0  -0.1343
  N  N365  1  0.691560  0.250000  0.536580  1.0  -0.1325
  N  N366  1  0.819400  0.250000  0.599480  1.0  -0.1358
  N  N367  1  0.808440  0.750000  0.036580  1.0  -0.1313
  N  N368  1  0.680600  0.750000  0.099480  1.0  -0.1362
  N  N369  1  0.308440  0.750000  0.463420  1.0  -0.1313
  N  N370  1  0.180600  0.750000  0.400520  1.0  -0.1371
  N  N371  1  0.191560  0.250000  0.963420  1.0  -0.1324
  N  N372  1  0.319400  0.250000  0.900520  1.0  -0.1359
  N  N373  1  0.000000  0.941560  0.213420  1.0  -0.1297
  N  N374  1  0.000000  0.069400  0.150520  1.0  -0.1364
  N  N375  1  0.500000  0.441560  0.713420  1.0  -0.1297
  N  N376  1  0.500000  0.569400  0.650520  1.0  -0.1364
  N  N377  1  0.500000  0.058440  0.713420  1.0  -0.1296
  N  N378  1  0.500000  0.930600  0.650520  1.0  -0.1348
  N  N379  1  0.000000  0.558440  0.213420  1.0  -0.1296
  N  N380  1  0.000000  0.430600  0.150520  1.0  -0.1348
  N  N381  1  0.808440  0.250000  0.963420  1.0  -0.1313
  N  N382  1  0.680600  0.250000  0.900520  1.0  -0.1371
  N  N383  1  0.691560  0.750000  0.463420  1.0  -0.1324
  N  N384  1  0.819400  0.750000  0.400520  1.0  -0.1359
