# generated using pymatgen
data_Ca2CdH60(C11O3)8
_symmetry_space_group_name_H-M   'P 1'
_cell_length_a   15.63100000
_cell_length_b   18.45600000
_cell_length_c   27.51700000
_cell_angle_alpha   80.16400000
_cell_angle_beta   89.99400000
_cell_angle_gamma   76.26400000
_symmetry_Int_Tables_number   1
_chemical_formula_structural   Ca2CdH60(C11O3)8
_chemical_formula_sum   'Ca4 Cd2 H120 C176 O48'
_cell_volume   7591.08837033
_cell_formula_units_Z   2
loop_
 _symmetry_equiv_pos_site_id
 _symmetry_equiv_pos_as_xyz
  1  'x, y, z'
loop_
 _atom_site_type_symbol
 _atom_site_label
 _atom_site_symmetry_multiplicity
 _atom_site_fract_x
 _atom_site_fract_y
 _atom_site_fract_z
 _atom_site_occupancy
 _atom_site_charge
  Ca  Ca1  1  0.589840  0.335110  0.586340  1.0  1.5089
  Ca  Ca2  1  0.049310  0.824570  0.087970  1.0  1.5471
  Ca  Ca3  1  0.500000  0.500000  0.500000  1.0  1.5459
  Ca  Ca4  1  0.000000  0.000000  0.000000  1.0  1.5381
  Cd  Cd5  1  0.410160  0.664890  0.413660  1.0  1.0994
  Cd  Cd6  1  0.950690  0.175430  0.912030  1.0  1.0811
  H  H7  1  0.702900  0.120100  0.714700  1.0  0.1285
  H  H8  1  0.790700  0.000600  0.747000  1.0  0.0994
  H  H9  1  0.923700  0.996400  0.622700  1.0  0.098
  H  H10  1  0.839400  0.118800  0.588000  1.0  0.1231
  H  H11  1  0.928200  0.933100  0.775900  1.0  0.1088
  H  H12  1  0.062300  0.904400  0.831000  1.0  0.1282
  H  H13  1  0.078900  0.900800  0.915000  1.0  0.0895
  H  H14  1  0.968200  0.723600  0.944200  1.0  0.1276
  H  H15  1  0.951800  0.724400  0.860600  1.0  0.1102
  H  H16  1  0.026800  0.540400  0.614800  1.0  0.1369
  H  H17  1  0.747800  0.703400  0.729200  1.0  0.1207
  H  H18  1  0.845400  0.676900  0.750600  1.0  0.1213
  H  H19  1  0.808100  0.626700  0.719400  1.0  0.1217
  H  H20  1  0.255600  0.729800  0.652400  1.0  0.1464
  H  H21  1  0.168600  0.782400  0.625800  1.0  0.1395
  H  H22  1  0.202000  0.699700  0.615400  1.0  0.1234
  H  H23  1  0.144600  0.626200  0.821700  1.0  0.1417
  H  H24  1  0.132800  0.713800  0.817800  1.0  0.1289
  H  H25  1  0.169200  0.674300  0.773400  1.0  0.1457
  H  H26  1  0.226700  0.547800  0.706400  1.0  0.1409
  H  H27  1  0.362800  0.467400  0.691900  1.0  0.1066
  H  H28  1  0.301900  0.500900  0.549600  1.0  0.1194
  H  H29  1  0.164800  0.572400  0.561500  1.0  0.12
  H  H30  1  0.913000  0.474700  0.660200  1.0  0.1343
  H  H31  1  0.799500  0.425900  0.634200  1.0  0.1049
  H  H32  1  0.668000  0.630400  0.564000  1.0  0.1166
  H  H33  1  0.776800  0.685100  0.592500  1.0  0.1222
  H  H34  1  0.486900  0.220500  0.455300  1.0  0.1355
  H  H35  1  0.447000  0.222700  0.374700  1.0  0.1194
  H  H36  1  0.529600  0.408900  0.329100  1.0  0.1177
  H  H37  1  0.572500  0.412000  0.407100  1.0  0.1054
  H  H38  1  0.388300  0.427800  0.280700  1.0  0.0855
  H  H39  1  0.235200  0.360300  0.106300  1.0  0.1399
  H  H40  1  0.224500  0.386200  0.157800  1.0  0.1271
  H  H41  1  0.234000  0.300900  0.154200  1.0  0.1475
  H  H42  1  0.625100  0.134900  0.327900  1.0  0.1171
  H  H43  1  0.610400  0.223100  0.314400  1.0  0.1073
  H  H44  1  0.636000  0.173000  0.273500  1.0  0.1141
  H  H45  1  0.366500  0.469600  0.128300  1.0  0.1138
  H  H46  1  0.286500  0.592100  0.089900  1.0  0.1319
  H  H47  1  0.145800  0.607300  0.214200  1.0  0.1084
  H  H48  1  0.227600  0.486300  0.251500  1.0  0.1268
  H  H49  1  0.492600  0.012300  0.145300  1.0  0.1197
  H  H50  1  0.648700  0.286800  0.155900  1.0  0.1554
  H  H51  1  0.545600  0.305000  0.157600  1.0  0.1266
  H  H52  1  0.593600  0.261700  0.117100  1.0  0.1249
  H  H53  1  0.225300  0.154400  0.264700  1.0  0.1191
  H  H54  1  0.318000  0.159300  0.283500  1.0  0.1295
  H  H55  1  0.309100  0.090600  0.259000  1.0  0.131
  H  H56  1  0.650300  0.957200  0.189200  1.0  0.1217
  H  H57  1  0.793900  0.898900  0.168500  1.0  0.1193
  H  H58  1  0.783300  0.075400  0.060900  1.0  0.1036
  H  H59  1  0.650100  0.140000  0.089300  1.0  0.0978
  H  H60  1  0.236800  0.151700  0.133500  1.0  0.1086
  H  H61  1  0.134000  0.097600  0.101400  1.0  0.0912
  H  H62  1  0.276400  0.890300  0.155500  1.0  0.1326
  H  H63  1  0.384600  0.944200  0.185500  1.0  0.1173
  H  H64  1  0.013400  0.801000  0.594000  1.0  0.1424
  H  H65  1  0.015900  0.885800  0.592600  1.0  0.1277
  H  H66  1  0.947300  0.865900  0.558700  1.0  0.1479
  H  H67  1  0.297100  0.879900  0.285300  1.0  0.1287
  H  H68  1  0.209300  0.999400  0.253000  1.0  0.1001
  H  H69  1  0.076300  0.003600  0.377300  1.0  0.0982
  H  H70  1  0.160600  0.881200  0.412000  1.0  0.1234
  H  H71  1  0.071800  0.066900  0.224100  1.0  0.1096
  H  H72  1  0.937700  0.095600  0.169000  1.0  0.1281
  H  H73  1  0.921100  0.099200  0.085000  1.0  0.0897
  H  H74  1  0.031800  0.276400  0.055800  1.0  0.1277
  H  H75  1  0.048200  0.275600  0.139400  1.0  0.1088
  H  H76  1  0.973200  0.459600  0.385200  1.0  0.1367
  H  H77  1  0.252200  0.296600  0.270800  1.0  0.1221
  H  H78  1  0.154600  0.323100  0.249400  1.0  0.1223
  H  H79  1  0.191900  0.373300  0.280600  1.0  0.1229
  H  H80  1  0.744400  0.270200  0.347600  1.0  0.1485
  H  H81  1  0.831400  0.217600  0.374200  1.0  0.1383
  H  H82  1  0.798000  0.300300  0.384600  1.0  0.1229
  H  H83  1  0.855400  0.373800  0.178300  1.0  0.1408
  H  H84  1  0.867200  0.286200  0.182200  1.0  0.1286
  H  H85  1  0.830800  0.325700  0.226600  1.0  0.1446
  H  H86  1  0.773300  0.452200  0.293600  1.0  0.1404
  H  H87  1  0.637200  0.532600  0.308100  1.0  0.1061
  H  H88  1  0.698100  0.499100  0.450400  1.0  0.1194
  H  H89  1  0.835200  0.427600  0.438500  1.0  0.1196
  H  H90  1  0.087000  0.525300  0.339800  1.0  0.1354
  H  H91  1  0.200500  0.574100  0.365800  1.0  0.1043
  H  H92  1  0.332000  0.369600  0.436000  1.0  0.117
  H  H93  1  0.223200  0.314900  0.407500  1.0  0.1228
  H  H94  1  0.513100  0.779500  0.544700  1.0  0.1356
  H  H95  1  0.553000  0.777300  0.625300  1.0  0.1207
  H  H96  1  0.470400  0.591100  0.670900  1.0  0.1184
  H  H97  1  0.427500  0.588000  0.592900  1.0  0.1052
  H  H98  1  0.611700  0.572200  0.719300  1.0  0.0864
  H  H99  1  0.764800  0.639700  0.893700  1.0  0.1412
  H  H100  1  0.775500  0.613800  0.842200  1.0  0.1266
  H  H101  1  0.766000  0.699100  0.845800  1.0  0.1491
  H  H102  1  0.374900  0.865100  0.672100  1.0  0.1137
  H  H103  1  0.389600  0.776900  0.685600  1.0  0.1075
  H  H104  1  0.364000  0.827000  0.726500  1.0  0.1133
  H  H105  1  0.633500  0.530400  0.871700  1.0  0.114
  H  H106  1  0.713500  0.407900  0.910100  1.0  0.132
  H  H107  1  0.854200  0.392700  0.785800  1.0  0.1086
  H  H108  1  0.772400  0.513700  0.748500  1.0  0.1262
  H  H109  1  0.507400  0.987700  0.854700  1.0  0.1205
  H  H110  1  0.351300  0.713200  0.844100  1.0  0.1535
  H  H111  1  0.454400  0.695000  0.842400  1.0  0.1249
  H  H112  1  0.406400  0.738300  0.882900  1.0  0.1258
  H  H113  1  0.774700  0.845600  0.735300  1.0  0.1189
  H  H114  1  0.682000  0.840700  0.716500  1.0  0.1289
  H  H115  1  0.690900  0.909400  0.741000  1.0  0.1298
  H  H116  1  0.349700  0.042800  0.810800  1.0  0.1212
  H  H117  1  0.206100  0.101100  0.831500  1.0  0.12
  H  H118  1  0.216700  0.924600  0.939100  1.0  0.1042
  H  H119  1  0.349900  0.860000  0.910700  1.0  0.0989
  H  H120  1  0.763200  0.848300  0.866500  1.0  0.1103
  H  H121  1  0.866000  0.902400  0.898600  1.0  0.0916
  H  H122  1  0.723600  0.109700  0.844500  1.0  0.1327
  H  H123  1  0.615400  0.055800  0.814500  1.0  0.1186
  H  H124  1  0.986600  0.199000  0.406000  1.0  0.1394
  H  H125  1  0.984100  0.114200  0.407400  1.0  0.127
  H  H126  1  0.052700  0.134100  0.441300  1.0  0.149
  C  C127  1  0.703400  0.205300  0.622200  1.0  0.6417
  C  C128  1  0.758500  0.127900  0.647500  1.0  -0.1146
  C  C129  1  0.745600  0.095000  0.695900  1.0  -0.094
  C  C130  1  0.799000  0.023100  0.715000  1.0  -0.1812
  C  C131  1  0.865400  0.983300  0.687300  1.0  0.0306
  C  C132  1  0.878900  0.020700  0.640700  1.0  -0.1275
  C  C133  1  0.827900  0.094500  0.618800  1.0  -0.0942
  C  C134  1  0.915000  0.909400  0.708200  1.0  0.0282
  C  C135  1  0.940700  0.892900  0.758600  1.0  -0.2008
  C  C136  1  0.982900  0.822700  0.785000  1.0  0.0033
  C  C137  1  0.000200  0.759600  0.756900  1.0  0.0425
  C  C138  1  0.975100  0.774200  0.705900  1.0  -0.0025
  C  C139  1  0.930800  0.847200  0.683200  1.0  0.1898
  C  C140  1  0.004100  0.814400  0.835000  1.0  0.0904
  C  C141  1  0.043200  0.868100  0.853100  1.0  -0.1461
  C  C142  1  0.052700  0.866100  0.903800  1.0  -0.0664
  C  C143  1  0.024800  0.815500  0.936500  1.0  -0.1147
  C  C144  1  0.986300  0.759500  0.921200  1.0  -0.0804
  C  C145  1  0.976800  0.760300  0.871100  1.0  -0.2062
  C  C146  1  0.027200  0.818400  0.989400  1.0  0.6645
  C  C147  1  0.990900  0.706600  0.681600  1.0  -0.0231
  C  C148  1  0.074700  0.672800  0.668800  1.0  0.1913
  C  C149  1  0.090600  0.609800  0.645900  1.0  -0.0456
  C  C150  1  0.017500  0.582300  0.630500  1.0  -0.0733
  C  C151  1  0.930300  0.621700  0.640200  1.0  -0.0093
  C  C152  1  0.919300  0.681500  0.666667  1.0  0.1862
  C  C153  1  0.806800  0.677700  0.723200  1.0  -0.0141
  C  C154  1  0.197600  0.731300  0.640100  1.0  -0.1258
  C  C155  1  0.129200  0.674300  0.799900  1.0  -0.049
  C  C156  1  0.181400  0.566700  0.634200  1.0  0.0278
  C  C157  1  0.240300  0.536900  0.675200  1.0  -0.1711
  C  C158  1  0.321900  0.489200  0.665900  1.0  -0.0715
  C  C159  1  0.341700  0.474500  0.620000  1.0  -0.052
  C  C160  1  0.285600  0.507900  0.581300  1.0  -0.0337
  C  C161  1  0.204600  0.552100  0.588300  1.0  -0.1115
  C  C162  1  0.428100  0.427200  0.611400  1.0  0.5171
  C  C163  1  0.856900  0.586700  0.626900  1.0  -0.0236
  C  C164  1  0.864700  0.506000  0.641300  1.0  -0.1455
  C  C165  1  0.796100  0.477500  0.625600  1.0  -0.0148
  C  C166  1  0.725500  0.522100  0.598400  1.0  -0.1337
  C  C167  1  0.716200  0.600600  0.583700  1.0  -0.0627
  C  C168  1  0.782900  0.633000  0.599900  1.0  -0.1178
  C  C169  1  0.656600  0.479100  0.581600  1.0  0.5469
  C  C170  1  0.551200  0.327400  0.489400  1.0  0.6835
  C  C171  1  0.532200  0.317700  0.441100  1.0  -0.1065
  C  C172  1  0.495300  0.259000  0.430500  1.0  -0.154
  C  C173  1  0.471900  0.261300  0.381200  1.0  -0.1087
  C  C174  1  0.481500  0.314400  0.341000  1.0  0.0478
  C  C175  1  0.520800  0.371200  0.354200  1.0  -0.1245
  C  C176  1  0.546200  0.373900  0.401100  1.0  -0.1329
  C  C177  1  0.448300  0.320500  0.290900  1.0  0.0642
  C  C178  1  0.467800  0.253800  0.266900  1.0  0.215
  C  C179  1  0.434700  0.262500  0.220300  1.0  -0.0881
  C  C180  1  0.383800  0.331200  0.192900  1.0  0.1777
  C  C181  1  0.361400  0.394100  0.218300  1.0  0.0217
  C  C182  1  0.398700  0.385400  0.265500  1.0  -0.1202
  C  C183  1  0.252200  0.346100  0.140800  1.0  -0.1343
  C  C184  1  0.603400  0.178600  0.302800  1.0  -0.0261
  C  C185  1  0.307900  0.470300  0.193900  1.0  -0.0512
  C  C186  1  0.323900  0.498500  0.145300  1.0  -0.1115
  C  C187  1  0.275100  0.571500  0.121800  1.0  -0.07
  C  C188  1  0.205800  0.613000  0.150000  1.0  -0.111
  C  C189  1  0.190200  0.580700  0.197000  1.0  -0.0458
  C  C190  1  0.240000  0.508000  0.220000  1.0  -0.1622
  C  C191  1  0.148300  0.687200  0.127000  1.0  0.6717
  C  C192  1  0.385300  0.154400  0.192300  1.0  0.2113
  C  C193  1  0.396400  0.088500  0.173200  1.0  0.0232
  C  C194  1  0.482400  0.057100  0.157900  1.0  -0.0631
  C  C195  1  0.550700  0.091500  0.161500  1.0  -0.028
  C  C196  1  0.532300  0.162000  0.177700  1.0  0.1445
  C  C197  1  0.450400  0.190500  0.195500  1.0  -0.0542
  C  C198  1  0.597300  0.268700  0.150700  1.0  -0.1054
  C  C199  1  0.287100  0.143900  0.258500  1.0  -0.0244
  C  C200  1  0.640100  0.059700  0.144500  1.0  0.0521
  C  C201  1  0.679700  0.983000  0.165400  1.0  -0.1278
  C  C202  1  0.762900  0.945200  0.150800  1.0  -0.0828
  C  C203  1  0.796300  0.980300  0.108700  1.0  -0.1164
  C  C204  1  0.757600  0.051500  0.087500  1.0  -0.0723
  C  C205  1  0.677100  0.091300  0.105300  1.0  -0.1008
  C  C206  1  0.881700  0.943300  0.092400  1.0  0.7086
  C  C207  1  0.319200  0.055400  0.162000  1.0  0.0361
  C  C208  1  0.246700  0.099300  0.137600  1.0  -0.1195
  C  C209  1  0.184900  0.066600  0.118100  1.0  -0.0391
  C  C210  1  0.198300  0.993900  0.123000  1.0  -0.1356
  C  C211  1  0.270700  0.942400  0.150200  1.0  -0.0706
  C  C212  1  0.333600  0.975000  0.168800  1.0  -0.1207
  C  C213  1  0.133400  0.954800  0.100000  1.0  0.6602
  C  C214  1  0.978300  0.852100  0.590300  1.0  -0.1731
  C  C215  1  0.296600  0.794700  0.377800  1.0  0.6421
  C  C216  1  0.241500  0.872100  0.352500  1.0  -0.1151
  C  C217  1  0.254400  0.905000  0.304100  1.0  -0.0959
  C  C218  1  0.201000  0.976900  0.285000  1.0  -0.1809
  C  C219  1  0.134600  0.016700  0.312700  1.0  0.0314
  C  C220  1  0.121100  0.979300  0.359300  1.0  -0.1267
  C  C221  1  0.172100  0.905500  0.381200  1.0  -0.0956
  C  C222  1  0.085000  0.090600  0.291800  1.0  0.0283
  C  C223  1  0.059300  0.107100  0.241400  1.0  -0.2012
  C  C224  1  0.017100  0.177300  0.215000  1.0  0.0011
  C  C225  1  0.999800  0.240400  0.243100  1.0  0.042
  C  C226  1  0.024900  0.225800  0.294100  1.0  -0.0029
  C  C227  1  0.069200  0.152800  0.316800  1.0  0.1895
  C  C228  1  0.995900  0.185600  0.165000  1.0  0.09
  C  C229  1  0.956800  0.131900  0.146900  1.0  -0.1471
  C  C230  1  0.947300  0.133900  0.096200  1.0  -0.066
  C  C231  1  0.975200  0.184500  0.063500  1.0  -0.113
  C  C232  1  0.013700  0.240500  0.078800  1.0  -0.0776
  C  C233  1  0.023200  0.239700  0.128900  1.0  -0.206
  C  C234  1  0.972800  0.181600  0.010600  1.0  0.6633
  C  C235  1  0.009100  0.293400  0.318400  1.0  -0.0231
  C  C236  1  0.925300  0.327200  0.331200  1.0  0.1898
  C  C237  1  0.909400  0.390200  0.354100  1.0  -0.045
  C  C238  1  0.982500  0.417700  0.369500  1.0  -0.0731
  C  C239  1  0.069700  0.378300  0.359800  1.0  -0.0082
  C  C240  1  0.080700  0.318500  0.333333  1.0  0.1879
  C  C241  1  0.193200  0.322300  0.276800  1.0  -0.0145
  C  C242  1  0.802400  0.268700  0.359900  1.0  -0.1244
  C  C243  1  0.870800  0.325700  0.200100  1.0  -0.049
  C  C244  1  0.818600  0.433300  0.365800  1.0  0.0278
  C  C245  1  0.759700  0.463100  0.324800  1.0  -0.1709
  C  C246  1  0.678100  0.510800  0.334100  1.0  -0.0705
  C  C247  1  0.658300  0.525500  0.380000  1.0  -0.0492
  C  C248  1  0.714400  0.492100  0.418700  1.0  -0.0325
  C  C249  1  0.795400  0.447900  0.411700  1.0  -0.1119
  C  C250  1  0.571900  0.572800  0.388600  1.0  0.5156
  C  C251  1  0.143100  0.413300  0.373100  1.0  -0.024
  C  C252  1  0.135300  0.494000  0.358700  1.0  -0.1473
  C  C253  1  0.203900  0.522500  0.374400  1.0  -0.0106
  C  C254  1  0.274500  0.477900  0.401600  1.0  -0.1323
  C  C255  1  0.283800  0.399400  0.416300  1.0  -0.063
  C  C256  1  0.217100  0.367000  0.400100  1.0  -0.1172
  C  C257  1  0.343400  0.520900  0.418400  1.0  0.5462
  C  C258  1  0.448800  0.672600  0.510600  1.0  0.6855
  C  C259  1  0.467800  0.682300  0.558900  1.0  -0.1061
  C  C260  1  0.504700  0.741000  0.569500  1.0  -0.1532
  C  C261  1  0.528100  0.738700  0.618800  1.0  -0.1122
  C  C262  1  0.518500  0.685600  0.659000  1.0  0.047
  C  C263  1  0.479200  0.628800  0.645800  1.0  -0.1225
  C  C264  1  0.453800  0.626100  0.598900  1.0  -0.1336
  C  C265  1  0.551700  0.679500  0.709100  1.0  0.066
  C  C266  1  0.532200  0.746200  0.733100  1.0  0.214
  C  C267  1  0.565300  0.737500  0.779700  1.0  -0.088
  C  C268  1  0.616200  0.668800  0.807100  1.0  0.1756
  C  C269  1  0.638600  0.605900  0.781700  1.0  0.0208
  C  C270  1  0.601300  0.614600  0.734500  1.0  -0.1203
  C  C271  1  0.747800  0.653900  0.859200  1.0  -0.136
  C  C272  1  0.396600  0.821400  0.697200  1.0  -0.0287
  C  C273  1  0.692100  0.529700  0.806100  1.0  -0.051
  C  C274  1  0.676100  0.501500  0.854700  1.0  -0.1124
  C  C275  1  0.724900  0.428500  0.878200  1.0  -0.0705
  C  C276  1  0.794200  0.387000  0.850000  1.0  -0.1111
  C  C277  1  0.809800  0.419300  0.803000  1.0  -0.0456
  C  C278  1  0.760000  0.492000  0.780000  1.0  -0.1599
  C  C279  1  0.851700  0.312800  0.873000  1.0  0.6737
  C  C280  1  0.614700  0.845600  0.807700  1.0  0.2113
  C  C281  1  0.603600  0.911500  0.826800  1.0  0.0232
  C  C282  1  0.517600  0.942900  0.842100  1.0  -0.0635
  C  C283  1  0.449300  0.908500  0.838500  1.0  -0.0276
  C  C284  1  0.467700  0.838000  0.822300  1.0  0.1443
  C  C285  1  0.549600  0.809500  0.804500  1.0  -0.0534
  C  C286  1  0.402700  0.731300  0.849300  1.0  -0.1054
  C  C287  1  0.712900  0.856100  0.741500  1.0  -0.0243
  C  C288  1  0.359900  0.940300  0.855500  1.0  0.0521
  C  C289  1  0.320300  0.017000  0.834600  1.0  -0.1295
  C  C290  1  0.237100  0.054800  0.849200  1.0  -0.0838
  C  C291  1  0.203700  0.019700  0.891300  1.0  -0.116
  C  C292  1  0.242400  0.948500  0.912500  1.0  -0.0728
  C  C293  1  0.322900  0.908700  0.894700  1.0  -0.0996
  C  C294  1  0.118300  0.056700  0.907600  1.0  0.7105
  C  C295  1  0.680800  0.944600  0.838000  1.0  0.0353
  C  C296  1  0.753300  0.900700  0.862400  1.0  -0.1191
  C  C297  1  0.815100  0.933400  0.881900  1.0  -0.0429
  C  C298  1  0.801700  0.006100  0.877000  1.0  -0.1336
  C  C299  1  0.729300  0.057600  0.849800  1.0  -0.0673
  C  C300  1  0.666400  0.025000  0.831200  1.0  -0.1218
  C  C301  1  0.866600  0.045200  0.900000  1.0  0.66
  C  C302  1  0.021700  0.147900  0.409700  1.0  -0.1742
  O  O303  1  0.632200  0.229800  0.645600  1.0  -0.6015
  O  O304  1  0.728200  0.243900  0.586200  1.0  -0.5601
  O  O305  1  0.061200  0.870300  0.004200  1.0  -0.7066
  O  O306  1  0.999100  0.772400  0.021800  1.0  -0.6055
  O  O307  1  0.474600  0.374800  0.647800  1.0  -0.6648
  O  O308  1  0.456800  0.427300  0.566600  1.0  -0.6786
  O  O309  1  0.657300  0.418200  0.601900  1.0  -0.5857
  O  O310  1  0.609500  0.524000  0.539800  1.0  -0.6512
  O  O311  1  0.038700  0.687500  0.779600  1.0  -0.258
  O  O312  1  0.909400  0.858100  0.632800  1.0  -0.4401
  O  O313  1  0.836000  0.717400  0.678400  1.0  -0.3194
  O  O314  1  0.144500  0.702500  0.682400  1.0  -0.2894
  O  O315  1  0.539900  0.276100  0.526300  1.0  -0.6428
  O  O316  1  0.585000  0.380100  0.499400  1.0  -0.7074
  O  O317  1  0.079900  0.719800  0.147700  1.0  -0.5753
  O  O318  1  0.177200  0.722100  0.087500  1.0  -0.5811
  O  O319  1  0.088300  0.996700  0.064300  1.0  -0.678
  O  O320  1  0.133000  0.887200  0.118900  1.0  -0.5851
  O  O321  1  0.900500  0.969100  0.047700  1.0  -0.7132
  O  O322  1  0.922700  0.878800  0.115600  1.0  -0.5762
  O  O323  1  0.513700  0.185500  0.291900  1.0  -0.2758
  O  O324  1  0.351000  0.331700  0.147200  1.0  -0.3278
  O  O325  1  0.603500  0.194900  0.184400  1.0  -0.284
  O  O326  1  0.300300  0.185800  0.210100  1.0  -0.3601
  O  O327  1  0.367800  0.770200  0.354400  1.0  -0.6004
  O  O328  1  0.271800  0.756100  0.413800  1.0  -0.5583
  O  O329  1  0.938800  0.129700  0.995800  1.0  -0.7055
  O  O330  1  0.000900  0.227600  0.978200  1.0  -0.6122
  O  O331  1  0.525400  0.625200  0.352200  1.0  -0.6681
  O  O332  1  0.543200  0.572700  0.433400  1.0  -0.6807
  O  O333  1  0.342700  0.581800  0.398100  1.0  -0.589
  O  O334  1  0.390500  0.476000  0.460200  1.0  -0.6521
  O  O335  1  0.961300  0.312500  0.220400  1.0  -0.2593
  O  O336  1  0.090600  0.141900  0.367200  1.0  -0.4382
  O  O337  1  0.164000  0.282600  0.321600  1.0  -0.3194
  O  O338  1  0.855500  0.297500  0.317600  1.0  -0.2873
  O  O339  1  0.460100  0.723900  0.473700  1.0  -0.653
  O  O340  1  0.415000  0.619900  0.500600  1.0  -0.7116
  O  O341  1  0.920100  0.280200  0.852300  1.0  -0.5769
  O  O342  1  0.822800  0.277900  0.912500  1.0  -0.5848
  O  O343  1  0.911700  0.003300  0.935700  1.0  -0.6656
  O  O344  1  0.867000  0.112800  0.881100  1.0  -0.5903
  O  O345  1  0.099500  0.030900  0.952300  1.0  -0.6983
  O  O346  1  0.077300  0.121200  0.884400  1.0  -0.5765
  O  O347  1  0.486300  0.814500  0.708100  1.0  -0.2768
  O  O348  1  0.649000  0.668300  0.852800  1.0  -0.3265
  O  O349  1  0.396500  0.805100  0.815600  1.0  -0.2832
  O  O350  1  0.699700  0.814200  0.789900  1.0  -0.3617
