# generated using pymatgen
data_CuH8(CN2)8
_symmetry_space_group_name_H-M   'P 1'
_cell_length_a   6.52280000
_cell_length_b   13.84130000
_cell_length_c   15.64050000
_cell_angle_alpha   96.64100000
_cell_angle_beta   93.77500000
_cell_angle_gamma   94.72700000
_symmetry_Int_Tables_number   1
_chemical_formula_structural   CuH8(CN2)8
_chemical_formula_sum   'Cu2 H16 C16 N32'
_cell_volume   1393.78448802
_cell_formula_units_Z   2
loop_
 _symmetry_equiv_pos_site_id
 _symmetry_equiv_pos_as_xyz
  1  'x, y, z'
loop_
 _atom_site_type_symbol
 _atom_site_label
 _atom_site_symmetry_multiplicity
 _atom_site_fract_x
 _atom_site_fract_y
 _atom_site_fract_z
 _atom_site_occupancy
 _atom_site_charge
  Cu  Cu1  1  0.695990  0.708590  0.708190  1.0  0.363
  Cu  Cu2  1  0.304010  0.291410  0.291810  1.0  0.3632
  H  H3  1  0.302900  0.693100  0.571900  1.0  0.0949
  H  H4  1  0.643500  0.878600  0.863800  1.0  0.0966
  H  H5  1  0.246900  0.894200  0.911600  1.0  0.0954
  H  H6  1  0.915300  0.913600  0.676800  1.0  0.1046
  H  H7  1  0.300200  0.407500  0.569100  1.0  0.0996
  H  H8  1  0.809100  0.586000  0.866000  1.0  0.0999
  H  H9  1  0.837900  0.820700  0.428100  1.0  0.0987
  H  H10  1  0.217200  0.575700  0.906900  1.0  0.1034
  H  H11  1  0.697100  0.306900  0.428100  1.0  0.0946
  H  H12  1  0.356500  0.121400  0.136200  1.0  0.0965
  H  H13  1  0.753100  0.105800  0.088400  1.0  0.0931
  H  H14  1  0.084700  0.086400  0.323200  1.0  0.1044
  H  H15  1  0.699800  0.592500  0.430900  1.0  0.1012
  H  H16  1  0.190900  0.414000  0.134000  1.0  0.0997
  H  H17  1  0.162100  0.179300  0.571900  1.0  0.099
  H  H18  1  0.782800  0.424300  0.093100  1.0  0.1011
  C  C19  1  0.340800  0.631600  0.581100  1.0  0.1666
  C  C20  1  0.781600  0.867500  0.860400  1.0  0.1137
  C  C21  1  0.113900  0.875800  0.886700  1.0  0.1365
  C  C22  1  0.882500  0.874200  0.624600  1.0  0.1433
  C  C23  1  0.340000  0.474100  0.579800  1.0  0.175
  C  C24  1  0.668900  0.594100  0.860900  1.0  0.108
  C  C25  1  0.839300  0.822500  0.487800  1.0  0.187
  C  C26  1  0.342400  0.588300  0.883300  1.0  0.1424
  C  C27  1  0.659200  0.368400  0.418900  1.0  0.1665
  C  C28  1  0.218400  0.132500  0.139600  1.0  0.1125
  C  C29  1  0.886100  0.124200  0.113300  1.0  0.1352
  C  C30  1  0.117500  0.125800  0.375400  1.0  0.1454
  C  C31  1  0.660000  0.525900  0.420200  1.0  0.1758
  C  C32  1  0.331100  0.405900  0.139100  1.0  0.1085
  C  C33  1  0.160700  0.177500  0.512200  1.0  0.1874
  C  C34  1  0.657600  0.411700  0.116700  1.0  0.1447
  N  N35  1  0.915100  0.983300  0.982300  1.0  -0.3082
  N  N36  1  0.526400  0.561900  0.913700  1.0  0.1614
  N  N37  1  0.800100  0.785700  0.616300  1.0  -0.1633
  N  N38  1  0.576600  0.638000  0.802500  1.0  -0.1595
  N  N39  1  0.577400  0.511900  0.982300  1.0  -0.2868
  N  N40  1  0.853900  0.807900  0.802300  1.0  -0.1474
  N  N41  1  0.510800  0.614500  0.623700  1.0  -0.216
  N  N42  1  0.229100  0.546300  0.552700  1.0  0.1226
  N  N43  1  0.997800  0.995500  0.538500  1.0  -0.3026
  N  N44  1  0.066300  0.812100  0.818800  1.0  -0.267
  N  N45  1  0.940600  0.911100  0.915600  1.0  0.174
  N  N46  1  0.914000  0.901200  0.546200  1.0  0.1443
  N  N47  1  0.770400  0.750600  0.528300  1.0  -0.282
  N  N48  1  0.510500  0.513500  0.623000  1.0  -0.2656
  N  N49  1  0.034300  0.543000  0.509700  1.0  -0.2799
  N  N50  1  0.368000  0.633900  0.816100  1.0  -0.2532
  N  N51  1  0.084900  0.016700  0.017700  1.0  -0.3096
  N  N52  1  0.473600  0.438100  0.086300  1.0  0.161
  N  N53  1  0.199900  0.214300  0.383700  1.0  -0.1618
  N  N54  1  0.423400  0.362000  0.197500  1.0  -0.1593
  N  N55  1  0.422600  0.488100  0.017700  1.0  -0.2864
  N  N56  1  0.146100  0.192100  0.197700  1.0  -0.1458
  N  N57  1  0.489200  0.385500  0.376300  1.0  -0.2154
  N  N58  1  0.770900  0.453700  0.447300  1.0  0.1181
  N  N59  1  0.002200  0.004500  0.461500  1.0  -0.3053
  N  N60  1  0.933700  0.187900  0.181200  1.0  -0.265
  N  N61  1  0.059400  0.088900  0.084400  1.0  0.1733
  N  N62  1  0.086000  0.098800  0.453800  1.0  0.1442
  N  N63  1  0.229600  0.249400  0.471700  1.0  -0.2813
  N  N64  1  0.489500  0.486500  0.377000  1.0  -0.2635
  N  N65  1  0.965700  0.457000  0.490300  1.0  -0.2775
  N  N66  1  0.632000  0.366100  0.183900  1.0  -0.2537
