# generated using pymatgen
data_ZnPH12(C3O2)3
_symmetry_space_group_name_H-M   'P 1'
_cell_length_a   11.52800000
_cell_length_b   11.52800000
_cell_length_c   15.16800000
_cell_angle_alpha   90.00000000
_cell_angle_beta   90.00000000
_cell_angle_gamma   120.00000000
_symmetry_Int_Tables_number   1
_chemical_formula_structural   ZnPH12(C3O2)3
_chemical_formula_sum   'Zn4 P4 H48 C36 O24'
_cell_volume   1745.68904812
_cell_formula_units_Z   4
loop_
 _symmetry_equiv_pos_site_id
 _symmetry_equiv_pos_as_xyz
  1  'x, y, z'
loop_
 _atom_site_type_symbol
 _atom_site_label
 _atom_site_symmetry_multiplicity
 _atom_site_fract_x
 _atom_site_fract_y
 _atom_site_fract_z
 _atom_site_occupancy
 _atom_site_charge
  Zn  Zn1  1  0.333333  0.666667  0.135920  1.0  0.8987
  Zn  Zn2  1  0.666667  0.333333  0.635920  1.0  0.8987
  Zn  Zn3  1  0.000000  0.000000  0.388900  1.0  0.7982
  Zn  Zn4  1  0.000000  0.000000  0.888900  1.0  0.7982
  P  P5  1  0.333333  0.666667  0.980520  1.0  0.6191
  P  P6  1  0.666667  0.333333  0.480520  1.0  0.6191
  P  P7  1  0.000000  0.000000  0.231640  1.0  0.5887
  P  P8  1  0.000000  0.000000  0.731640  1.0  0.5887
  H  H9  1  0.184900  0.198600  0.181600  1.0  0.1546
  H  H10  1  0.063100  0.158200  0.118400  1.0  0.1601
  H  H11  1  0.967200  0.235000  0.227100  1.0  0.1213
  H  H12  1  0.098200  0.286100  0.283300  1.0  0.1285
  H  H13  1  0.522400  0.654300  0.947100  1.0  0.146
  H  H14  1  0.481100  0.709300  0.865700  1.0  0.1484
  H  H15  1  0.581200  0.921200  0.924900  1.0  0.1238
  H  H16  1  0.605400  0.869900  0.015100  1.0  0.1229
  H  H17  1  0.801400  0.986300  0.181600  1.0  0.1511
  H  H18  1  0.841800  0.904900  0.118400  1.0  0.1609
  H  H19  1  0.765000  0.732200  0.227100  1.0  0.1217
  H  H20  1  0.713900  0.812100  0.283300  1.0  0.1286
  H  H21  1  0.345700  0.868100  0.947100  1.0  0.1458
  H  H22  1  0.290700  0.771800  0.865700  1.0  0.1484
  H  H23  1  0.078800  0.660000  0.924900  1.0  0.1246
  H  H24  1  0.130100  0.735500  0.015100  1.0  0.1241
  H  H25  1  0.013700  0.815100  0.181600  1.0  0.1518
  H  H26  1  0.095100  0.936900  0.118400  1.0  0.1613
  H  H27  1  0.267800  0.032800  0.227100  1.0  0.1249
  H  H28  1  0.187900  0.901800  0.283300  1.0  0.1287
  H  H29  1  0.131900  0.477600  0.947100  1.0  0.1458
  H  H30  1  0.228200  0.518900  0.865700  1.0  0.1476
  H  H31  1  0.340000  0.418800  0.924900  1.0  0.1215
  H  H32  1  0.264500  0.394600  0.015100  1.0  0.1239
  H  H33  1  0.815100  0.801400  0.681600  1.0  0.1558
  H  H34  1  0.936900  0.841800  0.618400  1.0  0.1604
  H  H35  1  0.032800  0.765000  0.727100  1.0  0.1212
  H  H36  1  0.901800  0.713900  0.783300  1.0  0.129
  H  H37  1  0.477600  0.345700  0.447100  1.0  0.1466
  H  H38  1  0.518900  0.290700  0.365700  1.0  0.1479
  H  H39  1  0.418800  0.078800  0.424900  1.0  0.1246
  H  H40  1  0.394600  0.130100  0.515100  1.0  0.1232
  H  H41  1  0.198600  0.013700  0.681600  1.0  0.1532
  H  H42  1  0.158200  0.095100  0.618400  1.0  0.1604
  H  H43  1  0.235000  0.267800  0.727100  1.0  0.1213
  H  H44  1  0.286100  0.187900  0.783300  1.0  0.1283
  H  H45  1  0.654300  0.131900  0.447100  1.0  0.1471
  H  H46  1  0.709300  0.228200  0.365700  1.0  0.1479
  H  H47  1  0.921200  0.340000  0.424900  1.0  0.1234
  H  H48  1  0.869900  0.264500  0.515100  1.0  0.124
  H  H49  1  0.986300  0.184900  0.681600  1.0  0.1518
  H  H50  1  0.904900  0.063100  0.618400  1.0  0.1613
  H  H51  1  0.732200  0.967200  0.727100  1.0  0.1237
  H  H52  1  0.812100  0.098200  0.783300  1.0  0.1286
  H  H53  1  0.868100  0.522400  0.447100  1.0  0.1489
  H  H54  1  0.771800  0.481100  0.365700  1.0  0.1481
  H  H55  1  0.660000  0.581200  0.424900  1.0  0.1207
  H  H56  1  0.735500  0.605400  0.515100  1.0  0.1242
  C  C57  1  0.089500  0.166600  0.179800  1.0  -0.3593
  C  C58  1  0.063100  0.269900  0.223700  1.0  -0.284
  C  C59  1  0.127600  0.400900  0.173000  1.0  0.7608
  C  C60  1  0.493100  0.716400  0.929200  1.0  -0.3628
  C  C61  1  0.602200  0.857400  0.951700  1.0  -0.3149
  C  C62  1  0.737500  0.884200  0.919400  1.0  0.7502
  C  C63  1  0.833400  0.922900  0.179800  1.0  -0.3576
  C  C64  1  0.730100  0.793200  0.223700  1.0  -0.2841
  C  C65  1  0.599100  0.726700  0.173000  1.0  0.7583
  C  C66  1  0.283600  0.776700  0.929200  1.0  -0.3637
  C  C67  1  0.142600  0.744800  0.951700  1.0  -0.3149
  C  C68  1  0.115800  0.853300  0.919400  1.0  0.7508
  C  C69  1  0.077100  0.910500  0.179800  1.0  -0.3587
  C  C70  1  0.206800  0.936900  0.223700  1.0  -0.2815
  C  C71  1  0.273300  0.872400  0.173000  1.0  0.759
  C  C72  1  0.223300  0.506900  0.929200  1.0  -0.362
  C  C73  1  0.255200  0.397800  0.951700  1.0  -0.311
  C  C74  1  0.146700  0.262500  0.919400  1.0  0.7508
  C  C75  1  0.910500  0.833400  0.679800  1.0  -0.3589
  C  C76  1  0.936900  0.730100  0.723700  1.0  -0.2829
  C  C77  1  0.872400  0.599100  0.673000  1.0  0.7591
  C  C78  1  0.506900  0.283600  0.429200  1.0  -0.3625
  C  C79  1  0.397800  0.142600  0.451700  1.0  -0.3156
  C  C80  1  0.262500  0.115800  0.419400  1.0  0.751
  C  C81  1  0.166600  0.077100  0.679800  1.0  -0.3586
  C  C82  1  0.269900  0.206800  0.723700  1.0  -0.2849
  C  C83  1  0.400900  0.273300  0.673000  1.0  0.7592
  C  C84  1  0.716400  0.223300  0.429200  1.0  -0.3636
  C  C85  1  0.857400  0.255200  0.451700  1.0  -0.3132
  C  C86  1  0.884200  0.146700  0.419400  1.0  0.7517
  C  C87  1  0.922900  0.089500  0.679800  1.0  -0.3583
  C  C88  1  0.793200  0.063100  0.723700  1.0  -0.2825
  C  C89  1  0.726700  0.127600  0.673000  1.0  0.7596
  C  C90  1  0.776700  0.493100  0.429200  1.0  -0.3632
  C  C91  1  0.744800  0.602200  0.451700  1.0  -0.3106
  C  C92  1  0.853300  0.737500  0.419400  1.0  0.7511
  O  O93  1  0.245700  0.489200  0.195200  1.0  -0.593
  O  O94  1  0.066400  0.415800  0.112100  1.0  -0.535
  O  O95  1  0.839600  0.990600  0.948200  1.0  -0.5759
  O  O96  1  0.746400  0.808500  0.865500  1.0  -0.5628
  O  O97  1  0.510800  0.756500  0.195200  1.0  -0.5943
  O  O98  1  0.584200  0.650600  0.112100  1.0  -0.5341
  O  O99  1  0.009400  0.849000  0.948200  1.0  -0.5743
  O  O100  1  0.191500  0.937900  0.865500  1.0  -0.5616
  O  O101  1  0.243500  0.754300  0.195200  1.0  -0.5957
  O  O102  1  0.349400  0.933600  0.112100  1.0  -0.5366
  O  O103  1  0.151000  0.160400  0.948200  1.0  -0.5741
  O  O104  1  0.062100  0.253600  0.865500  1.0  -0.5622
  O  O105  1  0.754300  0.510800  0.695200  1.0  -0.5947
  O  O106  1  0.933600  0.584200  0.612100  1.0  -0.5358
  O  O107  1  0.160400  0.009400  0.448200  1.0  -0.5752
  O  O108  1  0.253600  0.191500  0.365500  1.0  -0.5604
  O  O109  1  0.489200  0.243500  0.695200  1.0  -0.5935
  O  O110  1  0.415800  0.349400  0.612100  1.0  -0.5364
  O  O111  1  0.990600  0.151000  0.448200  1.0  -0.5751
  O  O112  1  0.808500  0.062100  0.365500  1.0  -0.5628
  O  O113  1  0.756500  0.245700  0.695200  1.0  -0.594
  O  O114  1  0.650600  0.066400  0.612100  1.0  -0.5355
  O  O115  1  0.849000  0.839600  0.448200  1.0  -0.5733
  O  O116  1  0.937900  0.746400  0.365500  1.0  -0.5636
