# generated using pymatgen
data_Cd2P2H36C18(NO4)3
_symmetry_space_group_name_H-M   'P 1'
_cell_length_a   11.63000000
_cell_length_b   11.63000000
_cell_length_c   15.73100000
_cell_angle_alpha   90.00000000
_cell_angle_beta   90.00000000
_cell_angle_gamma   120.00000000
_symmetry_Int_Tables_number   1
_chemical_formula_structural   Cd2P2H36C18(NO4)3
_chemical_formula_sum   'Cd4 P4 H72 C36 N6 O24'
_cell_volume   1842.66502282
_cell_formula_units_Z   2
loop_
 _symmetry_equiv_pos_site_id
 _symmetry_equiv_pos_as_xyz
  1  'x, y, z'
loop_
 _atom_site_type_symbol
 _atom_site_label
 _atom_site_symmetry_multiplicity
 _atom_site_fract_x
 _atom_site_fract_y
 _atom_site_fract_z
 _atom_site_occupancy
 _atom_site_charge
  Cd  Cd1  1  0.333333  0.666667  0.274200  1.0  0.9002
  Cd  Cd2  1  0.666667  0.333333  0.774200  1.0  0.9002
  Cd  Cd3  1  0.000000  0.000000  0.527600  1.0  0.9197
  Cd  Cd4  1  0.000000  0.000000  0.027600  1.0  0.9197
  P  P5  1  0.333333  0.666667  0.116100  1.0  0.7079
  P  P6  1  0.666667  0.333333  0.616100  1.0  0.7079
  P  P7  1  0.000000  0.000000  0.366200  1.0  0.6098
  P  P8  1  0.000000  0.000000  0.866200  1.0  0.6098
  H  H9  1  0.846300  0.937800  0.255900  1.0  0.1612
  H  H10  1  0.800800  0.819600  0.320000  1.0  0.141
  H  H11  1  0.775600  0.042700  0.345300  1.0  0.1012
  H  H12  1  0.740400  0.933600  0.415100  1.0  0.1037
  H  H13  1  0.281700  0.761500  0.010200  1.0  0.12
  H  H14  1  0.161900  0.687300  0.071000  1.0  0.1162
  H  H15  1  0.350500  0.936700  0.069200  1.0  0.1067
  H  H16  1  0.277800  0.873500  0.154100  1.0  0.0954
  H  H17  1  0.091500  0.153700  0.255900  1.0  0.1606
  H  H18  1  0.018800  0.199200  0.320000  1.0  0.1369
  H  H19  1  0.267100  0.224400  0.345300  1.0  0.0947
  H  H20  1  0.193200  0.259600  0.415100  1.0  0.1015
  H  H21  1  0.479800  0.718300  0.010200  1.0  0.1197
  H  H22  1  0.525400  0.838100  0.071000  1.0  0.1159
  H  H23  1  0.586200  0.649500  0.069200  1.0  0.1001
  H  H24  1  0.595700  0.722200  0.154100  1.0  0.0936
  H  H25  1  0.062200  0.908500  0.255900  1.0  0.1607
  H  H26  1  0.180400  0.981200  0.320000  1.0  0.1383
  H  H27  1  0.957300  0.732900  0.345300  1.0  0.0973
  H  H28  1  0.066400  0.806800  0.415100  1.0  0.1036
  H  H29  1  0.238500  0.520200  0.010200  1.0  0.1199
  H  H30  1  0.312700  0.474600  0.071000  1.0  0.1158
  H  H31  1  0.063300  0.413800  0.069200  1.0  0.1063
  H  H32  1  0.126500  0.404300  0.154100  1.0  0.0957
  H  H33  1  0.153700  0.062200  0.755900  1.0  0.1616
  H  H34  1  0.199200  0.180400  0.820000  1.0  0.1408
  H  H35  1  0.224400  0.957300  0.845300  1.0  0.101
  H  H36  1  0.259600  0.066400  0.915100  1.0  0.1023
  H  H37  1  0.718300  0.238500  0.510200  1.0  0.1199
  H  H38  1  0.838100  0.312700  0.571000  1.0  0.1175
  H  H39  1  0.649500  0.063300  0.569200  1.0  0.1054
  H  H40  1  0.722200  0.126500  0.654100  1.0  0.0952
  H  H41  1  0.908500  0.846300  0.755900  1.0  0.1606
  H  H42  1  0.981200  0.800800  0.820000  1.0  0.1363
  H  H43  1  0.732900  0.775600  0.845300  1.0  0.0935
  H  H44  1  0.806800  0.740400  0.915100  1.0  0.103
  H  H45  1  0.520200  0.281700  0.510200  1.0  0.1197
  H  H46  1  0.474600  0.161900  0.571000  1.0  0.1137
  H  H47  1  0.413800  0.350500  0.569200  1.0  0.1069
  H  H48  1  0.404300  0.277800  0.654100  1.0  0.0937
  H  H49  1  0.937800  0.091500  0.755900  1.0  0.1619
  H  H50  1  0.819600  0.018800  0.820000  1.0  0.1384
  H  H51  1  0.042700  0.267100  0.845300  1.0  0.0977
  H  H52  1  0.933600  0.193200  0.915100  1.0  0.1029
  H  H53  1  0.761500  0.479800  0.510200  1.0  0.12
  H  H54  1  0.687300  0.525400  0.571000  1.0  0.1137
  H  H55  1  0.936700  0.586200  0.569200  1.0  0.1042
  H  H56  1  0.873500  0.595700  0.654100  1.0  0.0964
  H  H57  1  0.281000  0.911600  0.704800  1.0  0.0762
  H  H58  1  0.144500  0.839300  0.651000  1.0  0.1166
  H  H59  1  0.184800  0.761800  0.712700  1.0  0.2337
  H  H60  1  0.258700  0.813700  0.630700  1.0  0.2393
  H  H61  1  0.630600  0.719000  0.704800  1.0  0.077
  H  H62  1  0.694800  0.855500  0.651000  1.0  0.1144
  H  H63  1  0.577000  0.815200  0.712700  1.0  0.2348
  H  H64  1  0.555000  0.741300  0.630700  1.0  0.238
  H  H65  1  0.088400  0.369400  0.704800  1.0  0.0754
  H  H66  1  0.160700  0.305200  0.651000  1.0  0.1164
  H  H67  1  0.238200  0.423000  0.712700  1.0  0.2317
  H  H68  1  0.186300  0.445000  0.630700  1.0  0.239
  H  H69  1  0.719000  0.088400  0.204800  1.0  0.0769
  H  H70  1  0.855500  0.160700  0.151000  1.0  0.1165
  H  H71  1  0.815200  0.238200  0.212700  1.0  0.2346
  H  H72  1  0.741300  0.186300  0.130700  1.0  0.239
  H  H73  1  0.369400  0.281000  0.204800  1.0  0.0823
  H  H74  1  0.305200  0.144500  0.151000  1.0  0.1153
  H  H75  1  0.423000  0.184800  0.212700  1.0  0.233
  H  H76  1  0.445000  0.258700  0.130700  1.0  0.2381
  H  H77  1  0.911600  0.630600  0.204800  1.0  0.0763
  H  H78  1  0.839300  0.694800  0.151000  1.0  0.1171
  H  H79  1  0.761800  0.577000  0.212700  1.0  0.2335
  H  H80  1  0.813700  0.555000  0.130700  1.0  0.2384
  C  C81  1  0.836700  0.914700  0.315700  1.0  -0.3133
  C  C82  1  0.743900  0.948900  0.354300  1.0  -0.2549
  C  C83  1  0.607000  0.868900  0.317700  1.0  0.6313
  C  C84  1  0.256400  0.750900  0.069700  1.0  -0.1822
  C  C85  1  0.267300  0.867700  0.092800  1.0  -0.2457
  C  C86  1  0.167100  0.905000  0.072700  1.0  0.6786
  C  C87  1  0.078000  0.163300  0.315700  1.0  -0.312
  C  C88  1  0.205000  0.256100  0.354300  1.0  -0.26
  C  C89  1  0.261900  0.393000  0.317700  1.0  0.6334
  C  C90  1  0.494500  0.743600  0.069700  1.0  -0.1818
  C  C91  1  0.600400  0.732700  0.092800  1.0  -0.2473
  C  C92  1  0.737900  0.832900  0.072700  1.0  0.6765
  C  C93  1  0.085300  0.922000  0.315700  1.0  -0.3126
  C  C94  1  0.051100  0.795000  0.354300  1.0  -0.2608
  C  C95  1  0.131100  0.738100  0.317700  1.0  0.6282
  C  C96  1  0.249100  0.505500  0.069700  1.0  -0.1824
  C  C97  1  0.132300  0.399600  0.092800  1.0  -0.2458
  C  C98  1  0.095000  0.262100  0.072700  1.0  0.6777
  C  C99  1  0.163300  0.085300  0.815700  1.0  -0.3103
  C  C100  1  0.256100  0.051100  0.854300  1.0  -0.2573
  C  C101  1  0.393000  0.131100  0.817700  1.0  0.6272
  C  C102  1  0.743600  0.249100  0.569700  1.0  -0.1821
  C  C103  1  0.732700  0.132300  0.592800  1.0  -0.2478
  C  C104  1  0.832900  0.095000  0.572700  1.0  0.6794
  C  C105  1  0.922000  0.836700  0.815700  1.0  -0.3136
  C  C106  1  0.795000  0.743900  0.854300  1.0  -0.2577
  C  C107  1  0.738100  0.607000  0.817700  1.0  0.6332
  C  C108  1  0.505500  0.256400  0.569700  1.0  -0.1805
  C  C109  1  0.399600  0.267300  0.592800  1.0  -0.2468
  C  C110  1  0.262100  0.167100  0.572700  1.0  0.6766
  C  C111  1  0.914700  0.078000  0.815700  1.0  -0.3142
  C  C112  1  0.948900  0.205000  0.854300  1.0  -0.2608
  C  C113  1  0.868900  0.261900  0.817700  1.0  0.6297
  C  C114  1  0.750900  0.494500  0.569700  1.0  -0.1805
  C  C115  1  0.867700  0.600400  0.592800  1.0  -0.2446
  C  C116  1  0.905000  0.737900  0.572700  1.0  0.6779
  N  N117  1  0.217300  0.831100  0.674800  1.0  -0.5063
  N  N118  1  0.613800  0.782700  0.674800  1.0  -0.5055
  N  N119  1  0.168900  0.386200  0.674800  1.0  -0.51
  N  N120  1  0.782700  0.168900  0.174800  1.0  -0.5043
  N  N121  1  0.386200  0.217300  0.174800  1.0  -0.5061
  N  N122  1  0.831100  0.613800  0.174800  1.0  -0.5072
  O  O123  1  0.521500  0.760500  0.347100  1.0  -0.5963
  O  O124  1  0.567400  0.920700  0.254000  1.0  -0.5767
  O  O125  1  0.168000  0.003400  0.105300  1.0  -0.6246
  O  O126  1  0.077500  0.830900  0.019400  1.0  -0.6498
  O  O127  1  0.239000  0.478500  0.347100  1.0  -0.596
  O  O128  1  0.353300  0.432600  0.254000  1.0  -0.5787
  O  O129  1  0.835400  0.832000  0.105300  1.0  -0.6244
  O  O130  1  0.753400  0.922500  0.019400  1.0  -0.6494
  O  O131  1  0.239500  0.761000  0.347100  1.0  -0.5984
  O  O132  1  0.079300  0.646700  0.254000  1.0  -0.5785
  O  O133  1  0.996600  0.164600  0.105300  1.0  -0.6253
  O  O134  1  0.169100  0.246600  0.019400  1.0  -0.6499
  O  O135  1  0.478500  0.239500  0.847100  1.0  -0.5951
  O  O136  1  0.432600  0.079300  0.754000  1.0  -0.5769
  O  O137  1  0.832000  0.996600  0.605300  1.0  -0.6261
  O  O138  1  0.922500  0.169100  0.519400  1.0  -0.6493
  O  O139  1  0.761000  0.521500  0.847100  1.0  -0.5957
  O  O140  1  0.646700  0.567400  0.754000  1.0  -0.5796
  O  O141  1  0.164600  0.168000  0.605300  1.0  -0.6237
  O  O142  1  0.246600  0.077500  0.519400  1.0  -0.6489
  O  O143  1  0.760500  0.239000  0.847100  1.0  -0.599
  O  O144  1  0.920700  0.353300  0.754000  1.0  -0.5787
  O  O145  1  0.003400  0.835400  0.605300  1.0  -0.6255
  O  O146  1  0.830900  0.753400  0.519400  1.0  -0.6493
