# generated using pymatgen
data_Cd5H15C15N31O3
_symmetry_space_group_name_H-M   'P 1'
_cell_length_a   13.07320000
_cell_length_b   13.07320000
_cell_length_c   13.43500000
_cell_angle_alpha   90.00000000
_cell_angle_beta   90.00000000
_cell_angle_gamma   120.00000000
_symmetry_Int_Tables_number   1
_chemical_formula_structural   Cd5H15C15N31O3
_chemical_formula_sum   'Cd10 H30 C30 N62 O6'
_cell_volume   1988.52984270
_cell_formula_units_Z   2
loop_
 _symmetry_equiv_pos_site_id
 _symmetry_equiv_pos_as_xyz
  1  'x, y, z'
loop_
 _atom_site_type_symbol
 _atom_site_label
 _atom_site_symmetry_multiplicity
 _atom_site_fract_x
 _atom_site_fract_y
 _atom_site_fract_z
 _atom_site_occupancy
 _atom_site_charge
  Cd  Cd1  1  0.500000  0.500000  0.500000  1.0  0.6964
  Cd  Cd2  1  0.000000  0.500000  0.500000  1.0  0.6964
  Cd  Cd3  1  0.500000  0.000000  0.500000  1.0  0.6964
  Cd  Cd4  1  0.500000  0.500000  0.000000  1.0  0.6964
  Cd  Cd5  1  0.000000  0.500000  0.000000  1.0  0.6964
  Cd  Cd6  1  0.500000  0.000000  0.000000  1.0  0.6964
  Cd  Cd7  1  0.666667  0.333333  0.596610  1.0  0.7997
  Cd  Cd8  1  0.333333  0.666667  0.096610  1.0  0.7997
  Cd  Cd9  1  0.333333  0.666667  0.403390  1.0  0.7993
  Cd  Cd10  1  0.666667  0.333333  0.903390  1.0  0.7993
  H  H11  1  0.761500  0.708800  0.381600  1.0  0.0954
  H  H12  1  0.947300  0.238500  0.381600  1.0  0.0926
  H  H13  1  0.291200  0.052700  0.381600  1.0  0.0936
  H  H14  1  0.238500  0.291200  0.881600  1.0  0.0938
  H  H15  1  0.052700  0.761500  0.881600  1.0  0.0927
  H  H16  1  0.708800  0.947300  0.881600  1.0  0.0938
  H  H17  1  0.052700  0.291200  0.618400  1.0  0.0945
  H  H18  1  0.708800  0.761500  0.618400  1.0  0.0922
  H  H19  1  0.238500  0.947300  0.618400  1.0  0.0943
  H  H20  1  0.947300  0.708800  0.118400  1.0  0.0939
  H  H21  1  0.291200  0.238500  0.118400  1.0  0.0923
  H  H22  1  0.761500  0.052700  0.118400  1.0  0.093
  H  H23  1  0.238500  0.291200  0.618400  1.0  0.0941
  H  H24  1  0.052700  0.761500  0.618400  1.0  0.0924
  H  H25  1  0.708800  0.947300  0.618400  1.0  0.0932
  H  H26  1  0.761500  0.708800  0.118400  1.0  0.0951
  H  H27  1  0.947300  0.238500  0.118400  1.0  0.0922
  H  H28  1  0.291200  0.052700  0.118400  1.0  0.0939
  H  H29  1  0.947300  0.708800  0.381600  1.0  0.0942
  H  H30  1  0.291200  0.238500  0.381600  1.0  0.0926
  H  H31  1  0.761500  0.052700  0.381600  1.0  0.0933
  H  H32  1  0.052700  0.291200  0.881600  1.0  0.0944
  H  H33  1  0.708800  0.761500  0.881600  1.0  0.0927
  H  H34  1  0.238500  0.947300  0.881600  1.0  0.0943
  H  H35  1  0.548400  0.451600  0.250000  1.0  0.075
  H  H36  1  0.903200  0.451600  0.250000  1.0  0.0748
  H  H37  1  0.548400  0.096800  0.250000  1.0  0.0745
  H  H38  1  0.451600  0.548400  0.750000  1.0  0.0746
  H  H39  1  0.096800  0.548400  0.750000  1.0  0.0746
  H  H40  1  0.451600  0.903200  0.750000  1.0  0.0744
  C  C41  1  0.774700  0.651200  0.413800  1.0  -0.0315
  C  C42  1  0.876500  0.225300  0.413800  1.0  -0.0291
  C  C43  1  0.348800  0.123500  0.413800  1.0  -0.0284
  C  C44  1  0.225300  0.348800  0.913800  1.0  -0.0295
  C  C45  1  0.123500  0.774700  0.913800  1.0  -0.0294
  C  C46  1  0.651200  0.876500  0.913800  1.0  -0.0274
  C  C47  1  0.123500  0.348800  0.586200  1.0  -0.0303
  C  C48  1  0.651200  0.774700  0.586200  1.0  -0.0287
  C  C49  1  0.225300  0.876500  0.586200  1.0  -0.0273
  C  C50  1  0.876500  0.651200  0.086200  1.0  -0.0293
  C  C51  1  0.348800  0.225300  0.086200  1.0  -0.0291
  C  C52  1  0.774700  0.123500  0.086200  1.0  -0.0278
  C  C53  1  0.225300  0.348800  0.586200  1.0  -0.0291
  C  C54  1  0.123500  0.774700  0.586200  1.0  -0.0293
  C  C55  1  0.651200  0.876500  0.586200  1.0  -0.0275
  C  C56  1  0.774700  0.651200  0.086200  1.0  -0.0314
  C  C57  1  0.876500  0.225300  0.086200  1.0  -0.0287
  C  C58  1  0.348800  0.123500  0.086200  1.0  -0.0282
  C  C59  1  0.876500  0.651200  0.413800  1.0  -0.0296
  C  C60  1  0.348800  0.225300  0.413800  1.0  -0.0291
  C  C61  1  0.774700  0.123500  0.413800  1.0  -0.0281
  C  C62  1  0.123500  0.348800  0.913800  1.0  -0.0306
  C  C63  1  0.651200  0.774700  0.913800  1.0  -0.0291
  C  C64  1  0.225300  0.876500  0.913800  1.0  -0.0273
  C  C65  1  0.506550  0.493450  0.250000  1.0  0.2289
  C  C66  1  0.986900  0.493450  0.250000  1.0  0.2294
  C  C67  1  0.506550  0.013100  0.250000  1.0  0.2298
  C  C68  1  0.493450  0.506550  0.750000  1.0  0.2295
  C  C69  1  0.013100  0.506550  0.750000  1.0  0.2293
  C  C70  1  0.493450  0.986900  0.750000  1.0  0.23
  N  N71  1  0.696400  0.558200  0.465600  1.0  -0.2049
  N  N72  1  0.861800  0.303600  0.465600  1.0  -0.2034
  N  N73  1  0.441800  0.138200  0.465600  1.0  -0.202
  N  N74  1  0.303600  0.441800  0.965600  1.0  -0.203
  N  N75  1  0.138200  0.696400  0.965600  1.0  -0.2033
  N  N76  1  0.558200  0.861800  0.965600  1.0  -0.2048
  N  N77  1  0.138200  0.441800  0.534400  1.0  -0.2046
  N  N78  1  0.558200  0.696400  0.534400  1.0  -0.2033
  N  N79  1  0.303600  0.861800  0.534400  1.0  -0.2022
  N  N80  1  0.861800  0.558200  0.034400  1.0  -0.202
  N  N81  1  0.441800  0.303600  0.034400  1.0  -0.2033
  N  N82  1  0.696400  0.138200  0.034400  1.0  -0.2046
  N  N83  1  0.303600  0.441800  0.534400  1.0  -0.2026
  N  N84  1  0.138200  0.696400  0.534400  1.0  -0.2037
  N  N85  1  0.558200  0.861800  0.534400  1.0  -0.2043
  N  N86  1  0.696400  0.558200  0.034400  1.0  -0.2049
  N  N87  1  0.861800  0.303600  0.034400  1.0  -0.2029
  N  N88  1  0.441800  0.138200  0.034400  1.0  -0.2021
  N  N89  1  0.861800  0.558200  0.465600  1.0  -0.2027
  N  N90  1  0.441800  0.303600  0.465600  1.0  -0.2038
  N  N91  1  0.696400  0.138200  0.465600  1.0  -0.2046
  N  N92  1  0.138200  0.441800  0.965600  1.0  -0.2045
  N  N93  1  0.558200  0.696400  0.965600  1.0  -0.203
  N  N94  1  0.303600  0.861800  0.965600  1.0  -0.2025
  N  N95  1  0.751050  0.502100  0.497600  1.0  -0.0507
  N  N96  1  0.582600  0.165200  0.700500  1.0  -0.0422
  N  N97  1  0.751050  0.248950  0.497600  1.0  -0.0505
  N  N98  1  0.582600  0.417400  0.700500  1.0  -0.0412
  N  N99  1  0.497900  0.248950  0.497600  1.0  -0.0512
  N  N100  1  0.834800  0.417400  0.700500  1.0  -0.0419
  N  N101  1  0.248950  0.497900  0.997600  1.0  -0.0512
  N  N102  1  0.417400  0.834800  0.200500  1.0  -0.0415
  N  N103  1  0.248950  0.751050  0.997600  1.0  -0.0508
  N  N104  1  0.417400  0.582600  0.200500  1.0  -0.0418
  N  N105  1  0.502100  0.751050  0.997600  1.0  -0.0503
  N  N106  1  0.165200  0.582600  0.200500  1.0  -0.0411
  N  N107  1  0.248950  0.497900  0.502400  1.0  -0.0506
  N  N108  1  0.417400  0.834800  0.299500  1.0  -0.041
  N  N109  1  0.502100  0.751050  0.502400  1.0  -0.0506
  N  N110  1  0.165200  0.582600  0.299500  1.0  -0.0401
  N  N111  1  0.248950  0.751050  0.502400  1.0  -0.0512
  N  N112  1  0.417400  0.582600  0.299500  1.0  -0.042
  N  N113  1  0.751050  0.502100  0.002400  1.0  -0.0505
  N  N114  1  0.582600  0.165200  0.799500  1.0  -0.042
  N  N115  1  0.497900  0.248950  0.002400  1.0  -0.0503
  N  N116  1  0.834800  0.417400  0.799500  1.0  -0.0419
  N  N117  1  0.751050  0.248950  0.002400  1.0  -0.0496
  N  N118  1  0.582600  0.417400  0.799500  1.0  -0.04
  N  N119  1  0.473450  0.526550  0.331300  1.0  -0.2337
  N  N120  1  0.053100  0.526550  0.331300  1.0  -0.233
  N  N121  1  0.473450  0.946900  0.331300  1.0  -0.2318
  N  N122  1  0.526550  0.473450  0.831300  1.0  -0.2327
  N  N123  1  0.946900  0.473450  0.831300  1.0  -0.2334
  N  N124  1  0.526550  0.053100  0.831300  1.0  -0.2318
  N  N125  1  0.946900  0.473450  0.668700  1.0  -0.2316
  N  N126  1  0.526550  0.473450  0.668700  1.0  -0.2313
  N  N127  1  0.526550  0.053100  0.668700  1.0  -0.2303
  N  N128  1  0.053100  0.526550  0.168700  1.0  -0.2315
  N  N129  1  0.473450  0.526550  0.168700  1.0  -0.232
  N  N130  1  0.473450  0.946900  0.168700  1.0  -0.2304
  N  N131  1  0.333333  0.666667  0.750000  1.0  0.6625
  N  N132  1  0.666667  0.333333  0.250000  1.0  0.6625
  O  O133  1  0.278450  0.556900  0.750000  1.0  -0.5516
  O  O134  1  0.278450  0.721550  0.750000  1.0  -0.5507
  O  O135  1  0.443100  0.721550  0.750000  1.0  -0.5505
  O  O136  1  0.721550  0.443100  0.250000  1.0  -0.55
  O  O137  1  0.721550  0.278450  0.250000  1.0  -0.5505
  O  O138  1  0.556900  0.278450  0.250000  1.0  -0.5509
