# generated using pymatgen
data_CuH16(C5N)4
_symmetry_space_group_name_H-M   'P 1'
_cell_length_a   11.81900000
_cell_length_b   12.67410000
_cell_length_c   13.75850000
_cell_angle_alpha   85.86530000
_cell_angle_beta   81.61970000
_cell_angle_gamma   84.09450000
_symmetry_Int_Tables_number   1
_chemical_formula_structural   CuH16(C5N)4
_chemical_formula_sum   'Cu4 H64 C80 N16'
_cell_volume   2024.71260399
_cell_formula_units_Z   4
loop_
 _symmetry_equiv_pos_site_id
 _symmetry_equiv_pos_as_xyz
  1  'x, y, z'
loop_
 _atom_site_type_symbol
 _atom_site_label
 _atom_site_symmetry_multiplicity
 _atom_site_fract_x
 _atom_site_fract_y
 _atom_site_fract_z
 _atom_site_occupancy
 _atom_site_charge
  Cu  Cu1  1  0.735390  0.722290  0.987720  1.0  0.4305
  Cu  Cu2  1  0.271630  0.296160  0.518780  1.0  0.4889
  Cu  Cu3  1  0.264610  0.277710  0.012280  1.0  0.4306
  Cu  Cu4  1  0.728370  0.703840  0.481220  1.0  0.4888
  H  H5  1  0.518000  0.759000  0.894000  1.0  0.0636
  H  H6  1  0.431000  0.675000  0.785000  1.0  0.1008
  H  H7  1  0.638000  0.406000  0.838000  1.0  0.1141
  H  H8  1  0.724000  0.501000  0.940000  1.0  0.0566
  H  H9  1  0.495000  0.326000  0.793000  1.0  0.0995
  H  H10  1  0.400000  0.244000  0.688000  1.0  0.0562
  H  H11  1  0.339000  0.514000  0.536000  1.0  0.0748
  H  H12  1  0.433000  0.604000  0.635000  1.0  0.1033
  H  H13  1  0.798000  0.868000  0.128000  1.0  0.0591
  H  H14  1  0.716000  0.992000  0.240000  1.0  0.0999
  H  H15  1  0.402000  0.934000  0.179000  1.0  0.1047
  H  H16  1  0.494000  0.812000  0.069000  1.0  0.0654
  H  H17  1  0.352000  0.095000  0.219000  1.0  0.094
  H  H18  1  0.261000  0.222000  0.324000  1.0  0.0647
  H  H19  1  0.513000  0.179000  0.485000  1.0  0.0596
  H  H20  1  0.612000  0.053000  0.383000  1.0  0.0979
  H  H21  1  0.938000  0.710000  0.821000  1.0  0.0616
  H  H22  1  0.048000  0.823000  0.716000  1.0  0.0988
  H  H23  1  0.846000  0.073000  0.836000  1.0  0.1104
  H  H24  1  0.743000  0.953000  0.938000  1.0  0.0571
  H  H25  1  0.999000  0.158000  0.798000  1.0  0.1048
  H  H26  1  0.117000  0.274000  0.705000  1.0  0.0575
  H  H27  1  0.211000  0.066000  0.502000  1.0  0.0584
  H  H28  1  0.096000  0.943000  0.589000  1.0  0.1035
  H  H29  1  0.731000  0.516000  0.120000  1.0  0.0612
  H  H30  1  0.829000  0.439000  0.244000  1.0  0.0993
  H  H31  1  0.082000  0.631000  0.152000  1.0  0.1021
  H  H32  1  0.976000  0.705000  0.031000  1.0  0.0667
  H  H33  1  0.160000  0.579000  0.269000  1.0  0.1025
  H  H34  1  0.265000  0.498000  0.388000  1.0  0.0652
  H  H35  1  0.027000  0.306000  0.480000  1.0  0.0591
  H  H36  1  0.917000  0.378000  0.361000  1.0  0.1088
  H  H37  1  0.482000  0.241000  0.106000  1.0  0.0638
  H  H38  1  0.569000  0.325000  0.215000  1.0  0.1007
  H  H39  1  0.362000  0.594000  0.162000  1.0  0.1138
  H  H40  1  0.276000  0.499000  0.060000  1.0  0.0567
  H  H41  1  0.505000  0.674000  0.207000  1.0  0.0996
  H  H42  1  0.600000  0.756000  0.312000  1.0  0.056
  H  H43  1  0.661000  0.486000  0.464000  1.0  0.0752
  H  H44  1  0.567000  0.396000  0.365000  1.0  0.1035
  H  H45  1  0.202000  0.132000  0.872000  1.0  0.0595
  H  H46  1  0.284000  0.008000  0.760000  1.0  0.0996
  H  H47  1  0.598000  0.066000  0.821000  1.0  0.1054
  H  H48  1  0.506000  0.188000  0.931000  1.0  0.0651
  H  H49  1  0.648000  0.905000  0.781000  1.0  0.0943
  H  H50  1  0.739000  0.778000  0.676000  1.0  0.0646
  H  H51  1  0.487000  0.821000  0.515000  1.0  0.0617
  H  H52  1  0.388000  0.947000  0.617000  1.0  0.0981
  H  H53  1  0.062000  0.290000  0.179000  1.0  0.0611
  H  H54  1  0.952000  0.177000  0.284000  1.0  0.0982
  H  H55  1  0.154000  0.927000  0.164000  1.0  0.1094
  H  H56  1  0.257000  0.047000  0.062000  1.0  0.0565
  H  H57  1  0.001000  0.842000  0.202000  1.0  0.1033
  H  H58  1  0.883000  0.726000  0.295000  1.0  0.0579
  H  H59  1  0.789000  0.934000  0.498000  1.0  0.0584
  H  H60  1  0.904000  0.057000  0.411000  1.0  0.1036
  H  H61  1  0.269000  0.484000  0.880000  1.0  0.0613
  H  H62  1  0.171000  0.561000  0.756000  1.0  0.0992
  H  H63  1  0.918000  0.369000  0.848000  1.0  0.101
  H  H64  1  0.024000  0.295000  0.969000  1.0  0.0672
  H  H65  1  0.840000  0.421000  0.731000  1.0  0.1016
  H  H66  1  0.735000  0.502000  0.612000  1.0  0.0648
  H  H67  1  0.973000  0.694000  0.520000  1.0  0.0593
  H  H68  1  0.083000  0.622000  0.639000  1.0  0.1081
  C  C69  1  0.544700  0.686700  0.880100  1.0  0.1366
  C  C70  1  0.491600  0.637100  0.816600  1.0  -0.2161
  C  C71  1  0.525400  0.532000  0.797300  1.0  0.0518
  C  C72  1  0.613500  0.479800  0.846100  1.0  -0.2126
  C  C73  1  0.664000  0.537200  0.907500  1.0  0.1552
  C  C74  1  0.471900  0.476100  0.727200  1.0  0.0558
  C  C75  1  0.462400  0.367200  0.740500  1.0  -0.1951
  C  C76  1  0.405200  0.319200  0.678500  1.0  0.1463
  C  C77  1  0.370500  0.474900  0.590000  1.0  0.1498
  C  C78  1  0.426500  0.529500  0.648000  1.0  -0.2179
  C  C79  1  0.715500  0.881900  0.138600  1.0  0.1346
  C  C80  1  0.668100  0.955900  0.205600  1.0  -0.2143
  C  C81  1  0.550100  0.978200  0.221900  1.0  0.0628
  C  C82  1  0.484600  0.922000  0.169100  1.0  -0.2215
  C  C83  1  0.539800  0.849200  0.104100  1.0  0.1396
  C  C84  1  0.491900  0.059000  0.289200  1.0  0.0461
  C  C85  1  0.387500  0.111400  0.274100  1.0  -0.2157
  C  C86  1  0.333700  0.185800  0.336900  1.0  0.1503
  C  C87  1  0.479700  0.161100  0.429800  1.0  0.1453
  C  C88  1  0.538900  0.086300  0.369200  1.0  -0.1789
  C  C89  1  0.919800  0.785600  0.824800  1.0  0.1287
  C  C90  1  0.985200  0.851800  0.762100  1.0  -0.1915
  C  C91  1  0.961200  0.960900  0.764900  1.0  0.0624
  C  C92  1  0.867800  0.998500  0.832200  1.0  -0.2554
  C  C93  1  0.806700  0.926100  0.892000  1.0  0.1351
  C  C94  1  0.034300  0.037100  0.704100  1.0  0.0454
  C  C95  1  0.042700  0.136800  0.736600  1.0  -0.1964
  C  C96  1  0.112500  0.205300  0.681000  1.0  0.1431
  C  C97  1  0.167200  0.085000  0.563500  1.0  0.1521
  C  C98  1  0.098900  0.011200  0.614700  1.0  -0.2154
  C  C99  1  0.802800  0.541000  0.127900  1.0  0.141
  C  C100  1  0.860400  0.494800  0.201400  1.0  -0.2235
  C  C101  1  0.965100  0.528600  0.215300  1.0  0.0352
  C  C102  1  0.008200  0.607200  0.148600  1.0  -0.2236
  C  C103  1  0.945300  0.650300  0.075900  1.0  0.1395
  C  C104  1  0.029200  0.484100  0.296800  1.0  0.0698
  C  C105  1  0.131100  0.521000  0.310200  1.0  -0.2343
  C  C106  1  0.192900  0.472400  0.381700  1.0  0.1446
  C  C107  1  0.056100  0.360800  0.434700  1.0  0.1495
  C  C108  1  0.989600  0.403800  0.363800  1.0  -0.2215
  C  C109  1  0.455300  0.313300  0.119900  1.0  0.1364
  C  C110  1  0.508400  0.362900  0.183400  1.0  -0.2161
  C  C111  1  0.474600  0.468000  0.202700  1.0  0.0518
  C  C112  1  0.386500  0.520200  0.153900  1.0  -0.2149
  C  C113  1  0.336000  0.462800  0.092500  1.0  0.1545
  C  C114  1  0.528100  0.523900  0.272800  1.0  0.0548
  C  C115  1  0.537600  0.632800  0.259500  1.0  -0.194
  C  C116  1  0.594800  0.680800  0.321500  1.0  0.1471
  C  C117  1  0.629500  0.525100  0.410000  1.0  0.15
  C  C118  1  0.573500  0.470500  0.352000  1.0  -0.2174
  C  C119  1  0.284500  0.118100  0.861400  1.0  0.1353
  C  C120  1  0.331900  0.044100  0.794400  1.0  -0.2144
  C  C121  1  0.449900  0.021800  0.778100  1.0  0.0639
  C  C122  1  0.515400  0.078000  0.830900  1.0  -0.2226
  C  C123  1  0.460200  0.150800  0.895900  1.0  0.1405
  C  C124  1  0.508100  0.941000  0.710800  1.0  0.0462
  C  C125  1  0.612500  0.888600  0.725900  1.0  -0.2159
  C  C126  1  0.666300  0.814200  0.663100  1.0  0.1497
  C  C127  1  0.520300  0.838900  0.570200  1.0  0.1454
  C  C128  1  0.461100  0.913700  0.630800  1.0  -0.1797
  C  C129  1  0.080200  0.214400  0.175200  1.0  0.1292
  C  C130  1  0.014800  0.148200  0.237900  1.0  -0.1906
  C  C131  1  0.038800  0.039100  0.235100  1.0  0.063
  C  C132  1  0.132200  0.001500  0.167800  1.0  -0.2536
  C  C133  1  0.193300  0.073900  0.108000  1.0  0.1347
  C  C134  1  0.965700  0.962900  0.295900  1.0  0.0457
  C  C135  1  0.957300  0.863200  0.263400  1.0  -0.1974
  C  C136  1  0.887500  0.794700  0.319000  1.0  0.1421
  C  C137  1  0.832800  0.915000  0.436500  1.0  0.1518
  C  C138  1  0.901100  0.988800  0.385300  1.0  -0.2152
  C  C139  1  0.197200  0.459000  0.872100  1.0  0.1414
  C  C140  1  0.139600  0.505200  0.798600  1.0  -0.2232
  C  C141  1  0.034900  0.471400  0.784700  1.0  0.0359
  C  C142  1  0.991800  0.392800  0.851400  1.0  -0.2237
  C  C143  1  0.054700  0.349700  0.924100  1.0  0.14
  C  C144  1  0.970800  0.515900  0.703200  1.0  0.0699
  C  C145  1  0.868900  0.479000  0.689800  1.0  -0.2339
  C  C146  1  0.807100  0.527600  0.618300  1.0  0.1438
  C  C147  1  0.943900  0.639200  0.565300  1.0  0.149
  C  C148  1  0.010400  0.596200  0.636200  1.0  -0.222
  N  N149  1  0.633000  0.639000  0.924700  1.0  -0.3543
  N  N150  1  0.357900  0.371000  0.603500  1.0  -0.343
  N  N151  1  0.654700  0.828600  0.087300  1.0  -0.3605
  N  N152  1  0.377500  0.211500  0.415400  1.0  -0.3567
  N  N153  1  0.831500  0.820400  0.891100  1.0  -0.3552
  N  N154  1  0.175300  0.180900  0.594700  1.0  -0.3506
  N  N155  1  0.841600  0.620700  0.065400  1.0  -0.3647
  N  N156  1  0.158600  0.391000  0.443400  1.0  -0.3525
  N  N157  1  0.367000  0.361000  0.075300  1.0  -0.3542
  N  N158  1  0.642100  0.629000  0.396500  1.0  -0.3431
  N  N159  1  0.345300  0.171400  0.912700  1.0  -0.3584
  N  N160  1  0.622500  0.788500  0.584600  1.0  -0.3574
  N  N161  1  0.168500  0.179600  0.108900  1.0  -0.3544
  N  N162  1  0.824700  0.819100  0.405300  1.0  -0.3491
  N  N163  1  0.158400  0.379300  0.934600  1.0  -0.3643
  N  N164  1  0.841400  0.609000  0.556600  1.0  -0.3541
