# generated using pymatgen
data_Fe2PC3O10
_symmetry_space_group_name_H-M   'P 1'
_cell_length_a   7.56900000
_cell_length_b   7.82100000
_cell_length_c   18.03300000
_cell_angle_alpha   90.00000000
_cell_angle_beta   98.80000000
_cell_angle_gamma   90.00000000
_symmetry_Int_Tables_number   1
_chemical_formula_structural   Fe2PC3O10
_chemical_formula_sum   'Fe8 P4 C12 O40'
_cell_volume   1054.93595936
_cell_formula_units_Z   4
loop_
 _symmetry_equiv_pos_site_id
 _symmetry_equiv_pos_as_xyz
  1  'x, y, z'
loop_
 _atom_site_type_symbol
 _atom_site_label
 _atom_site_symmetry_multiplicity
 _atom_site_fract_x
 _atom_site_fract_y
 _atom_site_fract_z
 _atom_site_occupancy
 _atom_site_charge
  Fe  Fe1  1  0.365900  0.056500  0.635200  1.0  1.1137
  Fe  Fe2  1  0.712200  0.798000  0.690100  1.0  1.082
  Fe  Fe3  1  0.634100  0.556500  0.864800  1.0  1.1129
  Fe  Fe4  1  0.287800  0.298000  0.809900  1.0  1.084
  Fe  Fe5  1  0.634100  0.943500  0.364800  1.0  1.114
  Fe  Fe6  1  0.287800  0.202000  0.309900  1.0  1.0835
  Fe  Fe7  1  0.365900  0.443500  0.135200  1.0  1.1148
  Fe  Fe8  1  0.712200  0.702000  0.190100  1.0  1.0817
  P  P9  1  0.554000  0.417100  0.690900  1.0  1.7794
  P  P10  1  0.446000  0.917100  0.809100  1.0  1.7816
  P  P11  1  0.446000  0.582900  0.309100  1.0  1.7816
  P  P12  1  0.554000  0.082900  0.190900  1.0  1.7794
  C  C13  1  0.057700  0.852500  0.646900  1.0  0.7238
  C  C14  1  0.024200  0.013200  0.693500  1.0  0.6297
  C  C15  1  0.583800  0.955600  0.522200  1.0  0.6412
  C  C16  1  0.942300  0.352500  0.853100  1.0  0.7254
  C  C17  1  0.975800  0.513200  0.806500  1.0  0.6288
  C  C18  1  0.416200  0.455600  0.977800  1.0  0.6397
  C  C19  1  0.942300  0.147500  0.353100  1.0  0.7234
  C  C20  1  0.975800  0.986800  0.306500  1.0  0.6285
  C  C21  1  0.416200  0.044400  0.477800  1.0  0.6396
  C  C22  1  0.057700  0.647500  0.146900  1.0  0.724
  C  C23  1  0.024200  0.486800  0.193500  1.0  0.6287
  C  C24  1  0.583800  0.544400  0.022200  1.0  0.641
  O  O25  1  0.422000  0.306500  0.639900  1.0  -0.729
  O  O26  1  0.195100  0.848400  0.616900  1.0  -0.5181
  O  O27  1  0.584700  0.946500  0.592600  1.0  -0.5883
  O  O28  1  0.505900  0.933900  0.732200  1.0  -0.8819
  O  O29  1  0.298200  0.097700  0.512400  1.0  -0.5057
  O  O30  1  0.139100  0.129900  0.697400  1.0  -0.5635
  O  O31  1  0.578800  0.588800  0.656000  1.0  -0.692
  O  O32  1  0.943400  0.735800  0.642800  1.0  -0.5083
  O  O33  1  0.881800  0.011900  0.721200  1.0  -0.4927
  O  O34  1  0.745100  0.330700  0.700300  1.0  -0.4929
  O  O35  1  0.578000  0.806500  0.860100  1.0  -0.7295
  O  O36  1  0.804900  0.348400  0.883100  1.0  -0.5177
  O  O37  1  0.415300  0.446500  0.907400  1.0  -0.5876
  O  O38  1  0.494100  0.433900  0.767800  1.0  -0.8823
  O  O39  1  0.701800  0.597700  0.987600  1.0  -0.5047
  O  O40  1  0.860900  0.629900  0.802600  1.0  -0.565
  O  O41  1  0.421200  0.088800  0.844000  1.0  -0.6921
  O  O42  1  0.056600  0.235800  0.857200  1.0  -0.5076
  O  O43  1  0.118200  0.511900  0.778800  1.0  -0.4928
  O  O44  1  0.254900  0.830700  0.799700  1.0  -0.4909
  O  O45  1  0.578000  0.693500  0.360100  1.0  -0.7287
  O  O46  1  0.804900  0.151600  0.383100  1.0  -0.518
  O  O47  1  0.415300  0.053500  0.407400  1.0  -0.5877
  O  O48  1  0.494100  0.066100  0.267800  1.0  -0.8822
  O  O49  1  0.701800  0.902300  0.487600  1.0  -0.5044
  O  O50  1  0.860900  0.870100  0.302600  1.0  -0.5636
  O  O51  1  0.421200  0.411200  0.344000  1.0  -0.6921
  O  O52  1  0.056600  0.264200  0.357200  1.0  -0.5062
  O  O53  1  0.118200  0.988100  0.278800  1.0  -0.493
  O  O54  1  0.254900  0.669300  0.299700  1.0  -0.4918
  O  O55  1  0.422000  0.193500  0.139900  1.0  -0.7281
  O  O56  1  0.195100  0.651600  0.116900  1.0  -0.5187
  O  O57  1  0.584700  0.553500  0.092600  1.0  -0.5885
  O  O58  1  0.505900  0.566100  0.232200  1.0  -0.8819
  O  O59  1  0.298200  0.402300  0.012400  1.0  -0.5052
  O  O60  1  0.139100  0.370100  0.197400  1.0  -0.5653
  O  O61  1  0.578800  0.911200  0.156000  1.0  -0.6919
  O  O62  1  0.943400  0.764200  0.142800  1.0  -0.5074
  O  O63  1  0.881800  0.488100  0.221200  1.0  -0.493
  O  O64  1  0.745100  0.169300  0.200300  1.0  -0.492
