# generated using pymatgen
data_Ga4(PO4)5
_symmetry_space_group_name_H-M   'P 1'
_cell_length_a   5.04000000
_cell_length_b   22.73800000
_cell_length_c   9.29680000
_cell_angle_alpha   90.00000000
_cell_angle_beta   103.80000000
_cell_angle_gamma   90.00000000
_symmetry_Int_Tables_number   1
_chemical_formula_structural   Ga4(PO4)5
_chemical_formula_sum   'Ga8 P10 O40'
_cell_volume   1034.65502483
_cell_formula_units_Z   2
loop_
 _symmetry_equiv_pos_site_id
 _symmetry_equiv_pos_as_xyz
  1  'x, y, z'
loop_
 _atom_site_type_symbol
 _atom_site_label
 _atom_site_symmetry_multiplicity
 _atom_site_fract_x
 _atom_site_fract_y
 _atom_site_fract_z
 _atom_site_occupancy
 _atom_site_charge
  Ga  Ga1  1  0.819500  0.211190  0.745830  1.0  1.7506
  Ga  Ga2  1  0.179600  0.063070  0.601660  1.0  1.669
  Ga  Ga3  1  0.931900  0.927140  0.016980  1.0  1.7542
  Ga  Ga4  1  0.571300  0.077370  0.151270  1.0  1.7343
  Ga  Ga5  1  0.180500  0.711190  0.254170  1.0  1.744
  Ga  Ga6  1  0.820400  0.563070  0.398340  1.0  1.6673
  Ga  Ga7  1  0.068100  0.427140  0.983020  1.0  1.7548
  Ga  Ga8  1  0.428700  0.577370  0.848730  1.0  1.7345
  P  P9  1  0.350000  0.155000  0.877700  1.0  1.6496
  P  P10  1  0.116100  0.016900  0.269100  1.0  1.8916
  P  P11  1  0.405200  0.982780  0.877000  1.0  1.8877
  P  P12  1  0.317000  0.830470  0.136200  1.0  1.6435
  P  P13  1  0.631400  0.127650  0.484100  1.0  1.8422
  P  P14  1  0.650000  0.655000  0.122300  1.0  1.6495
  P  P15  1  0.883900  0.516900  0.730900  1.0  1.8905
  P  P16  1  0.594800  0.482780  0.123000  1.0  1.8902
  P  P17  1  0.683000  0.330470  0.863800  1.0  1.6437
  P  P18  1  0.368600  0.627650  0.515900  1.0  1.842
  O  O19  1  0.764900  0.186600  0.556100  1.0  -0.7872
  O  O20  1  0.282100  0.789000  0.259900  1.0  -0.7789
  O  O21  1  0.179600  0.214000  0.851500  1.0  -0.7847
  O  O22  1  0.634600  0.167400  0.853700  1.0  -0.9271
  O  O23  1  0.189200  0.110500  0.778000  1.0  -0.8197
  O  O24  1  0.801700  0.075100  0.548100  1.0  -0.7875
  O  O25  1  0.351900  0.000900  0.713400  1.0  -0.8363
  O  O26  1  0.138200  0.009800  0.434600  1.0  -0.7777
  O  O27  1  0.346000  0.123100  0.514700  1.0  -0.792
  O  O28  1  0.034600  0.850600  0.043900  1.0  -0.8006
  O  O29  1  0.588600  0.928200  0.897200  1.0  -0.8159
  O  O30  1  0.129200  0.967900  0.907300  1.0  -0.907
  O  O31  1  0.973000  0.961700  0.198100  1.0  -0.8415
  O  O32  1  0.386100  0.141500  0.042800  1.0  -0.7802
  O  O33  1  0.552800  0.032100  0.976200  1.0  -0.8621
  O  O34  1  0.609500  0.136700  0.319800  1.0  -0.7302
  O  O35  1  0.403300  0.023000  0.243500  1.0  -0.8822
  O  O36  1  0.952700  0.072700  0.204600  1.0  -0.7993
  O  O37  1  0.425100  0.792800  0.019200  1.0  -0.5107
  O  O38  1  0.504300  0.880200  0.197200  1.0  -0.5976
  O  O39  1  0.235100  0.686600  0.443900  1.0  -0.7863
  O  O40  1  0.717900  0.289000  0.740100  1.0  -0.7787
  O  O41  1  0.820400  0.714000  0.148500  1.0  -0.7858
  O  O42  1  0.365400  0.667400  0.146300  1.0  -0.9281
  O  O43  1  0.810800  0.610500  0.222000  1.0  -0.8206
  O  O44  1  0.198300  0.575100  0.451900  1.0  -0.7872
  O  O45  1  0.648100  0.500900  0.286600  1.0  -0.8368
  O  O46  1  0.861800  0.509800  0.565400  1.0  -0.7783
  O  O47  1  0.654000  0.623100  0.485300  1.0  -0.7916
  O  O48  1  0.965400  0.350600  0.956100  1.0  -0.7988
  O  O49  1  0.411400  0.428200  0.102800  1.0  -0.8139
  O  O50  1  0.870800  0.467900  0.092700  1.0  -0.9083
  O  O51  1  0.027000  0.461700  0.801900  1.0  -0.8417
  O  O52  1  0.613900  0.641500  0.957200  1.0  -0.7809
  O  O53  1  0.447200  0.532100  0.023800  1.0  -0.8615
  O  O54  1  0.390500  0.636700  0.680200  1.0  -0.7304
  O  O55  1  0.596700  0.523000  0.756500  1.0  -0.8829
  O  O56  1  0.047300  0.572700  0.795400  1.0  -0.7986
  O  O57  1  0.574900  0.292800  0.980800  1.0  -0.5109
  O  O58  1  0.495700  0.380200  0.802800  1.0  -0.5993
