# generated using pymatgen
data_MnH15C23O8
_symmetry_space_group_name_H-M   'P 1'
_cell_length_a   15.33800000
_cell_length_b   22.10000000
_cell_length_c   16.42500000
_cell_angle_alpha   90.00000000
_cell_angle_beta   102.64000000
_cell_angle_gamma   90.00000000
_symmetry_Int_Tables_number   1
_chemical_formula_structural   MnH15C23O8
_chemical_formula_sum   'Mn8 H120 C184 O64'
_cell_volume   5432.64440962
_cell_formula_units_Z   8
loop_
 _symmetry_equiv_pos_site_id
 _symmetry_equiv_pos_as_xyz
  1  'x, y, z'
loop_
 _atom_site_type_symbol
 _atom_site_label
 _atom_site_symmetry_multiplicity
 _atom_site_fract_x
 _atom_site_fract_y
 _atom_site_fract_z
 _atom_site_occupancy
 _atom_site_charge
  Mn  Mn1  1  0.454570  0.491780  0.635910  1.0  1.1336
  Mn  Mn2  1  0.954570  0.991780  0.635910  1.0  1.1336
  Mn  Mn3  1  0.545430  0.491780  0.864090  1.0  1.1343
  Mn  Mn4  1  0.045430  0.991780  0.864090  1.0  1.1343
  Mn  Mn5  1  0.545430  0.508220  0.364090  1.0  1.1346
  Mn  Mn6  1  0.045430  0.008220  0.364090  1.0  1.1346
  Mn  Mn7  1  0.454570  0.508220  0.135910  1.0  1.1337
  Mn  Mn8  1  0.954570  0.008220  0.135910  1.0  1.1337
  H  H9  1  0.130700  0.615200  0.634500  1.0  0.1097
  H  H10  1  0.072500  0.687900  0.707000  1.0  0.1222
  H  H11  1  0.307800  0.699100  0.870700  1.0  0.1033
  H  H12  1  0.367000  0.627100  0.794800  1.0  0.1033
  H  H13  1  0.725300  0.704700  0.065900  1.0  0.1079
  H  H14  1  0.624500  0.636800  0.100500  1.0  0.101
  H  H15  1  0.777300  0.623400  0.329700  1.0  0.1109
  H  H16  1  0.879400  0.689500  0.293700  1.0  0.1113
  H  H17  1  0.008700  0.679100  0.996700  1.0  0.1184
  H  H18  1  0.959100  0.835300  0.104200  1.0  0.1191
  H  H19  1  0.101300  0.836300  0.924400  1.0  0.1219
  H  H20  1  0.195200  0.771300  0.880100  1.0  0.0913
  H  H21  1  0.108700  0.775500  0.808100  1.0  0.1013
  H  H22  1  0.844000  0.782400  0.120700  1.0  0.09
  H  H23  1  0.916300  0.765000  0.201100  1.0  0.0945
  H  H24  1  0.630700  0.115200  0.634500  1.0  0.1097
  H  H25  1  0.572500  0.187900  0.707000  1.0  0.1222
  H  H26  1  0.807800  0.199100  0.870700  1.0  0.1033
  H  H27  1  0.867000  0.127100  0.794800  1.0  0.1033
  H  H28  1  0.225300  0.204700  0.065900  1.0  0.1079
  H  H29  1  0.124500  0.136800  0.100500  1.0  0.101
  H  H30  1  0.277300  0.123400  0.329700  1.0  0.1109
  H  H31  1  0.379400  0.189500  0.293700  1.0  0.1113
  H  H32  1  0.508700  0.179100  0.996700  1.0  0.1184
  H  H33  1  0.459100  0.335300  0.104200  1.0  0.1191
  H  H34  1  0.601300  0.336300  0.924400  1.0  0.1219
  H  H35  1  0.695200  0.271300  0.880100  1.0  0.0913
  H  H36  1  0.608700  0.275500  0.808100  1.0  0.1013
  H  H37  1  0.344000  0.282400  0.120700  1.0  0.09
  H  H38  1  0.416300  0.265000  0.201100  1.0  0.0945
  H  H39  1  0.869300  0.615200  0.865500  1.0  0.1104
  H  H40  1  0.927500  0.687900  0.793000  1.0  0.1208
  H  H41  1  0.692200  0.699100  0.629300  1.0  0.1023
  H  H42  1  0.633000  0.627100  0.705200  1.0  0.1023
  H  H43  1  0.274700  0.704700  0.434100  1.0  0.1073
  H  H44  1  0.375500  0.636800  0.399500  1.0  0.1004
  H  H45  1  0.222700  0.623400  0.170300  1.0  0.1118
  H  H46  1  0.120600  0.689500  0.206300  1.0  0.1121
  H  H47  1  0.991300  0.679100  0.503300  1.0  0.1185
  H  H48  1  0.040900  0.835300  0.395800  1.0  0.1197
  H  H49  1  0.898700  0.836300  0.575600  1.0  0.1222
  H  H50  1  0.804800  0.771300  0.619900  1.0  0.0907
  H  H51  1  0.891300  0.775500  0.691900  1.0  0.1003
  H  H52  1  0.156000  0.782400  0.379300  1.0  0.0906
  H  H53  1  0.083700  0.765000  0.298900  1.0  0.0935
  H  H54  1  0.369300  0.115200  0.865500  1.0  0.1104
  H  H55  1  0.427500  0.187900  0.793000  1.0  0.1208
  H  H56  1  0.192200  0.199100  0.629300  1.0  0.1023
  H  H57  1  0.133000  0.127100  0.705200  1.0  0.1023
  H  H58  1  0.774700  0.204700  0.434100  1.0  0.1073
  H  H59  1  0.875500  0.136800  0.399500  1.0  0.1004
  H  H60  1  0.722700  0.123400  0.170300  1.0  0.1118
  H  H61  1  0.620600  0.189500  0.206300  1.0  0.1121
  H  H62  1  0.491300  0.179100  0.503300  1.0  0.1185
  H  H63  1  0.540900  0.335300  0.395800  1.0  0.1197
  H  H64  1  0.398700  0.336300  0.575600  1.0  0.1222
  H  H65  1  0.304800  0.271300  0.619900  1.0  0.0907
  H  H66  1  0.391300  0.275500  0.691900  1.0  0.1003
  H  H67  1  0.656000  0.282400  0.379300  1.0  0.0906
  H  H68  1  0.583700  0.265000  0.298900  1.0  0.0935
  H  H69  1  0.869300  0.384800  0.365500  1.0  0.1103
  H  H70  1  0.927500  0.312100  0.293000  1.0  0.121
  H  H71  1  0.692200  0.300900  0.129300  1.0  0.1026
  H  H72  1  0.633000  0.372900  0.205200  1.0  0.1028
  H  H73  1  0.274700  0.295300  0.934100  1.0  0.1071
  H  H74  1  0.375500  0.363200  0.899500  1.0  0.1007
  H  H75  1  0.222700  0.376600  0.670300  1.0  0.1115
  H  H76  1  0.120600  0.310500  0.706300  1.0  0.1105
  H  H77  1  0.991300  0.320900  0.003300  1.0  0.1181
  H  H78  1  0.040900  0.164700  0.895800  1.0  0.1195
  H  H79  1  0.898700  0.163700  0.075600  1.0  0.1227
  H  H80  1  0.804800  0.228700  0.119900  1.0  0.0903
  H  H81  1  0.891300  0.224500  0.191900  1.0  0.1002
  H  H82  1  0.156000  0.217600  0.879300  1.0  0.0909
  H  H83  1  0.083700  0.235000  0.798900  1.0  0.0937
  H  H84  1  0.369300  0.884800  0.365500  1.0  0.1103
  H  H85  1  0.427500  0.812100  0.293000  1.0  0.121
  H  H86  1  0.192200  0.800900  0.129300  1.0  0.1026
  H  H87  1  0.133000  0.872900  0.205200  1.0  0.1028
  H  H88  1  0.774700  0.795300  0.934100  1.0  0.1071
  H  H89  1  0.875500  0.863200  0.899500  1.0  0.1007
  H  H90  1  0.722700  0.876600  0.670300  1.0  0.1115
  H  H91  1  0.620600  0.810500  0.706300  1.0  0.1105
  H  H92  1  0.491300  0.820900  0.003300  1.0  0.1181
  H  H93  1  0.540900  0.664700  0.895800  1.0  0.1195
  H  H94  1  0.398700  0.663700  0.075600  1.0  0.1227
  H  H95  1  0.304800  0.728700  0.119900  1.0  0.0903
  H  H96  1  0.391300  0.724500  0.191900  1.0  0.1002
  H  H97  1  0.656000  0.717600  0.879300  1.0  0.0909
  H  H98  1  0.583700  0.735000  0.798900  1.0  0.0937
  H  H99  1  0.130700  0.384800  0.134500  1.0  0.1111
  H  H100  1  0.072500  0.312100  0.207000  1.0  0.121
  H  H101  1  0.307800  0.300900  0.370700  1.0  0.1032
  H  H102  1  0.367000  0.372900  0.294800  1.0  0.1032
  H  H103  1  0.725300  0.295300  0.565900  1.0  0.1081
  H  H104  1  0.624500  0.363200  0.600500  1.0  0.1016
  H  H105  1  0.777300  0.376600  0.829700  1.0  0.1114
  H  H106  1  0.879400  0.310500  0.793700  1.0  0.1112
  H  H107  1  0.008700  0.320900  0.496700  1.0  0.1182
  H  H108  1  0.959100  0.164700  0.604200  1.0  0.1196
  H  H109  1  0.101300  0.163700  0.424400  1.0  0.1221
  H  H110  1  0.195200  0.228700  0.380100  1.0  0.0917
  H  H111  1  0.108700  0.224500  0.308100  1.0  0.1009
  H  H112  1  0.844000  0.217600  0.620700  1.0  0.0891
  H  H113  1  0.916300  0.235000  0.701100  1.0  0.0946
  H  H114  1  0.630700  0.884800  0.134500  1.0  0.1111
  H  H115  1  0.572500  0.812100  0.207000  1.0  0.121
  H  H116  1  0.807800  0.800900  0.370700  1.0  0.1032
  H  H117  1  0.867000  0.872900  0.294800  1.0  0.1032
  H  H118  1  0.225300  0.795300  0.565900  1.0  0.1081
  H  H119  1  0.124500  0.863200  0.600500  1.0  0.1016
  H  H120  1  0.277300  0.876600  0.829700  1.0  0.1114
  H  H121  1  0.379400  0.810500  0.793700  1.0  0.1112
  H  H122  1  0.508700  0.820900  0.496700  1.0  0.1182
  H  H123  1  0.459100  0.664700  0.604200  1.0  0.1196
  H  H124  1  0.601300  0.663700  0.424400  1.0  0.1221
  H  H125  1  0.695200  0.728700  0.380100  1.0  0.0917
  H  H126  1  0.608700  0.724500  0.308100  1.0  0.1009
  H  H127  1  0.344000  0.717600  0.620700  1.0  0.0891
  H  H128  1  0.416300  0.735000  0.701100  1.0  0.0946
  C  C129  1  0.166800  0.632400  0.681600  1.0  -0.0126
  C  C130  1  0.131500  0.675500  0.725200  1.0  -0.1066
  C  C131  1  0.184800  0.700530  0.797250  1.0  0.0355
  C  C132  1  0.272200  0.682460  0.822800  1.0  -0.067
  C  C133  1  0.307700  0.639160  0.777300  1.0  -0.028
  C  C134  1  0.254600  0.614200  0.706000  1.0  -0.1603
  C  C135  1  0.736400  0.688130  0.119200  1.0  -0.0683
  C  C136  1  0.675500  0.647500  0.139900  1.0  -0.0308
  C  C137  1  0.690910  0.623160  0.219090  1.0  -0.1255
  C  C138  1  0.766700  0.639360  0.276080  1.0  -0.0397
  C  C139  1  0.827800  0.679360  0.254700  1.0  -0.0789
  C  C140  1  0.812300  0.704180  0.175700  1.0  0.0569
  C  C141  1  0.013900  0.720920  0.001000  1.0  -0.1816
  C  C142  1  0.974600  0.752310  0.057110  1.0  0.2548
  C  C143  1  0.984150  0.814540  0.065720  1.0  -0.1865
  C  C144  1  0.031730  0.845330  0.015910  1.0  -0.1033
  C  C145  1  0.070170  0.815080  0.957960  1.0  -0.1941
  C  C146  1  0.061000  0.752600  0.951460  1.0  0.275
  C  C147  1  0.291300  0.566500  0.656200  1.0  0.6646
  C  C148  1  0.624200  0.579620  0.242000  1.0  0.7076
  C  C149  1  0.039760  0.912960  0.024800  1.0  0.6922
  C  C150  1  0.147100  0.748030  0.846000  1.0  0.0889
  C  C151  1  0.876500  0.748960  0.151600  1.0  0.0768
  C  C152  1  0.666800  0.132400  0.681600  1.0  -0.0126
  C  C153  1  0.631500  0.175500  0.725200  1.0  -0.1066
  C  C154  1  0.684800  0.200530  0.797250  1.0  0.0355
  C  C155  1  0.772200  0.182460  0.822800  1.0  -0.067
  C  C156  1  0.807700  0.139160  0.777300  1.0  -0.028
  C  C157  1  0.754600  0.114200  0.706000  1.0  -0.1603
  C  C158  1  0.236400  0.188130  0.119200  1.0  -0.0683
  C  C159  1  0.175500  0.147500  0.139900  1.0  -0.0308
  C  C160  1  0.190910  0.123160  0.219090  1.0  -0.1255
  C  C161  1  0.266700  0.139360  0.276080  1.0  -0.0397
  C  C162  1  0.327800  0.179360  0.254700  1.0  -0.0789
  C  C163  1  0.312300  0.204180  0.175700  1.0  0.0569
  C  C164  1  0.513900  0.220920  0.001000  1.0  -0.1816
  C  C165  1  0.474600  0.252310  0.057110  1.0  0.2548
  C  C166  1  0.484150  0.314540  0.065720  1.0  -0.1865
  C  C167  1  0.531730  0.345330  0.015910  1.0  -0.1033
  C  C168  1  0.570170  0.315080  0.957960  1.0  -0.1941
  C  C169  1  0.561000  0.252600  0.951460  1.0  0.275
  C  C170  1  0.791300  0.066500  0.656200  1.0  0.6646
  C  C171  1  0.124200  0.079620  0.242000  1.0  0.7076
  C  C172  1  0.539760  0.412960  0.024800  1.0  0.6922
  C  C173  1  0.647100  0.248030  0.846000  1.0  0.0889
  C  C174  1  0.376500  0.248960  0.151600  1.0  0.0768
  C  C175  1  0.833200  0.632400  0.818400  1.0  -0.0118
  C  C176  1  0.868500  0.675500  0.774800  1.0  -0.1059
  C  C177  1  0.815200  0.700530  0.702750  1.0  0.0335
  C  C178  1  0.727800  0.682460  0.677200  1.0  -0.0666
  C  C179  1  0.692300  0.639160  0.722700  1.0  -0.0263
  C  C180  1  0.745400  0.614200  0.794000  1.0  -0.16
  C  C181  1  0.263600  0.688130  0.380800  1.0  -0.0689
  C  C182  1  0.324500  0.647500  0.360100  1.0  -0.0317
  C  C183  1  0.309090  0.623160  0.280910  1.0  -0.1269
  C  C184  1  0.233300  0.639360  0.223920  1.0  -0.0394
  C  C185  1  0.172200  0.679360  0.245300  1.0  -0.0807
  C  C186  1  0.187700  0.704180  0.324300  1.0  0.0572
  C  C187  1  0.986100  0.720920  0.499000  1.0  -0.182
  C  C188  1  0.025400  0.752310  0.442890  1.0  0.2544
  C  C189  1  0.015850  0.814540  0.434280  1.0  -0.1854
  C  C190  1  0.968270  0.845330  0.484090  1.0  -0.1049
  C  C191  1  0.929830  0.815080  0.542040  1.0  -0.1953
  C  C192  1  0.939000  0.752600  0.548540  1.0  0.2748
  C  C193  1  0.708700  0.566500  0.843800  1.0  0.6658
  C  C194  1  0.375800  0.579620  0.258000  1.0  0.7066
  C  C195  1  0.960240  0.912960  0.475200  1.0  0.6928
  C  C196  1  0.852900  0.748030  0.654000  1.0  0.0878
  C  C197  1  0.123500  0.748960  0.348400  1.0  0.0768
  C  C198  1  0.333200  0.132400  0.818400  1.0  -0.0118
  C  C199  1  0.368500  0.175500  0.774800  1.0  -0.1059
  C  C200  1  0.315200  0.200530  0.702750  1.0  0.0335
  C  C201  1  0.227800  0.182460  0.677200  1.0  -0.0666
  C  C202  1  0.192300  0.139160  0.722700  1.0  -0.0263
  C  C203  1  0.245400  0.114200  0.794000  1.0  -0.16
  C  C204  1  0.763600  0.188130  0.380800  1.0  -0.0689
  C  C205  1  0.824500  0.147500  0.360100  1.0  -0.0317
  C  C206  1  0.809090  0.123160  0.280910  1.0  -0.1269
  C  C207  1  0.733300  0.139360  0.223920  1.0  -0.0394
  C  C208  1  0.672200  0.179360  0.245300  1.0  -0.0807
  C  C209  1  0.687700  0.204180  0.324300  1.0  0.0572
  C  C210  1  0.486100  0.220920  0.499000  1.0  -0.182
  C  C211  1  0.525400  0.252310  0.442890  1.0  0.2544
  C  C212  1  0.515850  0.314540  0.434280  1.0  -0.1854
  C  C213  1  0.468270  0.345330  0.484090  1.0  -0.1049
  C  C214  1  0.429830  0.315080  0.542040  1.0  -0.1953
  C  C215  1  0.439000  0.252600  0.548540  1.0  0.2748
  C  C216  1  0.208700  0.066500  0.843800  1.0  0.6658
  C  C217  1  0.875800  0.079620  0.258000  1.0  0.7066
  C  C218  1  0.460240  0.412960  0.475200  1.0  0.6928
  C  C219  1  0.352900  0.248030  0.654000  1.0  0.0878
  C  C220  1  0.623500  0.248960  0.348400  1.0  0.0768
  C  C221  1  0.833200  0.367600  0.318400  1.0  -0.0108
  C  C222  1  0.868500  0.324500  0.274800  1.0  -0.108
  C  C223  1  0.815200  0.299470  0.202750  1.0  0.033
  C  C224  1  0.727800  0.317540  0.177200  1.0  -0.066
  C  C225  1  0.692300  0.360840  0.222700  1.0  -0.0256
  C  C226  1  0.745400  0.385800  0.294000  1.0  -0.1595
  C  C227  1  0.263600  0.311870  0.880800  1.0  -0.0683
  C  C228  1  0.324500  0.352500  0.860100  1.0  -0.0324
  C  C229  1  0.309090  0.376840  0.780910  1.0  -0.1252
  C  C230  1  0.233300  0.360640  0.723920  1.0  -0.0387
  C  C231  1  0.172200  0.320640  0.745300  1.0  -0.0782
  C  C232  1  0.187700  0.295820  0.824300  1.0  0.0567
  C  C233  1  0.986100  0.279080  0.999000  1.0  -0.1814
  C  C234  1  0.025400  0.247690  0.942890  1.0  0.254
  C  C235  1  0.015850  0.185460  0.934280  1.0  -0.185
  C  C236  1  0.968270  0.154670  0.984090  1.0  -0.1049
  C  C237  1  0.929830  0.184920  0.042040  1.0  -0.1952
  C  C238  1  0.939000  0.247400  0.048540  1.0  0.2751
  C  C239  1  0.708700  0.433500  0.343800  1.0  0.6655
  C  C240  1  0.375800  0.420380  0.758000  1.0  0.7069
  C  C241  1  0.960240  0.087040  0.975200  1.0  0.6917
  C  C242  1  0.852900  0.251970  0.154000  1.0  0.0853
  C  C243  1  0.123500  0.251040  0.848400  1.0  0.0753
  C  C244  1  0.333200  0.867600  0.318400  1.0  -0.0108
  C  C245  1  0.368500  0.824500  0.274800  1.0  -0.108
  C  C246  1  0.315200  0.799470  0.202750  1.0  0.033
  C  C247  1  0.227800  0.817540  0.177200  1.0  -0.066
  C  C248  1  0.192300  0.860840  0.222700  1.0  -0.0256
  C  C249  1  0.245400  0.885800  0.294000  1.0  -0.1595
  C  C250  1  0.763600  0.811870  0.880800  1.0  -0.0683
  C  C251  1  0.824500  0.852500  0.860100  1.0  -0.0324
  C  C252  1  0.809090  0.876840  0.780910  1.0  -0.1252
  C  C253  1  0.733300  0.860640  0.723920  1.0  -0.0387
  C  C254  1  0.672200  0.820640  0.745300  1.0  -0.0782
  C  C255  1  0.687700  0.795820  0.824300  1.0  0.0567
  C  C256  1  0.486100  0.779080  0.999000  1.0  -0.1814
  C  C257  1  0.525400  0.747690  0.942890  1.0  0.254
  C  C258  1  0.515850  0.685460  0.934280  1.0  -0.185
  C  C259  1  0.468270  0.654670  0.984090  1.0  -0.1049
  C  C260  1  0.429830  0.684920  0.042040  1.0  -0.1952
  C  C261  1  0.439000  0.747400  0.048540  1.0  0.2751
  C  C262  1  0.208700  0.933500  0.343800  1.0  0.6655
  C  C263  1  0.875800  0.920380  0.758000  1.0  0.7069
  C  C264  1  0.460240  0.587040  0.975200  1.0  0.6917
  C  C265  1  0.352900  0.751970  0.154000  1.0  0.0853
  C  C266  1  0.623500  0.751040  0.848400  1.0  0.0753
  C  C267  1  0.166800  0.367600  0.181600  1.0  -0.0119
  C  C268  1  0.131500  0.324500  0.225200  1.0  -0.1085
  C  C269  1  0.184800  0.299470  0.297250  1.0  0.0343
  C  C270  1  0.272200  0.317540  0.322800  1.0  -0.0666
  C  C271  1  0.307700  0.360840  0.277300  1.0  -0.0275
  C  C272  1  0.254600  0.385800  0.206000  1.0  -0.1594
  C  C273  1  0.736400  0.311870  0.619200  1.0  -0.0678
  C  C274  1  0.675500  0.352500  0.639900  1.0  -0.0303
  C  C275  1  0.690910  0.376840  0.719090  1.0  -0.1243
  C  C276  1  0.766700  0.360640  0.776080  1.0  -0.0403
  C  C277  1  0.827800  0.320640  0.754700  1.0  -0.0773
  C  C278  1  0.812300  0.295820  0.675700  1.0  0.0567
  C  C279  1  0.013900  0.279080  0.501000  1.0  -0.1816
  C  C280  1  0.974600  0.247690  0.557110  1.0  0.2543
  C  C281  1  0.984150  0.185460  0.565720  1.0  -0.186
  C  C282  1  0.031730  0.154670  0.515910  1.0  -0.1034
  C  C283  1  0.070170  0.184920  0.457960  1.0  -0.1941
  C  C284  1  0.061000  0.247400  0.451460  1.0  0.2753
  C  C285  1  0.291300  0.433500  0.156200  1.0  0.6683
  C  C286  1  0.624200  0.420380  0.742000  1.0  0.7073
  C  C287  1  0.039760  0.087040  0.524800  1.0  0.6922
  C  C288  1  0.147100  0.251970  0.346000  1.0  0.0857
  C  C289  1  0.876500  0.251040  0.651600  1.0  0.0757
  C  C290  1  0.666800  0.867600  0.181600  1.0  -0.0119
  C  C291  1  0.631500  0.824500  0.225200  1.0  -0.1085
  C  C292  1  0.684800  0.799470  0.297250  1.0  0.0343
  C  C293  1  0.772200  0.817540  0.322800  1.0  -0.0666
  C  C294  1  0.807700  0.860840  0.277300  1.0  -0.0275
  C  C295  1  0.754600  0.885800  0.206000  1.0  -0.1594
  C  C296  1  0.236400  0.811870  0.619200  1.0  -0.0678
  C  C297  1  0.175500  0.852500  0.639900  1.0  -0.0303
  C  C298  1  0.190910  0.876840  0.719090  1.0  -0.1243
  C  C299  1  0.266700  0.860640  0.776080  1.0  -0.0403
  C  C300  1  0.327800  0.820640  0.754700  1.0  -0.0773
  C  C301  1  0.312300  0.795820  0.675700  1.0  0.0567
  C  C302  1  0.513900  0.779080  0.501000  1.0  -0.1816
  C  C303  1  0.474600  0.747690  0.557110  1.0  0.2543
  C  C304  1  0.484150  0.685460  0.565720  1.0  -0.186
  C  C305  1  0.531730  0.654670  0.515910  1.0  -0.1034
  C  C306  1  0.570170  0.684920  0.457960  1.0  -0.1941
  C  C307  1  0.561000  0.747400  0.451460  1.0  0.2753
  C  C308  1  0.791300  0.933500  0.156200  1.0  0.6683
  C  C309  1  0.124200  0.920380  0.742000  1.0  0.7073
  C  C310  1  0.539760  0.587040  0.524800  1.0  0.6922
  C  C311  1  0.647100  0.751970  0.346000  1.0  0.0857
  C  C312  1  0.376500  0.751040  0.651600  1.0  0.0757
  O  O313  1  0.370500  0.558130  0.670000  1.0  -0.6075
  O  O314  1  0.233500  0.538700  0.602300  1.0  -0.5398
  O  O315  1  0.624270  0.574870  0.318380  1.0  -0.5932
  O  O316  1  0.575840  0.551110  0.184230  1.0  -0.638
  O  O317  1  0.009710  0.936540  0.080830  1.0  -0.6552
  O  O318  1  0.079650  0.940960  0.976540  1.0  -0.6386
  O  O319  1  0.096800  0.717390  0.897860  1.0  -0.2694
  O  O320  1  0.926750  0.717200  0.100700  1.0  -0.2641
  O  O321  1  0.870500  0.058130  0.670000  1.0  -0.6075
  O  O322  1  0.733500  0.038700  0.602300  1.0  -0.5398
  O  O323  1  0.124270  0.074870  0.318380  1.0  -0.5932
  O  O324  1  0.075840  0.051110  0.184230  1.0  -0.638
  O  O325  1  0.509710  0.436540  0.080830  1.0  -0.6552
  O  O326  1  0.579650  0.440960  0.976540  1.0  -0.6386
  O  O327  1  0.596800  0.217390  0.897860  1.0  -0.2694
  O  O328  1  0.426750  0.217200  0.100700  1.0  -0.2641
  O  O329  1  0.629500  0.558130  0.830000  1.0  -0.6059
  O  O330  1  0.766500  0.538700  0.897700  1.0  -0.5411
  O  O331  1  0.375730  0.574870  0.181620  1.0  -0.596
  O  O332  1  0.424160  0.551110  0.315770  1.0  -0.6384
  O  O333  1  0.990290  0.936540  0.419170  1.0  -0.6554
  O  O334  1  0.920350  0.940960  0.523460  1.0  -0.6396
  O  O335  1  0.903200  0.717390  0.602140  1.0  -0.269
  O  O336  1  0.073250  0.717200  0.399300  1.0  -0.2631
  O  O337  1  0.129500  0.058130  0.830000  1.0  -0.6059
  O  O338  1  0.266500  0.038700  0.897700  1.0  -0.5411
  O  O339  1  0.875730  0.074870  0.181620  1.0  -0.596
  O  O340  1  0.924160  0.051110  0.315770  1.0  -0.6384
  O  O341  1  0.490290  0.436540  0.419170  1.0  -0.6554
  O  O342  1  0.420350  0.440960  0.523460  1.0  -0.6396
  O  O343  1  0.403200  0.217390  0.602140  1.0  -0.269
  O  O344  1  0.573250  0.217200  0.399300  1.0  -0.2631
  O  O345  1  0.629500  0.441870  0.330000  1.0  -0.6056
  O  O346  1  0.766500  0.461300  0.397700  1.0  -0.5407
  O  O347  1  0.375730  0.425130  0.681620  1.0  -0.5953
  O  O348  1  0.424160  0.448890  0.815770  1.0  -0.6363
  O  O349  1  0.990290  0.063460  0.919170  1.0  -0.6552
  O  O350  1  0.920350  0.059040  0.023460  1.0  -0.6383
  O  O351  1  0.903200  0.282610  0.102140  1.0  -0.2718
  O  O352  1  0.073250  0.282800  0.899300  1.0  -0.2624
  O  O353  1  0.129500  0.941870  0.330000  1.0  -0.6056
  O  O354  1  0.266500  0.961300  0.397700  1.0  -0.5407
  O  O355  1  0.875730  0.925130  0.681620  1.0  -0.5953
  O  O356  1  0.924160  0.948890  0.815770  1.0  -0.6363
  O  O357  1  0.490290  0.563460  0.919170  1.0  -0.6552
  O  O358  1  0.420350  0.559040  0.023460  1.0  -0.6383
  O  O359  1  0.403200  0.782610  0.102140  1.0  -0.2718
  O  O360  1  0.573250  0.782800  0.899300  1.0  -0.2624
  O  O361  1  0.370500  0.441870  0.170000  1.0  -0.607
  O  O362  1  0.233500  0.461300  0.102300  1.0  -0.5389
  O  O363  1  0.624270  0.425130  0.818380  1.0  -0.5933
  O  O364  1  0.575840  0.448890  0.684230  1.0  -0.6355
  O  O365  1  0.009710  0.063460  0.580830  1.0  -0.6545
  O  O366  1  0.079650  0.059040  0.476540  1.0  -0.6383
  O  O367  1  0.096800  0.282610  0.397860  1.0  -0.2712
  O  O368  1  0.926750  0.282800  0.600700  1.0  -0.2647
  O  O369  1  0.870500  0.941870  0.170000  1.0  -0.607
  O  O370  1  0.733500  0.961300  0.102300  1.0  -0.5389
  O  O371  1  0.124270  0.925130  0.818380  1.0  -0.5933
  O  O372  1  0.075840  0.948890  0.684230  1.0  -0.6355
  O  O373  1  0.509710  0.563460  0.580830  1.0  -0.6545
  O  O374  1  0.579650  0.559040  0.476540  1.0  -0.6383
  O  O375  1  0.596800  0.782610  0.397860  1.0  -0.2712
  O  O376  1  0.426750  0.782800  0.600700  1.0  -0.2647
