# generated using pymatgen
data_CuH4C6N5O2
_symmetry_space_group_name_H-M   'P 1'
_cell_length_a   14.28500000
_cell_length_b   18.71580000
_cell_length_c   18.71580000
_cell_angle_alpha   66.24000000
_cell_angle_beta   75.26080000
_cell_angle_gamma   104.73900000
_symmetry_Int_Tables_number   1
_chemical_formula_structural   CuH4C6N5O2
_chemical_formula_sum   'Cu12 H48 C72 N60 O24'
_cell_volume   4052.89746064
_cell_formula_units_Z   12
loop_
 _symmetry_equiv_pos_site_id
 _symmetry_equiv_pos_as_xyz
  1  'x, y, z'
loop_
 _atom_site_type_symbol
 _atom_site_label
 _atom_site_symmetry_multiplicity
 _atom_site_fract_x
 _atom_site_fract_y
 _atom_site_fract_z
 _atom_site_occupancy
 _atom_site_charge
  Cu  Cu1  1  0.403370  0.440590  0.007430  1.0  0.7272
  Cu  Cu2  1  0.467570  0.527140  0.331190  1.0  0.746
  Cu  Cu3  1  0.410800  0.007430  0.551980  1.0  0.7279
  Cu  Cu4  1  0.798760  0.331190  0.141670  1.0  0.7489
  Cu  Cu5  1  0.962780  0.551980  0.440590  1.0  0.7255
  Cu  Cu6  1  0.940430  0.141670  0.527140  1.0  0.7477
  Cu  Cu7  1  0.596630  0.559410  0.992570  1.0  0.7265
  Cu  Cu8  1  0.532430  0.472860  0.668810  1.0  0.7478
  Cu  Cu9  1  0.589200  0.992570  0.448020  1.0  0.7289
  Cu  Cu10  1  0.201240  0.668810  0.858330  1.0  0.7471
  Cu  Cu11  1  0.037220  0.448020  0.559410  1.0  0.7249
  Cu  Cu12  1  0.059570  0.858330  0.472860  1.0  0.7481
  H  H13  1  0.199000  0.315300  0.171100  1.0  0.086
  H  H14  1  0.592800  0.578500  0.151400  1.0  0.0997
  H  H15  1  0.268400  0.370400  0.405000  1.0  0.3366
  H  H16  1  0.170600  0.305400  0.418000  1.0  0.336
  H  H17  1  0.345100  0.255200  0.087600  1.0  0.0619
  H  H18  1  0.758600  0.497700  0.051100  1.0  0.1039
  H  H19  1  0.527200  0.115700  0.182400  1.0  0.3716
  H  H20  1  0.628800  0.178300  0.167300  1.0  0.3255
  H  H21  1  0.370100  0.171100  0.513600  1.0  0.086
  H  H22  1  0.744200  0.151400  0.270100  1.0  0.0977
  H  H23  1  0.673400  0.405000  0.224600  1.0  0.3395
  H  H24  1  0.588600  0.418000  0.276600  1.0  0.3348
  H  H25  1  0.432700  0.087600  0.657200  1.0  0.0649
  H  H26  1  0.809700  0.051100  0.451200  1.0  0.1028
  H  H27  1  0.709600  0.182400  0.701900  1.0  0.373
  H  H28  1  0.796100  0.167300  0.654400  1.0  0.3262
  H  H29  1  0.883700  0.513600  0.315300  1.0  0.0878
  H  H30  1  0.014300  0.270100  0.578500  1.0  0.1001
  H  H31  1  0.898000  0.224600  0.370400  1.0  0.3393
  H  H32  1  0.865200  0.276600  0.305400  1.0  0.3357
  H  H33  1  0.089900  0.657200  0.255200  1.0  0.06
  H  H34  1  0.260900  0.451200  0.497700  1.0  0.1038
  H  H35  1  0.411500  0.701900  0.115700  1.0  0.3656
  H  H36  1  0.450500  0.654400  0.178300  1.0  0.3258
  H  H37  1  0.801000  0.684700  0.828900  1.0  0.0864
  H  H38  1  0.407200  0.421500  0.848600  1.0  0.0988
  H  H39  1  0.731600  0.629600  0.595000  1.0  0.3388
  H  H40  1  0.829400  0.694600  0.582000  1.0  0.3363
  H  H41  1  0.654900  0.744800  0.912400  1.0  0.062
  H  H42  1  0.241400  0.502300  0.948900  1.0  0.1041
  H  H43  1  0.472800  0.884300  0.817600  1.0  0.3716
  H  H44  1  0.371200  0.821700  0.832700  1.0  0.3248
  H  H45  1  0.629900  0.828900  0.486400  1.0  0.085
  H  H46  1  0.255800  0.848600  0.729900  1.0  0.0983
  H  H47  1  0.326600  0.595000  0.775400  1.0  0.3396
  H  H48  1  0.411400  0.582000  0.723400  1.0  0.337
  H  H49  1  0.567300  0.912400  0.342800  1.0  0.0634
  H  H50  1  0.190300  0.948900  0.548800  1.0  0.1027
  H  H51  1  0.290400  0.817600  0.298100  1.0  0.3719
  H  H52  1  0.203900  0.832700  0.345600  1.0  0.3273
  H  H53  1  0.116300  0.486400  0.684700  1.0  0.0871
  H  H54  1  0.985700  0.729900  0.421500  1.0  0.0998
  H  H55  1  0.102000  0.775400  0.629600  1.0  0.3386
  H  H56  1  0.134800  0.723400  0.694600  1.0  0.3366
  H  H57  1  0.910100  0.342800  0.744800  1.0  0.0601
  H  H58  1  0.739100  0.548800  0.502300  1.0  0.1031
  H  H59  1  0.588500  0.298100  0.884300  1.0  0.3654
  H  H60  1  0.549500  0.345600  0.821700  1.0  0.3268
  C  C61  1  0.669400  0.568300  0.320000  1.0  0.5307
  C  C62  1  0.612400  0.592800  0.383500  1.0  0.519
  C  C63  1  0.241800  0.355500  0.192100  1.0  0.357
  C  C64  1  0.397100  0.457300  0.155900  1.0  0.4036
  C  C65  1  0.364400  0.440500  0.240800  1.0  -0.0943
  C  C66  1  0.267500  0.373900  0.301700  1.0  0.4864
  C  C67  1  0.521000  0.536100  0.167800  1.0  0.2272
  C  C68  1  0.412900  0.272800  0.087200  1.0  0.3891
  C  C69  1  0.556100  0.375800  0.061800  1.0  0.3902
  C  C70  1  0.599800  0.316600  0.098000  1.0  -0.1056
  C  C71  1  0.537000  0.230500  0.130100  1.0  0.4818
  C  C72  1  0.704300  0.440500  0.056900  1.0  0.2367
  C  C73  1  0.989400  0.320000  0.111700  1.0  0.5293
  C  C74  1  0.995900  0.383500  0.023700  1.0  0.5194
  C  C75  1  0.433900  0.192100  0.452400  1.0  0.3576
  C  C76  1  0.553000  0.155900  0.386800  1.0  0.4023
  C  C77  1  0.605200  0.240800  0.318700  1.0  -0.0944
  C  C78  1  0.569200  0.301700  0.324400  1.0  0.4861
  C  C79  1  0.688800  0.167800  0.296100  1.0  0.229
  C  C80  1  0.500100  0.087200  0.640000  1.0  0.389
  C  C81  1  0.617900  0.061800  0.562400  1.0  0.3897
  C  C82  1  0.697800  0.098000  0.585400  1.0  -0.1055
  C  C83  1  0.667100  0.130100  0.639400  1.0  0.482
  C  C84  1  0.761200  0.056900  0.502600  1.0  0.2361
  C  C85  1  0.101100  0.111700  0.568300  1.0  0.5286
  C  C86  1  0.019600  0.023700  0.592800  1.0  0.5194
  C  C87  1  0.886300  0.452400  0.355500  1.0  0.358
  C  C88  1  0.939800  0.386800  0.457300  1.0  0.4012
  C  C89  1  0.923900  0.318700  0.440500  1.0  -0.093
  C  C90  1  0.893600  0.324400  0.373900  1.0  0.4859
  C  C91  1  0.984900  0.296100  0.536100  1.0  0.2297
  C  C92  1  0.140100  0.640000  0.272800  1.0  0.3895
  C  C93  1  0.180300  0.562400  0.375800  1.0  0.3902
  C  C94  1  0.283200  0.585400  0.316600  1.0  -0.1043
  C  C95  1  0.306500  0.639400  0.230500  1.0  0.4836
  C  C96  1  0.263800  0.502600  0.440500  1.0  0.2379
  C  C97  1  0.330600  0.431700  0.680000  1.0  0.5284
  C  C98  1  0.387600  0.407200  0.616500  1.0  0.515
  C  C99  1  0.758200  0.644500  0.807900  1.0  0.3603
  C  C100  1  0.602900  0.542700  0.844100  1.0  0.4033
  C  C101  1  0.635600  0.559500  0.759200  1.0  -0.0938
  C  C102  1  0.732500  0.626100  0.698300  1.0  0.487
  C  C103  1  0.479000  0.463900  0.832200  1.0  0.2288
  C  C104  1  0.587100  0.727200  0.912800  1.0  0.3905
  C  C105  1  0.443900  0.624200  0.938200  1.0  0.3901
  C  C106  1  0.400200  0.683400  0.902000  1.0  -0.1058
  C  C107  1  0.463000  0.769500  0.869900  1.0  0.4835
  C  C108  1  0.295700  0.559500  0.943100  1.0  0.2373
  C  C109  1  0.010600  0.680000  0.888300  1.0  0.5281
  C  C110  1  0.004100  0.616500  0.976300  1.0  0.5212
  C  C111  1  0.566100  0.807900  0.547600  1.0  0.3609
  C  C112  1  0.447000  0.844100  0.613200  1.0  0.4029
  C  C113  1  0.394800  0.759200  0.681300  1.0  -0.0948
  C  C114  1  0.430800  0.698300  0.675600  1.0  0.4857
  C  C115  1  0.311200  0.832200  0.703900  1.0  0.2292
  C  C116  1  0.499900  0.912800  0.360000  1.0  0.3906
  C  C117  1  0.382100  0.938200  0.437600  1.0  0.3914
  C  C118  1  0.302200  0.902000  0.414600  1.0  -0.1055
  C  C119  1  0.332900  0.869900  0.360600  1.0  0.482
  C  C120  1  0.238800  0.943100  0.497400  1.0  0.2372
  C  C121  1  0.898900  0.888300  0.431700  1.0  0.5289
  C  C122  1  0.980400  0.976300  0.407200  1.0  0.5179
  C  C123  1  0.113700  0.547600  0.644500  1.0  0.3595
  C  C124  1  0.060200  0.613200  0.542700  1.0  0.403
  C  C125  1  0.076100  0.681300  0.559500  1.0  -0.0929
  C  C126  1  0.106400  0.675600  0.626100  1.0  0.4863
  C  C127  1  0.015100  0.703900  0.463900  1.0  0.2284
  C  C128  1  0.859900  0.360000  0.727200  1.0  0.3884
  C  C129  1  0.819700  0.437600  0.624200  1.0  0.3918
  C  C130  1  0.716800  0.414600  0.683400  1.0  -0.1045
  C  C131  1  0.693500  0.360600  0.769500  1.0  0.4828
  C  C132  1  0.736200  0.497400  0.559500  1.0  0.2384
  N  N133  1  0.206700  0.333800  0.271500  1.0  -0.4992
  N  N134  1  0.336900  0.415500  0.127300  1.0  -0.4819
  N  N135  1  0.444400  0.494300  0.246600  1.0  -0.3946
  N  N136  1  0.494800  0.517600  0.111500  1.0  -0.4793
  N  N137  1  0.232600  0.347800  0.384200  1.0  -0.624
  N  N138  1  0.439600  0.207500  0.128400  1.0  -0.5468
  N  N139  1  0.462500  0.353300  0.053100  1.0  -0.4631
  N  N140  1  0.695500  0.361200  0.093700  1.0  -0.3418
  N  N141  1  0.622900  0.452800  0.036200  1.0  -0.454
  N  N142  1  0.568500  0.167200  0.163100  1.0  -0.6696
  N  N143  1  0.478200  0.271500  0.394700  1.0  -0.4967
  N  N144  1  0.464200  0.127300  0.457200  1.0  -0.4779
  N  N145  1  0.691000  0.246600  0.259100  1.0  -0.397
  N  N146  1  0.606300  0.111500  0.370900  1.0  -0.4771
  N  N147  1  0.616800  0.384200  0.268000  1.0  -0.6198
  N  N148  1  0.568000  0.128400  0.664100  1.0  -0.5564
  N  N149  1  0.515600  0.053100  0.593600  1.0  -0.4658
  N  N150  1  0.789200  0.093700  0.545100  1.0  -0.3431
  N  N151  1  0.659100  0.036200  0.511000  1.0  -0.4578
  N  N152  1  0.731600  0.163100  0.669700  1.0  -0.6654
  N  N153  1  0.872900  0.394700  0.333800  1.0  -0.5003
  N  N154  1  0.921400  0.457200  0.415500  1.0  -0.4782
  N  N155  1  0.950100  0.259100  0.494300  1.0  -0.3972
  N  N156  1  0.977200  0.370900  0.517600  1.0  -0.4746
  N  N157  1  0.884800  0.268000  0.347800  1.0  -0.6212
  N  N158  1  0.232100  0.664100  0.207500  1.0  -0.5569
  N  N159  1  0.109200  0.593600  0.353300  1.0  -0.4642
  N  N160  1  0.334300  0.545100  0.361200  1.0  -0.3444
  N  N161  1  0.170100  0.511000  0.452800  1.0  -0.4545
  N  N162  1  0.401300  0.669700  0.167200  1.0  -0.6644
  N  N163  1  0.793300  0.666200  0.728500  1.0  -0.5022
  N  N164  1  0.663100  0.584500  0.872700  1.0  -0.4804
  N  N165  1  0.555600  0.505700  0.753400  1.0  -0.3959
  N  N166  1  0.505200  0.482400  0.888500  1.0  -0.4802
  N  N167  1  0.767400  0.652200  0.615800  1.0  -0.6205
  N  N168  1  0.560400  0.792500  0.871600  1.0  -0.5487
  N  N169  1  0.537500  0.646700  0.946900  1.0  -0.4641
  N  N170  1  0.304500  0.638800  0.906300  1.0  -0.3423
  N  N171  1  0.377100  0.547200  0.963800  1.0  -0.4532
  N  N172  1  0.431500  0.832800  0.836900  1.0  -0.6703
  N  N173  1  0.521800  0.728500  0.605300  1.0  -0.497
  N  N174  1  0.535800  0.872700  0.542800  1.0  -0.4772
  N  N175  1  0.309000  0.753400  0.740900  1.0  -0.3969
  N  N176  1  0.393700  0.888500  0.629100  1.0  -0.4776
  N  N177  1  0.383200  0.615800  0.732000  1.0  -0.6197
  N  N178  1  0.432000  0.871600  0.335900  1.0  -0.5526
  N  N179  1  0.484400  0.946900  0.406400  1.0  -0.4641
  N  N180  1  0.210800  0.906300  0.454900  1.0  -0.3416
  N  N181  1  0.340900  0.963800  0.489000  1.0  -0.4543
  N  N182  1  0.268400  0.836900  0.330300  1.0  -0.6668
  N  N183  1  0.127100  0.605300  0.666200  1.0  -0.4972
  N  N184  1  0.078600  0.542800  0.584500  1.0  -0.4781
  N  N185  1  0.049900  0.740900  0.505700  1.0  -0.3982
  N  N186  1  0.022800  0.629100  0.482400  1.0  -0.4793
  N  N187  1  0.115200  0.732000  0.652200  1.0  -0.6211
  N  N188  1  0.767900  0.335900  0.792500  1.0  -0.5533
  N  N189  1  0.890800  0.406400  0.646700  1.0  -0.4641
  N  N190  1  0.665700  0.454900  0.638800  1.0  -0.3445
  N  N191  1  0.829900  0.489000  0.547200  1.0  -0.4543
  N  N192  1  0.598700  0.330300  0.832800  1.0  -0.6638
  O  O193  1  0.612000  0.534700  0.291500  1.0  -0.5371
  O  O194  1  0.513100  0.573300  0.397900  1.0  -0.5329
  O  O195  1  0.763400  0.583000  0.300800  1.0  -0.5045
  O  O196  1  0.663400  0.628300  0.411800  1.0  -0.4886
  O  O197  1  0.903500  0.291500  0.173800  1.0  -0.5407
  O  O198  1  0.911000  0.397900  0.028800  1.0  -0.5342
  O  O199  1  0.064200  0.300800  0.116200  1.0  -0.5022
  O  O200  1  0.075200  0.411800  0.959900  1.0  -0.4867
  O  O201  1  0.077300  0.173800  0.534700  1.0  -0.5388
  O  O202  1  0.939800  0.028800  0.573300  1.0  -0.5357
  O  O203  1  0.180400  0.116200  0.583000  1.0  -0.5073
  O  O204  1  0.035100  0.959900  0.628300  1.0  -0.4893
  O  O205  1  0.388000  0.465300  0.708500  1.0  -0.5383
  O  O206  1  0.486900  0.426700  0.602100  1.0  -0.5324
  O  O207  1  0.236600  0.417000  0.699200  1.0  -0.5054
  O  O208  1  0.336600  0.371700  0.588200  1.0  -0.4872
  O  O209  1  0.096500  0.708500  0.826200  1.0  -0.5412
  O  O210  1  0.089000  0.602100  0.971200  1.0  -0.5358
  O  O211  1  0.935800  0.699200  0.883800  1.0  -0.5028
  O  O212  1  0.924800  0.588200  0.040100  1.0  -0.4873
  O  O213  1  0.922700  0.826200  0.465300  1.0  -0.5377
  O  O214  1  0.060200  0.971200  0.426700  1.0  -0.5361
  O  O215  1  0.819600  0.883800  0.417000  1.0  -0.5095
  O  O216  1  0.964900  0.040100  0.371700  1.0  -0.4879
