# generated using pymatgen
data_CuH4(C3N2)4
_symmetry_space_group_name_H-M   'P 1'
_cell_length_a   22.70900000
_cell_length_b   7.11800000
_cell_length_c   12.82800000
_cell_angle_alpha   90.00000000
_cell_angle_beta   90.00000000
_cell_angle_gamma   90.00000000
_symmetry_Int_Tables_number   1
_chemical_formula_structural   CuH4(C3N2)4
_chemical_formula_sum   'Cu4 H16 C48 N32'
_cell_volume   2073.55206814
_cell_formula_units_Z   4
loop_
 _symmetry_equiv_pos_site_id
 _symmetry_equiv_pos_as_xyz
  1  'x, y, z'
loop_
 _atom_site_type_symbol
 _atom_site_label
 _atom_site_symmetry_multiplicity
 _atom_site_fract_x
 _atom_site_fract_y
 _atom_site_fract_z
 _atom_site_occupancy
 _atom_site_charge
  Cu  Cu1  1  0.000000  0.000000  0.500000  1.0  0.4973
  Cu  Cu2  1  0.500000  0.500000  0.000000  1.0  0.4973
  Cu  Cu3  1  0.000000  0.500000  0.500000  1.0  0.4973
  Cu  Cu4  1  0.500000  0.000000  0.000000  1.0  0.4973
  H  H5  1  0.205600  0.984200  0.294500  1.0  0.1719
  H  H6  1  0.705600  0.484200  0.794500  1.0  0.1719
  H  H7  1  0.794400  0.515800  0.294500  1.0  0.1675
  H  H8  1  0.294400  0.015800  0.794500  1.0  0.1675
  H  H9  1  0.794400  0.484200  0.705500  1.0  0.1728
  H  H10  1  0.294400  0.984200  0.205500  1.0  0.1728
  H  H11  1  0.205600  0.015800  0.705500  1.0  0.1678
  H  H12  1  0.705600  0.515800  0.205500  1.0  0.1678
  H  H13  1  0.794400  0.015800  0.705500  1.0  0.1674
  H  H14  1  0.294400  0.515800  0.205500  1.0  0.1674
  H  H15  1  0.205600  0.484200  0.705500  1.0  0.1714
  H  H16  1  0.705600  0.984200  0.205500  1.0  0.1714
  H  H17  1  0.205600  0.515800  0.294500  1.0  0.1677
  H  H18  1  0.705600  0.015800  0.794500  1.0  0.1677
  H  H19  1  0.794400  0.984200  0.294500  1.0  0.1738
  H  H20  1  0.294400  0.484200  0.794500  1.0  0.1738
  C  C21  1  0.222800  0.101000  0.276300  1.0  -0.1135
  C  C22  1  0.206000  0.895000  0.299000  1.0  0.0953
  C  C23  1  0.722800  0.601000  0.776300  1.0  -0.1135
  C  C24  1  0.706000  0.395000  0.799000  1.0  0.0953
  C  C25  1  0.777200  0.399000  0.276300  1.0  -0.1116
  C  C26  1  0.794000  0.605000  0.299000  1.0  0.0964
  C  C27  1  0.277200  0.899000  0.776300  1.0  -0.1116
  C  C28  1  0.294000  0.105000  0.799000  1.0  0.0964
  C  C29  1  0.777200  0.601000  0.723700  1.0  -0.1132
  C  C30  1  0.794000  0.395000  0.701000  1.0  0.0952
  C  C31  1  0.277200  0.101000  0.223700  1.0  -0.1132
  C  C32  1  0.294000  0.895000  0.201000  1.0  0.0952
  C  C33  1  0.222800  0.899000  0.723700  1.0  -0.1121
  C  C34  1  0.206000  0.105000  0.701000  1.0  0.096
  C  C35  1  0.722800  0.399000  0.223700  1.0  -0.1121
  C  C36  1  0.706000  0.605000  0.201000  1.0  0.096
  C  C37  1  0.777200  0.899000  0.723700  1.0  -0.1117
  C  C38  1  0.794000  0.105000  0.701000  1.0  0.0954
  C  C39  1  0.277200  0.399000  0.223700  1.0  -0.1117
  C  C40  1  0.294000  0.605000  0.201000  1.0  0.0954
  C  C41  1  0.222800  0.601000  0.723700  1.0  -0.1139
  C  C42  1  0.206000  0.395000  0.701000  1.0  0.0954
  C  C43  1  0.722800  0.101000  0.223700  1.0  -0.1139
  C  C44  1  0.706000  0.895000  0.201000  1.0  0.094
  C  C45  1  0.222800  0.399000  0.276300  1.0  -0.1117
  C  C46  1  0.206000  0.605000  0.299000  1.0  0.0957
  C  C47  1  0.722800  0.899000  0.776300  1.0  -0.1117
  C  C48  1  0.706000  0.105000  0.799000  1.0  0.0957
  C  C49  1  0.777200  0.101000  0.276300  1.0  -0.113
  C  C50  1  0.794000  0.895000  0.299000  1.0  0.0953
  C  C51  1  0.277200  0.601000  0.776300  1.0  -0.113
  C  C52  1  0.294000  0.395000  0.799000  1.0  0.0953
  C  C53  1  0.196100  0.250000  0.300400  1.0  0.1042
  C  C54  1  0.139300  0.250000  0.359200  1.0  0.274
  C  C55  1  0.696100  0.750000  0.800400  1.0  0.1042
  C  C56  1  0.639300  0.750000  0.859200  1.0  0.274
  C  C57  1  0.803900  0.250000  0.300400  1.0  0.1055
  C  C58  1  0.860700  0.250000  0.359200  1.0  0.2747
  C  C59  1  0.303900  0.750000  0.800400  1.0  0.1055
  C  C60  1  0.360700  0.750000  0.859200  1.0  0.2747
  C  C61  1  0.803900  0.750000  0.699600  1.0  0.1056
  C  C62  1  0.860700  0.750000  0.640800  1.0  0.2739
  C  C63  1  0.303900  0.250000  0.199600  1.0  0.1056
  C  C64  1  0.360700  0.250000  0.140800  1.0  0.2739
  C  C65  1  0.196100  0.750000  0.699600  1.0  0.1042
  C  C66  1  0.139300  0.750000  0.640800  1.0  0.2729
  C  C67  1  0.696100  0.250000  0.199600  1.0  0.1042
  C  C68  1  0.639300  0.250000  0.140800  1.0  0.2729
  N  N69  1  0.110800  0.095100  0.386500  1.0  -0.4293
  N  N70  1  0.062100  0.158400  0.433300  1.0  -0.0367
  N  N71  1  0.610800  0.595100  0.886500  1.0  -0.4293
  N  N72  1  0.562100  0.658400  0.933300  1.0  -0.0367
  N  N73  1  0.889200  0.404900  0.386500  1.0  -0.4304
  N  N74  1  0.937900  0.341600  0.433300  1.0  -0.0363
  N  N75  1  0.389200  0.904900  0.886500  1.0  -0.4304
  N  N76  1  0.437900  0.841600  0.933300  1.0  -0.0361
  N  N77  1  0.889200  0.595100  0.613500  1.0  -0.4308
  N  N78  1  0.937900  0.658400  0.566700  1.0  -0.0364
  N  N79  1  0.389200  0.095100  0.113500  1.0  -0.4308
  N  N80  1  0.437900  0.158400  0.066700  1.0  -0.0364
  N  N81  1  0.110800  0.904900  0.613500  1.0  -0.431
  N  N82  1  0.062100  0.841600  0.566700  1.0  -0.0355
  N  N83  1  0.610800  0.404900  0.113500  1.0  -0.431
  N  N84  1  0.562100  0.341600  0.066700  1.0  -0.0355
  N  N85  1  0.889200  0.904900  0.613500  1.0  -0.4305
  N  N86  1  0.937900  0.841600  0.566700  1.0  -0.0368
  N  N87  1  0.389200  0.404900  0.113500  1.0  -0.4305
  N  N88  1  0.437900  0.341600  0.066700  1.0  -0.0368
  N  N89  1  0.110800  0.595100  0.613500  1.0  -0.4302
  N  N90  1  0.062100  0.658400  0.566700  1.0  -0.0352
  N  N91  1  0.610800  0.095100  0.113500  1.0  -0.4302
  N  N92  1  0.562100  0.158400  0.066700  1.0  -0.036
  N  N93  1  0.110800  0.404900  0.386500  1.0  -0.4306
  N  N94  1  0.062100  0.341600  0.433300  1.0  -0.0362
  N  N95  1  0.610800  0.904900  0.886500  1.0  -0.4306
  N  N96  1  0.562100  0.841600  0.933300  1.0  -0.0362
  N  N97  1  0.889200  0.095100  0.386500  1.0  -0.4302
  N  N98  1  0.937900  0.158400  0.433300  1.0  -0.0366
  N  N99  1  0.389200  0.595100  0.886500  1.0  -0.4302
  N  N100  1  0.437900  0.658400  0.933300  1.0  -0.0366
