# generated using pymatgen
data_Co3H11C20O11
_symmetry_space_group_name_H-M   'P 1'
_cell_length_a   10.89690000
_cell_length_b   21.02400000
_cell_length_c   28.74100000
_cell_angle_alpha   90.00000000
_cell_angle_beta   90.00000000
_cell_angle_gamma   90.00000000
_symmetry_Int_Tables_number   1
_chemical_formula_structural   Co3H11C20O11
_chemical_formula_sum   'Co24 H88 C160 O88'
_cell_volume   6584.46036817
_cell_formula_units_Z   8
loop_
 _symmetry_equiv_pos_site_id
 _symmetry_equiv_pos_as_xyz
  1  'x, y, z'
loop_
 _atom_site_type_symbol
 _atom_site_label
 _atom_site_symmetry_multiplicity
 _atom_site_fract_x
 _atom_site_fract_y
 _atom_site_fract_z
 _atom_site_occupancy
 _atom_site_charge
  Co  Co1  1  0.848110  0.534970  0.296300  1.0  1.0323
  Co  Co2  1  0.289640  0.956670  0.293180  1.0  1.1266
  Co  Co3  1  0.568440  0.543500  0.119560  1.0  1.0721
  Co  Co4  1  0.978180  0.456710  0.386250  1.0  1.0977
  Co  Co5  1  0.848930  0.582640  0.162010  1.0  1.1357
  Co  Co6  1  0.704280  0.395570  0.336140  1.0  1.03
  Co  Co7  1  0.848110  0.465030  0.703700  1.0  1.0289
  Co  Co8  1  0.289640  0.043330  0.706820  1.0  1.1245
  Co  Co9  1  0.568440  0.456500  0.880440  1.0  1.0697
  Co  Co10  1  0.978180  0.543290  0.613750  1.0  1.0994
  Co  Co11  1  0.848930  0.417360  0.837990  1.0  1.1369
  Co  Co12  1  0.704280  0.604430  0.663860  1.0  1.0373
  Co  Co13  1  0.151890  0.965030  0.796300  1.0  1.0308
  Co  Co14  1  0.710360  0.543330  0.793180  1.0  1.13
  Co  Co15  1  0.431560  0.956500  0.619560  1.0  1.0719
  Co  Co16  1  0.021820  0.043290  0.886250  1.0  1.1008
  Co  Co17  1  0.151070  0.917360  0.662010  1.0  1.139
  Co  Co18  1  0.295720  0.104430  0.836140  1.0  1.0342
  Co  Co19  1  0.151890  0.034970  0.203700  1.0  1.0275
  Co  Co20  1  0.710360  0.456670  0.206820  1.0  1.1284
  Co  Co21  1  0.431560  0.043500  0.380440  1.0  1.0728
  Co  Co22  1  0.021820  0.956710  0.113750  1.0  1.1032
  Co  Co23  1  0.151070  0.082640  0.337990  1.0  1.1424
  Co  Co24  1  0.295720  0.895570  0.163860  1.0  1.0315
  H  H25  1  0.909100  0.423400  0.307800  1.0  0.3381
  H  H26  1  0.349200  0.074400  0.301100  1.0  0.4069
  H  H27  1  0.595700  0.634300  0.393700  1.0  0.1221
  H  H28  1  0.479600  0.670500  0.456600  1.0  0.1201
  H  H29  1  0.554100  0.659000  0.531700  1.0  0.1232
  H  H30  1  0.845200  0.566800  0.483000  1.0  0.1118
  H  H31  1  0.916300  0.677300  0.327800  1.0  0.1347
  H  H32  1  0.038200  0.747000  0.367000  1.0  0.1142
  H  H33  1  0.177900  0.812800  0.328500  1.0  0.1404
  H  H34  1  0.053100  0.742500  0.206700  1.0  0.1188
  H  H35  1  0.182800  0.634600  0.267200  1.0  0.1059
  H  H36  1  0.369500  0.670100  0.241800  1.0  0.1152
  H  H37  1  0.545700  0.610900  0.254600  1.0  0.1256
  H  H38  1  0.346900  0.484000  0.325300  1.0  0.1165
  H  H39  1  0.025100  0.385500  0.259700  1.0  0.1204
  H  H40  1  0.201000  0.328900  0.273600  1.0  0.117
  H  H41  1  0.386000  0.363100  0.245500  1.0  0.1354
  H  H42  1  0.213300  0.503400  0.176300  1.0  0.1239
  H  H43  1  0.048600  0.870400  0.396100  1.0  0.1151
  H  H44  1  0.925700  0.845300  0.456500  1.0  0.1227
  H  H45  1  0.999700  0.849000  0.532600  1.0  0.1398
  H  H46  1  0.304400  0.933000  0.483400  1.0  0.1265
  H  H47  1  0.909100  0.576600  0.692200  1.0  0.3369
  H  H48  1  0.349200  0.925600  0.698900  1.0  0.4076
  H  H49  1  0.595700  0.365700  0.606300  1.0  0.1219
  H  H50  1  0.479600  0.329500  0.543400  1.0  0.1203
  H  H51  1  0.554100  0.341000  0.468300  1.0  0.1231
  H  H52  1  0.845200  0.433200  0.517000  1.0  0.1117
  H  H53  1  0.916300  0.322700  0.672200  1.0  0.1345
  H  H54  1  0.038200  0.253000  0.633000  1.0  0.1141
  H  H55  1  0.177900  0.187200  0.671500  1.0  0.1407
  H  H56  1  0.053100  0.257500  0.793300  1.0  0.1181
  H  H57  1  0.182800  0.365400  0.732800  1.0  0.1056
  H  H58  1  0.369500  0.329900  0.758200  1.0  0.1156
  H  H59  1  0.545700  0.389100  0.745400  1.0  0.1254
  H  H60  1  0.346900  0.516000  0.674700  1.0  0.116
  H  H61  1  0.025100  0.614500  0.740300  1.0  0.1211
  H  H62  1  0.201000  0.671100  0.726400  1.0  0.1174
  H  H63  1  0.386000  0.636900  0.754500  1.0  0.1357
  H  H64  1  0.213300  0.496600  0.823700  1.0  0.125
  H  H65  1  0.048600  0.129600  0.603900  1.0  0.115
  H  H66  1  0.925700  0.154700  0.543500  1.0  0.1224
  H  H67  1  0.999700  0.151000  0.467400  1.0  0.1386
  H  H68  1  0.304400  0.067000  0.516600  1.0  0.1266
  H  H69  1  0.090900  0.076600  0.807800  1.0  0.3371
  H  H70  1  0.650800  0.425600  0.801100  1.0  0.4073
  H  H71  1  0.404300  0.865700  0.893700  1.0  0.1224
  H  H72  1  0.520400  0.829500  0.956600  1.0  0.1211
  H  H73  1  0.445900  0.841000  0.031700  1.0  0.1233
  H  H74  1  0.154800  0.933200  0.983000  1.0  0.1114
  H  H75  1  0.083700  0.822700  0.827800  1.0  0.1344
  H  H76  1  0.961800  0.753000  0.867000  1.0  0.1139
  H  H77  1  0.822100  0.687200  0.828500  1.0  0.1406
  H  H78  1  0.946900  0.757500  0.706700  1.0  0.119
  H  H79  1  0.817200  0.865400  0.767200  1.0  0.105
  H  H80  1  0.630500  0.829900  0.741800  1.0  0.1153
  H  H81  1  0.454300  0.889100  0.754600  1.0  0.1256
  H  H82  1  0.653100  0.016000  0.825300  1.0  0.1167
  H  H83  1  0.974900  0.114500  0.759700  1.0  0.1202
  H  H84  1  0.799000  0.171100  0.773600  1.0  0.1168
  H  H85  1  0.614000  0.136900  0.745500  1.0  0.1358
  H  H86  1  0.786700  0.996600  0.676300  1.0  0.124
  H  H87  1  0.951400  0.629600  0.896100  1.0  0.115
  H  H88  1  0.074300  0.654700  0.956500  1.0  0.122
  H  H89  1  0.000300  0.651000  0.032600  1.0  0.1389
  H  H90  1  0.695600  0.567000  0.983400  1.0  0.1261
  H  H91  1  0.090900  0.923400  0.192200  1.0  0.3372
  H  H92  1  0.650800  0.574400  0.198900  1.0  0.4065
  H  H93  1  0.404300  0.134300  0.106300  1.0  0.1214
  H  H94  1  0.520400  0.170500  0.043400  1.0  0.1208
  H  H95  1  0.445900  0.159000  0.968300  1.0  0.1237
  H  H96  1  0.154800  0.066800  0.017000  1.0  0.1114
  H  H97  1  0.083700  0.177300  0.172200  1.0  0.1346
  H  H98  1  0.961800  0.247000  0.133000  1.0  0.1139
  H  H99  1  0.822100  0.312800  0.171500  1.0  0.1406
  H  H100  1  0.946900  0.242500  0.293300  1.0  0.118
  H  H101  1  0.817200  0.134600  0.232800  1.0  0.1049
  H  H102  1  0.630500  0.170100  0.258200  1.0  0.1158
  H  H103  1  0.454300  0.110900  0.245400  1.0  0.1256
  H  H104  1  0.653100  0.984000  0.174700  1.0  0.1158
  H  H105  1  0.974900  0.885500  0.240300  1.0  0.1201
  H  H106  1  0.799000  0.828900  0.226400  1.0  0.1168
  H  H107  1  0.614000  0.863100  0.254500  1.0  0.1352
  H  H108  1  0.786700  0.003400  0.323700  1.0  0.1241
  H  H109  1  0.951400  0.370400  0.103900  1.0  0.1149
  H  H110  1  0.074300  0.345300  0.043500  1.0  0.1214
  H  H111  1  0.000300  0.349000  0.967400  1.0  0.1382
  H  H112  1  0.695600  0.433000  0.016600  1.0  0.1259
  C  C113  1  0.808900  0.571600  0.393500  1.0  0.713
  C  C114  1  0.736500  0.598300  0.432200  1.0  -0.1391
  C  C115  1  0.624000  0.628800  0.423900  1.0  -0.0344
  C  C116  1  0.554800  0.650800  0.461600  1.0  -0.0988
  C  C117  1  0.598800  0.642900  0.506700  1.0  -0.0147
  C  C118  1  0.706200  0.612200  0.514800  1.0  -0.1174
  C  C119  1  0.773100  0.589200  0.477300  1.0  0.0043
  C  C120  1  0.753000  0.602100  0.562900  1.0  0.7623
  C  C121  1  0.893500  0.656300  0.236000  1.0  0.6709
  C  C122  1  0.973100  0.703400  0.262600  1.0  -0.1168
  C  C123  1  0.968800  0.704300  0.311700  1.0  -0.0777
  C  C124  1  0.042900  0.745300  0.334700  1.0  -0.0742
  C  C125  1  0.127000  0.785700  0.311800  1.0  -0.119
  C  C126  1  0.131400  0.783600  0.263400  1.0  -0.1002
  C  C127  1  0.052100  0.742800  0.239100  1.0  -0.0381
  C  C128  1  0.212000  0.827500  0.236500  1.0  0.6957
  C  C129  1  0.124400  0.533200  0.317200  1.0  0.6891
  C  C130  1  0.245700  0.555600  0.300000  1.0  -0.1322
  C  C131  1  0.253400  0.611500  0.273900  1.0  -0.0257
  C  C132  1  0.364500  0.632000  0.258100  1.0  -0.0826
  C  C133  1  0.470600  0.596700  0.266000  1.0  -0.114
  C  C134  1  0.464200  0.541900  0.290300  1.0  -0.1414
  C  C135  1  0.350800  0.521300  0.308010  1.0  0.0183
  C  C136  1  0.575200  0.501200  0.296500  1.0  0.704
  C  C137  1  0.987900  0.487000  0.206800  1.0  0.6862
  C  C138  1  0.100200  0.449700  0.216400  1.0  -0.1454
  C  C139  1  0.098400  0.398100  0.245900  1.0  -0.125
  C  C140  1  0.204300  0.365100  0.255000  1.0  -0.0899
  C  C141  1  0.314100  0.384300  0.237400  1.0  -0.0652
  C  C142  1  0.317900  0.436300  0.206900  1.0  -0.1558
  C  C143  1  0.211200  0.468800  0.196500  1.0  0.0233
  C  C144  1  0.438000  0.458200  0.187300  1.0  0.7162
  C  C145  1  0.261500  0.931500  0.393800  1.0  0.7049
  C  C146  1  0.184000  0.907700  0.433600  1.0  -0.1687
  C  C147  1  0.074800  0.878400  0.426400  1.0  -0.0432
  C  C148  1  0.004200  0.860800  0.462200  1.0  -0.0779
  C  C149  1  0.045800  0.865200  0.508100  1.0  -0.1052
  C  C150  1  0.158600  0.894500  0.515900  1.0  -0.1414
  C  C151  1  0.227800  0.914600  0.478400  1.0  0.0036
  C  C152  1  0.205000  0.904900  0.565300  1.0  0.7422
  C  C153  1  0.808900  0.428400  0.606500  1.0  0.7138
  C  C154  1  0.736500  0.401700  0.567800  1.0  -0.1392
  C  C155  1  0.624000  0.371200  0.576100  1.0  -0.0348
  C  C156  1  0.554800  0.349200  0.538400  1.0  -0.0989
  C  C157  1  0.598800  0.357100  0.493300  1.0  -0.0143
  C  C158  1  0.706200  0.387800  0.485200  1.0  -0.1177
  C  C159  1  0.773100  0.410800  0.522700  1.0  0.0044
  C  C160  1  0.753000  0.397900  0.437100  1.0  0.76
  C  C161  1  0.893500  0.343700  0.764000  1.0  0.6692
  C  C162  1  0.973100  0.296600  0.737400  1.0  -0.1159
  C  C163  1  0.968800  0.295700  0.688300  1.0  -0.0766
  C  C164  1  0.042900  0.254700  0.665300  1.0  -0.0756
  C  C165  1  0.127000  0.214300  0.688200  1.0  -0.1203
  C  C166  1  0.131400  0.216400  0.736600  1.0  -0.1006
  C  C167  1  0.052100  0.257200  0.760900  1.0  -0.0408
  C  C168  1  0.212000  0.172500  0.763500  1.0  0.696
  C  C169  1  0.124400  0.466800  0.682800  1.0  0.6915
  C  C170  1  0.245700  0.444400  0.700000  1.0  -0.1372
  C  C171  1  0.253400  0.388500  0.726100  1.0  -0.0263
  C  C172  1  0.364500  0.368000  0.741900  1.0  -0.0845
  C  C173  1  0.470600  0.403300  0.734000  1.0  -0.114
  C  C174  1  0.464200  0.458100  0.709700  1.0  -0.1426
  C  C175  1  0.350800  0.478700  0.691990  1.0  0.0204
  C  C176  1  0.575200  0.498800  0.703500  1.0  0.7041
  C  C177  1  0.987900  0.513000  0.793200  1.0  0.6864
  C  C178  1  0.100200  0.550300  0.783600  1.0  -0.1464
  C  C179  1  0.098400  0.601900  0.754100  1.0  -0.1248
  C  C180  1  0.204300  0.634900  0.745000  1.0  -0.0893
  C  C181  1  0.314100  0.615700  0.762600  1.0  -0.066
  C  C182  1  0.317900  0.563700  0.793100  1.0  -0.156
  C  C183  1  0.211200  0.531200  0.803500  1.0  0.0227
  C  C184  1  0.438000  0.541800  0.812700  1.0  0.7151
  C  C185  1  0.261500  0.068500  0.606200  1.0  0.7064
  C  C186  1  0.184000  0.092300  0.566400  1.0  -0.169
  C  C187  1  0.074800  0.121600  0.573600  1.0  -0.0424
  C  C188  1  0.004200  0.139200  0.537800  1.0  -0.0777
  C  C189  1  0.045800  0.134800  0.491900  1.0  -0.1046
  C  C190  1  0.158600  0.105500  0.484100  1.0  -0.1387
  C  C191  1  0.227800  0.085400  0.521600  1.0  0.0029
  C  C192  1  0.205000  0.095100  0.434700  1.0  0.7406
  C  C193  1  0.191100  0.928400  0.893500  1.0  0.7129
  C  C194  1  0.263500  0.901700  0.932200  1.0  -0.1386
  C  C195  1  0.376000  0.871200  0.923900  1.0  -0.0352
  C  C196  1  0.445200  0.849200  0.961600  1.0  -0.0966
  C  C197  1  0.401200  0.857100  0.006700  1.0  -0.0141
  C  C198  1  0.293800  0.887800  0.014800  1.0  -0.1184
  C  C199  1  0.226900  0.910800  0.977300  1.0  0.0041
  C  C200  1  0.247000  0.897900  0.062900  1.0  0.7611
  C  C201  1  0.106500  0.843700  0.736000  1.0  0.671
  C  C202  1  0.026900  0.796600  0.762600  1.0  -0.1166
  C  C203  1  0.031200  0.795700  0.811700  1.0  -0.0772
  C  C204  1  0.957100  0.754700  0.834700  1.0  -0.0742
  C  C205  1  0.873000  0.714300  0.811800  1.0  -0.1193
  C  C206  1  0.868600  0.716400  0.763400  1.0  -0.1056
  C  C207  1  0.947900  0.757200  0.739100  1.0  -0.0387
  C  C208  1  0.788000  0.672500  0.736500  1.0  0.6978
  C  C209  1  0.875600  0.966800  0.817200  1.0  0.6915
  C  C210  1  0.754300  0.944400  0.800000  1.0  -0.133
  C  C211  1  0.746600  0.888500  0.773900  1.0  -0.0263
  C  C212  1  0.635500  0.868000  0.758100  1.0  -0.084
  C  C213  1  0.529400  0.903300  0.766000  1.0  -0.1115
  C  C214  1  0.535800  0.958100  0.790300  1.0  -0.1425
  C  C215  1  0.649200  0.978700  0.808010  1.0  0.0187
  C  C216  1  0.424800  0.998800  0.796500  1.0  0.7039
  C  C217  1  0.012100  0.013000  0.706800  1.0  0.6859
  C  C218  1  0.899800  0.050300  0.716400  1.0  -0.145
  C  C219  1  0.901600  0.101900  0.745900  1.0  -0.1269
  C  C220  1  0.795700  0.134900  0.755000  1.0  -0.0897
  C  C221  1  0.685900  0.115700  0.737400  1.0  -0.0671
  C  C222  1  0.682100  0.063700  0.706900  1.0  -0.1552
  C  C223  1  0.788800  0.031200  0.696500  1.0  0.0221
  C  C224  1  0.562000  0.041800  0.687300  1.0  0.7165
  C  C225  1  0.738500  0.568500  0.893800  1.0  0.7047
  C  C226  1  0.816000  0.592300  0.933600  1.0  -0.1687
  C  C227  1  0.925200  0.621600  0.926400  1.0  -0.0429
  C  C228  1  0.995800  0.639200  0.962200  1.0  -0.076
  C  C229  1  0.954200  0.634800  0.008100  1.0  -0.1032
  C  C230  1  0.841400  0.605500  0.015900  1.0  -0.1402
  C  C231  1  0.772200  0.585400  0.978400  1.0  0.0041
  C  C232  1  0.795000  0.595100  0.065300  1.0  0.7408
  C  C233  1  0.191100  0.071600  0.106500  1.0  0.7134
  C  C234  1  0.263500  0.098300  0.067800  1.0  -0.1386
  C  C235  1  0.376000  0.128800  0.076100  1.0  -0.0347
  C  C236  1  0.445200  0.150800  0.038400  1.0  -0.0949
  C  C237  1  0.401200  0.142900  0.993300  1.0  -0.0133
  C  C238  1  0.293800  0.112200  0.985200  1.0  -0.118
  C  C239  1  0.226900  0.089200  0.022700  1.0  0.0032
  C  C240  1  0.247000  0.102100  0.937100  1.0  0.761
  C  C241  1  0.106500  0.156300  0.264000  1.0  0.6703
  C  C242  1  0.026900  0.203400  0.237400  1.0  -0.1163
  C  C243  1  0.031200  0.204300  0.188300  1.0  -0.0772
  C  C244  1  0.957100  0.245300  0.165300  1.0  -0.0754
  C  C245  1  0.873000  0.285700  0.188200  1.0  -0.1191
  C  C246  1  0.868600  0.283600  0.236600  1.0  -0.1054
  C  C247  1  0.947900  0.242800  0.260900  1.0  -0.0412
  C  C248  1  0.788000  0.327500  0.263500  1.0  0.6984
  C  C249  1  0.875600  0.033200  0.182800  1.0  0.6925
  C  C250  1  0.754300  0.055600  0.200000  1.0  -0.1364
  C  C251  1  0.746600  0.111500  0.226100  1.0  -0.0255
  C  C252  1  0.635500  0.132000  0.241900  1.0  -0.0834
  C  C253  1  0.529400  0.096700  0.234000  1.0  -0.1135
  C  C254  1  0.535800  0.041900  0.209700  1.0  -0.1428
  C  C255  1  0.649200  0.021300  0.191990  1.0  0.0191
  C  C256  1  0.424800  0.001200  0.203500  1.0  0.7029
  C  C257  1  0.012100  0.987000  0.293200  1.0  0.6856
  C  C258  1  0.899800  0.949700  0.283600  1.0  -0.1462
  C  C259  1  0.901600  0.898100  0.254100  1.0  -0.1259
  C  C260  1  0.795700  0.865100  0.245000  1.0  -0.0911
  C  C261  1  0.685900  0.884300  0.262600  1.0  -0.0656
  C  C262  1  0.682100  0.936300  0.293100  1.0  -0.1559
  C  C263  1  0.788800  0.968800  0.303500  1.0  0.022
  C  C264  1  0.562000  0.958200  0.312700  1.0  0.7139
  C  C265  1  0.738500  0.431500  0.106200  1.0  0.7054
  C  C266  1  0.816000  0.407700  0.066400  1.0  -0.1672
  C  C267  1  0.925200  0.378400  0.073600  1.0  -0.0409
  C  C268  1  0.995800  0.360800  0.037800  1.0  -0.0749
  C  C269  1  0.954200  0.365200  0.991900  1.0  -0.1032
  C  C270  1  0.841400  0.394500  0.984100  1.0  -0.1388
  C  C271  1  0.772200  0.414600  0.021600  1.0  0.0049
  C  C272  1  0.795000  0.404900  0.934700  1.0  0.742
  O  O273  1  0.860400  0.448600  0.329740  1.0  -0.9482
  O  O274  1  0.311400  0.046700  0.324500  1.0  -0.9294
  O  O275  1  0.909400  0.545100  0.402500  1.0  -0.6238
  O  O276  1  0.767400  0.577100  0.352240  1.0  -0.5817
  O  O277  1  0.858500  0.585200  0.567680  1.0  -0.6709
  O  O278  1  0.681900  0.613400  0.595120  1.0  -0.5947
  O  O279  1  0.831000  0.617400  0.255620  1.0  -0.6293
  O  O280  1  0.897900  0.661400  0.191950  1.0  -0.6159
  O  O281  1  0.217800  0.819700  0.192670  1.0  -0.6117
  O  O282  1  0.270100  0.870300  0.255500  1.0  -0.6621
  O  O283  1  0.124900  0.492700  0.350370  1.0  -0.6334
  O  O284  1  0.030700  0.556200  0.298220  1.0  -0.5707
  O  O285  1  0.666900  0.511200  0.271110  1.0  -0.6751
  O  O286  1  0.571500  0.459100  0.327240  1.0  -0.5887
  O  O287  1  0.891700  0.476800  0.231320  1.0  -0.7015
  O  O288  1  0.989700  0.527100  0.174640  1.0  -0.581
  O  O289  1  0.533000  0.431600  0.201780  1.0  -0.5973
  O  O290  1  0.432500  0.504000  0.158800  1.0  -0.6369
  O  O291  1  0.217100  0.925200  0.353640  1.0  -0.585
  O  O292  1  0.361000  0.958100  0.403000  1.0  -0.6142
  O  O293  1  0.123300  0.905000  0.595820  1.0  -0.5789
  O  O294  1  0.315800  0.911700  0.571900  1.0  -0.6485
  O  O295  1  0.860400  0.551400  0.670260  1.0  -0.9483
  O  O296  1  0.311400  0.953300  0.675500  1.0  -0.93
  O  O297  1  0.909400  0.454900  0.597500  1.0  -0.6232
  O  O298  1  0.767400  0.422900  0.647760  1.0  -0.582
  O  O299  1  0.858500  0.414800  0.432320  1.0  -0.6716
  O  O300  1  0.681900  0.386600  0.404880  1.0  -0.5963
  O  O301  1  0.831000  0.382600  0.744380  1.0  -0.6286
  O  O302  1  0.897900  0.338600  0.808050  1.0  -0.6147
  O  O303  1  0.217800  0.180300  0.807330  1.0  -0.6114
  O  O304  1  0.270100  0.129700  0.744500  1.0  -0.6625
  O  O305  1  0.124900  0.507300  0.649630  1.0  -0.6363
  O  O306  1  0.030700  0.443800  0.701780  1.0  -0.5715
  O  O307  1  0.666900  0.488800  0.728890  1.0  -0.675
  O  O308  1  0.571500  0.540900  0.672760  1.0  -0.5868
  O  O309  1  0.891700  0.523200  0.768680  1.0  -0.7012
  O  O310  1  0.989700  0.472900  0.825360  1.0  -0.5801
  O  O311  1  0.533000  0.568400  0.798220  1.0  -0.5982
  O  O312  1  0.432500  0.496000  0.841200  1.0  -0.6358
  O  O313  1  0.217100  0.074800  0.646360  1.0  -0.5834
  O  O314  1  0.361000  0.041900  0.597000  1.0  -0.6153
  O  O315  1  0.123300  0.095000  0.404180  1.0  -0.5784
  O  O316  1  0.315800  0.088300  0.428100  1.0  -0.6468
  O  O317  1  0.139600  0.051400  0.829740  1.0  -0.9484
  O  O318  1  0.688600  0.453300  0.824500  1.0  -0.9293
  O  O319  1  0.090600  0.954900  0.902500  1.0  -0.6224
  O  O320  1  0.232600  0.922900  0.852240  1.0  -0.5822
  O  O321  1  0.141500  0.914800  0.067680  1.0  -0.6751
  O  O322  1  0.318100  0.886600  0.095120  1.0  -0.5964
  O  O323  1  0.169000  0.882600  0.755620  1.0  -0.6289
  O  O324  1  0.102100  0.838600  0.691950  1.0  -0.6157
  O  O325  1  0.782200  0.680300  0.692670  1.0  -0.612
  O  O326  1  0.729900  0.629700  0.755500  1.0  -0.6634
  O  O327  1  0.875100  0.007300  0.850370  1.0  -0.6341
  O  O328  1  0.969300  0.943800  0.798220  1.0  -0.5707
  O  O329  1  0.333100  0.988800  0.771110  1.0  -0.6752
  O  O330  1  0.428500  0.040900  0.827240  1.0  -0.5876
  O  O331  1  0.108300  0.023200  0.731320  1.0  -0.7018
  O  O332  1  0.010300  0.972900  0.674640  1.0  -0.5794
  O  O333  1  0.467000  0.068400  0.701780  1.0  -0.5956
  O  O334  1  0.567500  0.996000  0.658800  1.0  -0.6358
  O  O335  1  0.782900  0.574800  0.853640  1.0  -0.5846
  O  O336  1  0.639000  0.541900  0.903000  1.0  -0.6173
  O  O337  1  0.876700  0.595000  0.095820  1.0  -0.5784
  O  O338  1  0.684200  0.588300  0.071900  1.0  -0.6494
  O  O339  1  0.139600  0.948600  0.170260  1.0  -0.9486
  O  O340  1  0.688600  0.546700  0.175500  1.0  -0.9291
  O  O341  1  0.090600  0.045100  0.097500  1.0  -0.6232
  O  O342  1  0.232600  0.077100  0.147760  1.0  -0.5813
  O  O343  1  0.141500  0.085200  0.932320  1.0  -0.675
  O  O344  1  0.318100  0.113400  0.904880  1.0  -0.5958
  O  O345  1  0.169000  0.117400  0.244380  1.0  -0.6296
  O  O346  1  0.102100  0.161400  0.308050  1.0  -0.6126
  O  O347  1  0.782200  0.319700  0.307330  1.0  -0.6122
  O  O348  1  0.729900  0.370300  0.244500  1.0  -0.6636
  O  O349  1  0.875100  0.992700  0.149630  1.0  -0.635
  O  O350  1  0.969300  0.056200  0.201780  1.0  -0.5712
  O  O351  1  0.333100  0.011200  0.228890  1.0  -0.6753
  O  O352  1  0.428500  0.959100  0.172760  1.0  -0.5866
  O  O353  1  0.108300  0.976800  0.268680  1.0  -0.7016
  O  O354  1  0.010300  0.027100  0.325360  1.0  -0.5805
  O  O355  1  0.467000  0.931600  0.298220  1.0  -0.5959
  O  O356  1  0.567500  0.004000  0.341200  1.0  -0.6323
  O  O357  1  0.782900  0.425200  0.146360  1.0  -0.5829
  O  O358  1  0.639000  0.458100  0.097000  1.0  -0.6167
  O  O359  1  0.876700  0.405000  0.904180  1.0  -0.5791
  O  O360  1  0.684200  0.411700  0.928100  1.0  -0.6494
