# generated using pymatgen
data_CuH2(C3O2)2
_symmetry_space_group_name_H-M   'P 1'
_cell_length_a   18.66260000
_cell_length_b   18.66260000
_cell_length_c   18.66260000
_cell_angle_alpha   60.00000000
_cell_angle_beta   60.00000000
_cell_angle_gamma   60.00000000
_symmetry_Int_Tables_number   1
_chemical_formula_structural   CuH2(C3O2)2
_chemical_formula_sum   'Cu12 H24 C72 O48'
_cell_volume   4596.22674613
_cell_formula_units_Z   12
loop_
 _symmetry_equiv_pos_site_id
 _symmetry_equiv_pos_as_xyz
  1  'x, y, z'
loop_
 _atom_site_type_symbol
 _atom_site_label
 _atom_site_symmetry_multiplicity
 _atom_site_fract_x
 _atom_site_fract_y
 _atom_site_fract_z
 _atom_site_occupancy
 _atom_site_charge
  Cu  Cu1  1  0.500000  0.069860  0.930140  1.0  0.9014
  Cu  Cu2  1  0.069860  0.500000  0.500000  1.0  0.9017
  Cu  Cu3  1  0.930140  0.500000  0.500000  1.0  0.9024
  Cu  Cu4  1  0.500000  0.930140  0.069860  1.0  0.9017
  Cu  Cu5  1  0.500000  0.930140  0.500000  1.0  0.9013
  Cu  Cu6  1  0.069860  0.500000  0.930140  1.0  0.902
  Cu  Cu7  1  0.930140  0.500000  0.069860  1.0  0.9024
  Cu  Cu8  1  0.500000  0.069860  0.500000  1.0  0.9008
  Cu  Cu9  1  0.500000  0.500000  0.069860  1.0  0.8998
  Cu  Cu10  1  0.069860  0.930140  0.500000  1.0  0.9009
  Cu  Cu11  1  0.930140  0.069860  0.500000  1.0  0.9012
  Cu  Cu12  1  0.500000  0.500000  0.930140  1.0  0.9004
  H  H13  1  0.468200  0.988200  0.771800  1.0  0.1207
  H  H14  1  0.988200  0.468200  0.771800  1.0  0.1202
  H  H15  1  0.771800  0.771800  0.468200  1.0  0.1196
  H  H16  1  0.771800  0.771800  0.988200  1.0  0.1201
  H  H17  1  0.468200  0.771800  0.771800  1.0  0.1196
  H  H18  1  0.988200  0.771800  0.771800  1.0  0.1202
  H  H19  1  0.771800  0.468200  0.988200  1.0  0.12
  H  H20  1  0.771800  0.988200  0.468200  1.0  0.121
  H  H21  1  0.468200  0.771800  0.988200  1.0  0.1201
  H  H22  1  0.988200  0.771800  0.468200  1.0  0.1202
  H  H23  1  0.771800  0.988200  0.771800  1.0  0.121
  H  H24  1  0.771800  0.468200  0.771800  1.0  0.1196
  H  H25  1  0.011800  0.531800  0.228200  1.0  0.1202
  H  H26  1  0.531800  0.011800  0.228200  1.0  0.121
  H  H27  1  0.228200  0.228200  0.531800  1.0  0.1198
  H  H28  1  0.228200  0.228200  0.011800  1.0  0.1199
  H  H29  1  0.228200  0.531800  0.228200  1.0  0.12
  H  H30  1  0.228200  0.011800  0.228200  1.0  0.121
  H  H31  1  0.531800  0.228200  0.011800  1.0  0.1198
  H  H32  1  0.011800  0.228200  0.531800  1.0  0.1202
  H  H33  1  0.228200  0.531800  0.011800  1.0  0.1198
  H  H34  1  0.228200  0.011800  0.531800  1.0  0.1211
  H  H35  1  0.011800  0.228200  0.228200  1.0  0.12
  H  H36  1  0.531800  0.228200  0.228200  1.0  0.1201
  C  C37  1  0.467340  0.930860  0.800900  1.0  0.0326
  C  C38  1  0.930860  0.467340  0.800900  1.0  0.0308
  C  C39  1  0.800900  0.800900  0.467340  1.0  0.0308
  C  C40  1  0.800900  0.800900  0.930860  1.0  0.0318
  C  C41  1  0.467340  0.800900  0.800900  1.0  0.031
  C  C42  1  0.930860  0.800900  0.800900  1.0  0.0318
  C  C43  1  0.800900  0.467340  0.930860  1.0  0.0304
  C  C44  1  0.800900  0.930860  0.467340  1.0  0.0319
  C  C45  1  0.467340  0.800900  0.930860  1.0  0.031
  C  C46  1  0.930860  0.800900  0.467340  1.0  0.032
  C  C47  1  0.800900  0.930860  0.800900  1.0  0.032
  C  C48  1  0.800900  0.467340  0.800900  1.0  0.0304
  C  C49  1  0.069140  0.532660  0.199100  1.0  0.0293
  C  C50  1  0.532660  0.069140  0.199100  1.0  0.0318
  C  C51  1  0.199100  0.199100  0.532660  1.0  0.0321
  C  C52  1  0.199100  0.199100  0.069140  1.0  0.0316
  C  C53  1  0.199100  0.532660  0.199100  1.0  0.0316
  C  C54  1  0.199100  0.069140  0.199100  1.0  0.0325
  C  C55  1  0.532660  0.199100  0.069140  1.0  0.031
  C  C56  1  0.069140  0.199100  0.532660  1.0  0.0309
  C  C57  1  0.199100  0.532660  0.069140  1.0  0.0307
  C  C58  1  0.199100  0.069140  0.532660  1.0  0.0326
  C  C59  1  0.069140  0.199100  0.199100  1.0  0.0309
  C  C60  1  0.532660  0.199100  0.199100  1.0  0.0317
  C  C61  1  0.466760  0.887400  0.887400  1.0  -0.1606
  C  C62  1  0.474280  0.931200  0.931200  1.0  0.6877
  C  C63  1  0.887400  0.466760  0.758440  1.0  -0.1594
  C  C64  1  0.931200  0.474280  0.663320  1.0  0.6866
  C  C65  1  0.887400  0.758440  0.466760  1.0  -0.1599
  C  C66  1  0.931200  0.663320  0.474280  1.0  0.6862
  C  C67  1  0.758440  0.887400  0.887400  1.0  -0.1602
  C  C68  1  0.663320  0.931200  0.931200  1.0  0.6858
  C  C69  1  0.466760  0.887400  0.758440  1.0  -0.16
  C  C70  1  0.474280  0.931200  0.663320  1.0  0.6871
  C  C71  1  0.887400  0.758440  0.887400  1.0  -0.1599
  C  C72  1  0.931200  0.663320  0.931200  1.0  0.6863
  C  C73  1  0.887400  0.466760  0.887400  1.0  -0.1597
  C  C74  1  0.931200  0.474280  0.931200  1.0  0.6872
  C  C75  1  0.758440  0.887400  0.466760  1.0  -0.1601
  C  C76  1  0.663320  0.931200  0.474280  1.0  0.6858
  C  C77  1  0.466760  0.758440  0.887400  1.0  -0.1598
  C  C78  1  0.474280  0.663320  0.931200  1.0  0.6869
  C  C79  1  0.887400  0.887400  0.466760  1.0  -0.1599
  C  C80  1  0.931200  0.931200  0.474280  1.0  0.6865
  C  C81  1  0.887400  0.887400  0.758440  1.0  -0.1599
  C  C82  1  0.931200  0.931200  0.663320  1.0  0.6863
  C  C83  1  0.758440  0.466760  0.887400  1.0  -0.1598
  C  C84  1  0.663320  0.474280  0.931200  1.0  0.6859
  C  C85  1  0.112600  0.533240  0.112600  1.0  -0.1597
  C  C86  1  0.068800  0.525720  0.068800  1.0  0.6863
  C  C87  1  0.533240  0.112600  0.241560  1.0  -0.1605
  C  C88  1  0.525720  0.068800  0.336680  1.0  0.6875
  C  C89  1  0.241560  0.112600  0.533240  1.0  -0.1599
  C  C90  1  0.336680  0.068800  0.525720  1.0  0.6857
  C  C91  1  0.112600  0.241560  0.112600  1.0  -0.1594
  C  C92  1  0.068800  0.336680  0.068800  1.0  0.6865
  C  C93  1  0.112600  0.533240  0.241560  1.0  -0.1604
  C  C94  1  0.068800  0.525720  0.336680  1.0  0.687
  C  C95  1  0.241560  0.112600  0.112600  1.0  -0.1598
  C  C96  1  0.336680  0.068800  0.068800  1.0  0.6856
  C  C97  1  0.533240  0.112600  0.112600  1.0  -0.1601
  C  C98  1  0.525720  0.068800  0.068800  1.0  0.6868
  C  C99  1  0.112600  0.241560  0.533240  1.0  -0.1595
  C  C100  1  0.068800  0.336680  0.525720  1.0  0.6867
  C  C101  1  0.241560  0.533240  0.112600  1.0  -0.1599
  C  C102  1  0.336680  0.525720  0.068800  1.0  0.6859
  C  C103  1  0.112600  0.112600  0.533240  1.0  -0.1602
  C  C104  1  0.068800  0.068800  0.525720  1.0  0.6856
  C  C105  1  0.112600  0.112600  0.241560  1.0  -0.1601
  C  C106  1  0.068800  0.068800  0.336680  1.0  0.6858
  C  C107  1  0.533240  0.241560  0.112600  1.0  -0.1596
  C  C108  1  0.525720  0.336680  0.068800  1.0  0.6871
  O  O109  1  0.478800  0.007560  0.887580  1.0  -0.5639
  O  O110  1  0.007560  0.478800  0.626060  1.0  -0.5648
  O  O111  1  0.887580  0.626060  0.478800  1.0  -0.5643
  O  O112  1  0.626060  0.887580  0.007560  1.0  -0.5641
  O  O113  1  0.478800  0.887580  0.626060  1.0  -0.5646
  O  O114  1  0.007560  0.626060  0.887580  1.0  -0.5642
  O  O115  1  0.887580  0.478800  0.007560  1.0  -0.5639
  O  O116  1  0.626060  0.007560  0.478800  1.0  -0.5647
  O  O117  1  0.478800  0.626060  0.007560  1.0  -0.5638
  O  O118  1  0.007560  0.887580  0.478800  1.0  -0.5651
  O  O119  1  0.887580  0.007560  0.626060  1.0  -0.5647
  O  O120  1  0.626060  0.478800  0.887580  1.0  -0.5648
  O  O121  1  0.992440  0.521200  0.112420  1.0  -0.5649
  O  O122  1  0.521200  0.992440  0.373940  1.0  -0.5641
  O  O123  1  0.373940  0.112420  0.521200  1.0  -0.5641
  O  O124  1  0.112420  0.373940  0.992440  1.0  -0.5645
  O  O125  1  0.112420  0.521200  0.373940  1.0  -0.5642
  O  O126  1  0.373940  0.992440  0.112420  1.0  -0.565
  O  O127  1  0.521200  0.112420  0.992440  1.0  -0.564
  O  O128  1  0.992440  0.373940  0.521200  1.0  -0.5645
  O  O129  1  0.373940  0.521200  0.992440  1.0  -0.564
  O  O130  1  0.112420  0.992440  0.521200  1.0  -0.565
  O  O131  1  0.992440  0.112420  0.373940  1.0  -0.5647
  O  O132  1  0.521200  0.373940  0.112420  1.0  -0.5638
  O  O133  1  0.521200  0.992440  0.112420  1.0  -0.5644
  O  O134  1  0.992440  0.521200  0.373940  1.0  -0.5643
  O  O135  1  0.112420  0.373940  0.521200  1.0  -0.5643
  O  O136  1  0.373940  0.112420  0.992440  1.0  -0.5637
  O  O137  1  0.521200  0.112420  0.373940  1.0  -0.5645
  O  O138  1  0.992440  0.373940  0.112420  1.0  -0.5642
  O  O139  1  0.112420  0.521200  0.992440  1.0  -0.5639
  O  O140  1  0.373940  0.992440  0.521200  1.0  -0.5653
  O  O141  1  0.521200  0.373940  0.992440  1.0  -0.5646
  O  O142  1  0.992440  0.112420  0.521200  1.0  -0.5648
  O  O143  1  0.112420  0.992440  0.373940  1.0  -0.5653
  O  O144  1  0.373940  0.521200  0.112420  1.0  -0.5638
  O  O145  1  0.007560  0.478800  0.887580  1.0  -0.5645
  O  O146  1  0.478800  0.007560  0.626060  1.0  -0.5641
  O  O147  1  0.626060  0.887580  0.478800  1.0  -0.5644
  O  O148  1  0.887580  0.626060  0.007560  1.0  -0.5644
  O  O149  1  0.887580  0.478800  0.626060  1.0  -0.5641
  O  O150  1  0.626060  0.007560  0.887580  1.0  -0.5643
  O  O151  1  0.478800  0.887580  0.007560  1.0  -0.5646
  O  O152  1  0.007560  0.626060  0.478800  1.0  -0.5643
  O  O153  1  0.626060  0.478800  0.007560  1.0  -0.5642
  O  O154  1  0.887580  0.007560  0.478800  1.0  -0.5645
  O  O155  1  0.007560  0.887580  0.626060  1.0  -0.5651
  O  O156  1  0.478800  0.626060  0.887580  1.0  -0.5639
