# generated using pymatgen
data_CuH2(C3O2)2
_symmetry_space_group_name_H-M   'P 1'
_cell_length_a   18.65100000
_cell_length_b   18.65100000
_cell_length_c   18.65100000
_cell_angle_alpha   60.00000000
_cell_angle_beta   60.00000000
_cell_angle_gamma   60.00000000
_symmetry_Int_Tables_number   1
_chemical_formula_structural   CuH2(C3O2)2
_chemical_formula_sum   'Cu12 H24 C72 O48'
_cell_volume   4587.66152515
_cell_formula_units_Z   12
loop_
 _symmetry_equiv_pos_site_id
 _symmetry_equiv_pos_as_xyz
  1  'x, y, z'
loop_
 _atom_site_type_symbol
 _atom_site_label
 _atom_site_symmetry_multiplicity
 _atom_site_fract_x
 _atom_site_fract_y
 _atom_site_fract_z
 _atom_site_occupancy
 _atom_site_charge
  Cu  Cu1  1  0.069860  0.500000  0.500000  1.0  0.8872
  Cu  Cu2  1  0.500000  0.069860  0.930140  1.0  0.8867
  Cu  Cu3  1  0.500000  0.930140  0.069860  1.0  0.8867
  Cu  Cu4  1  0.930140  0.500000  0.500000  1.0  0.8876
  Cu  Cu5  1  0.069860  0.500000  0.930140  1.0  0.8874
  Cu  Cu6  1  0.500000  0.930140  0.500000  1.0  0.8863
  Cu  Cu7  1  0.500000  0.069860  0.500000  1.0  0.886
  Cu  Cu8  1  0.930140  0.500000  0.069860  1.0  0.8875
  Cu  Cu9  1  0.069860  0.930140  0.500000  1.0  0.8859
  Cu  Cu10  1  0.500000  0.500000  0.069860  1.0  0.8852
  Cu  Cu11  1  0.500000  0.500000  0.930140  1.0  0.886
  Cu  Cu12  1  0.930140  0.069860  0.500000  1.0  0.8866
  H  H13  1  0.772600  0.467400  0.772600  1.0  0.1158
  H  H14  1  0.467400  0.772600  0.987400  1.0  0.1159
  H  H15  1  0.772600  0.987400  0.772600  1.0  0.1168
  H  H16  1  0.987400  0.772600  0.467400  1.0  0.1158
  H  H17  1  0.772600  0.772600  0.987400  1.0  0.1158
  H  H18  1  0.467400  0.987400  0.772600  1.0  0.1164
  H  H19  1  0.772600  0.772600  0.467400  1.0  0.1156
  H  H20  1  0.987400  0.467400  0.772600  1.0  0.1159
  H  H21  1  0.772600  0.987400  0.467400  1.0  0.1168
  H  H22  1  0.467400  0.772600  0.772600  1.0  0.1158
  H  H23  1  0.772600  0.467400  0.987400  1.0  0.1157
  H  H24  1  0.987400  0.772600  0.772600  1.0  0.1158
  H  H25  1  0.532600  0.227400  0.227400  1.0  0.1161
  H  H26  1  0.227400  0.532600  0.012600  1.0  0.116
  H  H27  1  0.012600  0.227400  0.227400  1.0  0.1159
  H  H28  1  0.227400  0.012600  0.532600  1.0  0.117
  H  H29  1  0.227400  0.227400  0.012600  1.0  0.1159
  H  H30  1  0.012600  0.532600  0.227400  1.0  0.1161
  H  H31  1  0.227400  0.227400  0.532600  1.0  0.1157
  H  H32  1  0.532600  0.012600  0.227400  1.0  0.1169
  H  H33  1  0.012600  0.227400  0.532600  1.0  0.1161
  H  H34  1  0.227400  0.532600  0.227400  1.0  0.1158
  H  H35  1  0.532600  0.227400  0.012600  1.0  0.1162
  H  H36  1  0.227400  0.012600  0.227400  1.0  0.1169
  C  C37  1  0.930900  0.474260  0.663940  1.0  0.6985
  C  C38  1  0.887400  0.467120  0.758080  1.0  -0.1615
  C  C39  1  0.474260  0.930900  0.930900  1.0  0.6998
  C  C40  1  0.467120  0.887400  0.887400  1.0  -0.162
  C  C41  1  0.663940  0.930900  0.930900  1.0  0.6979
  C  C42  1  0.758080  0.887400  0.887400  1.0  -0.1615
  C  C43  1  0.930900  0.663940  0.474260  1.0  0.6978
  C  C44  1  0.887400  0.758080  0.467120  1.0  -0.1616
  C  C45  1  0.930900  0.663940  0.930900  1.0  0.698
  C  C46  1  0.887400  0.758080  0.887400  1.0  -0.1614
  C  C47  1  0.474260  0.930900  0.663940  1.0  0.6992
  C  C48  1  0.467120  0.887400  0.758080  1.0  -0.1619
  C  C49  1  0.663940  0.930900  0.474260  1.0  0.6979
  C  C50  1  0.758080  0.887400  0.467120  1.0  -0.1616
  C  C51  1  0.930900  0.474260  0.930900  1.0  0.6989
  C  C52  1  0.887400  0.467120  0.887400  1.0  -0.1615
  C  C53  1  0.930900  0.930900  0.474260  1.0  0.698
  C  C54  1  0.887400  0.887400  0.467120  1.0  -0.1614
  C  C55  1  0.474260  0.663940  0.930900  1.0  0.6989
  C  C56  1  0.467120  0.758080  0.887400  1.0  -0.1613
  C  C57  1  0.663940  0.474260  0.930900  1.0  0.6979
  C  C58  1  0.758080  0.467120  0.887400  1.0  -0.1614
  C  C59  1  0.930900  0.930900  0.663940  1.0  0.6976
  C  C60  1  0.887400  0.887400  0.758080  1.0  -0.1615
  C  C61  1  0.525740  0.069100  0.336060  1.0  0.6993
  C  C62  1  0.532880  0.112600  0.241920  1.0  -0.1622
  C  C63  1  0.069100  0.525740  0.069100  1.0  0.6985
  C  C64  1  0.112600  0.532880  0.112600  1.0  -0.1615
  C  C65  1  0.069100  0.336060  0.069100  1.0  0.6988
  C  C66  1  0.112600  0.241920  0.112600  1.0  -0.161
  C  C67  1  0.336060  0.069100  0.525740  1.0  0.6978
  C  C68  1  0.241920  0.112600  0.532880  1.0  -0.161
  C  C69  1  0.336060  0.069100  0.069100  1.0  0.6977
  C  C70  1  0.241920  0.112600  0.112600  1.0  -0.1612
  C  C71  1  0.069100  0.525740  0.336060  1.0  0.6991
  C  C72  1  0.112600  0.532880  0.241920  1.0  -0.1616
  C  C73  1  0.069100  0.336060  0.525740  1.0  0.699
  C  C74  1  0.112600  0.241920  0.532880  1.0  -0.161
  C  C75  1  0.525740  0.069100  0.069100  1.0  0.6988
  C  C76  1  0.532880  0.112600  0.112600  1.0  -0.1621
  C  C77  1  0.069100  0.069100  0.525740  1.0  0.6974
  C  C78  1  0.112600  0.112600  0.532880  1.0  -0.1619
  C  C79  1  0.336060  0.525740  0.069100  1.0  0.6976
  C  C80  1  0.241920  0.532880  0.112600  1.0  -0.1608
  C  C81  1  0.525740  0.336060  0.069100  1.0  0.6993
  C  C82  1  0.532880  0.241920  0.112600  1.0  -0.161
  C  C83  1  0.069100  0.069100  0.336060  1.0  0.698
  C  C84  1  0.112600  0.112600  0.241920  1.0  -0.1617
  C  C85  1  0.801500  0.467220  0.801500  1.0  0.034
  C  C86  1  0.467220  0.801500  0.929780  1.0  0.0332
  C  C87  1  0.801500  0.929780  0.801500  1.0  0.0339
  C  C88  1  0.929780  0.801500  0.467220  1.0  0.0342
  C  C89  1  0.801500  0.801500  0.929780  1.0  0.0337
  C  C90  1  0.467220  0.929780  0.801500  1.0  0.0345
  C  C91  1  0.801500  0.801500  0.467220  1.0  0.0337
  C  C92  1  0.929780  0.467220  0.801500  1.0  0.034
  C  C93  1  0.801500  0.929780  0.467220  1.0  0.0338
  C  C94  1  0.467220  0.801500  0.801500  1.0  0.0336
  C  C95  1  0.801500  0.467220  0.929780  1.0  0.0334
  C  C96  1  0.929780  0.801500  0.801500  1.0  0.0341
  C  C97  1  0.532780  0.198500  0.198500  1.0  0.0336
  C  C98  1  0.198500  0.532780  0.070220  1.0  0.0338
  C  C99  1  0.070220  0.198500  0.198500  1.0  0.0338
  C  C100  1  0.198500  0.070220  0.532780  1.0  0.0341
  C  C101  1  0.198500  0.198500  0.070220  1.0  0.0336
  C  C102  1  0.070220  0.532780  0.198500  1.0  0.0333
  C  C103  1  0.198500  0.198500  0.532780  1.0  0.0333
  C  C104  1  0.532780  0.070220  0.198500  1.0  0.034
  C  C105  1  0.070220  0.198500  0.532780  1.0  0.034
  C  C106  1  0.198500  0.532780  0.198500  1.0  0.0339
  C  C107  1  0.532780  0.198500  0.070220  1.0  0.0335
  C  C108  1  0.198500  0.070220  0.198500  1.0  0.0341
  O  O109  1  0.007400  0.478680  0.626460  1.0  -0.5655
  O  O110  1  0.478680  0.007400  0.887460  1.0  -0.5644
  O  O111  1  0.626460  0.887460  0.007400  1.0  -0.565
  O  O112  1  0.887460  0.626460  0.478680  1.0  -0.5649
  O  O113  1  0.007400  0.626460  0.887460  1.0  -0.565
  O  O114  1  0.478680  0.887460  0.626460  1.0  -0.5652
  O  O115  1  0.626460  0.007400  0.478680  1.0  -0.5653
  O  O116  1  0.887460  0.478680  0.007400  1.0  -0.5643
  O  O117  1  0.007400  0.887460  0.478680  1.0  -0.5656
  O  O118  1  0.478680  0.626460  0.007400  1.0  -0.5654
  O  O119  1  0.626460  0.478680  0.887460  1.0  -0.5653
  O  O120  1  0.887460  0.007400  0.626460  1.0  -0.5651
  O  O121  1  0.521320  0.992600  0.373540  1.0  -0.565
  O  O122  1  0.992600  0.521320  0.112540  1.0  -0.5655
  O  O123  1  0.112540  0.373540  0.992600  1.0  -0.5652
  O  O124  1  0.373540  0.112540  0.521320  1.0  -0.5652
  O  O125  1  0.373540  0.992600  0.112540  1.0  -0.5653
  O  O126  1  0.112540  0.521320  0.373540  1.0  -0.5647
  O  O127  1  0.992600  0.373540  0.521320  1.0  -0.5647
  O  O128  1  0.521320  0.112540  0.992600  1.0  -0.5645
  O  O129  1  0.112540  0.992600  0.521320  1.0  -0.5653
  O  O130  1  0.373540  0.521320  0.992600  1.0  -0.5644
  O  O131  1  0.521320  0.373540  0.112540  1.0  -0.5651
  O  O132  1  0.992600  0.112540  0.373540  1.0  -0.5653
  O  O133  1  0.992600  0.521320  0.373540  1.0  -0.5648
  O  O134  1  0.521320  0.992600  0.112540  1.0  -0.5652
  O  O135  1  0.373540  0.112540  0.992600  1.0  -0.5649
  O  O136  1  0.112540  0.373540  0.521320  1.0  -0.5651
  O  O137  1  0.992600  0.373540  0.112540  1.0  -0.5644
  O  O138  1  0.521320  0.112540  0.373540  1.0  -0.565
  O  O139  1  0.373540  0.992600  0.521320  1.0  -0.5657
  O  O140  1  0.112540  0.521320  0.992600  1.0  -0.5645
  O  O141  1  0.992600  0.112540  0.521320  1.0  -0.5653
  O  O142  1  0.521320  0.373540  0.992600  1.0  -0.5651
  O  O143  1  0.373540  0.521320  0.112540  1.0  -0.5653
  O  O144  1  0.112540  0.992600  0.373540  1.0  -0.5658
  O  O145  1  0.478680  0.007400  0.626460  1.0  -0.5648
  O  O146  1  0.007400  0.478680  0.887460  1.0  -0.5653
  O  O147  1  0.887460  0.626460  0.007400  1.0  -0.5653
  O  O148  1  0.626460  0.887460  0.478680  1.0  -0.5649
  O  O149  1  0.626460  0.007400  0.887460  1.0  -0.5648
  O  O150  1  0.887460  0.478680  0.626460  1.0  -0.5644
  O  O151  1  0.007400  0.626460  0.478680  1.0  -0.565
  O  O152  1  0.478680  0.887460  0.007400  1.0  -0.565
  O  O153  1  0.887460  0.007400  0.478680  1.0  -0.5651
  O  O154  1  0.626460  0.478680  0.007400  1.0  -0.5655
  O  O155  1  0.478680  0.626460  0.887460  1.0  -0.5644
  O  O156  1  0.007400  0.887460  0.626460  1.0  -0.5655
