# generated using pymatgen
data_TbH7(C5O2)3
_symmetry_space_group_name_H-M   'P 1'
_cell_length_a   12.90300000
_cell_length_b   13.78200000
_cell_length_c   27.91200000
_cell_angle_alpha   75.64000000
_cell_angle_beta   79.46000000
_cell_angle_gamma   85.71000000
_symmetry_Int_Tables_number   1
_chemical_formula_structural   TbH7(C5O2)3
_chemical_formula_sum   'Tb8 H56 C120 O48'
_cell_volume   4725.09800358
_cell_formula_units_Z   8
loop_
 _symmetry_equiv_pos_site_id
 _symmetry_equiv_pos_as_xyz
  1  'x, y, z'
loop_
 _atom_site_type_symbol
 _atom_site_label
 _atom_site_symmetry_multiplicity
 _atom_site_fract_x
 _atom_site_fract_y
 _atom_site_fract_z
 _atom_site_occupancy
 _atom_site_charge
  Tb  Tb1  1  0.880160  0.021230  0.553650  1.0  2.2531
  Tb  Tb2  1  0.470050  0.538120  0.414890  1.0  2.1111
  Tb  Tb3  1  0.030180  0.874740  0.060460  1.0  2.2568
  Tb  Tb4  1  0.516520  0.479400  0.914220  1.0  2.1609
  Tb  Tb5  1  0.119840  0.978770  0.446350  1.0  2.2536
  Tb  Tb6  1  0.529950  0.461880  0.585110  1.0  2.114
  Tb  Tb7  1  0.969820  0.125260  0.939540  1.0  2.2553
  Tb  Tb8  1  0.483480  0.520600  0.085780  1.0  2.1605
  H  H9  1  0.722700  0.744600  0.514700  1.0  0.1036
  H  H10  1  0.725400  0.667800  0.386400  1.0  0.1032
  H  H11  1  0.916700  0.880900  0.390800  1.0  0.0954
  H  H12  1  0.000600  0.857600  0.319300  1.0  0.1019
  H  H13  1  0.055800  0.879300  0.234000  1.0  0.0974
  H  H14  1  0.806800  0.736600  0.225200  1.0  0.1061
  H  H15  1  0.750200  0.715900  0.309600  1.0  0.1143
  H  H16  1  0.747900  0.272900  0.437800  1.0  0.1135
  H  H17  1  0.025300  0.260800  0.346500  1.0  0.0939
  H  H18  1  0.813700  0.481200  0.309000  1.0  0.0983
  H  H19  1  0.966500  0.569800  0.275900  1.0  0.1008
  H  H20  1  0.095300  0.644200  0.211100  1.0  0.0893
  H  H21  1  0.208400  0.375500  0.194100  1.0  0.084
  H  H22  1  0.078700  0.299700  0.257900  1.0  0.1
  H  H23  1  0.739200  0.242300  0.056900  1.0  0.1077
  H  H24  1  0.544300  0.184000  0.189200  1.0  0.0982
  H  H25  1  0.759200  0.976300  0.154500  1.0  0.0945
  H  H26  1  0.623800  0.871900  0.200200  1.0  0.1226
  H  H27  1  0.556400  0.759400  0.274900  1.0  0.1061
  H  H28  1  0.496500  0.984900  0.344000  1.0  0.1104
  H  H29  1  0.565400  0.095100  0.270900  1.0  0.1069
  H  H30  1  0.745000  0.730300  0.012900  1.0  0.1039
  H  H31  1  0.865500  0.923500  0.886800  1.0  0.0927
  H  H32  1  0.679200  0.709800  0.880800  1.0  0.0959
  H  H33  1  0.648000  0.823800  0.810000  1.0  0.1031
  H  H34  1  0.673400  0.876700  0.723700  1.0  0.0965
  H  H35  1  0.961900  0.958400  0.723600  1.0  0.0856
  H  H36  1  0.938300  0.905500  0.809000  1.0  0.1068
  H  H37  1  0.277300  0.255400  0.485300  1.0  0.1034
  H  H38  1  0.274600  0.332200  0.613600  1.0  0.1035
  H  H39  1  0.083300  0.119100  0.609200  1.0  0.0962
  H  H40  1  0.999400  0.142400  0.680700  1.0  0.1019
  H  H41  1  0.944200  0.120700  0.766000  1.0  0.0971
  H  H42  1  0.193200  0.263400  0.774800  1.0  0.1059
  H  H43  1  0.249800  0.284100  0.690400  1.0  0.1151
  H  H44  1  0.252100  0.727100  0.562200  1.0  0.1131
  H  H45  1  0.974700  0.739200  0.653500  1.0  0.0931
  H  H46  1  0.186300  0.518800  0.691000  1.0  0.0992
  H  H47  1  0.033500  0.430200  0.724100  1.0  0.1014
  H  H48  1  0.904700  0.355800  0.788900  1.0  0.0885
  H  H49  1  0.791600  0.624500  0.805900  1.0  0.084
  H  H50  1  0.921300  0.700300  0.742100  1.0  0.0995
  H  H51  1  0.260800  0.757700  0.943100  1.0  0.1077
  H  H52  1  0.455700  0.816000  0.810800  1.0  0.0979
  H  H53  1  0.240800  0.023700  0.845500  1.0  0.0945
  H  H54  1  0.376200  0.128100  0.799800  1.0  0.1227
  H  H55  1  0.443600  0.240600  0.725100  1.0  0.1057
  H  H56  1  0.503500  0.015100  0.656000  1.0  0.1099
  H  H57  1  0.434600  0.904900  0.729100  1.0  0.1064
  H  H58  1  0.255000  0.269700  0.987100  1.0  0.104
  H  H59  1  0.134500  0.076500  0.113200  1.0  0.0928
  H  H60  1  0.320800  0.290200  0.119200  1.0  0.0952
  H  H61  1  0.352000  0.176200  0.190000  1.0  0.103
  H  H62  1  0.326600  0.123300  0.276300  1.0  0.0966
  H  H63  1  0.038100  0.041600  0.276400  1.0  0.0863
  H  H64  1  0.061700  0.094500  0.191000  1.0  0.1075
  C  C65  1  0.824300  0.824300  0.456900  1.0  -0.154
  C  C66  1  0.749300  0.752400  0.480700  1.0  0.012
  C  C67  1  0.714800  0.693600  0.454800  1.0  -0.1597
  C  C68  1  0.751800  0.706700  0.404000  1.0  -0.0638
  C  C69  1  0.827700  0.776600  0.378500  1.0  0.0145
  C  C70  1  0.864600  0.834800  0.406400  1.0  -0.0733
  C  C71  1  0.864700  0.788400  0.323800  1.0  0.035
  C  C72  1  0.959500  0.835000  0.300400  1.0  -0.1634
  C  C73  1  0.992600  0.847900  0.249100  1.0  -0.0423
  C  C74  1  0.933700  0.815100  0.220500  1.0  -0.1412
  C  C75  1  0.844900  0.763500  0.243800  1.0  -0.0955
  C  C76  1  0.811200  0.750900  0.294600  1.0  -0.1306
  C  C77  1  0.859700  0.888900  0.485700  1.0  0.7088
  C  C78  1  0.639800  0.610700  0.481200  1.0  0.7246
  C  C79  1  0.971000  0.829900  0.164800  1.0  0.675
  C  C80  1  0.764300  0.382000  0.374000  1.0  -0.1571
  C  C81  1  0.793600  0.298700  0.408200  1.0  0.0193
  C  C82  1  0.893200  0.253400  0.397700  1.0  -0.1636
  C  C83  1  0.960300  0.292700  0.353700  1.0  -0.0363
  C  C84  1  0.932700  0.379400  0.319700  1.0  0.0306
  C  C85  1  0.833800  0.423100  0.330900  1.0  -0.0944
  C  C86  1  0.010500  0.427700  0.274900  1.0  0.0239
  C  C87  1  0.015500  0.530100  0.259900  1.0  -0.1315
  C  C88  1  0.093200  0.574600  0.221000  1.0  -0.0424
  C  C89  1  0.167600  0.517900  0.196700  1.0  -0.1591
  C  C90  1  0.160200  0.414800  0.210800  1.0  -0.0429
  C  C91  1  0.082800  0.369200  0.249200  1.0  -0.1282
  C  C92  1  0.657700  0.433900  0.385500  1.0  0.6855
  C  C93  1  0.929500  0.163700  0.435200  1.0  0.7849
  C  C94  1  0.258100  0.566500  0.158800  1.0  0.6551
  C  C95  1  0.763900  0.103000  0.099600  1.0  -0.1745
  C  C96  1  0.716200  0.198700  0.087700  1.0  0.0301
  C  C97  1  0.635300  0.229000  0.121300  1.0  -0.1575
  C  C98  1  0.599300  0.163600  0.166800  1.0  -0.0597
  C  C99  1  0.644500  0.067700  0.179500  1.0  -0.0265
  C  C100  1  0.727300  0.039500  0.145900  1.0  -0.0582
  C  C101  1  0.602100  0.996400  0.228200  1.0  0.0088
  C  C102  1  0.599100  0.894600  0.229100  1.0  -0.1205
  C  C103  1  0.558400  0.827200  0.273900  1.0  -0.0274
  C  C104  1  0.520700  0.861700  0.317300  1.0  -0.1542
  C  C105  1  0.522800  0.961500  0.315500  1.0  -0.0904
  C  C106  1  0.563700  0.027500  0.271400  1.0  -0.1178
  C  C107  1  0.850700  0.069700  0.063000  1.0  0.788
  C  C108  1  0.580700  0.329400  0.108300  1.0  0.6717
  C  C109  1  0.481400  0.785900  0.364600  1.0  0.6894
  C  C110  1  0.699600  0.707900  0.951100  1.0  -0.1843
  C  C111  1  0.752100  0.754000  0.978300  1.0  0.0069
  C  C112  1  0.814500  0.834700  0.954400  1.0  -0.16
  C  C113  1  0.824100  0.868600  0.903000  1.0  -0.096
  C  C114  1  0.774400  0.823800  0.874900  1.0  0.0114
  C  C115  1  0.712300  0.741800  0.899200  1.0  -0.0721
  C  C116  1  0.790300  0.858600  0.819200  1.0  0.0627
  C  C117  1  0.712000  0.850800  0.792700  1.0  -0.1186
  C  C118  1  0.727100  0.882500  0.740900  1.0  -0.0453
  C  C119  1  0.822600  0.923000  0.714400  1.0  -0.1178
  C  C120  1  0.898100  0.930800  0.740900  1.0  -0.076
  C  C121  1  0.884100  0.899300  0.792200  1.0  -0.1774
  C  C122  1  0.630200  0.624000  0.978600  1.0  0.7617
  C  C123  1  0.872700  0.881200  0.983900  1.0  0.7562
  C  C124  1  0.838400  0.961600  0.658500  1.0  0.7066
  C  C125  1  0.175700  0.175700  0.543100  1.0  -0.1546
  C  C126  1  0.250700  0.247600  0.519300  1.0  0.0131
  C  C127  1  0.285200  0.306400  0.545200  1.0  -0.16
  C  C128  1  0.248200  0.293300  0.596000  1.0  -0.0621
  C  C129  1  0.172300  0.223400  0.621500  1.0  0.0136
  C  C130  1  0.135400  0.165200  0.593600  1.0  -0.0737
  C  C131  1  0.135300  0.211600  0.676200  1.0  0.0334
  C  C132  1  0.040500  0.165000  0.699600  1.0  -0.1638
  C  C133  1  0.007400  0.152100  0.750900  1.0  -0.0413
  C  C134  1  0.066300  0.184900  0.779500  1.0  -0.1409
  C  C135  1  0.155100  0.236500  0.756200  1.0  -0.0958
  C  C136  1  0.188800  0.249100  0.705400  1.0  -0.1326
  C  C137  1  0.140300  0.111100  0.514300  1.0  0.7115
  C  C138  1  0.360200  0.389300  0.518800  1.0  0.7262
  C  C139  1  0.029000  0.170100  0.835200  1.0  0.6758
  C  C140  1  0.235700  0.618000  0.626000  1.0  -0.1582
  C  C141  1  0.206400  0.701300  0.591800  1.0  0.0199
  C  C142  1  0.106800  0.746600  0.602300  1.0  -0.1634
  C  C143  1  0.039700  0.707300  0.646300  1.0  -0.0367
  C  C144  1  0.067300  0.620600  0.680300  1.0  0.0299
  C  C145  1  0.166200  0.576900  0.669100  1.0  -0.0933
  C  C146  1  0.989500  0.572300  0.725100  1.0  0.024
  C  C147  1  0.984500  0.469900  0.740100  1.0  -0.1309
  C  C148  1  0.906800  0.425400  0.779000  1.0  -0.0408
  C  C149  1  0.832400  0.482100  0.803300  1.0  -0.1592
  C  C150  1  0.839800  0.585200  0.789200  1.0  -0.0426
  C  C151  1  0.917200  0.630800  0.750800  1.0  -0.1284
  C  C152  1  0.342300  0.566100  0.614500  1.0  0.6852
  C  C153  1  0.070500  0.836300  0.564800  1.0  0.7878
  C  C154  1  0.741900  0.433500  0.841200  1.0  0.6549
  C  C155  1  0.236100  0.897000  0.900400  1.0  -0.1743
  C  C156  1  0.283800  0.801300  0.912300  1.0  0.0303
  C  C157  1  0.364700  0.771000  0.878700  1.0  -0.1578
  C  C158  1  0.400700  0.836400  0.833200  1.0  -0.0601
  C  C159  1  0.355500  0.932300  0.820500  1.0  -0.0268
  C  C160  1  0.272700  0.960500  0.854100  1.0  -0.0594
  C  C161  1  0.397900  0.003600  0.771800  1.0  0.0088
  C  C162  1  0.400900  0.105400  0.770900  1.0  -0.1223
  C  C163  1  0.441600  0.172800  0.726100  1.0  -0.0273
  C  C164  1  0.479300  0.138300  0.682700  1.0  -0.1552
  C  C165  1  0.477200  0.038500  0.684500  1.0  -0.0905
  C  C166  1  0.436300  0.972500  0.728600  1.0  -0.1166
  C  C167  1  0.149300  0.930300  0.937000  1.0  0.786
  C  C168  1  0.419300  0.670600  0.891700  1.0  0.6697
  C  C169  1  0.518600  0.214100  0.635400  1.0  0.6891
  C  C170  1  0.300400  0.292100  0.048900  1.0  -0.1842
  C  C171  1  0.247900  0.246000  0.021700  1.0  0.007
  C  C172  1  0.185500  0.165300  0.045600  1.0  -0.1601
  C  C173  1  0.175900  0.131400  0.097000  1.0  -0.0975
  C  C174  1  0.225600  0.176200  0.125100  1.0  0.0109
  C  C175  1  0.287700  0.258200  0.100800  1.0  -0.0719
  C  C176  1  0.209700  0.141400  0.180800  1.0  0.0622
  C  C177  1  0.288000  0.149200  0.207300  1.0  -0.1178
  C  C178  1  0.272900  0.117500  0.259100  1.0  -0.0467
  C  C179  1  0.177400  0.077000  0.285600  1.0  -0.1188
  C  C180  1  0.101900  0.069200  0.259100  1.0  -0.0737
  C  C181  1  0.115900  0.100700  0.207800  1.0  -0.1764
  C  C182  1  0.369800  0.376000  0.021400  1.0  0.7603
  C  C183  1  0.127300  0.118800  0.016100  1.0  0.7556
  C  C184  1  0.161600  0.038400  0.341500  1.0  0.7056
  O  O185  1  0.945700  0.932300  0.472050  1.0  -0.8013
  O  O186  1  0.799300  0.900200  0.525400  1.0  -0.65
  O  O187  1  0.599400  0.566600  0.456000  1.0  -0.7207
  O  O188  1  0.624500  0.589600  0.528670  1.0  -0.6862
  O  O189  1  0.044700  0.887900  0.144200  1.0  -0.6643
  O  O190  1  0.928400  0.786000  0.140370  1.0  -0.6347
  O  O191  1  0.637000  0.516300  0.357420  1.0  -0.6641
  O  O192  1  0.592700  0.392000  0.422910  1.0  -0.6614
  O  O193  1  0.868200  0.135000  0.475970  1.0  -0.7561
  O  O194  1  0.019600  0.126000  0.422690  1.0  -0.7223
  O  O195  1  0.260600  0.660400  0.147700  1.0  -0.5033
  O  O196  1  0.326400  0.509000  0.141200  1.0  -0.699
  O  O197  1  0.890100  0.983700  0.077000  1.0  -0.7208
  O  O198  1  0.876400  0.127300  0.020890  1.0  -0.8061
  O  O199  1  0.505600  0.353900  0.138500  1.0  -0.6967
  O  O200  1  0.613400  0.389400  0.067070  1.0  -0.676
  O  O201  1  0.488700  0.694100  0.363200  1.0  -0.7035
  O  O202  1  0.444900  0.814900  0.403100  1.0  -0.5182
  O  O203  1  0.596000  0.571900  0.954100  1.0  -0.7613
  O  O204  1  0.610500  0.608400  0.024900  1.0  -0.7084
  O  O205  1  0.900600  0.969200  0.966500  1.0  -0.7868
  O  O206  1  0.893700  0.827600  0.024700  1.0  -0.6677
  O  O207  1  0.777200  0.937000  0.634700  1.0  -0.6221
  O  O208  1  0.912400  0.017500  0.637460  1.0  -0.6288
  O  O209  1  0.054300  0.067700  0.527950  1.0  -0.8017
  O  O210  1  0.200700  0.099800  0.474600  1.0  -0.6503
  O  O211  1  0.400600  0.433400  0.544000  1.0  -0.7208
  O  O212  1  0.375500  0.410400  0.471330  1.0  -0.6853
  O  O213  1  0.955300  0.112100  0.855800  1.0  -0.663
  O  O214  1  0.071600  0.214000  0.859630  1.0  -0.6354
  O  O215  1  0.363000  0.483700  0.642580  1.0  -0.6645
  O  O216  1  0.407300  0.608000  0.577090  1.0  -0.6641
  O  O217  1  0.131800  0.865000  0.524030  1.0  -0.7574
  O  O218  1  0.980400  0.874000  0.577310  1.0  -0.7224
  O  O219  1  0.739400  0.339600  0.852300  1.0  -0.5087
  O  O220  1  0.673600  0.491000  0.858800  1.0  -0.6985
  O  O221  1  0.109900  0.016300  0.923000  1.0  -0.7203
  O  O222  1  0.123600  0.872700  0.979110  1.0  -0.8062
  O  O223  1  0.494400  0.646100  0.861500  1.0  -0.6978
  O  O224  1  0.386600  0.610600  0.932930  1.0  -0.6748
  O  O225  1  0.511300  0.305900  0.636800  1.0  -0.7003
  O  O226  1  0.555100  0.185100  0.596900  1.0  -0.515
  O  O227  1  0.404000  0.428100  0.045900  1.0  -0.762
  O  O228  1  0.389500  0.391600  0.975100  1.0  -0.7059
  O  O229  1  0.099400  0.030800  0.033500  1.0  -0.7866
  O  O230  1  0.106300  0.172400  0.975300  1.0  -0.6682
  O  O231  1  0.222800  0.063000  0.365300  1.0  -0.6261
  O  O232  1  0.087600  0.982500  0.362540  1.0  -0.6284
