# generated using pymatgen
data_CoH4(C2O)4
_symmetry_space_group_name_H-M   'P 1'
_cell_length_a   11.20720000
_cell_length_b   22.30340000
_cell_length_c   22.30340000
_cell_angle_alpha   86.38090000
_cell_angle_beta   75.44880000
_cell_angle_gamma   75.44880000
_symmetry_Int_Tables_number   1
_chemical_formula_structural   CoH4(C2O)4
_chemical_formula_sum   'Co16 H64 C128 O64'
_cell_volume   5223.01590124
_cell_formula_units_Z   16
loop_
 _symmetry_equiv_pos_site_id
 _symmetry_equiv_pos_as_xyz
  1  'x, y, z'
loop_
 _atom_site_type_symbol
 _atom_site_label
 _atom_site_symmetry_multiplicity
 _atom_site_fract_x
 _atom_site_fract_y
 _atom_site_fract_z
 _atom_site_occupancy
 _atom_site_charge
  Co  Co1  1  0.036060  0.403460  0.868280  1.0  0.9889
  Co  Co2  1  0.255320  0.398620  0.729960  1.0  1.1471
  Co  Co3  1  0.807800  0.096540  0.631720  1.0  0.9899
  Co  Co4  1  0.883900  0.101380  0.770040  1.0  1.1476
  Co  Co5  1  0.904340  0.131720  0.903460  1.0  0.9886
  Co  Co6  1  0.985280  0.270040  0.898620  1.0  1.1532
  Co  Co7  1  0.439520  0.368280  0.596540  1.0  0.9942
  Co  Co8  1  0.653940  0.229960  0.601380  1.0  1.1527
  Co  Co9  1  0.963940  0.596540  0.131720  1.0  0.9875
  Co  Co10  1  0.744680  0.601380  0.270040  1.0  1.1473
  Co  Co11  1  0.192200  0.903460  0.368280  1.0  0.9895
  Co  Co12  1  0.116100  0.898620  0.229960  1.0  1.1479
  Co  Co13  1  0.095660  0.868280  0.096540  1.0  0.9895
  Co  Co14  1  0.014720  0.729960  0.101380  1.0  1.152
  Co  Co15  1  0.560480  0.631720  0.403460  1.0  0.9909
  Co  Co16  1  0.346060  0.770040  0.398620  1.0  1.1536
  H  H17  1  0.395900  0.547300  0.795100  1.0  0.1119
  H  H18  1  0.431200  0.628400  0.842000  1.0  0.1083
  H  H19  1  0.304500  0.665200  0.937200  1.0  0.1101
  H  H20  1  0.120600  0.531400  0.945200  1.0  0.1095
  H  H21  1  0.282400  0.214700  0.927300  1.0  0.1025
  H  H22  1  0.434300  0.122900  0.929100  1.0  0.1086
  H  H23  1  0.589900  0.086800  0.840400  1.0  0.1093
  H  H24  1  0.433500  0.231300  0.745900  1.0  0.0891
  H  H25  1  0.238300  0.952700  0.704900  1.0  0.1119
  H  H26  1  0.401600  0.871600  0.658000  1.0  0.1082
  H  H27  1  0.406900  0.834800  0.562800  1.0  0.1116
  H  H28  1  0.097200  0.968600  0.554800  1.0  0.1104
  H  H29  1  0.924400  0.285300  0.572700  1.0  0.1029
  H  H30  1  0.986300  0.377100  0.570900  1.0  0.1096
  H  H31  1  0.017100  0.413200  0.659600  1.0  0.1091
  H  H32  1  0.910700  0.268700  0.754100  1.0  0.0892
  H  H33  1  0.191000  0.204900  0.047300  1.0  0.1125
  H  H34  1  0.273200  0.158000  0.128400  1.0  0.1073
  H  H35  1  0.241700  0.062800  0.165200  1.0  0.1111
  H  H36  1  0.065800  0.054800  0.031400  1.0  0.1094
  H  H37  1  0.209700  0.072700  0.714700  1.0  0.1025
  H  H38  1  0.363400  0.070900  0.622900  1.0  0.1097
  H  H39  1  0.430300  0.159600  0.586800  1.0  0.1084
  H  H40  1  0.179400  0.254100  0.731300  1.0  0.0894
  H  H41  1  0.943200  0.295100  0.452700  1.0  0.1129
  H  H42  1  0.059600  0.342000  0.371600  1.0  0.1081
  H  H43  1  0.969700  0.437200  0.334800  1.0  0.1119
  H  H44  1  0.652000  0.445200  0.468600  1.0  0.1094
  H  H45  1  0.497100  0.427300  0.785300  1.0  0.103
  H  H46  1  0.557200  0.429100  0.877100  1.0  0.109
  H  H47  1  0.676700  0.340400  0.913200  1.0  0.1088
  H  H48  1  0.664800  0.245900  0.768700  1.0  0.0896
  H  H49  1  0.604100  0.452700  0.204900  1.0  0.1119
  H  H50  1  0.568800  0.371600  0.158000  1.0  0.1079
  H  H51  1  0.695500  0.334800  0.062800  1.0  0.1102
  H  H52  1  0.879400  0.468600  0.054800  1.0  0.1099
  H  H53  1  0.717600  0.785300  0.072700  1.0  0.1029
  H  H54  1  0.565700  0.877100  0.070900  1.0  0.109
  H  H55  1  0.410100  0.913200  0.159600  1.0  0.1088
  H  H56  1  0.566500  0.768700  0.254100  1.0  0.0891
  H  H57  1  0.761700  0.047300  0.295100  1.0  0.1119
  H  H58  1  0.598400  0.128400  0.342000  1.0  0.1072
  H  H59  1  0.593100  0.165200  0.437200  1.0  0.1113
  H  H60  1  0.902800  0.031400  0.445200  1.0  0.1107
  H  H61  1  0.075600  0.714700  0.427300  1.0  0.1023
  H  H62  1  0.013700  0.622900  0.429100  1.0  0.1093
  H  H63  1  0.982900  0.586800  0.340400  1.0  0.1093
  H  H64  1  0.089300  0.731300  0.245900  1.0  0.0889
  H  H65  1  0.809000  0.795100  0.952700  1.0  0.1138
  H  H66  1  0.726800  0.842000  0.871600  1.0  0.1068
  H  H67  1  0.758300  0.937200  0.834800  1.0  0.1105
  H  H68  1  0.934200  0.945200  0.968600  1.0  0.1089
  H  H69  1  0.790300  0.927300  0.285300  1.0  0.1032
  H  H70  1  0.636600  0.929100  0.377100  1.0  0.1092
  H  H71  1  0.569700  0.840400  0.413200  1.0  0.1085
  H  H72  1  0.820600  0.745900  0.268700  1.0  0.0889
  H  H73  1  0.056800  0.704900  0.547300  1.0  0.1125
  H  H74  1  0.940400  0.658000  0.628400  1.0  0.107
  H  H75  1  0.030300  0.562800  0.665200  1.0  0.112
  H  H76  1  0.348000  0.554800  0.531400  1.0  0.1095
  H  H77  1  0.502900  0.572700  0.214700  1.0  0.1024
  H  H78  1  0.442800  0.570900  0.122900  1.0  0.1091
  H  H79  1  0.323300  0.659600  0.086800  1.0  0.109
  H  H80  1  0.335200  0.754100  0.231300  1.0  0.0895
  C  C81  1  0.228340  0.477730  0.837790  1.0  0.6999
  C  C82  1  0.253970  0.531300  0.865560  1.0  -0.162
  C  C83  1  0.347100  0.560560  0.834440  1.0  -0.0325
  C  C84  1  0.366800  0.609600  0.862200  1.0  -0.1306
  C  C85  1  0.292220  0.631150  0.919610  1.0  -0.0169
  C  C86  1  0.199320  0.602000  0.950760  1.0  -0.1592
  C  C87  1  0.181680  0.551750  0.923890  1.0  0.0121
  C  C88  1  0.116420  0.624210  0.013350  1.0  0.6893
  C  C89  1  0.254500  0.294800  0.832600  1.0  0.7321
  C  C90  1  0.343920  0.233150  0.836410  1.0  -0.1646
  C  C91  1  0.343560  0.200090  0.891390  1.0  -0.0014
  C  C92  1  0.435050  0.145140  0.892360  1.0  -0.1249
  C  C93  1  0.527600  0.122930  0.839070  1.0  0.0035
  C  C94  1  0.526160  0.155260  0.783820  1.0  -0.158
  C  C95  1  0.434400  0.209850  0.782950  1.0  0.0163
  C  C96  1  0.626230  0.135180  0.726160  1.0  0.7006
  C  C97  1  0.043860  0.022270  0.662210  1.0  0.697
  C  C98  1  0.150830  0.968700  0.634440  1.0  -0.1618
  C  C99  1  0.242100  0.939440  0.665560  1.0  -0.0339
  C  C100  1  0.338600  0.890400  0.637800  1.0  -0.1303
  C  C101  1  0.342980  0.868850  0.580390  1.0  -0.0167
  C  C102  1  0.252080  0.898000  0.549240  1.0  -0.1575
  C  C103  1  0.157320  0.948250  0.576110  1.0  0.0125
  C  C104  1  0.253980  0.875790  0.486650  1.0  0.6909
  C  C105  1  0.881900  0.205200  0.667400  1.0  0.7302
  C  C106  1  0.913480  0.266850  0.663590  1.0  -0.1657
  C  C107  1  0.935040  0.299910  0.608610  1.0  0.0006
  C  C108  1  0.972550  0.354860  0.607640  1.0  -0.1281
  C  C109  1  0.989600  0.377070  0.660930  1.0  0.0062
  C  C110  1  0.965240  0.344740  0.716180  1.0  -0.1654
  C  C111  1  0.927200  0.290150  0.717050  1.0  0.0131
  C  C112  1  0.987570  0.364820  0.773840  1.0  0.7005
  C  C113  1  0.066130  0.162210  0.977730  1.0  0.6963
  C  C114  1  0.119530  0.134440  0.031300  1.0  -0.1626
  C  C115  1  0.181540  0.165560  0.060560  1.0  -0.0303
  C  C116  1  0.229000  0.137800  0.109600  1.0  -0.1278
  C  C117  1  0.211830  0.080390  0.131150  1.0  -0.0223
  C  C118  1  0.150080  0.049240  0.102000  1.0  -0.1587
  C  C119  1  0.105570  0.076110  0.051750  1.0  0.013
  C  C120  1  0.129770  0.986650  0.124210  1.0  0.6904
  C  C121  1  0.087100  0.167400  0.794800  1.0  0.731
  C  C122  1  0.180330  0.163590  0.733150  1.0  -0.1621
  C  C123  1  0.234950  0.108610  0.700090  1.0  0.0004
  C  C124  1  0.327410  0.107640  0.645140  1.0  -0.1295
  C  C125  1  0.366670  0.160930  0.622930  1.0  0.0101
  C  C126  1  0.309980  0.216180  0.655260  1.0  -0.165
  C  C127  1  0.217350  0.217050  0.709850  1.0  0.0158
  C  C128  1  0.352390  0.273840  0.635180  1.0  0.7094
  C  C129  1  0.706070  0.337790  0.522270  1.0  0.6972
  C  C130  1  0.785270  0.365560  0.468700  1.0  -0.1606
  C  C131  1  0.907660  0.334440  0.439440  1.0  -0.0288
  C  C132  1  0.976400  0.362200  0.390400  1.0  -0.129
  C  C133  1  0.923370  0.419610  0.368850  1.0  -0.02
  C  C134  1  0.801320  0.450760  0.398000  1.0  -0.1582
  C  C135  1  0.733430  0.423890  0.448250  1.0  0.0131
  C  C136  1  0.740630  0.513350  0.375790  1.0  0.6892
  C  C137  1  0.549300  0.332600  0.705200  1.0  0.7281
  C  C138  1  0.577070  0.336410  0.766850  1.0  -0.1625
  C  C139  1  0.543650  0.391390  0.799910  1.0  0.0008
  C  C140  1  0.580190  0.392360  0.854860  1.0  -0.1269
  C  C141  1  0.650530  0.339070  0.877070  1.0  0.0052
  C  C142  1  0.681420  0.283820  0.844740  1.0  -0.1684
  C  C143  1  0.644250  0.282950  0.790150  1.0  0.0178
  C  C144  1  0.761410  0.226160  0.864820  1.0  0.7038
  C  C145  1  0.771660  0.522270  0.162210  1.0  0.6977
  C  C146  1  0.746030  0.468700  0.134440  1.0  -0.1632
  C  C147  1  0.652900  0.439440  0.165560  1.0  -0.0315
  C  C148  1  0.633200  0.390400  0.137800  1.0  -0.132
  C  C149  1  0.707780  0.368850  0.080390  1.0  -0.0166
  C  C150  1  0.800680  0.398000  0.049240  1.0  -0.1592
  C  C151  1  0.818320  0.448250  0.076110  1.0  0.0105
  C  C152  1  0.883580  0.375790  0.986650  1.0  0.6893
  C  C153  1  0.745500  0.705200  0.167400  1.0  0.7322
  C  C154  1  0.656080  0.766850  0.163590  1.0  -0.1643
  C  C155  1  0.656440  0.799910  0.108610  1.0  0.0019
  C  C156  1  0.564950  0.854860  0.107640  1.0  -0.1245
  C  C157  1  0.472400  0.877070  0.160930  1.0  0.0043
  C  C158  1  0.473840  0.844740  0.216180  1.0  -0.1659
  C  C159  1  0.565600  0.790150  0.217050  1.0  0.0135
  C  C160  1  0.373770  0.864820  0.273840  1.0  0.7011
  C  C161  1  0.956140  0.977730  0.337790  1.0  0.6967
  C  C162  1  0.849170  0.031300  0.365560  1.0  -0.1627
  C  C163  1  0.757900  0.060560  0.334440  1.0  -0.0358
  C  C164  1  0.661400  0.109600  0.362200  1.0  -0.1308
  C  C165  1  0.657020  0.131150  0.419610  1.0  -0.0172
  C  C166  1  0.747920  0.102000  0.450760  1.0  -0.1576
  C  C167  1  0.842680  0.051750  0.423890  1.0  0.0098
  C  C168  1  0.746020  0.124210  0.513350  1.0  0.691
  C  C169  1  0.118100  0.794800  0.332600  1.0  0.7302
  C  C170  1  0.086520  0.733150  0.336410  1.0  -0.1661
  C  C171  1  0.064960  0.700090  0.391390  1.0  0.0
  C  C172  1  0.027450  0.645140  0.392360  1.0  -0.129
  C  C173  1  0.010400  0.622930  0.339070  1.0  0.005
  C  C174  1  0.034760  0.655260  0.283820  1.0  -0.1581
  C  C175  1  0.072800  0.709850  0.282950  1.0  0.0147
  C  C176  1  0.012430  0.635180  0.226160  1.0  0.7005
  C  C177  1  0.933870  0.837790  0.022270  1.0  0.6953
  C  C178  1  0.880470  0.865560  0.968700  1.0  -0.1635
  C  C179  1  0.818460  0.834440  0.939440  1.0  -0.0296
  C  C180  1  0.771000  0.862200  0.890400  1.0  -0.1294
  C  C181  1  0.788170  0.919610  0.868850  1.0  -0.0206
  C  C182  1  0.849920  0.950760  0.898000  1.0  -0.1585
  C  C183  1  0.894430  0.923890  0.948250  1.0  0.0116
  C  C184  1  0.870230  0.013350  0.875790  1.0  0.6903
  C  C185  1  0.912900  0.832600  0.205200  1.0  0.7298
  C  C186  1  0.819670  0.836410  0.266850  1.0  -0.1617
  C  C187  1  0.765050  0.891390  0.299910  1.0  0.0003
  C  C188  1  0.672590  0.892360  0.354860  1.0  -0.1296
  C  C189  1  0.633330  0.839070  0.377070  1.0  0.005
  C  C190  1  0.690020  0.783820  0.344740  1.0  -0.1653
  C  C191  1  0.782650  0.782950  0.290150  1.0  0.0177
  C  C192  1  0.647610  0.726160  0.364820  1.0  0.709
  C  C193  1  0.293930  0.662210  0.477730  1.0  0.6952
  C  C194  1  0.214730  0.634440  0.531300  1.0  -0.1602
  C  C195  1  0.092340  0.665560  0.560560  1.0  -0.0296
  C  C196  1  0.023600  0.637800  0.609600  1.0  -0.1326
  C  C197  1  0.076630  0.580390  0.631150  1.0  -0.02
  C  C198  1  0.198680  0.549240  0.602000  1.0  -0.1586
  C  C199  1  0.266570  0.576110  0.551750  1.0  0.0114
  C  C200  1  0.259370  0.486650  0.624210  1.0  0.6892
  C  C201  1  0.450700  0.667400  0.294800  1.0  0.7303
  C  C202  1  0.422930  0.663590  0.233150  1.0  -0.1622
  C  C203  1  0.456350  0.608610  0.200090  1.0  0.0012
  C  C204  1  0.419810  0.607640  0.145140  1.0  -0.1278
  C  C205  1  0.349470  0.660930  0.122930  1.0  0.0085
  C  C206  1  0.318580  0.716180  0.155260  1.0  -0.1672
  C  C207  1  0.355750  0.717050  0.209850  1.0  0.0158
  C  C208  1  0.238590  0.773840  0.135180  1.0  0.7043
  O  O209  1  0.169000  0.444890  0.875510  1.0  -0.5794
  O  O210  1  0.267590  0.468960  0.780660  1.0  -0.5882
  O  O211  1  0.034220  0.595050  0.038710  1.0  -0.5788
  O  O212  1  0.134850  0.669870  0.036430  1.0  -0.5993
  O  O213  1  0.150760  0.311700  0.873980  1.0  -0.6368
  O  O214  1  0.290750  0.327210  0.787090  1.0  -0.625
  O  O215  1  0.610460  0.154010  0.673870  1.0  -0.6289
  O  O216  1  0.731220  0.097270  0.729690  1.0  -0.6501
  O  O217  1  0.989400  0.055110  0.624490  1.0  -0.5808
  O  O218  1  0.017210  0.031040  0.719340  1.0  -0.5893
  O  O219  1  0.167980  0.904950  0.461290  1.0  -0.5788
  O  O220  1  0.341150  0.830130  0.463570  1.0  -0.5986
  O  O221  1  0.836440  0.188300  0.626020  1.0  -0.6392
  O  O222  1  0.905050  0.172790  0.712910  1.0  -0.6249
  O  O223  1  0.938340  0.345990  0.826130  1.0  -0.6291
  O  O224  1  0.058180  0.402730  0.770310  1.0  -0.6514
  O  O225  1  0.044510  0.124490  0.944890  1.0  -0.5796
  O  O226  1  0.048250  0.219340  0.968960  1.0  -0.5912
  O  O227  1  0.072930  0.961290  0.095050  1.0  -0.5786
  O  O228  1  0.171280  0.963570  0.169870  1.0  -0.5983
  O  O229  1  0.024740  0.126020  0.811700  1.0  -0.6377
  O  O230  1  0.077840  0.212910  0.827210  1.0  -0.6234
  O  O231  1  0.284330  0.326130  0.654010  1.0  -0.6277
  O  O232  1  0.460910  0.270310  0.597270  1.0  -0.6493
  O  O233  1  0.613890  0.375510  0.555110  1.0  -0.5779
  O  O234  1  0.736550  0.280660  0.531040  1.0  -0.5896
  O  O235  1  0.629270  0.538710  0.404950  1.0  -0.5787
  O  O236  1  0.804720  0.536430  0.330130  1.0  -0.5985
  O  O237  1  0.462460  0.373980  0.688300  1.0  -0.6373
  O  O238  1  0.617960  0.287090  0.672790  1.0  -0.6245
  O  O239  1  0.764470  0.173870  0.845990  1.0  -0.6277
  O  O240  1  0.828490  0.229690  0.902730  1.0  -0.6536
  O  O241  1  0.831000  0.555110  0.124490  1.0  -0.5799
  O  O242  1  0.732410  0.531040  0.219340  1.0  -0.588
  O  O243  1  0.965780  0.404950  0.961290  1.0  -0.5805
  O  O244  1  0.865150  0.330130  0.963570  1.0  -0.5999
  O  O245  1  0.849240  0.688300  0.126020  1.0  -0.6364
  O  O246  1  0.709250  0.672790  0.212910  1.0  -0.6245
  O  O247  1  0.389540  0.845990  0.326130  1.0  -0.6289
  O  O248  1  0.268780  0.902730  0.270310  1.0  -0.6512
  O  O249  1  0.010600  0.944890  0.375510  1.0  -0.5803
  O  O250  1  0.982790  0.968960  0.280660  1.0  -0.5884
  O  O251  1  0.832020  0.095050  0.538710  1.0  -0.5812
  O  O252  1  0.658850  0.169870  0.536430  1.0  -0.5982
  O  O253  1  0.163560  0.811700  0.373980  1.0  -0.6406
  O  O254  1  0.094950  0.827210  0.287090  1.0  -0.6243
  O  O255  1  0.061660  0.654010  0.173870  1.0  -0.6292
  O  O256  1  0.941820  0.597270  0.229690  1.0  -0.6504
  O  O257  1  0.955490  0.875510  0.055110  1.0  -0.5788
  O  O258  1  0.951750  0.780660  0.031040  1.0  -0.5909
  O  O259  1  0.927070  0.038710  0.904950  1.0  -0.5806
  O  O260  1  0.828720  0.036430  0.830130  1.0  -0.5983
  O  O261  1  0.975260  0.873980  0.188300  1.0  -0.6365
  O  O262  1  0.922160  0.787090  0.172790  1.0  -0.6243
  O  O263  1  0.715670  0.673870  0.345990  1.0  -0.6265
  O  O264  1  0.539090  0.729690  0.402730  1.0  -0.6518
  O  O265  1  0.386110  0.624490  0.444890  1.0  -0.5794
  O  O266  1  0.263450  0.719340  0.468960  1.0  -0.5897
  O  O267  1  0.370730  0.461290  0.595050  1.0  -0.5802
  O  O268  1  0.195280  0.463570  0.669870  1.0  -0.5983
  O  O269  1  0.537540  0.626020  0.311700  1.0  -0.6405
  O  O270  1  0.382040  0.712910  0.327210  1.0  -0.6234
  O  O271  1  0.235530  0.826130  0.154010  1.0  -0.6281
  O  O272  1  0.171510  0.770310  0.097270  1.0  -0.6522
