# generated using pymatgen
data_TbH7(C5O2)3
_symmetry_space_group_name_H-M   'P 1'
_cell_length_a   12.68040000
_cell_length_b   13.84400000
_cell_length_c   27.86500000
_cell_angle_alpha   104.24600000
_cell_angle_beta   97.31700000
_cell_angle_gamma   94.45600000
_symmetry_Int_Tables_number   1
_chemical_formula_structural   TbH7(C5O2)3
_chemical_formula_sum   'Tb8 H56 C120 O48'
_cell_volume   4672.24992722
_cell_formula_units_Z   8
loop_
 _symmetry_equiv_pos_site_id
 _symmetry_equiv_pos_as_xyz
  1  'x, y, z'
loop_
 _atom_site_type_symbol
 _atom_site_label
 _atom_site_symmetry_multiplicity
 _atom_site_fract_x
 _atom_site_fract_y
 _atom_site_fract_z
 _atom_site_occupancy
 _atom_site_charge
  Tb  Tb1  1  0.036000  0.565990  0.939920  1.0  2.2511
  Tb  Tb2  1  0.121560  0.073350  0.551970  1.0  2.2524
  Tb  Tb3  1  0.463990  0.547800  0.585470  1.0  2.0867
  Tb  Tb4  1  0.489150  0.891520  0.913470  1.0  2.1349
  Tb  Tb5  1  0.964000  0.434010  0.060080  1.0  2.2522
  Tb  Tb6  1  0.878440  0.926650  0.448030  1.0  2.2527
  Tb  Tb7  1  0.536010  0.452200  0.414530  1.0  2.0828
  Tb  Tb8  1  0.510850  0.108480  0.086530  1.0  2.1336
  H  H9  1  0.737300  0.205300  0.942500  1.0  0.1035
  H  H10  1  0.760300  0.371200  0.843400  1.0  0.0969
  H  H11  1  0.026900  0.893800  0.654800  1.0  0.0929
  H  H12  1  0.552900  0.121900  0.807800  1.0  0.0986
  H  H13  1  0.061200  0.214200  0.808700  1.0  0.1065
  H  H14  1  0.746200  0.794300  0.565600  1.0  0.1066
  H  H15  1  0.507100  0.169600  0.652800  1.0  0.0963
  H  H16  1  0.616800  0.424200  0.797500  1.0  0.112
  H  H17  1  0.254000  0.239700  0.011500  1.0  0.1056
  H  H18  1  0.357700  0.132800  0.807400  1.0  0.0984
  H  H19  1  0.547700  0.462200  0.725000  1.0  0.101
  H  H20  1  0.075000  0.943800  0.744900  1.0  0.0894
  H  H21  1  0.138200  0.313900  0.886100  1.0  0.1033
  H  H22  1  0.205800  0.932100  0.808300  1.0  0.0807
  H  H23  1  0.323200  0.087600  0.878800  1.0  0.0941
  H  H24  1  0.332400  0.096800  0.721000  1.0  0.0964
  H  H25  1  0.809900  0.710600  0.693400  1.0  0.1027
  H  H26  1  0.037400  0.180000  0.722300  1.0  0.0964
  H  H27  1  0.576200  0.130400  0.725900  1.0  0.1147
  H  H28  1  0.096400  0.643400  0.788400  1.0  0.0859
  H  H29  1  0.966400  0.654400  0.724400  1.0  0.0981
  H  H30  1  0.729100  0.451100  0.616300  1.0  0.1075
  H  H31  1  0.061300  0.383500  0.765700  1.0  0.0915
  H  H32  1  0.915000  0.226600  0.610800  1.0  0.0981
  H  H33  1  0.722000  0.241700  0.487000  1.0  0.1088
  H  H34  1  0.748500  0.471100  0.693300  1.0  0.1121
  H  H35  1  0.003600  0.320400  0.680800  1.0  0.1
  H  H36  1  0.809500  0.540000  0.777800  1.0  0.1127
  H  H37  1  0.262700  0.794700  0.057500  1.0  0.1039
  H  H38  1  0.239700  0.628800  0.156600  1.0  0.0966
  H  H39  1  0.973100  0.106200  0.345200  1.0  0.0925
  H  H40  1  0.447100  0.878100  0.192200  1.0  0.0979
  H  H41  1  0.938800  0.785800  0.191300  1.0  0.1057
  H  H42  1  0.253800  0.205700  0.434400  1.0  0.1067
  H  H43  1  0.492900  0.830400  0.347200  1.0  0.0966
  H  H44  1  0.383200  0.575800  0.202500  1.0  0.112
  H  H45  1  0.746000  0.760300  0.988500  1.0  0.1053
  H  H46  1  0.642300  0.867200  0.192600  1.0  0.0982
  H  H47  1  0.452300  0.537800  0.275000  1.0  0.1003
  H  H48  1  0.925000  0.056200  0.255100  1.0  0.0898
  H  H49  1  0.861800  0.686100  0.113900  1.0  0.1027
  H  H50  1  0.794200  0.067900  0.191700  1.0  0.0813
  H  H51  1  0.676800  0.912400  0.121200  1.0  0.0937
  H  H52  1  0.667600  0.903200  0.279000  1.0  0.0969
  H  H53  1  0.190100  0.289400  0.306600  1.0  0.1021
  H  H54  1  0.962600  0.820000  0.277700  1.0  0.0961
  H  H55  1  0.423800  0.869600  0.274100  1.0  0.1155
  H  H56  1  0.903600  0.356600  0.211600  1.0  0.0854
  H  H57  1  0.033600  0.345600  0.275600  1.0  0.0972
  H  H58  1  0.270900  0.548900  0.383700  1.0  0.1067
  H  H59  1  0.938700  0.616500  0.234300  1.0  0.0916
  H  H60  1  0.085000  0.773400  0.389200  1.0  0.098
  H  H61  1  0.278000  0.758300  0.513000  1.0  0.1088
  H  H62  1  0.251500  0.528900  0.306700  1.0  0.1116
  H  H63  1  0.996400  0.679600  0.319200  1.0  0.1002
  H  H64  1  0.190500  0.460000  0.222200  1.0  0.1125
  C  C65  1  0.716300  0.215900  0.911160  1.0  0.0259
  C  C66  1  0.729000  0.315800  0.851750  1.0  -0.0715
  C  C67  1  0.960800  0.855200  0.647990  1.0  -0.0573
  C  C68  1  0.605000  0.167100  0.830680  1.0  -0.0454
  C  C69  1  0.116100  0.190800  0.791350  1.0  -0.1371
  C  C70  1  0.586100  0.061400  0.890770  1.0  0.6715
  C  C71  1  0.180600  0.134300  0.712730  1.0  -0.1505
  C  C72  1  0.792400  0.796500  0.594700  1.0  0.0259
  C  C73  1  0.165200  0.115500  0.656970  1.0  0.6957
  C  C74  1  0.529500  0.220800  0.681800  1.0  -0.0612
  C  C75  1  0.760700  0.745100  0.628180  1.0  -0.1496
  C  C76  1  0.595200  0.372900  0.768500  1.0  -0.1399
  C  C77  1  0.248200  0.229600  0.976980  1.0  0.0278
  C  C78  1  0.637900  0.148900  0.877280  1.0  -0.1658
  C  C79  1  0.604800  0.273400  0.769520  1.0  0.0294
  C  C80  1  0.009100  0.799000  0.726830  1.0  0.0103
  C  C81  1  0.292800  0.141900  0.790360  1.0  -0.1142
  C  C82  1  0.301200  0.156300  0.949390  1.0  -0.1639
  C  C83  1  0.931300  0.802300  0.681880  1.0  0.0223
  C  C84  1  0.764000  0.298800  0.898810  1.0  -0.1541
  C  C85  1  0.553800  0.395600  0.724900  1.0  -0.0354
  C  C86  1  0.080200  0.882900  0.753000  1.0  -0.1194
  C  C87  1  0.177500  0.273100  0.901630  1.0  -0.0709
  C  C88  1  0.521000  0.320500  0.680620  1.0  -0.1232
  C  C89  1  0.648300  0.251000  0.817600  1.0  -0.0206
  C  C90  1  0.158700  0.875900  0.791050  1.0  -0.0408
  C  C91  1  0.227300  0.196900  0.872970  1.0  0.0191
  C  C92  1  0.289700  0.138300  0.897320  1.0  -0.0658
  C  C93  1  0.891900  0.850800  0.604080  1.0  -0.1448
  C  C94  1  0.277900  0.120400  0.738600  1.0  -0.0616
  C  C95  1  0.830600  0.746800  0.671430  1.0  -0.0853
  C  C96  1  0.167500  0.784700  0.803730  1.0  -0.1578
  C  C97  1  0.101800  0.169800  0.739350  1.0  -0.0326
  C  C98  1  0.571000  0.197000  0.725800  1.0  -0.1236
  C  C99  1  0.212300  0.176900  0.817550  1.0  0.049
  C  C100  1  0.259200  0.773500  0.841510  1.0  0.6698
  C  C101  1  0.093700  0.703400  0.779200  1.0  -0.0435
  C  C102  1  0.015100  0.710000  0.740800  1.0  -0.1242
  C  C103  1  0.848600  0.371500  0.936380  1.0  0.7306
  C  C104  1  0.929700  0.900500  0.565190  1.0  0.7703
  C  C105  1  0.368100  0.096600  0.976730  1.0  0.7559
  C  C106  1  0.979600  0.506900  0.835780  1.0  0.6586
  C  C107  1  0.753900  0.393500  0.598490  1.0  -0.0668
  C  C108  1  0.941700  0.466900  0.780650  1.0  -0.165
  C  C109  1  0.652700  0.684000  0.617260  1.0  0.6652
  C  C110  1  0.125900  0.363800  0.983320  1.0  0.7385
  C  C111  1  0.998400  0.402100  0.751220  1.0  -0.0551
  C  C112  1  0.823100  0.218900  0.544530  1.0  -0.1475
  C  C113  1  0.715900  0.355600  0.547640  1.0  -0.1511
  C  C114  1  0.864000  0.258500  0.595320  1.0  -0.076
  C  C115  1  0.480200  0.348100  0.633490  1.0  0.6692
  C  C116  1  0.856800  0.124400  0.514740  1.0  0.7266
  C  C117  1  0.829100  0.345900  0.623280  1.0  0.0374
  C  C118  1  0.749200  0.267800  0.520790  1.0  0.0317
  C  C119  1  0.812300  0.454000  0.707580  1.0  -0.1114
  C  C120  1  0.186700  0.287700  0.953390  1.0  -0.141
  C  C121  1  0.963500  0.363600  0.700140  1.0  -0.147
  C  C122  1  0.848000  0.494700  0.758680  1.0  -0.0861
  C  C123  1  0.869100  0.389300  0.677820  1.0  -0.0838
  C  C124  1  0.642300  0.412600  0.521440  1.0  0.7388
  C  C125  1  0.283700  0.784100  0.088840  1.0  0.0257
  C  C126  1  0.271000  0.684200  0.148250  1.0  -0.0716
  C  C127  1  0.039200  0.144800  0.352010  1.0  -0.0575
  C  C128  1  0.395000  0.832900  0.169320  1.0  -0.0463
  C  C129  1  0.883900  0.809200  0.208650  1.0  -0.1361
  C  C130  1  0.413900  0.938600  0.109230  1.0  0.6704
  C  C131  1  0.819400  0.865700  0.287270  1.0  -0.1495
  C  C132  1  0.207600  0.203500  0.405300  1.0  0.0254
  C  C133  1  0.834800  0.884500  0.343030  1.0  0.6952
  C  C134  1  0.470500  0.779200  0.318200  1.0  -0.0611
  C  C135  1  0.239300  0.254900  0.371820  1.0  -0.1503
  C  C136  1  0.404800  0.627100  0.231500  1.0  -0.1423
  C  C137  1  0.751800  0.770400  0.023020  1.0  0.0275
  C  C138  1  0.362100  0.851100  0.122720  1.0  -0.1635
  C  C139  1  0.395200  0.726600  0.230480  1.0  0.0299
  C  C140  1  0.990900  0.201000  0.273170  1.0  0.0104
  C  C141  1  0.707200  0.858100  0.209640  1.0  -0.1163
  C  C142  1  0.698800  0.843700  0.050610  1.0  -0.1643
  C  C143  1  0.068700  0.197700  0.318120  1.0  0.0218
  C  C144  1  0.236000  0.701200  0.101190  1.0  -0.1549
  C  C145  1  0.446200  0.604400  0.275100  1.0  -0.0352
  C  C146  1  0.919800  0.117100  0.247000  1.0  -0.1193
  C  C147  1  0.822500  0.726900  0.098370  1.0  -0.0685
  C  C148  1  0.479000  0.679500  0.319380  1.0  -0.1242
  C  C149  1  0.351700  0.749000  0.182400  1.0  -0.0204
  C  C150  1  0.841300  0.124100  0.208950  1.0  -0.039
  C  C151  1  0.772700  0.803100  0.127030  1.0  0.0188
  C  C152  1  0.710300  0.861700  0.102680  1.0  -0.0672
  C  C153  1  0.108100  0.149200  0.395920  1.0  -0.1455
  C  C154  1  0.722100  0.879600  0.261400  1.0  -0.0597
  C  C155  1  0.169400  0.253200  0.328570  1.0  -0.0864
  C  C156  1  0.832500  0.215300  0.196270  1.0  -0.159
  C  C157  1  0.898200  0.830200  0.260650  1.0  -0.0349
  C  C158  1  0.429000  0.803000  0.274200  1.0  -0.1213
  C  C159  1  0.787700  0.823100  0.182450  1.0  0.0488
  C  C160  1  0.740800  0.226500  0.158490  1.0  0.6686
  C  C161  1  0.906300  0.296600  0.220800  1.0  -0.0452
  C  C162  1  0.984900  0.290000  0.259200  1.0  -0.1258
  C  C163  1  0.151400  0.628500  0.063620  1.0  0.731
  C  C164  1  0.070300  0.099500  0.434810  1.0  0.7697
  C  C165  1  0.631900  0.903400  0.023270  1.0  0.7576
  C  C166  1  0.020400  0.493100  0.164220  1.0  0.6587
  C  C167  1  0.246100  0.606500  0.401510  1.0  -0.0653
  C  C168  1  0.058300  0.533100  0.219350  1.0  -0.165
  C  C169  1  0.347300  0.316000  0.382740  1.0  0.6656
  C  C170  1  0.874100  0.636200  0.016680  1.0  0.7389
  C  C171  1  0.001600  0.597900  0.248780  1.0  -0.054
  C  C172  1  0.176900  0.781100  0.455470  1.0  -0.1477
  C  C173  1  0.284100  0.644400  0.452360  1.0  -0.1505
  C  C174  1  0.136000  0.741500  0.404680  1.0  -0.0769
  C  C175  1  0.519800  0.651900  0.366510  1.0  0.668
  C  C176  1  0.143200  0.875600  0.485260  1.0  0.7277
  C  C177  1  0.170900  0.654100  0.376720  1.0  0.038
  C  C178  1  0.250800  0.732200  0.479210  1.0  0.0317
  C  C179  1  0.187700  0.546000  0.292420  1.0  -0.112
  C  C180  1  0.813300  0.712300  0.046610  1.0  -0.1409
  C  C181  1  0.036500  0.636400  0.299860  1.0  -0.1458
  C  C182  1  0.152000  0.505300  0.241320  1.0  -0.0869
  C  C183  1  0.130900  0.610700  0.322180  1.0  -0.0833
  C  C184  1  0.357700  0.587400  0.478560  1.0  0.7395
  O  O185  1  0.514600  0.001200  0.859090  1.0  -0.6474
  O  O186  1  0.614700  0.047000  0.933290  1.0  -0.6799
  O  O187  1  0.224900  0.061700  0.631960  1.0  -0.6458
  O  O188  1  0.089900  0.153600  0.636380  1.0  -0.6315
  O  O189  1  0.103400  0.349400  0.024410  1.0  -0.6596
  O  O190  1  0.021200  0.950700  0.577420  1.0  -0.7275
  O  O191  1  0.588200  0.686700  0.579300  1.0  -0.668
  O  O192  1  0.603400  0.483700  0.547420  1.0  -0.7292
  O  O193  1  0.940300  0.580600  0.860860  1.0  -0.6131
  O  O194  1  0.889200  0.444200  0.922190  1.0  -0.7256
  O  O195  1  0.793200  0.074600  0.476320  1.0  -0.6414
  O  O196  1  0.874900  0.353400  0.977730  1.0  -0.7991
  O  O197  1  0.944700  0.094300  0.528230  1.0  -0.8426
  O  O198  1  0.099000  0.435500  0.966630  1.0  -0.7874
  O  O199  1  0.867000  0.891100  0.525970  1.0  -0.7295
  O  O200  1  0.483100  0.441200  0.636200  1.0  -0.7087
  O  O201  1  0.625300  0.385600  0.474190  1.0  -0.7253
  O  O202  1  0.402600  0.020100  0.951760  1.0  -0.7798
  O  O203  1  0.329900  0.848800  0.858540  1.0  -0.708
  O  O204  1  0.629000  0.629100  0.645180  1.0  -0.6642
  O  O205  1  0.385700  0.128300  0.023730  1.0  -0.6729
  O  O206  1  0.263000  0.690900  0.852250  1.0  -0.4962
  O  O207  1  0.447300  0.280000  0.594310  1.0  -0.5163
  O  O208  1  0.050700  0.465300  0.856580  1.0  -0.6081
  O  O209  1  0.485400  0.998800  0.140910  1.0  -0.6517
  O  O210  1  0.385300  0.953000  0.066710  1.0  -0.6789
  O  O211  1  0.775100  0.938300  0.368040  1.0  -0.6447
  O  O212  1  0.910100  0.846400  0.363620  1.0  -0.6331
  O  O213  1  0.896600  0.650600  0.975590  1.0  -0.6589
  O  O214  1  0.978800  0.049300  0.422580  1.0  -0.7288
  O  O215  1  0.411800  0.313300  0.420700  1.0  -0.6679
  O  O216  1  0.396600  0.516300  0.452580  1.0  -0.7289
  O  O217  1  0.059700  0.419400  0.139140  1.0  -0.6117
  O  O218  1  0.110800  0.555800  0.077810  1.0  -0.7231
  O  O219  1  0.206800  0.925400  0.523680  1.0  -0.6427
  O  O220  1  0.125100  0.646600  0.022270  1.0  -0.7981
  O  O221  1  0.055300  0.905700  0.471770  1.0  -0.8418
  O  O222  1  0.901000  0.564500  0.033370  1.0  -0.7863
  O  O223  1  0.133000  0.108900  0.474030  1.0  -0.7289
  O  O224  1  0.516900  0.558800  0.363800  1.0  -0.7037
  O  O225  1  0.374700  0.614400  0.525810  1.0  -0.7256
  O  O226  1  0.597400  0.979900  0.048240  1.0  -0.7817
  O  O227  1  0.670100  0.151200  0.141460  1.0  -0.7088
  O  O228  1  0.371000  0.370900  0.354820  1.0  -0.6664
  O  O229  1  0.614300  0.871700  0.976270  1.0  -0.6749
  O  O230  1  0.737000  0.309100  0.147750  1.0  -0.4975
  O  O231  1  0.552700  0.720000  0.405690  1.0  -0.5176
  O  O232  1  0.949300  0.534700  0.143420  1.0  -0.6075
