# generated using pymatgen
data_CuH4C9(NO2)2
_symmetry_space_group_name_H-M   'P 1'
_cell_length_a   9.74700000
_cell_length_b   9.74700000
_cell_length_c   14.76950000
_cell_angle_alpha   100.16000000
_cell_angle_beta   100.16000000
_cell_angle_gamma   107.05300000
_symmetry_Int_Tables_number   1
_chemical_formula_structural   CuH4C9(NO2)2
_chemical_formula_sum   'Cu4 H16 C36 N8 O16'
_cell_volume   1281.04791161
_cell_formula_units_Z   4
loop_
 _symmetry_equiv_pos_site_id
 _symmetry_equiv_pos_as_xyz
  1  'x, y, z'
loop_
 _atom_site_type_symbol
 _atom_site_label
 _atom_site_symmetry_multiplicity
 _atom_site_fract_x
 _atom_site_fract_y
 _atom_site_fract_z
 _atom_site_occupancy
 _atom_site_charge
  Cu  Cu1  1  0.496620  0.006440  0.757040  1.0  0.8265
  Cu  Cu2  1  0.993560  0.503380  0.742960  1.0  0.8261
  Cu  Cu3  1  0.503380  0.993560  0.242960  1.0  0.8266
  Cu  Cu4  1  0.006440  0.496620  0.257040  1.0  0.8268
  H  H5  1  0.833900  0.830900  0.868600  1.0  0.0766
  H  H6  1  0.397400  0.273200  0.765700  1.0  0.1019
  H  H7  1  0.259800  0.399000  0.752600  1.0  0.0989
  H  H8  1  0.169100  0.166100  0.631400  1.0  0.0757
  H  H9  1  0.726800  0.602600  0.734300  1.0  0.1033
  H  H10  1  0.601000  0.740200  0.747400  1.0  0.0972
  H  H11  1  0.166100  0.169100  0.131400  1.0  0.0753
  H  H12  1  0.602600  0.726800  0.234300  1.0  0.102
  H  H13  1  0.740200  0.601000  0.247400  1.0  0.0981
  H  H14  1  0.830900  0.833900  0.368600  1.0  0.0768
  H  H15  1  0.273200  0.397400  0.265700  1.0  0.1027
  H  H16  1  0.399000  0.259800  0.252600  1.0  0.0985
  H  H17  1  0.218000  0.782000  0.750000  1.0  0.0635
  H  H18  1  0.776000  0.224000  0.750000  1.0  0.0737
  H  H19  1  0.782000  0.218000  0.250000  1.0  0.064
  H  H20  1  0.224000  0.776000  0.250000  1.0  0.0739
  C  C21  1  0.721160  0.034840  0.918900  1.0  0.664
  C  C22  1  0.869320  0.023280  0.960700  1.0  -0.0604
  C  C23  1  0.900730  0.899070  0.921800  1.0  -0.0733
  C  C24  1  0.970840  0.126560  0.039900  1.0  -0.0857
  C  C25  1  0.949600  0.268400  0.083300  1.0  0.686
  C  C26  1  0.493100  0.311500  0.758600  1.0  0.1968
  C  C27  1  0.300770  0.497430  0.751200  1.0  0.1937
  C  C28  1  0.965160  0.278840  0.581100  1.0  0.6648
  C  C29  1  0.976720  0.130680  0.539300  1.0  -0.0602
  C  C30  1  0.100930  0.099270  0.578200  1.0  -0.0726
  C  C31  1  0.873440  0.029160  0.460100  1.0  -0.0852
  C  C32  1  0.731600  0.050400  0.416700  1.0  0.6845
  C  C33  1  0.688500  0.506900  0.741400  1.0  0.1954
  C  C34  1  0.502570  0.699230  0.748800  1.0  0.1966
  C  C35  1  0.278840  0.965160  0.081100  1.0  0.6637
  C  C36  1  0.130680  0.976720  0.039300  1.0  -0.0597
  C  C37  1  0.099270  0.100930  0.078200  1.0  -0.0733
  C  C38  1  0.029160  0.873440  0.960100  1.0  -0.0854
  C  C39  1  0.050400  0.731600  0.916700  1.0  0.6867
  C  C40  1  0.506900  0.688500  0.241400  1.0  0.1965
  C  C41  1  0.699230  0.502570  0.248800  1.0  0.1987
  C  C42  1  0.034840  0.721160  0.418900  1.0  0.665
  C  C43  1  0.023280  0.869320  0.460700  1.0  -0.0597
  C  C44  1  0.899070  0.900730  0.421800  1.0  -0.0731
  C  C45  1  0.126560  0.970840  0.539900  1.0  -0.0859
  C  C46  1  0.268400  0.949600  0.583300  1.0  0.6871
  C  C47  1  0.311500  0.493100  0.258600  1.0  0.1961
  C  C48  1  0.497430  0.300770  0.251200  1.0  0.1948
  C  C49  1  0.716300  0.283700  0.750000  1.0  0.3909
  C  C50  1  0.543600  0.456400  0.750000  1.0  -0.0734
  C  C51  1  0.448900  0.551100  0.750000  1.0  -0.0834
  C  C52  1  0.276600  0.723400  0.750000  1.0  0.401
  C  C53  1  0.283700  0.716300  0.250000  1.0  0.3895
  C  C54  1  0.456400  0.543600  0.250000  1.0  -0.0733
  C  C55  1  0.551100  0.448900  0.250000  1.0  -0.0842
  C  C56  1  0.723400  0.276600  0.250000  1.0  0.4024
  N  N57  1  0.577540  0.225260  0.756810  1.0  -0.3307
  N  N58  1  0.214880  0.582320  0.750510  1.0  -0.3357
  N  N59  1  0.774740  0.422460  0.743190  1.0  -0.3299
  N  N60  1  0.417680  0.785120  0.749490  1.0  -0.3357
  N  N61  1  0.422460  0.774740  0.243190  1.0  -0.3315
  N  N62  1  0.785120  0.417680  0.249490  1.0  -0.3334
  N  N63  1  0.225260  0.577540  0.256810  1.0  -0.3307
  N  N64  1  0.582320  0.214880  0.250510  1.0  -0.3377
  O  O65  1  0.688920  0.019680  0.830580  1.0  -0.6115
  O  O66  1  0.640200  0.050800  0.970000  1.0  -0.541
  O  O67  1  0.993120  0.311960  0.172000  1.0  -0.6246
  O  O68  1  0.891300  0.330900  0.031200  1.0  -0.5705
  O  O69  1  0.980320  0.311080  0.669420  1.0  -0.6099
  O  O70  1  0.949200  0.359800  0.530000  1.0  -0.5413
  O  O71  1  0.688040  0.006880  0.328000  1.0  -0.6241
  O  O72  1  0.669100  0.108700  0.468800  1.0  -0.5716
  O  O73  1  0.311080  0.980320  0.169420  1.0  -0.609
  O  O74  1  0.359800  0.949200  0.030000  1.0  -0.5417
  O  O75  1  0.006880  0.688040  0.828000  1.0  -0.6252
  O  O76  1  0.108700  0.669100  0.968800  1.0  -0.5711
  O  O77  1  0.019680  0.688920  0.330580  1.0  -0.6117
  O  O78  1  0.050800  0.640200  0.470000  1.0  -0.5382
  O  O79  1  0.311960  0.993120  0.672000  1.0  -0.6242
  O  O80  1  0.330900  0.891300  0.531200  1.0  -0.5725
