# generated using pymatgen
data_NiH4C9(NO2)2
_symmetry_space_group_name_H-M   'P 1'
_cell_length_a   9.94980000
_cell_length_b   9.94980000
_cell_length_c   14.37600000
_cell_angle_alpha   98.35150000
_cell_angle_beta   98.35150000
_cell_angle_gamma   107.67700000
_symmetry_Int_Tables_number   1
_chemical_formula_structural   NiH4C9(NO2)2
_chemical_formula_sum   'Ni4 H16 C36 N8 O16'
_cell_volume   1314.28125677
_cell_formula_units_Z   4
loop_
 _symmetry_equiv_pos_site_id
 _symmetry_equiv_pos_as_xyz
  1  'x, y, z'
loop_
 _atom_site_type_symbol
 _atom_site_label
 _atom_site_symmetry_multiplicity
 _atom_site_fract_x
 _atom_site_fract_y
 _atom_site_fract_z
 _atom_site_occupancy
 _atom_site_charge
  Ni  Ni1  1  0.002360  0.500080  0.254660  1.0  0.6686
  Ni  Ni2  1  0.499920  0.997640  0.245340  1.0  0.6691
  Ni  Ni3  1  0.997640  0.499920  0.745340  1.0  0.6691
  Ni  Ni4  1  0.500080  0.002360  0.754660  1.0  0.6688
  H  H5  1  0.272200  0.399600  0.264600  1.0  0.0942
  H  H6  1  0.736200  0.605000  0.255700  1.0  0.0808
  H  H7  1  0.844400  0.827400  0.374800  1.0  0.0902
  H  H8  1  0.600400  0.727800  0.235400  1.0  0.0934
  H  H9  1  0.395000  0.263800  0.244300  1.0  0.0799
  H  H10  1  0.172600  0.155600  0.125200  1.0  0.0891
  H  H11  1  0.727800  0.600400  0.735400  1.0  0.094
  H  H12  1  0.263800  0.395000  0.744300  1.0  0.0814
  H  H13  1  0.155600  0.172600  0.625200  1.0  0.0895
  H  H14  1  0.399600  0.272200  0.764600  1.0  0.0935
  H  H15  1  0.605000  0.736200  0.755700  1.0  0.0804
  H  H16  1  0.827400  0.844400  0.874800  1.0  0.0899
  H  H17  1  0.231000  0.769000  0.250000  1.0  0.0423
  H  H18  1  0.772200  0.227800  0.250000  1.0  0.0673
  H  H19  1  0.769000  0.231000  0.750000  1.0  0.0411
  H  H20  1  0.227800  0.772200  0.750000  1.0  0.0678
  C  C21  1  0.310600  0.494400  0.257700  1.0  0.1902
  C  C22  1  0.693900  0.507100  0.253200  1.0  0.1977
  C  C23  1  0.034700  0.876700  0.465400  1.0  -0.0924
  C  C24  1  0.130500  0.985100  0.541600  1.0  -0.0497
  C  C25  1  0.907100  0.897100  0.425800  1.0  -0.0691
  C  C26  1  0.059000  0.740200  0.427800  1.0  0.6798
  C  C27  1  0.277400  0.981000  0.582300  1.0  0.6524
  C  C28  1  0.505600  0.689400  0.242300  1.0  0.1894
  C  C29  1  0.492900  0.306100  0.246800  1.0  0.2024
  C  C30  1  0.123300  0.965300  0.034600  1.0  -0.0892
  C  C31  1  0.014900  0.869500  0.958400  1.0  -0.0499
  C  C32  1  0.102900  0.092900  0.074200  1.0  -0.0694
  C  C33  1  0.259800  0.941000  0.072200  1.0  0.677
  C  C34  1  0.019000  0.722600  0.917700  1.0  0.6569
  C  C35  1  0.689400  0.505600  0.742300  1.0  0.1904
  C  C36  1  0.306100  0.492900  0.746800  1.0  0.2017
  C  C37  1  0.965300  0.123300  0.534600  1.0  -0.0866
  C  C38  1  0.869500  0.014900  0.458400  1.0  -0.0504
  C  C39  1  0.092900  0.102900  0.574200  1.0  -0.0684
  C  C40  1  0.941000  0.259800  0.572200  1.0  0.6783
  C  C41  1  0.722600  0.019000  0.417700  1.0  0.652
  C  C42  1  0.494400  0.310600  0.757700  1.0  0.1913
  C  C43  1  0.507100  0.693900  0.753200  1.0  0.1994
  C  C44  1  0.876700  0.034700  0.965400  1.0  -0.087
  C  C45  1  0.985100  0.130500  0.041600  1.0  -0.0502
  C  C46  1  0.897100  0.907100  0.925800  1.0  -0.0671
  C  C47  1  0.740200  0.059000  0.927800  1.0  0.6765
  C  C48  1  0.981000  0.277400  0.082300  1.0  0.6509
  C  C49  1  0.454000  0.546000  0.250000  1.0  0.0301
  C  C50  1  0.288900  0.711100  0.250000  1.0  0.4005
  C  C51  1  0.545800  0.454200  0.250000  1.0  -0.0924
  C  C52  1  0.714300  0.285700  0.250000  1.0  0.4105
  C  C53  1  0.546000  0.454000  0.750000  1.0  0.0299
  C  C54  1  0.711100  0.288900  0.750000  1.0  0.3999
  C  C55  1  0.454200  0.545800  0.750000  1.0  -0.0919
  C  C56  1  0.285700  0.714300  0.750000  1.0  0.4103
  N  N57  1  0.226300  0.575300  0.255400  1.0  -0.3133
  N  N58  1  0.778000  0.425200  0.252800  1.0  -0.3076
  N  N59  1  0.424700  0.773700  0.244600  1.0  -0.3148
  N  N60  1  0.574800  0.222000  0.247200  1.0  -0.3101
  N  N61  1  0.773700  0.424700  0.744600  1.0  -0.3141
  N  N62  1  0.222000  0.574800  0.747200  1.0  -0.3074
  N  N63  1  0.575300  0.226300  0.755400  1.0  -0.3151
  N  N64  1  0.425200  0.778000  0.752800  1.0  -0.3101
  O  O65  1  0.013900  0.688500  0.339400  1.0  -0.5876
  O  O66  1  0.118600  0.683600  0.486400  1.0  -0.5621
  O  O67  1  0.305100  0.984300  0.671900  1.0  -0.5828
  O  O68  1  0.363400  0.980600  0.529600  1.0  -0.5198
  O  O69  1  0.311500  0.986100  0.160600  1.0  -0.5876
  O  O70  1  0.316400  0.881400  0.013600  1.0  -0.5652
  O  O71  1  0.015700  0.694900  0.828100  1.0  -0.5849
  O  O72  1  0.019400  0.636600  0.970400  1.0  -0.5164
  O  O73  1  0.986100  0.311500  0.660600  1.0  -0.588
  O  O74  1  0.881400  0.316400  0.513600  1.0  -0.564
  O  O75  1  0.694900  0.015700  0.328100  1.0  -0.5845
  O  O76  1  0.636600  0.019400  0.470400  1.0  -0.5175
  O  O77  1  0.688500  0.013900  0.839400  1.0  -0.5872
  O  O78  1  0.683600  0.118600  0.986400  1.0  -0.5623
  O  O79  1  0.984300  0.305100  0.171900  1.0  -0.5837
  O  O80  1  0.980600  0.363400  0.029600  1.0  -0.5178
