# generated using pymatgen
data_U2H3C9O7
_symmetry_space_group_name_H-M   'P 1'
_cell_length_a   11.75000000
_cell_length_b   9.83200000
_cell_length_c   14.63000000
_cell_angle_alpha   90.00000000
_cell_angle_beta   97.73000000
_cell_angle_gamma   90.00000000
_symmetry_Int_Tables_number   1
_chemical_formula_structural   U2H3C9O7
_chemical_formula_sum   'U8 H12 C36 O28'
_cell_volume   1674.78687492
_cell_formula_units_Z   4
loop_
 _symmetry_equiv_pos_site_id
 _symmetry_equiv_pos_as_xyz
  1  'x, y, z'
loop_
 _atom_site_type_symbol
 _atom_site_label
 _atom_site_symmetry_multiplicity
 _atom_site_fract_x
 _atom_site_fract_y
 _atom_site_fract_z
 _atom_site_occupancy
 _atom_site_charge
  U  U1  1  0.345670  0.030860  0.991130  1.0  1.9125
  U  U2  1  0.472420  0.854830  0.778930  1.0  1.7475
  U  U3  1  0.154330  0.530860  0.508870  1.0  1.9126
  U  U4  1  0.027580  0.354830  0.721070  1.0  1.7494
  U  U5  1  0.654330  0.969140  0.008870  1.0  1.9122
  U  U6  1  0.527580  0.145170  0.221070  1.0  1.7504
  U  U7  1  0.845670  0.469140  0.491130  1.0  1.9121
  U  U8  1  0.972420  0.645170  0.278930  1.0  1.7473
  H  H9  1  0.133400  0.274500  0.312600  1.0  0.0921
  H  H10  1  0.937800  0.252300  0.312000  1.0  0.0849
  H  H11  1  0.127500  0.959600  0.135100  1.0  0.0925
  H  H12  1  0.366600  0.774500  0.187400  1.0  0.0924
  H  H13  1  0.562200  0.752300  0.188000  1.0  0.0846
  H  H14  1  0.372500  0.459600  0.364900  1.0  0.0932
  H  H15  1  0.866600  0.725500  0.687400  1.0  0.0924
  H  H16  1  0.062200  0.747700  0.688000  1.0  0.0845
  H  H17  1  0.872500  0.040400  0.864900  1.0  0.0927
  H  H18  1  0.633400  0.225500  0.812600  1.0  0.0923
  H  H19  1  0.437800  0.247700  0.812000  1.0  0.085
  H  H20  1  0.627500  0.540400  0.635100  1.0  0.0928
  C  C21  1  0.275000  0.140600  0.218700  1.0  0.6648
  C  C22  1  0.150000  0.122900  0.221700  1.0  -0.1786
  C  C23  1  0.092900  0.208600  0.276000  1.0  -0.0805
  C  C24  1  0.975800  0.195400  0.275300  1.0  -0.0764
  C  C25  1  0.914300  0.098500  0.220500  1.0  -0.1543
  C  C26  1  0.972000  0.007400  0.168600  1.0  -0.1089
  C  C27  1  0.088900  0.019600  0.169300  1.0  -0.1093
  C  C28  1  0.914700  0.892500  0.108900  1.0  0.6846
  C  C29  1  0.785700  0.092700  0.218200  1.0  0.6568
  C  C30  1  0.225000  0.640600  0.281300  1.0  0.6645
  C  C31  1  0.350000  0.622900  0.278300  1.0  -0.1775
  C  C32  1  0.407100  0.708600  0.224000  1.0  -0.0808
  C  C33  1  0.524200  0.695400  0.224700  1.0  -0.076
  C  C34  1  0.585700  0.598500  0.279500  1.0  -0.1548
  C  C35  1  0.528000  0.507400  0.331400  1.0  -0.1083
  C  C36  1  0.411100  0.519600  0.330700  1.0  -0.109
  C  C37  1  0.585300  0.392500  0.391100  1.0  0.685
  C  C38  1  0.714300  0.592700  0.281800  1.0  0.6578
  C  C39  1  0.725000  0.859400  0.781300  1.0  0.6645
  C  C40  1  0.850000  0.877100  0.778300  1.0  -0.1776
  C  C41  1  0.907100  0.791400  0.724000  1.0  -0.08
  C  C42  1  0.024200  0.804600  0.724700  1.0  -0.0756
  C  C43  1  0.085700  0.901500  0.779500  1.0  -0.1549
  C  C44  1  0.028000  0.992600  0.831400  1.0  -0.1088
  C  C45  1  0.911100  0.980400  0.830700  1.0  -0.109
  C  C46  1  0.085300  0.107500  0.891100  1.0  0.6841
  C  C47  1  0.214300  0.907300  0.781800  1.0  0.6581
  C  C48  1  0.775000  0.359400  0.718700  1.0  0.6649
  C  C49  1  0.650000  0.377100  0.721700  1.0  -0.1785
  C  C50  1  0.592900  0.291400  0.776000  1.0  -0.0805
  C  C51  1  0.475800  0.304600  0.775300  1.0  -0.0763
  C  C52  1  0.414300  0.401500  0.720500  1.0  -0.1547
  C  C53  1  0.472000  0.492600  0.668600  1.0  -0.1091
  C  C54  1  0.588900  0.480400  0.669300  1.0  -0.1095
  C  C55  1  0.414700  0.607500  0.608900  1.0  0.6849
  C  C56  1  0.285700  0.407300  0.718200  1.0  0.6572
  O  O57  1  0.488500  0.967300  0.911200  1.0  -0.8485
  O  O58  1  0.339700  0.200800  0.281100  1.0  -0.6612
  O  O59  1  0.319300  0.088700  0.151300  1.0  -0.8561
  O  O60  1  0.931800  0.769300  0.134100  1.0  -0.7238
  O  O61  1  0.859100  0.925700  0.031000  1.0  -0.7097
  O  O62  1  0.730200  0.004900  0.168400  1.0  -0.7664
  O  O63  1  0.736300  0.174500  0.263700  1.0  -0.6601
  O  O64  1  0.011500  0.467300  0.588800  1.0  -0.8488
  O  O65  1  0.160300  0.700800  0.218900  1.0  -0.6631
  O  O66  1  0.180700  0.588700  0.348700  1.0  -0.8567
  O  O67  1  0.568200  0.269300  0.365900  1.0  -0.7258
  O  O68  1  0.640900  0.425700  0.469000  1.0  -0.7091
  O  O69  1  0.769800  0.504900  0.331600  1.0  -0.7663
  O  O70  1  0.763700  0.674500  0.236300  1.0  -0.66
  O  O71  1  0.511500  0.032700  0.088800  1.0  -0.8492
  O  O72  1  0.660300  0.799200  0.718900  1.0  -0.6627
  O  O73  1  0.680700  0.911300  0.848700  1.0  -0.8586
  O  O74  1  0.068200  0.230700  0.865900  1.0  -0.7281
  O  O75  1  0.140900  0.074300  0.969000  1.0  -0.7091
  O  O76  1  0.269800  0.995100  0.831600  1.0  -0.7661
  O  O77  1  0.263700  0.825500  0.736300  1.0  -0.6607
  O  O78  1  0.988500  0.532700  0.411200  1.0  -0.849
  O  O79  1  0.839700  0.299200  0.781100  1.0  -0.6617
  O  O80  1  0.819300  0.411300  0.651300  1.0  -0.8584
  O  O81  1  0.431800  0.730700  0.634100  1.0  -0.7269
  O  O82  1  0.359100  0.574300  0.531000  1.0  -0.7087
  O  O83  1  0.230200  0.495100  0.668400  1.0  -0.7661
  O  O84  1  0.236300  0.325500  0.763700  1.0  -0.6606
