# generated using pymatgen
data_ZnH14C24(NO2)2
_symmetry_space_group_name_H-M   'P 1'
_cell_length_a   10.98380000
_cell_length_b   14.43360000
_cell_length_c   16.12290000
_cell_angle_alpha   90.00000000
_cell_angle_beta   92.86710000
_cell_angle_gamma   90.00000000
_symmetry_Int_Tables_number   1
_chemical_formula_structural   ZnH14C24(NO2)2
_chemical_formula_sum   'Zn4 H56 C96 N8 O16'
_cell_volume   2552.85689787
_cell_formula_units_Z   4
loop_
 _symmetry_equiv_pos_site_id
 _symmetry_equiv_pos_as_xyz
  1  'x, y, z'
loop_
 _atom_site_type_symbol
 _atom_site_label
 _atom_site_symmetry_multiplicity
 _atom_site_fract_x
 _atom_site_fract_y
 _atom_site_fract_z
 _atom_site_occupancy
 _atom_site_charge
  Zn  Zn1  1  0.966890  0.624740  0.965840  1.0  0.8434
  Zn  Zn2  1  0.476370  0.147600  0.588830  1.0  0.8357
  Zn  Zn3  1  0.033110  0.124740  0.034160  1.0  0.8425
  Zn  Zn4  1  0.523630  0.647600  0.411170  1.0  0.8333
  H  H5  1  0.695500  0.899200  0.919400  1.0  0.0914
  H  H6  1  0.587400  0.000300  0.832600  1.0  0.1121
  H  H7  1  0.722700  0.935000  0.572500  1.0  0.0959
  H  H8  1  0.851900  0.827800  0.516300  1.0  0.111
  H  H9  1  0.952900  0.718200  0.605800  1.0  0.0957
  H  H10  1  0.933600  0.725200  0.743400  1.0  0.0998
  H  H11  1  0.376400  0.264000  0.836600  1.0  0.1074
  H  H12  1  0.273800  0.356200  0.929200  1.0  0.0932
  H  H13  1  0.110200  0.596800  0.764100  1.0  0.1079
  H  H14  1  0.122400  0.632400  0.625500  1.0  0.091
  H  H15  1  0.216600  0.535800  0.536500  1.0  0.1026
  H  H16  1  0.304900  0.401800  0.582600  1.0  0.1
  H  H17  1  0.509400  0.984500  0.477300  1.0  0.0653
  H  H18  1  0.417400  0.907200  0.367300  1.0  0.1141
  H  H19  1  0.109700  0.036200  0.413200  1.0  0.1278
  H  H20  1  0.212300  0.117300  0.517800  1.0  0.0837
  H  H21  1  0.281100  0.679000  0.204400  1.0  0.1204
  H  H22  1  0.189100  0.603200  0.094200  1.0  0.0811
  H  H23  1  0.971100  0.809200  0.045700  1.0  0.0663
  H  H24  1  0.057100  0.897400  0.151600  1.0  0.1221
  H  H25  1  0.416000  0.248100  0.423600  1.0  0.082
  H  H26  1  0.513300  0.323600  0.319900  1.0  0.1111
  H  H27  1  0.828000  0.293900  0.453300  1.0  0.109
  H  H28  1  0.730400  0.217800  0.551600  1.0  0.1051
  H  H29  1  0.625300  0.533700  0.140200  1.0  0.1167
  H  H30  1  0.725600  0.618500  0.043400  1.0  0.1024
  H  H31  1  0.014100  0.456800  0.076500  1.0  0.0931
  H  H32  1  0.926200  0.386000  0.188000  1.0  0.0947
  H  H33  1  0.304500  0.399200  0.080600  1.0  0.0918
  H  H34  1  0.412600  0.500300  0.167400  1.0  0.1122
  H  H35  1  0.277300  0.435000  0.427500  1.0  0.096
  H  H36  1  0.148100  0.327800  0.483700  1.0  0.1118
  H  H37  1  0.047100  0.218200  0.394200  1.0  0.0954
  H  H38  1  0.066400  0.225200  0.256600  1.0  0.0993
  H  H39  1  0.623600  0.764000  0.163400  1.0  0.1075
  H  H40  1  0.726200  0.856200  0.070800  1.0  0.0947
  H  H41  1  0.889800  0.096800  0.235900  1.0  0.1084
  H  H42  1  0.877600  0.132400  0.374500  1.0  0.091
  H  H43  1  0.783400  0.035800  0.463500  1.0  0.1023
  H  H44  1  0.695100  0.901800  0.417400  1.0  0.1005
  H  H45  1  0.490600  0.484500  0.522700  1.0  0.066
  H  H46  1  0.582600  0.407200  0.632700  1.0  0.1148
  H  H47  1  0.890300  0.536200  0.586800  1.0  0.1278
  H  H48  1  0.787700  0.617300  0.482200  1.0  0.0828
  H  H49  1  0.718900  0.179000  0.795600  1.0  0.1199
  H  H50  1  0.810900  0.103200  0.905800  1.0  0.0807
  H  H51  1  0.028900  0.309200  0.954300  1.0  0.0666
  H  H52  1  0.942900  0.397400  0.848400  1.0  0.1224
  H  H53  1  0.584000  0.748100  0.576400  1.0  0.0819
  H  H54  1  0.486700  0.823600  0.680100  1.0  0.1117
  H  H55  1  0.172000  0.793900  0.546700  1.0  0.1102
  H  H56  1  0.269600  0.717800  0.448400  1.0  0.1056
  H  H57  1  0.374700  0.033700  0.859800  1.0  0.1154
  H  H58  1  0.274400  0.118500  0.956600  1.0  0.1023
  H  H59  1  0.985900  0.956800  0.923500  1.0  0.0934
  H  H60  1  0.073800  0.886000  0.812000  1.0  0.0942
  C  C61  1  0.841500  0.761400  0.890500  1.0  0.6494
  C  C62  1  0.782100  0.831700  0.833700  1.0  -0.1286
  C  C63  1  0.706100  0.896400  0.862600  1.0  -0.0386
  C  C64  1  0.642500  0.959300  0.810600  1.0  -0.0687
  C  C65  1  0.661500  0.960400  0.726400  1.0  -0.1478
  C  C66  1  0.763500  0.892200  0.606900  1.0  -0.1024
  C  C67  1  0.840400  0.828400  0.573100  1.0  -0.1075
  C  C68  1  0.902500  0.762800  0.627700  1.0  -0.0974
  C  C69  1  0.888500  0.765500  0.709000  1.0  -0.1122
  C  C70  1  0.805400  0.828900  0.745300  1.0  0.0349
  C  C71  1  0.746100  0.893300  0.692200  1.0  0.047
  C  C72  1  0.588500  0.030600  0.673200  1.0  0.6375
  C  C73  1  0.388400  0.268700  0.676300  1.0  0.6563
  C  C74  1  0.327200  0.334200  0.734500  1.0  -0.1172
  C  C75  1  0.332200  0.315100  0.816800  1.0  -0.1002
  C  C76  1  0.270900  0.371700  0.873100  1.0  -0.0544
  C  C77  1  0.207000  0.449600  0.846500  1.0  -0.1826
  C  C78  1  0.150500  0.557000  0.729300  1.0  -0.1352
  C  C79  1  0.157400  0.577800  0.645900  1.0  -0.0896
  C  C80  1  0.214500  0.520000  0.592400  1.0  -0.0825
  C  C81  1  0.267700  0.440400  0.620000  1.0  -0.1266
  C  C82  1  0.267300  0.414900  0.704500  1.0  0.0443
  C  C83  1  0.205200  0.475100  0.761500  1.0  0.0654
  C  C84  1  0.142900  0.501000  0.912700  1.0  0.6802
  C  C85  1  0.428600  0.998500  0.462400  1.0  0.1699
  C  C86  1  0.372700  0.949200  0.397300  1.0  -0.1577
  C  C87  1  0.256500  0.961900  0.378000  1.0  0.1333
  C  C88  1  0.192600  0.026400  0.424300  1.0  -0.2022
  C  C89  1  0.255400  0.075100  0.487000  1.0  0.1736
  C  C90  1  0.184300  0.916100  0.308600  1.0  -0.0413
  C  C91  1  0.234200  0.842700  0.269000  1.0  0.0153
  C  C92  1  0.175100  0.796700  0.195800  1.0  0.0686
  C  C93  1  0.217000  0.706700  0.173900  1.0  -0.1622
  C  C94  1  0.161700  0.662100  0.107700  1.0  0.1726
  C  C95  1  0.034100  0.783200  0.078600  1.0  0.1918
  C  C96  1  0.083500  0.837100  0.143300  1.0  -0.1658
  C  C97  1  0.499700  0.257500  0.429300  1.0  0.1523
  C  C98  1  0.558300  0.302200  0.366400  1.0  -0.1433
  C  C99  1  0.686700  0.315400  0.372700  1.0  0.1277
  C  C100  1  0.744500  0.284100  0.445300  1.0  -0.1664
  C  C101  1  0.685700  0.239900  0.505200  1.0  0.1551
  C  C102  1  0.755500  0.353600  0.306400  1.0  -0.0586
  C  C103  1  0.698200  0.403800  0.245000  1.0  0.0131
  C  C104  1  0.768500  0.451100  0.178500  1.0  0.0638
  C  C105  1  0.706400  0.520700  0.130900  1.0  -0.1459
  C  C106  1  0.765400  0.569600  0.070800  1.0  0.1534
  C  C107  1  0.937800  0.475800  0.092300  1.0  0.149
  C  C108  1  0.882600  0.431000  0.157900  1.0  -0.1189
  C  C109  1  0.158500  0.261400  0.109500  1.0  0.6503
  C  C110  1  0.217900  0.331700  0.166300  1.0  -0.1276
  C  C111  1  0.293900  0.396400  0.137400  1.0  -0.0392
  C  C112  1  0.357500  0.459300  0.189400  1.0  -0.0692
  C  C113  1  0.338500  0.460400  0.273600  1.0  -0.1466
  C  C114  1  0.236500  0.392200  0.393100  1.0  -0.1014
  C  C115  1  0.159600  0.328400  0.426900  1.0  -0.1068
  C  C116  1  0.097500  0.262800  0.372300  1.0  -0.0976
  C  C117  1  0.111500  0.265500  0.291000  1.0  -0.1123
  C  C118  1  0.194600  0.328900  0.254700  1.0  0.0359
  C  C119  1  0.253900  0.393300  0.307800  1.0  0.0472
  C  C120  1  0.411500  0.530600  0.326800  1.0  0.637
  C  C121  1  0.611600  0.768700  0.323700  1.0  0.6576
  C  C122  1  0.672800  0.834200  0.265500  1.0  -0.1187
  C  C123  1  0.667800  0.815100  0.183200  1.0  -0.1004
  C  C124  1  0.729100  0.871700  0.126900  1.0  -0.053
  C  C125  1  0.793000  0.949600  0.153500  1.0  -0.183
  C  C126  1  0.849500  0.057000  0.270700  1.0  -0.1344
  C  C127  1  0.842600  0.077800  0.354100  1.0  -0.0899
  C  C128  1  0.785500  0.020000  0.407600  1.0  -0.0826
  C  C129  1  0.732300  0.940400  0.380000  1.0  -0.1257
  C  C130  1  0.732700  0.914900  0.295500  1.0  0.0439
  C  C131  1  0.794800  0.975100  0.238500  1.0  0.0655
  C  C132  1  0.857100  0.001000  0.087300  1.0  0.6793
  C  C133  1  0.571400  0.498500  0.537600  1.0  0.1714
  C  C134  1  0.627300  0.449200  0.602700  1.0  -0.1578
  C  C135  1  0.743500  0.461900  0.622000  1.0  0.1338
  C  C136  1  0.807400  0.526400  0.575700  1.0  -0.2023
  C  C137  1  0.744600  0.575100  0.513000  1.0  0.1738
  C  C138  1  0.815700  0.416100  0.691400  1.0  -0.0531
  C  C139  1  0.765800  0.342700  0.731000  1.0  0.0158
  C  C140  1  0.824900  0.296700  0.804200  1.0  0.0869
  C  C141  1  0.783000  0.206700  0.826100  1.0  -0.163
  C  C142  1  0.838300  0.162100  0.892300  1.0  0.1721
  C  C143  1  0.965900  0.283200  0.921400  1.0  0.1914
  C  C144  1  0.916500  0.337100  0.856700  1.0  -0.1675
  C  C145  1  0.500300  0.757500  0.570700  1.0  0.1529
  C  C146  1  0.441700  0.802200  0.633600  1.0  -0.1383
  C  C147  1  0.313300  0.815400  0.627300  1.0  0.1275
  C  C148  1  0.255500  0.784100  0.554700  1.0  -0.1672
  C  C149  1  0.314300  0.739900  0.494800  1.0  0.1564
  C  C150  1  0.244500  0.853600  0.693600  1.0  -0.0578
  C  C151  1  0.301800  0.903800  0.755000  1.0  0.013
  C  C152  1  0.231500  0.951100  0.821500  1.0  0.0788
  C  C153  1  0.293600  0.020700  0.869100  1.0  -0.1426
  C  C154  1  0.234600  0.069600  0.929200  1.0  0.153
  C  C155  1  0.062200  0.975800  0.907700  1.0  0.1478
  C  C156  1  0.117400  0.931000  0.842100  1.0  -0.1184
  N  N157  1  0.374600  0.064700  0.505300  1.0  -0.3253
  N  N158  1  0.067700  0.700300  0.060100  1.0  -0.338
  N  N159  1  0.562000  0.226700  0.499700  1.0  -0.3525
  N  N160  1  0.879700  0.547300  0.051500  1.0  -0.3533
  N  N161  1  0.625400  0.564700  0.494700  1.0  -0.3257
  N  N162  1  0.932300  0.200300  0.939900  1.0  -0.3372
  N  N163  1  0.438000  0.726700  0.500300  1.0  -0.3542
  N  N164  1  0.120300  0.047300  0.948500  1.0  -0.3529
  O  O165  1  0.951700  0.739500  0.883400  1.0  -0.5678
  O  O166  1  0.782000  0.736500  0.951500  1.0  -0.6112
  O  O167  1  0.636000  0.069100  0.613700  1.0  -0.5723
  O  O168  1  0.483300  0.048900  0.693400  1.0  -0.5631
  O  O169  1  0.503300  0.255900  0.688600  1.0  -0.6041
  O  O170  1  0.328600  0.231400  0.619600  1.0  -0.5608
  O  O171  1  0.173200  0.491000  0.984600  1.0  -0.5534
  O  O172  1  0.054200  0.552200  0.887000  1.0  -0.5993
  O  O173  1  0.048300  0.239500  0.116600  1.0  -0.5678
  O  O174  1  0.218000  0.236500  0.048500  1.0  -0.613
  O  O175  1  0.364000  0.569100  0.386300  1.0  -0.5718
  O  O176  1  0.516700  0.548900  0.306600  1.0  -0.5616
  O  O177  1  0.496700  0.755900  0.311400  1.0  -0.6038
  O  O178  1  0.671400  0.731400  0.380400  1.0  -0.5606
  O  O179  1  0.826800  0.991000  0.015400  1.0  -0.5504
  O  O180  1  0.945800  0.052200  0.113000  1.0  -0.6001
