# generated using pymatgen
data_BiH8(C2O)8
_symmetry_space_group_name_H-M   'P 1'
_cell_length_a   10.70680000
_cell_length_b   17.72940000
_cell_length_c   13.24350000
_cell_angle_alpha   90.00000000
_cell_angle_beta   104.44600000
_cell_angle_gamma   90.00000000
_symmetry_Int_Tables_number   1
_chemical_formula_structural   BiH8(C2O)8
_chemical_formula_sum   'Bi4 H32 C64 O32'
_cell_volume   2434.46617989
_cell_formula_units_Z   4
loop_
 _symmetry_equiv_pos_site_id
 _symmetry_equiv_pos_as_xyz
  1  'x, y, z'
loop_
 _atom_site_type_symbol
 _atom_site_label
 _atom_site_symmetry_multiplicity
 _atom_site_fract_x
 _atom_site_fract_y
 _atom_site_fract_z
 _atom_site_occupancy
 _atom_site_charge
  Bi  Bi1  1  0.500000  0.075560  0.250000  1.0  1.4332
  Bi  Bi2  1  0.000000  0.575560  0.250000  1.0  1.4332
  Bi  Bi3  1  0.500000  0.924440  0.750000  1.0  1.4313
  Bi  Bi4  1  0.000000  0.424440  0.750000  1.0  1.4313
  H  H5  1  0.967600  0.071200  0.349900  1.0  0.1269
  H  H6  1  0.829200  0.973600  0.571700  1.0  0.1258
  H  H7  1  0.669500  0.294800  0.135500  1.0  0.1328
  H  H8  1  0.706100  0.127100  0.940800  1.0  0.128
  H  H9  1  0.467600  0.571200  0.349900  1.0  0.1269
  H  H10  1  0.329200  0.473600  0.571700  1.0  0.1258
  H  H11  1  0.169500  0.794800  0.135500  1.0  0.1328
  H  H12  1  0.206100  0.627100  0.940800  1.0  0.128
  H  H13  1  0.032400  0.071200  0.150100  1.0  0.1277
  H  H14  1  0.170800  0.973600  0.928300  1.0  0.1256
  H  H15  1  0.330500  0.294800  0.364500  1.0  0.1332
  H  H16  1  0.293900  0.127100  0.559200  1.0  0.1283
  H  H17  1  0.532400  0.571200  0.150100  1.0  0.1277
  H  H18  1  0.670800  0.473600  0.928300  1.0  0.1256
  H  H19  1  0.830500  0.794800  0.364500  1.0  0.1332
  H  H20  1  0.793900  0.627100  0.559200  1.0  0.1283
  H  H21  1  0.032400  0.928800  0.650100  1.0  0.1277
  H  H22  1  0.170800  0.026400  0.428300  1.0  0.1259
  H  H23  1  0.330500  0.705200  0.864500  1.0  0.1331
  H  H24  1  0.293900  0.872900  0.059200  1.0  0.1284
  H  H25  1  0.532400  0.428800  0.650100  1.0  0.1277
  H  H26  1  0.670800  0.526400  0.428300  1.0  0.1259
  H  H27  1  0.830500  0.205200  0.864500  1.0  0.1331
  H  H28  1  0.793900  0.372900  0.059200  1.0  0.1284
  H  H29  1  0.967600  0.928800  0.849900  1.0  0.1271
  H  H30  1  0.829200  0.026400  0.071700  1.0  0.1263
  H  H31  1  0.669500  0.705200  0.635500  1.0  0.133
  H  H32  1  0.706100  0.872900  0.440800  1.0  0.1283
  H  H33  1  0.467600  0.428800  0.849900  1.0  0.1271
  H  H34  1  0.329200  0.526400  0.071700  1.0  0.1263
  H  H35  1  0.169500  0.205200  0.635500  1.0  0.133
  H  H36  1  0.206100  0.372900  0.440800  1.0  0.1283
  C  C37  1  0.743300  0.051300  0.397100  1.0  0.7475
  C  C38  1  0.876500  0.026100  0.451300  1.0  -0.1445
  C  C39  1  0.980200  0.042300  0.410100  1.0  -0.0231
  C  C40  1  0.897600  0.984100  0.542300  1.0  -0.0144
  C  C41  1  0.602900  0.151700  0.099700  1.0  0.7125
  C  C42  1  0.675400  0.203800  0.046200  1.0  -0.0975
  C  C43  1  0.701800  0.276900  0.081100  1.0  -0.039
  C  C44  1  0.723700  0.176300  0.964400  1.0  -0.0426
  C  C45  1  0.243300  0.551300  0.397100  1.0  0.7475
  C  C46  1  0.376500  0.526100  0.451300  1.0  -0.1445
  C  C47  1  0.480200  0.542300  0.410100  1.0  -0.0231
  C  C48  1  0.397600  0.484100  0.542300  1.0  -0.0144
  C  C49  1  0.102900  0.651700  0.099700  1.0  0.7125
  C  C50  1  0.175400  0.703800  0.046200  1.0  -0.0975
  C  C51  1  0.201800  0.776900  0.081100  1.0  -0.039
  C  C52  1  0.223700  0.676300  0.964400  1.0  -0.0426
  C  C53  1  0.256700  0.051300  0.102900  1.0  0.7476
  C  C54  1  0.123500  0.026100  0.048700  1.0  -0.1452
  C  C55  1  0.019800  0.042300  0.089900  1.0  -0.025
  C  C56  1  0.102400  0.984100  0.957700  1.0  -0.0138
  C  C57  1  0.397100  0.151700  0.400300  1.0  0.712
  C  C58  1  0.324600  0.203800  0.453800  1.0  -0.098
  C  C59  1  0.298200  0.276900  0.418900  1.0  -0.0384
  C  C60  1  0.276300  0.176300  0.535600  1.0  -0.0434
  C  C61  1  0.756700  0.551300  0.102900  1.0  0.7476
  C  C62  1  0.623500  0.526100  0.048700  1.0  -0.1452
  C  C63  1  0.519800  0.542300  0.089900  1.0  -0.025
  C  C64  1  0.602400  0.484100  0.957700  1.0  -0.0138
  C  C65  1  0.897100  0.651700  0.400300  1.0  0.712
  C  C66  1  0.824600  0.703800  0.453800  1.0  -0.098
  C  C67  1  0.798200  0.776900  0.418900  1.0  -0.0384
  C  C68  1  0.776300  0.676300  0.535600  1.0  -0.0434
  C  C69  1  0.256700  0.948700  0.602900  1.0  0.7474
  C  C70  1  0.123500  0.973900  0.548700  1.0  -0.1451
  C  C71  1  0.019800  0.957700  0.589900  1.0  -0.0252
  C  C72  1  0.102400  0.015900  0.457700  1.0  -0.0141
  C  C73  1  0.397100  0.848300  0.900300  1.0  0.7123
  C  C74  1  0.324600  0.796200  0.953800  1.0  -0.098
  C  C75  1  0.298200  0.723100  0.918900  1.0  -0.0378
  C  C76  1  0.276300  0.823700  0.035600  1.0  -0.0407
  C  C77  1  0.756700  0.448700  0.602900  1.0  0.7474
  C  C78  1  0.623500  0.473900  0.548700  1.0  -0.1451
  C  C79  1  0.519800  0.457700  0.589900  1.0  -0.0252
  C  C80  1  0.602400  0.515900  0.457700  1.0  -0.0141
  C  C81  1  0.897100  0.348300  0.900300  1.0  0.7123
  C  C82  1  0.824600  0.296200  0.953800  1.0  -0.098
  C  C83  1  0.798200  0.223100  0.918900  1.0  -0.0378
  C  C84  1  0.776300  0.323700  0.035600  1.0  -0.0407
  C  C85  1  0.743300  0.948700  0.897100  1.0  0.748
  C  C86  1  0.876500  0.973900  0.951300  1.0  -0.1452
  C  C87  1  0.980200  0.957700  0.910100  1.0  -0.0233
  C  C88  1  0.897600  0.015900  0.042300  1.0  -0.0136
  C  C89  1  0.602900  0.848300  0.599700  1.0  0.7126
  C  C90  1  0.675400  0.796200  0.546200  1.0  -0.0976
  C  C91  1  0.701800  0.723100  0.581100  1.0  -0.0386
  C  C92  1  0.723700  0.823700  0.464400  1.0  -0.0407
  C  C93  1  0.243300  0.448700  0.897100  1.0  0.748
  C  C94  1  0.376500  0.473900  0.951300  1.0  -0.1452
  C  C95  1  0.480200  0.457700  0.910100  1.0  -0.0233
  C  C96  1  0.397600  0.515900  0.042300  1.0  -0.0136
  C  C97  1  0.102900  0.348300  0.599700  1.0  0.7126
  C  C98  1  0.175400  0.296200  0.546200  1.0  -0.0976
  C  C99  1  0.201800  0.223100  0.581100  1.0  -0.0386
  C  C100  1  0.223700  0.323700  0.464400  1.0  -0.0407
  O  O101  1  0.728500  0.094100  0.320100  1.0  -0.6085
  O  O102  1  0.650400  0.028100  0.428900  1.0  -0.6139
  O  O103  1  0.543700  0.179900  0.163900  1.0  -0.581
  O  O104  1  0.601900  0.082300  0.082200  1.0  -0.5281
  O  O105  1  0.228500  0.594100  0.320100  1.0  -0.6085
  O  O106  1  0.150400  0.528100  0.428900  1.0  -0.6139
  O  O107  1  0.043700  0.679900  0.163900  1.0  -0.581
  O  O108  1  0.101900  0.582300  0.082200  1.0  -0.5281
  O  O109  1  0.271500  0.094100  0.179900  1.0  -0.6073
  O  O110  1  0.349600  0.028100  0.071100  1.0  -0.6138
  O  O111  1  0.456300  0.179900  0.336100  1.0  -0.5809
  O  O112  1  0.398100  0.082300  0.417800  1.0  -0.5284
  O  O113  1  0.771500  0.594100  0.179900  1.0  -0.6073
  O  O114  1  0.849600  0.528100  0.071100  1.0  -0.6138
  O  O115  1  0.956300  0.679900  0.336100  1.0  -0.5809
  O  O116  1  0.898100  0.582300  0.417800  1.0  -0.5284
  O  O117  1  0.271500  0.905900  0.679900  1.0  -0.6069
  O  O118  1  0.349600  0.971900  0.571100  1.0  -0.6143
  O  O119  1  0.456300  0.820100  0.836100  1.0  -0.5804
  O  O120  1  0.398100  0.917700  0.917800  1.0  -0.5258
  O  O121  1  0.771500  0.405900  0.679900  1.0  -0.6069
  O  O122  1  0.849600  0.471900  0.571100  1.0  -0.6143
  O  O123  1  0.956300  0.320100  0.836100  1.0  -0.5804
  O  O124  1  0.898100  0.417700  0.917800  1.0  -0.5258
  O  O125  1  0.728500  0.905900  0.820100  1.0  -0.6087
  O  O126  1  0.650400  0.971900  0.928900  1.0  -0.614
  O  O127  1  0.543700  0.820100  0.663900  1.0  -0.5799
  O  O128  1  0.601900  0.917700  0.582200  1.0  -0.5259
  O  O129  1  0.228500  0.405900  0.820100  1.0  -0.6087
  O  O130  1  0.150400  0.471900  0.928900  1.0  -0.614
  O  O131  1  0.043700  0.320100  0.663900  1.0  -0.5799
  O  O132  1  0.101900  0.417700  0.582200  1.0  -0.5259
