# generated using pymatgen
data_CuH12C20NO4
_symmetry_space_group_name_H-M   'P 1'
_cell_length_a   24.08700000
_cell_length_b   36.32950000
_cell_length_c   36.32950000
_cell_angle_alpha   90.00000000
_cell_angle_beta   90.00000000
_cell_angle_gamma   90.00000000
_symmetry_Int_Tables_number   1
_chemical_formula_structural   CuH12C20NO4
_chemical_formula_sum   'Cu16 H192 C320 N16 O64'
_cell_volume   31790.80711961
_cell_formula_units_Z   16
loop_
 _symmetry_equiv_pos_site_id
 _symmetry_equiv_pos_as_xyz
  1  'x, y, z'
loop_
 _atom_site_type_symbol
 _atom_site_label
 _atom_site_symmetry_multiplicity
 _atom_site_fract_x
 _atom_site_fract_y
 _atom_site_fract_z
 _atom_site_occupancy
 _atom_site_charge
  Cu  Cu1  1  0.500000  0.187130  0.506530  1.0  0.8847
  Cu  Cu2  1  0.500000  0.812870  0.493470  1.0  0.8869
  Cu  Cu3  1  0.500000  0.493470  0.187130  1.0  0.8846
  Cu  Cu4  1  0.500000  0.506530  0.812870  1.0  0.8852
  Cu  Cu5  1  0.000000  0.312870  0.006530  1.0  0.8875
  Cu  Cu6  1  0.000000  0.687130  0.993470  1.0  0.8853
  Cu  Cu7  1  0.000000  0.006530  0.687130  1.0  0.8848
  Cu  Cu8  1  0.000000  0.993470  0.312870  1.0  0.886
  Cu  Cu9  1  0.000000  0.384930  0.011180  1.0  0.8972
  Cu  Cu10  1  0.000000  0.615070  0.988820  1.0  0.8983
  Cu  Cu11  1  0.000000  0.988820  0.384930  1.0  0.8951
  Cu  Cu12  1  0.000000  0.011180  0.615070  1.0  0.8968
  Cu  Cu13  1  0.500000  0.115070  0.511180  1.0  0.8979
  Cu  Cu14  1  0.500000  0.884930  0.488820  1.0  0.8973
  Cu  Cu15  1  0.500000  0.511180  0.884930  1.0  0.8954
  Cu  Cu16  1  0.500000  0.488820  0.115070  1.0  0.8966
  H  H17  1  0.330200  0.230900  0.746500  1.0  0.1185
  H  H18  1  0.371300  0.103000  0.592900  1.0  0.1103
  H  H19  1  0.198000  0.410000  0.886300  1.0  0.1226
  H  H20  1  0.127900  0.409300  0.929200  1.0  0.1062
  H  H21  1  0.372900  0.212600  0.587000  1.0  0.1079
  H  H22  1  0.170300  0.287700  0.768200  1.0  0.1189
  H  H23  1  0.128600  0.299500  0.927800  1.0  0.1092
  H  H24  1  0.301000  0.106200  0.635900  1.0  0.1157
  H  H25  1  0.173000  0.335000  0.811500  1.0  0.1141
  H  H26  1  0.329700  0.186900  0.703100  1.0  0.1157
  H  H27  1  0.199000  0.300500  0.884600  1.0  0.1128
  H  H28  1  0.301700  0.215200  0.628700  1.0  0.121
  H  H29  1  0.330200  0.769100  0.253500  1.0  0.1179
  H  H30  1  0.371300  0.897000  0.407100  1.0  0.1099
  H  H31  1  0.198000  0.590000  0.113700  1.0  0.1221
  H  H32  1  0.127900  0.590700  0.070800  1.0  0.1065
  H  H33  1  0.372900  0.787400  0.413000  1.0  0.1075
  H  H34  1  0.170300  0.712300  0.231800  1.0  0.1191
  H  H35  1  0.128600  0.700500  0.072200  1.0  0.11
  H  H36  1  0.301000  0.893800  0.364100  1.0  0.1167
  H  H37  1  0.173000  0.665000  0.188500  1.0  0.1148
  H  H38  1  0.329700  0.813100  0.296900  1.0  0.1156
  H  H39  1  0.199000  0.699500  0.115400  1.0  0.1127
  H  H40  1  0.301700  0.784800  0.371300  1.0  0.1216
  H  H41  1  0.330200  0.253500  0.230900  1.0  0.1184
  H  H42  1  0.371300  0.407100  0.103000  1.0  0.1102
  H  H43  1  0.198000  0.113700  0.410000  1.0  0.123
  H  H44  1  0.127900  0.070800  0.409300  1.0  0.1063
  H  H45  1  0.372900  0.413000  0.212600  1.0  0.1074
  H  H46  1  0.170300  0.231800  0.287700  1.0  0.1193
  H  H47  1  0.128600  0.072200  0.299500  1.0  0.1101
  H  H48  1  0.301000  0.364100  0.106200  1.0  0.1175
  H  H49  1  0.173000  0.188500  0.335000  1.0  0.1129
  H  H50  1  0.329700  0.296900  0.186900  1.0  0.1138
  H  H51  1  0.199000  0.115400  0.300500  1.0  0.1132
  H  H52  1  0.301700  0.371300  0.215200  1.0  0.1202
  H  H53  1  0.330200  0.746500  0.769100  1.0  0.1196
  H  H54  1  0.371300  0.592900  0.897000  1.0  0.1099
  H  H55  1  0.198000  0.886300  0.590000  1.0  0.1236
  H  H56  1  0.127900  0.929200  0.590700  1.0  0.1064
  H  H57  1  0.372900  0.587000  0.787400  1.0  0.1082
  H  H58  1  0.170300  0.768200  0.712300  1.0  0.1195
  H  H59  1  0.128600  0.927800  0.700500  1.0  0.1099
  H  H60  1  0.301000  0.635900  0.893800  1.0  0.1168
  H  H61  1  0.173000  0.811500  0.665000  1.0  0.1134
  H  H62  1  0.329700  0.703100  0.813100  1.0  0.1129
  H  H63  1  0.199000  0.884600  0.699500  1.0  0.1126
  H  H64  1  0.301700  0.628700  0.784800  1.0  0.1212
  H  H65  1  0.169800  0.269100  0.246500  1.0  0.1203
  H  H66  1  0.128700  0.397000  0.092900  1.0  0.1101
  H  H67  1  0.302000  0.090000  0.386300  1.0  0.1214
  H  H68  1  0.372100  0.090700  0.429200  1.0  0.1065
  H  H69  1  0.127100  0.287400  0.087000  1.0  0.108
  H  H70  1  0.329700  0.212300  0.268200  1.0  0.1188
  H  H71  1  0.371400  0.200500  0.427800  1.0  0.1099
  H  H72  1  0.199000  0.393800  0.135900  1.0  0.1158
  H  H73  1  0.327000  0.165000  0.311500  1.0  0.1134
  H  H74  1  0.170300  0.313100  0.203100  1.0  0.1162
  H  H75  1  0.301000  0.199500  0.384600  1.0  0.113
  H  H76  1  0.198300  0.284800  0.128700  1.0  0.1226
  H  H77  1  0.169800  0.730900  0.753500  1.0  0.1202
  H  H78  1  0.128700  0.603000  0.907100  1.0  0.1101
  H  H79  1  0.302000  0.910000  0.613700  1.0  0.1217
  H  H80  1  0.372100  0.909300  0.570800  1.0  0.1068
  H  H81  1  0.127100  0.712600  0.913000  1.0  0.1083
  H  H82  1  0.329700  0.787700  0.731800  1.0  0.119
  H  H83  1  0.371400  0.799500  0.572200  1.0  0.1096
  H  H84  1  0.199000  0.606200  0.864100  1.0  0.1155
  H  H85  1  0.327000  0.835000  0.688500  1.0  0.1132
  H  H86  1  0.170300  0.686900  0.796900  1.0  0.1161
  H  H87  1  0.301000  0.800500  0.615400  1.0  0.1126
  H  H88  1  0.198300  0.715200  0.871300  1.0  0.1231
  H  H89  1  0.169800  0.246500  0.730900  1.0  0.121
  H  H90  1  0.128700  0.092900  0.603000  1.0  0.11
  H  H91  1  0.302000  0.386300  0.910000  1.0  0.1221
  H  H92  1  0.372100  0.429200  0.909300  1.0  0.1064
  H  H93  1  0.127100  0.087000  0.712600  1.0  0.1078
  H  H94  1  0.329700  0.268200  0.787700  1.0  0.1193
  H  H95  1  0.371400  0.427800  0.799500  1.0  0.1103
  H  H96  1  0.199000  0.135900  0.606200  1.0  0.1172
  H  H97  1  0.327000  0.311500  0.835000  1.0  0.1123
  H  H98  1  0.170300  0.203100  0.686900  1.0  0.1141
  H  H99  1  0.301000  0.384600  0.800500  1.0  0.1128
  H  H100  1  0.198300  0.128700  0.715200  1.0  0.1223
  H  H101  1  0.169800  0.753500  0.269100  1.0  0.1208
  H  H102  1  0.128700  0.907100  0.397000  1.0  0.1098
  H  H103  1  0.302000  0.613700  0.090000  1.0  0.123
  H  H104  1  0.372100  0.570800  0.090700  1.0  0.1064
  H  H105  1  0.127100  0.913000  0.287400  1.0  0.1084
  H  H106  1  0.329700  0.731800  0.212300  1.0  0.1197
  H  H107  1  0.371400  0.572200  0.200500  1.0  0.11
  H  H108  1  0.199000  0.864100  0.393800  1.0  0.1171
  H  H109  1  0.327000  0.688500  0.165000  1.0  0.112
  H  H110  1  0.170300  0.796900  0.313100  1.0  0.1141
  H  H111  1  0.301000  0.615400  0.199500  1.0  0.113
  H  H112  1  0.198300  0.871300  0.284800  1.0  0.1219
  H  H113  1  0.669800  0.769100  0.253500  1.0  0.1182
  H  H114  1  0.628700  0.897000  0.407100  1.0  0.1097
  H  H115  1  0.802000  0.590000  0.113700  1.0  0.1215
  H  H116  1  0.872100  0.590700  0.070800  1.0  0.1066
  H  H117  1  0.627100  0.787400  0.413000  1.0  0.1074
  H  H118  1  0.829700  0.712300  0.231800  1.0  0.1196
  H  H119  1  0.871400  0.700500  0.072200  1.0  0.1101
  H  H120  1  0.699000  0.893800  0.364100  1.0  0.1168
  H  H121  1  0.827000  0.665000  0.188500  1.0  0.1132
  H  H122  1  0.670300  0.813100  0.296900  1.0  0.1157
  H  H123  1  0.801000  0.699500  0.115400  1.0  0.1127
  H  H124  1  0.698300  0.784800  0.371300  1.0  0.122
  H  H125  1  0.669800  0.230900  0.746500  1.0  0.1186
  H  H126  1  0.628700  0.103000  0.592900  1.0  0.1102
  H  H127  1  0.802000  0.410000  0.886300  1.0  0.1222
  H  H128  1  0.872100  0.409300  0.929200  1.0  0.1063
  H  H129  1  0.627100  0.212600  0.587000  1.0  0.1077
  H  H130  1  0.829700  0.287700  0.768200  1.0  0.1196
  H  H131  1  0.871400  0.299500  0.927800  1.0  0.1094
  H  H132  1  0.699000  0.106200  0.635900  1.0  0.116
  H  H133  1  0.827000  0.335000  0.811500  1.0  0.1135
  H  H134  1  0.670300  0.186900  0.703100  1.0  0.1163
  H  H135  1  0.801000  0.300500  0.884600  1.0  0.1127
  H  H136  1  0.698300  0.215200  0.628700  1.0  0.1211
  H  H137  1  0.669800  0.746500  0.769100  1.0  0.1186
  H  H138  1  0.628700  0.592900  0.897000  1.0  0.1099
  H  H139  1  0.802000  0.886300  0.590000  1.0  0.1232
  H  H140  1  0.872100  0.929200  0.590700  1.0  0.1066
  H  H141  1  0.627100  0.587000  0.787400  1.0  0.1079
  H  H142  1  0.829700  0.768200  0.712300  1.0  0.12
  H  H143  1  0.871400  0.927800  0.700500  1.0  0.11
  H  H144  1  0.699000  0.635900  0.893800  1.0  0.1173
  H  H145  1  0.827000  0.811500  0.665000  1.0  0.1123
  H  H146  1  0.670300  0.703100  0.813100  1.0  0.1135
  H  H147  1  0.801000  0.884600  0.699500  1.0  0.1123
  H  H148  1  0.698300  0.628700  0.784800  1.0  0.1215
  H  H149  1  0.669800  0.253500  0.230900  1.0  0.1189
  H  H150  1  0.628700  0.407100  0.103000  1.0  0.1101
  H  H151  1  0.802000  0.113700  0.410000  1.0  0.1223
  H  H152  1  0.872100  0.070800  0.409300  1.0  0.1063
  H  H153  1  0.627100  0.413000  0.212600  1.0  0.1071
  H  H154  1  0.829700  0.231800  0.287700  1.0  0.1207
  H  H155  1  0.871400  0.072200  0.299500  1.0  0.1103
  H  H156  1  0.699000  0.364100  0.106200  1.0  0.1176
  H  H157  1  0.827000  0.188500  0.335000  1.0  0.1118
  H  H158  1  0.670300  0.296900  0.186900  1.0  0.1141
  H  H159  1  0.801000  0.115400  0.300500  1.0  0.1131
  H  H160  1  0.698300  0.371300  0.215200  1.0  0.1207
  H  H161  1  0.830200  0.730900  0.753500  1.0  0.1204
  H  H162  1  0.871300  0.603000  0.907100  1.0  0.1102
  H  H163  1  0.698000  0.910000  0.613700  1.0  0.1221
  H  H164  1  0.627900  0.909300  0.570800  1.0  0.1067
  H  H165  1  0.872900  0.712600  0.913000  1.0  0.1084
  H  H166  1  0.670300  0.787700  0.731800  1.0  0.1182
  H  H167  1  0.628600  0.799500  0.572200  1.0  0.1094
  H  H168  1  0.801000  0.606200  0.864100  1.0  0.1155
  H  H169  1  0.673000  0.835000  0.688500  1.0  0.1147
  H  H170  1  0.829700  0.686900  0.796900  1.0  0.1155
  H  H171  1  0.699000  0.800500  0.615400  1.0  0.113
  H  H172  1  0.801700  0.715200  0.871300  1.0  0.1229
  H  H173  1  0.830200  0.269100  0.246500  1.0  0.1202
  H  H174  1  0.871300  0.397000  0.092900  1.0  0.1103
  H  H175  1  0.698000  0.090000  0.386300  1.0  0.1219
  H  H176  1  0.627900  0.090700  0.429200  1.0  0.1063
  H  H177  1  0.872900  0.287400  0.087000  1.0  0.1082
  H  H178  1  0.670300  0.212300  0.268200  1.0  0.1184
  H  H179  1  0.628600  0.200500  0.427800  1.0  0.1097
  H  H180  1  0.801000  0.393800  0.135900  1.0  0.1158
  H  H181  1  0.673000  0.165000  0.311500  1.0  0.1145
  H  H182  1  0.829700  0.313100  0.203100  1.0  0.1158
  H  H183  1  0.699000  0.199500  0.384600  1.0  0.1126
  H  H184  1  0.801700  0.284800  0.128700  1.0  0.1222
  H  H185  1  0.830200  0.753500  0.269100  1.0  0.1211
  H  H186  1  0.871300  0.907100  0.397000  1.0  0.1098
  H  H187  1  0.698000  0.613700  0.090000  1.0  0.1233
  H  H188  1  0.627900  0.570800  0.090700  1.0  0.1061
  H  H189  1  0.872900  0.913000  0.287400  1.0  0.1085
  H  H190  1  0.670300  0.731800  0.212300  1.0  0.1185
  H  H191  1  0.628600  0.572200  0.200500  1.0  0.1099
  H  H192  1  0.801000  0.864100  0.393800  1.0  0.1165
  H  H193  1  0.673000  0.688500  0.165000  1.0  0.113
  H  H194  1  0.829700  0.796900  0.313100  1.0  0.1131
  H  H195  1  0.699000  0.615400  0.199500  1.0  0.1134
  H  H196  1  0.801700  0.871300  0.284800  1.0  0.1218
  H  H197  1  0.830200  0.246500  0.730900  1.0  0.1217
  H  H198  1  0.871300  0.092900  0.603000  1.0  0.1101
  H  H199  1  0.698000  0.386300  0.910000  1.0  0.1229
  H  H200  1  0.627900  0.429200  0.909300  1.0  0.1064
  H  H201  1  0.872900  0.087000  0.712600  1.0  0.1079
  H  H202  1  0.670300  0.268200  0.787700  1.0  0.1187
  H  H203  1  0.628600  0.427800  0.799500  1.0  0.1102
  H  H204  1  0.801000  0.135900  0.606200  1.0  0.1173
  H  H205  1  0.673000  0.311500  0.835000  1.0  0.1135
  H  H206  1  0.829700  0.203100  0.686900  1.0  0.1141
  H  H207  1  0.699000  0.384600  0.800500  1.0  0.1129
  H  H208  1  0.801700  0.128700  0.715200  1.0  0.1216
  C  C209  1  0.296990  0.225420  0.734660  1.0  -0.0893
  C  C210  1  0.379880  0.157550  0.585380  1.0  -0.1526
  C  C211  1  0.294490  0.160420  0.636900  1.0  0.168
  C  C212  1  0.357770  0.125810  0.600210  1.0  -0.0167
  C  C213  1  0.205990  0.355560  0.881460  1.0  0.1698
  C  C214  1  0.120760  0.354030  0.933130  1.0  -0.1512
  C  C215  1  0.184240  0.387640  0.894670  1.0  -0.2186
  C  C216  1  0.142120  0.387240  0.920350  1.0  -0.0243
  C  C217  1  0.358420  0.190900  0.596630  1.0  -0.012
  C  C218  1  0.203180  0.292720  0.780670  1.0  -0.1642
  C  C219  1  0.142400  0.321910  0.919600  1.0  -0.019
  C  C220  1  0.315350  0.127820  0.625950  1.0  -0.1966
  C  C221  1  0.204520  0.320780  0.807510  1.0  -0.1878
  C  C222  1  0.296830  0.199140  0.708570  1.0  -0.2076
  C  C223  1  0.184810  0.322540  0.893690  1.0  -0.209
  C  C224  1  0.316100  0.192450  0.621730  1.0  -0.204
  C  C225  1  0.424830  0.155380  0.557450  1.0  0.6966
  C  C226  1  0.075520  0.353620  0.960500  1.0  0.6915
  C  C227  1  0.296990  0.774580  0.265340  1.0  -0.0899
  C  C228  1  0.379880  0.842450  0.414620  1.0  -0.1522
  C  C229  1  0.294490  0.839580  0.363100  1.0  0.1681
  C  C230  1  0.357770  0.874190  0.399790  1.0  -0.0156
  C  C231  1  0.205990  0.644440  0.118540  1.0  0.1694
  C  C232  1  0.120760  0.645970  0.066870  1.0  -0.152
  C  C233  1  0.184240  0.612360  0.105330  1.0  -0.2205
  C  C234  1  0.142120  0.612760  0.079650  1.0  -0.0263
  C  C235  1  0.358420  0.809100  0.403370  1.0  -0.0123
  C  C236  1  0.203180  0.707280  0.219330  1.0  -0.1649
  C  C237  1  0.142400  0.678090  0.080400  1.0  -0.0175
  C  C238  1  0.315350  0.872180  0.374050  1.0  -0.1961
  C  C239  1  0.204520  0.679220  0.192490  1.0  -0.1863
  C  C240  1  0.296830  0.800860  0.291430  1.0  -0.2076
  C  C241  1  0.184810  0.677460  0.106310  1.0  -0.2081
  C  C242  1  0.316100  0.807550  0.378270  1.0  -0.2047
  C  C243  1  0.424830  0.844620  0.442550  1.0  0.6967
  C  C244  1  0.075520  0.646380  0.039500  1.0  0.6916
  C  C245  1  0.296990  0.265340  0.225420  1.0  -0.09
  C  C246  1  0.379880  0.414620  0.157550  1.0  -0.1506
  C  C247  1  0.294490  0.363100  0.160420  1.0  0.1687
  C  C248  1  0.357770  0.399790  0.125810  1.0  -0.0178
  C  C249  1  0.205990  0.118540  0.355560  1.0  0.1686
  C  C250  1  0.120760  0.066870  0.354030  1.0  -0.1495
  C  C251  1  0.184240  0.105330  0.387640  1.0  -0.2219
  C  C252  1  0.142120  0.079650  0.387240  1.0  -0.026
  C  C253  1  0.358420  0.403370  0.190900  1.0  -0.0123
  C  C254  1  0.203180  0.219330  0.292720  1.0  -0.164
  C  C255  1  0.142400  0.080400  0.321910  1.0  -0.0179
  C  C256  1  0.315350  0.374050  0.127820  1.0  -0.1963
  C  C257  1  0.204520  0.192490  0.320780  1.0  -0.1878
  C  C258  1  0.296830  0.291430  0.199140  1.0  -0.206
  C  C259  1  0.184810  0.106310  0.322540  1.0  -0.2077
  C  C260  1  0.316100  0.378270  0.192450  1.0  -0.2033
  C  C261  1  0.424830  0.442550  0.155380  1.0  0.6966
  C  C262  1  0.075520  0.039500  0.353620  1.0  0.6915
  C  C263  1  0.296990  0.734660  0.774580  1.0  -0.091
  C  C264  1  0.379880  0.585380  0.842450  1.0  -0.1503
  C  C265  1  0.294490  0.636900  0.839580  1.0  0.1684
  C  C266  1  0.357770  0.600210  0.874190  1.0  -0.0169
  C  C267  1  0.205990  0.881460  0.644440  1.0  0.1695
  C  C268  1  0.120760  0.933130  0.645970  1.0  -0.1498
  C  C269  1  0.184240  0.894670  0.612360  1.0  -0.2207
  C  C270  1  0.142120  0.920350  0.612760  1.0  -0.0257
  C  C271  1  0.358420  0.596630  0.809100  1.0  -0.0129
  C  C272  1  0.203180  0.780670  0.707280  1.0  -0.1638
  C  C273  1  0.142400  0.919600  0.678090  1.0  -0.02
  C  C274  1  0.315350  0.625950  0.872180  1.0  -0.1951
  C  C275  1  0.204520  0.807510  0.679220  1.0  -0.186
  C  C276  1  0.296830  0.708570  0.800860  1.0  -0.2055
  C  C277  1  0.184810  0.893690  0.677460  1.0  -0.2078
  C  C278  1  0.316100  0.621730  0.807550  1.0  -0.2026
  C  C279  1  0.424830  0.557450  0.844620  1.0  0.6965
  C  C280  1  0.075520  0.960500  0.646380  1.0  0.6911
  C  C281  1  0.203010  0.274580  0.234660  1.0  -0.0882
  C  C282  1  0.120120  0.342450  0.085380  1.0  -0.1528
  C  C283  1  0.205510  0.339580  0.136900  1.0  0.1668
  C  C284  1  0.142230  0.374190  0.100210  1.0  -0.015
  C  C285  1  0.294010  0.144440  0.381460  1.0  0.1699
  C  C286  1  0.379240  0.145970  0.433130  1.0  -0.1517
  C  C287  1  0.315760  0.112360  0.394670  1.0  -0.2207
  C  C288  1  0.357880  0.112760  0.420350  1.0  -0.0273
  C  C289  1  0.141580  0.309100  0.096630  1.0  -0.0122
  C  C290  1  0.296820  0.207280  0.280670  1.0  -0.1637
  C  C291  1  0.357600  0.178090  0.419600  1.0  -0.0178
  C  C292  1  0.184650  0.372180  0.125950  1.0  -0.1953
  C  C293  1  0.295480  0.179220  0.307510  1.0  -0.1844
  C  C294  1  0.203170  0.300860  0.208570  1.0  -0.2103
  C  C295  1  0.315190  0.177460  0.393690  1.0  -0.2084
  C  C296  1  0.183900  0.307550  0.121730  1.0  -0.204
  C  C297  1  0.075170  0.344620  0.057450  1.0  0.6964
  C  C298  1  0.424480  0.146380  0.460500  1.0  0.6915
  C  C299  1  0.203010  0.725420  0.765340  1.0  -0.0878
  C  C300  1  0.120120  0.657550  0.914620  1.0  -0.1519
  C  C301  1  0.205510  0.660420  0.863100  1.0  0.1673
  C  C302  1  0.142230  0.625810  0.899790  1.0  -0.0161
  C  C303  1  0.294010  0.855560  0.618540  1.0  0.1694
  C  C304  1  0.379240  0.854030  0.566870  1.0  -0.1518
  C  C305  1  0.315760  0.887640  0.605330  1.0  -0.2201
  C  C306  1  0.357880  0.887240  0.579650  1.0  -0.0256
  C  C307  1  0.141580  0.690900  0.903370  1.0  -0.012
  C  C308  1  0.296820  0.792720  0.719330  1.0  -0.1627
  C  C309  1  0.357600  0.821910  0.580400  1.0  -0.0192
  C  C310  1  0.184650  0.627820  0.874050  1.0  -0.1957
  C  C311  1  0.295480  0.820780  0.692490  1.0  -0.1846
  C  C312  1  0.203170  0.699140  0.791430  1.0  -0.2105
  C  C313  1  0.315190  0.822540  0.606310  1.0  -0.2082
  C  C314  1  0.183900  0.692450  0.878270  1.0  -0.2032
  C  C315  1  0.075170  0.655380  0.942550  1.0  0.6966
  C  C316  1  0.424480  0.853620  0.539500  1.0  0.6916
  C  C317  1  0.203010  0.234660  0.725420  1.0  -0.0887
  C  C318  1  0.120120  0.085380  0.657550  1.0  -0.1508
  C  C319  1  0.205510  0.136900  0.660420  1.0  0.1671
  C  C320  1  0.142230  0.100210  0.625810  1.0  -0.0151
  C  C321  1  0.294010  0.381460  0.855560  1.0  0.1695
  C  C322  1  0.379240  0.433130  0.854030  1.0  -0.1501
  C  C323  1  0.315760  0.394670  0.887640  1.0  -0.222
  C  C324  1  0.357880  0.420350  0.887240  1.0  -0.0255
  C  C325  1  0.141580  0.096630  0.690900  1.0  -0.0133
  C  C326  1  0.296820  0.280670  0.792720  1.0  -0.1636
  C  C327  1  0.357600  0.419600  0.821910  1.0  -0.0207
  C  C328  1  0.184650  0.125950  0.627820  1.0  -0.1954
  C  C329  1  0.295480  0.307510  0.820780  1.0  -0.1841
  C  C330  1  0.203170  0.208570  0.699140  1.0  -0.2074
  C  C331  1  0.315190  0.393690  0.822540  1.0  -0.2067
  C  C332  1  0.183900  0.121730  0.692450  1.0  -0.2027
  C  C333  1  0.075170  0.057450  0.655380  1.0  0.6962
  C  C334  1  0.424480  0.460500  0.853620  1.0  0.6913
  C  C335  1  0.203010  0.765340  0.274580  1.0  -0.0885
  C  C336  1  0.120120  0.914620  0.342450  1.0  -0.1502
  C  C337  1  0.205510  0.863100  0.339580  1.0  0.1678
  C  C338  1  0.142230  0.899790  0.374190  1.0  -0.0168
  C  C339  1  0.294010  0.618540  0.144440  1.0  0.169
  C  C340  1  0.379240  0.566870  0.145970  1.0  -0.1492
  C  C341  1  0.315760  0.605330  0.112360  1.0  -0.2212
  C  C342  1  0.357880  0.579650  0.112760  1.0  -0.026
  C  C343  1  0.141580  0.903370  0.309100  1.0  -0.0121
  C  C344  1  0.296820  0.719330  0.207280  1.0  -0.1626
  C  C345  1  0.357600  0.580400  0.178090  1.0  -0.0201
  C  C346  1  0.184650  0.874050  0.372180  1.0  -0.1947
  C  C347  1  0.295480  0.692490  0.179220  1.0  -0.1839
  C  C348  1  0.203170  0.791430  0.300860  1.0  -0.209
  C  C349  1  0.315190  0.606310  0.177460  1.0  -0.2081
  C  C350  1  0.183900  0.878270  0.307550  1.0  -0.2017
  C  C351  1  0.075170  0.942550  0.344620  1.0  0.6965
  C  C352  1  0.424480  0.539500  0.146380  1.0  0.6915
  C  C353  1  0.703010  0.774580  0.265340  1.0  -0.089
  C  C354  1  0.620120  0.842450  0.414620  1.0  -0.1519
  C  C355  1  0.705510  0.839580  0.363100  1.0  0.1671
  C  C356  1  0.642230  0.874190  0.399790  1.0  -0.0145
  C  C357  1  0.794010  0.644440  0.118540  1.0  0.1695
  C  C358  1  0.879240  0.645970  0.066870  1.0  -0.1519
  C  C359  1  0.815760  0.612360  0.105330  1.0  -0.2208
  C  C360  1  0.857880  0.612760  0.079650  1.0  -0.0272
  C  C361  1  0.641580  0.809100  0.403370  1.0  -0.0121
  C  C362  1  0.796820  0.707280  0.219330  1.0  -0.1635
  C  C363  1  0.857600  0.678090  0.080400  1.0  -0.0179
  C  C364  1  0.684650  0.872180  0.374050  1.0  -0.1954
  C  C365  1  0.795480  0.679220  0.192490  1.0  -0.1836
  C  C366  1  0.703170  0.800860  0.291430  1.0  -0.2106
  C  C367  1  0.815190  0.677460  0.106310  1.0  -0.208
  C  C368  1  0.683900  0.807550  0.378270  1.0  -0.2033
  C  C369  1  0.575170  0.844620  0.442550  1.0  0.6966
  C  C370  1  0.924480  0.646380  0.039500  1.0  0.6916
  C  C371  1  0.703010  0.225420  0.734660  1.0  -0.0898
  C  C372  1  0.620120  0.157550  0.585380  1.0  -0.1528
  C  C373  1  0.705510  0.160420  0.636900  1.0  0.167
  C  C374  1  0.642230  0.125810  0.600210  1.0  -0.0159
  C  C375  1  0.794010  0.355560  0.881460  1.0  0.1698
  C  C376  1  0.879240  0.354030  0.933130  1.0  -0.1517
  C  C377  1  0.815760  0.387640  0.894670  1.0  -0.2197
  C  C378  1  0.857880  0.387240  0.920350  1.0  -0.0254
  C  C379  1  0.641580  0.190900  0.596630  1.0  -0.0122
  C  C380  1  0.796820  0.292720  0.780670  1.0  -0.164
  C  C381  1  0.857600  0.321910  0.919600  1.0  -0.0198
  C  C382  1  0.684650  0.127820  0.625950  1.0  -0.1954
  C  C383  1  0.795480  0.320780  0.807510  1.0  -0.1846
  C  C384  1  0.703170  0.199140  0.708570  1.0  -0.21
  C  C385  1  0.815190  0.322540  0.893690  1.0  -0.2088
  C  C386  1  0.683900  0.192450  0.621730  1.0  -0.203
  C  C387  1  0.575170  0.155380  0.557450  1.0  0.6964
  C  C388  1  0.924480  0.353620  0.960500  1.0  0.6915
  C  C389  1  0.703010  0.734660  0.774580  1.0  -0.0897
  C  C390  1  0.620120  0.585380  0.842450  1.0  -0.1508
  C  C391  1  0.705510  0.636900  0.839580  1.0  0.1672
  C  C392  1  0.642230  0.600210  0.874190  1.0  -0.0174
  C  C393  1  0.794010  0.881460  0.644440  1.0  0.1697
  C  C394  1  0.879240  0.933130  0.645970  1.0  -0.15
  C  C395  1  0.815760  0.894670  0.612360  1.0  -0.2212
  C  C396  1  0.857880  0.920350  0.612760  1.0  -0.0273
  C  C397  1  0.641580  0.596630  0.809100  1.0  -0.0125
  C  C398  1  0.796820  0.780670  0.707280  1.0  -0.1633
  C  C399  1  0.857600  0.919600  0.678090  1.0  -0.0202
  C  C400  1  0.684650  0.625950  0.872180  1.0  -0.1954
  C  C401  1  0.795480  0.807510  0.679220  1.0  -0.1829
  C  C402  1  0.703170  0.708570  0.800860  1.0  -0.2082
  C  C403  1  0.815190  0.893690  0.677460  1.0  -0.2076
  C  C404  1  0.683900  0.621730  0.807550  1.0  -0.202
  C  C405  1  0.575170  0.557450  0.844620  1.0  0.6963
  C  C406  1  0.924480  0.960500  0.646380  1.0  0.6912
  C  C407  1  0.703010  0.265340  0.225420  1.0  -0.0901
  C  C408  1  0.620120  0.414620  0.157550  1.0  -0.1501
  C  C409  1  0.705510  0.363100  0.160420  1.0  0.1677
  C  C410  1  0.642230  0.399790  0.125810  1.0  -0.0162
  C  C411  1  0.794010  0.118540  0.355560  1.0  0.1689
  C  C412  1  0.879240  0.066870  0.354030  1.0  -0.1492
  C  C413  1  0.815760  0.105330  0.387640  1.0  -0.2223
  C  C414  1  0.857880  0.079650  0.387240  1.0  -0.0259
  C  C415  1  0.641580  0.403370  0.190900  1.0  -0.0136
  C  C416  1  0.796820  0.219330  0.292720  1.0  -0.164
  C  C417  1  0.857600  0.080400  0.321910  1.0  -0.0193
  C  C418  1  0.684650  0.374050  0.127820  1.0  -0.1956
  C  C419  1  0.795480  0.192490  0.320780  1.0  -0.1848
  C  C420  1  0.703170  0.291430  0.199140  1.0  -0.208
  C  C421  1  0.815190  0.106310  0.322540  1.0  -0.2076
  C  C422  1  0.683900  0.378270  0.192450  1.0  -0.2024
  C  C423  1  0.575170  0.442550  0.155380  1.0  0.6964
  C  C424  1  0.924480  0.039500  0.353620  1.0  0.6915
  C  C425  1  0.796990  0.725420  0.765340  1.0  -0.0888
  C  C426  1  0.879880  0.657550  0.914620  1.0  -0.1522
  C  C427  1  0.794490  0.660420  0.863100  1.0  0.1682
  C  C428  1  0.857770  0.625810  0.899790  1.0  -0.017
  C  C429  1  0.705990  0.855560  0.618540  1.0  0.1693
  C  C430  1  0.620760  0.854030  0.566870  1.0  -0.1518
  C  C431  1  0.684240  0.887640  0.605330  1.0  -0.2189
  C  C432  1  0.642120  0.887240  0.579650  1.0  -0.0248
  C  C433  1  0.858420  0.690900  0.903370  1.0  -0.0116
  C  C434  1  0.703180  0.792720  0.719330  1.0  -0.1641
  C  C435  1  0.642400  0.821910  0.580400  1.0  -0.0181
  C  C436  1  0.815350  0.627820  0.874050  1.0  -0.1965
  C  C437  1  0.704520  0.820780  0.692490  1.0  -0.1869
  C  C438  1  0.796830  0.699140  0.791430  1.0  -0.2079
  C  C439  1  0.684810  0.822540  0.606310  1.0  -0.2085
  C  C440  1  0.816100  0.692450  0.878270  1.0  -0.2043
  C  C441  1  0.924830  0.655380  0.942550  1.0  0.6967
  C  C442  1  0.575520  0.853620  0.539500  1.0  0.6916
  C  C443  1  0.796990  0.274580  0.234660  1.0  -0.0875
  C  C444  1  0.879880  0.342450  0.085380  1.0  -0.1526
  C  C445  1  0.794490  0.339580  0.136900  1.0  0.1678
  C  C446  1  0.857770  0.374190  0.100210  1.0  -0.0158
  C  C447  1  0.705990  0.144440  0.381460  1.0  0.1699
  C  C448  1  0.620760  0.145970  0.433130  1.0  -0.1513
  C  C449  1  0.684240  0.112360  0.394670  1.0  -0.2206
  C  C450  1  0.642120  0.112760  0.420350  1.0  -0.0263
  C  C451  1  0.858420  0.309100  0.096630  1.0  -0.0122
  C  C452  1  0.703180  0.207280  0.280670  1.0  -0.1638
  C  C453  1  0.642400  0.178090  0.419600  1.0  -0.0175
  C  C454  1  0.815350  0.372180  0.125950  1.0  -0.1962
  C  C455  1  0.704520  0.179220  0.307510  1.0  -0.1882
  C  C456  1  0.796830  0.300860  0.208570  1.0  -0.2078
  C  C457  1  0.684810  0.177460  0.393690  1.0  -0.2085
  C  C458  1  0.816100  0.307550  0.121730  1.0  -0.2055
  C  C459  1  0.924830  0.344620  0.057450  1.0  0.6966
  C  C460  1  0.575520  0.146380  0.460500  1.0  0.6915
  C  C461  1  0.796990  0.765340  0.274580  1.0  -0.0887
  C  C462  1  0.879880  0.914620  0.342450  1.0  -0.1506
  C  C463  1  0.794490  0.863100  0.339580  1.0  0.169
  C  C464  1  0.857770  0.899790  0.374190  1.0  -0.0164
  C  C465  1  0.705990  0.618540  0.144440  1.0  0.1688
  C  C466  1  0.620760  0.566870  0.145970  1.0  -0.1494
  C  C467  1  0.684240  0.605330  0.112360  1.0  -0.2205
  C  C468  1  0.642120  0.579650  0.112760  1.0  -0.0242
  C  C469  1  0.858420  0.903370  0.309100  1.0  -0.0129
  C  C470  1  0.703180  0.719330  0.207280  1.0  -0.1636
  C  C471  1  0.642400  0.580400  0.178090  1.0  -0.0198
  C  C472  1  0.815350  0.874050  0.372180  1.0  -0.1947
  C  C473  1  0.704520  0.692490  0.179220  1.0  -0.1873
  C  C474  1  0.796830  0.791430  0.300860  1.0  -0.2065
  C  C475  1  0.684810  0.606310  0.177460  1.0  -0.208
  C  C476  1  0.816100  0.878270  0.307550  1.0  -0.2016
  C  C477  1  0.924830  0.942550  0.344620  1.0  0.6967
  C  C478  1  0.575520  0.539500  0.146380  1.0  0.6914
  C  C479  1  0.796990  0.234660  0.725420  1.0  -0.0893
  C  C480  1  0.879880  0.085380  0.657550  1.0  -0.1502
  C  C481  1  0.794490  0.136900  0.660420  1.0  0.1681
  C  C482  1  0.857770  0.100210  0.625810  1.0  -0.0169
  C  C483  1  0.705990  0.381460  0.855560  1.0  0.1692
  C  C484  1  0.620760  0.433130  0.854030  1.0  -0.1498
  C  C485  1  0.684240  0.394670  0.887640  1.0  -0.2216
  C  C486  1  0.642120  0.420350  0.887240  1.0  -0.026
  C  C487  1  0.858420  0.096630  0.690900  1.0  -0.012
  C  C488  1  0.703180  0.280670  0.792720  1.0  -0.1632
  C  C489  1  0.642400  0.419600  0.821910  1.0  -0.0193
  C  C490  1  0.815350  0.125950  0.627820  1.0  -0.196
  C  C491  1  0.704520  0.307510  0.820780  1.0  -0.187
  C  C492  1  0.796830  0.208570  0.699140  1.0  -0.2054
  C  C493  1  0.684810  0.393690  0.822540  1.0  -0.2073
  C  C494  1  0.816100  0.121730  0.692450  1.0  -0.2041
  C  C495  1  0.924830  0.057450  0.655380  1.0  0.6964
  C  C496  1  0.575520  0.460500  0.853620  1.0  0.6912
  C  C497  1  0.250000  0.327270  0.827270  1.0  0.2044
  C  C498  1  0.250000  0.273030  0.773030  1.0  0.0514
  C  C499  1  0.250000  0.244570  0.744570  1.0  0.0648
  C  C500  1  0.250000  0.189980  0.689980  1.0  0.2144
  C  C501  1  0.250000  0.672730  0.172730  1.0  0.2052
  C  C502  1  0.250000  0.726970  0.226970  1.0  0.0508
  C  C503  1  0.250000  0.755430  0.255430  1.0  0.0642
  C  C504  1  0.250000  0.810020  0.310020  1.0  0.214
  C  C505  1  0.250000  0.172730  0.327270  1.0  0.2048
  C  C506  1  0.250000  0.226970  0.273030  1.0  0.0513
  C  C507  1  0.250000  0.255430  0.244570  1.0  0.0644
  C  C508  1  0.250000  0.310020  0.189980  1.0  0.2143
  C  C509  1  0.250000  0.827270  0.672730  1.0  0.2046
  C  C510  1  0.250000  0.773030  0.726970  1.0  0.0509
  C  C511  1  0.250000  0.744570  0.755430  1.0  0.0647
  C  C512  1  0.250000  0.689980  0.810020  1.0  0.2141
  C  C513  1  0.750000  0.672730  0.172730  1.0  0.2052
  C  C514  1  0.750000  0.726970  0.226970  1.0  0.0508
  C  C515  1  0.750000  0.755430  0.255430  1.0  0.0642
  C  C516  1  0.750000  0.810020  0.310020  1.0  0.214
  C  C517  1  0.750000  0.327270  0.827270  1.0  0.2044
  C  C518  1  0.750000  0.273030  0.773030  1.0  0.0514
  C  C519  1  0.750000  0.244570  0.744570  1.0  0.0648
  C  C520  1  0.750000  0.189980  0.689980  1.0  0.2144
  C  C521  1  0.750000  0.827270  0.672730  1.0  0.2046
  C  C522  1  0.750000  0.773030  0.726970  1.0  0.0509
  C  C523  1  0.750000  0.744570  0.755430  1.0  0.0647
  C  C524  1  0.750000  0.689980  0.810020  1.0  0.2141
  C  C525  1  0.750000  0.172730  0.327270  1.0  0.2048
  C  C526  1  0.750000  0.226970  0.273030  1.0  0.0513
  C  C527  1  0.750000  0.255430  0.244570  1.0  0.0644
  C  C528  1  0.750000  0.310020  0.189980  1.0  0.2143
  N  N529  1  0.250000  0.355160  0.855160  1.0  -0.1246
  N  N530  1  0.250000  0.162490  0.662490  1.0  -0.1229
  N  N531  1  0.250000  0.644840  0.144840  1.0  -0.1249
  N  N532  1  0.250000  0.837510  0.337510  1.0  -0.1228
  N  N533  1  0.250000  0.144840  0.355160  1.0  -0.1248
  N  N534  1  0.250000  0.337510  0.162490  1.0  -0.1229
  N  N535  1  0.250000  0.855160  0.644840  1.0  -0.1246
  N  N536  1  0.250000  0.662490  0.837510  1.0  -0.1229
  N  N537  1  0.750000  0.644840  0.144840  1.0  -0.1249
  N  N538  1  0.750000  0.837510  0.337510  1.0  -0.1228
  N  N539  1  0.750000  0.355160  0.855160  1.0  -0.1246
  N  N540  1  0.750000  0.162490  0.662490  1.0  -0.1229
  N  N541  1  0.750000  0.855160  0.644840  1.0  -0.1246
  N  N542  1  0.750000  0.662490  0.837510  1.0  -0.1229
  N  N543  1  0.750000  0.144840  0.355160  1.0  -0.1248
  N  N544  1  0.750000  0.337510  0.162490  1.0  -0.1229
  O  O545  1  0.442410  0.185370  0.544700  1.0  -0.5706
  O  O546  1  0.057890  0.383140  0.973180  1.0  -0.5656
  O  O547  1  0.442020  0.124400  0.548160  1.0  -0.5759
  O  O548  1  0.057690  0.321970  0.969560  1.0  -0.5756
  O  O549  1  0.442410  0.814630  0.455300  1.0  -0.571
  O  O550  1  0.057890  0.616860  0.026820  1.0  -0.5669
  O  O551  1  0.442020  0.875600  0.451840  1.0  -0.5742
  O  O552  1  0.057690  0.678030  0.030440  1.0  -0.5743
  O  O553  1  0.442410  0.455300  0.185370  1.0  -0.57
  O  O554  1  0.057890  0.026820  0.383140  1.0  -0.5653
  O  O555  1  0.442020  0.451840  0.124400  1.0  -0.5745
  O  O556  1  0.057690  0.030440  0.321970  1.0  -0.5739
  O  O557  1  0.442410  0.544700  0.814630  1.0  -0.57
  O  O558  1  0.057890  0.973180  0.616860  1.0  -0.5649
  O  O559  1  0.442020  0.548160  0.875600  1.0  -0.5741
  O  O560  1  0.057690  0.969560  0.678030  1.0  -0.5737
  O  O561  1  0.057590  0.314630  0.044700  1.0  -0.5719
  O  O562  1  0.442110  0.116860  0.473180  1.0  -0.5662
  O  O563  1  0.057980  0.375600  0.048160  1.0  -0.5744
  O  O564  1  0.442310  0.178030  0.469560  1.0  -0.574
  O  O565  1  0.057590  0.685370  0.955300  1.0  -0.5712
  O  O566  1  0.442110  0.883140  0.526820  1.0  -0.5655
  O  O567  1  0.057980  0.624400  0.951840  1.0  -0.5756
  O  O568  1  0.442310  0.821970  0.530440  1.0  -0.5742
  O  O569  1  0.057590  0.044700  0.685370  1.0  -0.5706
  O  O570  1  0.442110  0.473180  0.883140  1.0  -0.5646
  O  O571  1  0.057980  0.048160  0.624400  1.0  -0.5747
  O  O572  1  0.442310  0.469560  0.821970  1.0  -0.5731
  O  O573  1  0.057590  0.955300  0.314630  1.0  -0.5703
  O  O574  1  0.442110  0.526820  0.116860  1.0  -0.5641
  O  O575  1  0.057980  0.951840  0.375600  1.0  -0.5741
  O  O576  1  0.442310  0.530440  0.178030  1.0  -0.5739
  O  O577  1  0.557590  0.814630  0.455300  1.0  -0.5718
  O  O578  1  0.942110  0.616860  0.026820  1.0  -0.5663
  O  O579  1  0.557980  0.875600  0.451840  1.0  -0.5742
  O  O580  1  0.942310  0.678030  0.030440  1.0  -0.5738
  O  O581  1  0.557590  0.185370  0.544700  1.0  -0.5712
  O  O582  1  0.942110  0.383140  0.973180  1.0  -0.5652
  O  O583  1  0.557980  0.124400  0.548160  1.0  -0.5758
  O  O584  1  0.942310  0.321970  0.969560  1.0  -0.5745
  O  O585  1  0.557590  0.544700  0.814630  1.0  -0.5703
  O  O586  1  0.942110  0.973180  0.616860  1.0  -0.5641
  O  O587  1  0.557980  0.548160  0.875600  1.0  -0.574
  O  O588  1  0.942310  0.969560  0.678030  1.0  -0.5734
  O  O589  1  0.557590  0.455300  0.185370  1.0  -0.5705
  O  O590  1  0.942110  0.026820  0.383140  1.0  -0.5647
  O  O591  1  0.557980  0.451840  0.124400  1.0  -0.5746
  O  O592  1  0.942310  0.030440  0.321970  1.0  -0.5735
  O  O593  1  0.942410  0.685370  0.955300  1.0  -0.5705
  O  O594  1  0.557890  0.883140  0.526820  1.0  -0.5659
  O  O595  1  0.942020  0.624400  0.951840  1.0  -0.5756
  O  O596  1  0.557690  0.821970  0.530440  1.0  -0.5753
  O  O597  1  0.942410  0.314630  0.044700  1.0  -0.5711
  O  O598  1  0.557890  0.116860  0.473180  1.0  -0.5669
  O  O599  1  0.942020  0.375600  0.048160  1.0  -0.5744
  O  O600  1  0.557690  0.178030  0.469560  1.0  -0.5745
  O  O601  1  0.942410  0.955300  0.314630  1.0  -0.5698
  O  O602  1  0.557890  0.526820  0.116860  1.0  -0.5649
  O  O603  1  0.942020  0.951840  0.375600  1.0  -0.5741
  O  O604  1  0.557690  0.530440  0.178030  1.0  -0.5743
  O  O605  1  0.942410  0.044700  0.685370  1.0  -0.5701
  O  O606  1  0.557890  0.473180  0.883140  1.0  -0.5654
  O  O607  1  0.942020  0.048160  0.624400  1.0  -0.5746
  O  O608  1  0.557690  0.469560  0.821970  1.0  -0.5737
