# generated using pymatgen
data_ZnH12C20NO4
_symmetry_space_group_name_H-M   'P 1'
_cell_length_a   17.17800000
_cell_length_b   23.06530000
_cell_length_c   23.06530000
_cell_angle_alpha   60.82690000
_cell_angle_beta   68.13770000
_cell_angle_gamma   68.13770000
_symmetry_Int_Tables_number   1
_chemical_formula_structural   ZnH12C20NO4
_chemical_formula_sum   'Zn4 H48 C80 N4 O16'
_cell_volume   7197.36102219
_cell_formula_units_Z   4
loop_
 _symmetry_equiv_pos_site_id
 _symmetry_equiv_pos_as_xyz
  1  'x, y, z'
loop_
 _atom_site_type_symbol
 _atom_site_label
 _atom_site_symmetry_multiplicity
 _atom_site_fract_x
 _atom_site_fract_y
 _atom_site_fract_z
 _atom_site_occupancy
 _atom_site_charge
  Zn  Zn1  1  0.028230  0.530030  0.530030  1.0  1.1412
  Zn  Zn2  1  0.588290  0.969970  0.969960  1.0  1.1402
  Zn  Zn3  1  0.411710  0.030030  0.030040  1.0  1.1413
  Zn  Zn4  1  0.971770  0.469970  0.469970  1.0  1.1413
  H  H5  1  0.770000  0.389700  0.646500  1.0  0.1034
  H  H6  1  0.667200  0.353500  0.746100  1.0  0.1232
  H  H7  1  0.755600  0.423700  0.831300  1.0  0.1143
  H  H8  1  0.852700  0.465500  0.729900  1.0  0.1046
  H  H9  1  0.616600  0.325000  0.990600  1.0  0.1234
  H  H10  1  0.546500  0.389000  0.055000  1.0  0.114
  H  H11  1  0.306200  0.110300  0.853500  1.0  0.1037
  H  H12  1  0.266800  0.146500  0.753900  1.0  0.1239
  H  H13  1  0.510600  0.076300  0.668700  1.0  0.1141
  H  H14  1  0.548100  0.034500  0.770100  1.0  0.1045
  H  H15  1  0.432200  0.175000  0.509400  1.0  0.1254
  H  H16  1  0.490500  0.111000  0.445000  1.0  0.1112
  H  H17  1  0.693800  0.146500  0.889700  1.0  0.1035
  H  H18  1  0.733200  0.246100  0.853500  1.0  0.1231
  H  H19  1  0.489400  0.331300  0.923700  1.0  0.1149
  H  H20  1  0.451900  0.229900  0.965500  1.0  0.1043
  H  H21  1  0.567800  0.490600  0.825000  1.0  0.1253
  H  H22  1  0.509500  0.555000  0.889000  1.0  0.113
  H  H23  1  0.230000  0.353500  0.610300  1.0  0.1026
  H  H24  1  0.332800  0.253900  0.646500  1.0  0.1223
  H  H25  1  0.244400  0.168700  0.576300  1.0  0.1126
  H  H26  1  0.147300  0.270100  0.534500  1.0  0.1037
  H  H27  1  0.383400  0.009400  0.675000  1.0  0.1242
  H  H28  1  0.453500  0.945000  0.611000  1.0  0.1132
  H  H29  1  0.230000  0.610300  0.353500  1.0  0.1025
  H  H30  1  0.332800  0.646500  0.253900  1.0  0.1222
  H  H31  1  0.244400  0.576300  0.168700  1.0  0.1141
  H  H32  1  0.147300  0.534500  0.270100  1.0  0.1041
  H  H33  1  0.383400  0.675000  0.009400  1.0  0.1237
  H  H34  1  0.453500  0.611000  0.945000  1.0  0.113
  H  H35  1  0.693800  0.889700  0.146500  1.0  0.1039
  H  H36  1  0.733200  0.853500  0.246100  1.0  0.1238
  H  H37  1  0.489400  0.923700  0.331300  1.0  0.1141
  H  H38  1  0.451900  0.965500  0.229900  1.0  0.1046
  H  H39  1  0.567800  0.825000  0.490600  1.0  0.1257
  H  H40  1  0.509500  0.889000  0.555000  1.0  0.1125
  H  H41  1  0.306200  0.853500  0.110300  1.0  0.103
  H  H42  1  0.266800  0.753900  0.146500  1.0  0.1226
  H  H43  1  0.510600  0.668700  0.076300  1.0  0.1144
  H  H44  1  0.548100  0.770100  0.034500  1.0  0.1049
  H  H45  1  0.432200  0.509400  0.175000  1.0  0.1243
  H  H46  1  0.490500  0.445000  0.111000  1.0  0.1131
  H  H47  1  0.770000  0.646500  0.389700  1.0  0.1026
  H  H48  1  0.667200  0.746100  0.353500  1.0  0.1235
  H  H49  1  0.755600  0.831300  0.423700  1.0  0.1131
  H  H50  1  0.852700  0.729900  0.465500  1.0  0.1041
  H  H51  1  0.616600  0.990600  0.325000  1.0  0.124
  H  H52  1  0.546500  0.055000  0.389000  1.0  0.113
  C  C53  1  0.887700  0.456590  0.612210  1.0  0.6994
  C  C54  1  0.766690  0.397300  0.683520  1.0  -0.0163
  C  C55  1  0.705590  0.374860  0.743440  1.0  -0.2442
  C  C56  1  0.757460  0.417340  0.793880  1.0  -0.23
  C  C57  1  0.816750  0.441670  0.733210  1.0  -0.0262
  C  C58  1  0.701230  0.384140  0.800040  1.0  0.1825
  C  C59  1  0.593180  0.371500  0.969540  1.0  -0.21
  C  C60  1  0.552320  0.410590  0.007970  1.0  -0.1134
  C  C61  1  0.823280  0.431000  0.677580  1.0  -0.1334
  C  C62  1  0.456500  0.043410  0.887790  1.0  0.7003
  C  C63  1  0.347510  0.102700  0.816480  1.0  -0.0213
  C  C64  1  0.323890  0.125140  0.756560  1.0  -0.2464
  C  C65  1  0.468680  0.082660  0.706120  1.0  -0.2293
  C  C66  1  0.491630  0.058330  0.766790  1.0  -0.0236
  C  C67  1  0.385410  0.115860  0.699960  1.0  0.183
  C  C68  1  0.434220  0.128500  0.530460  1.0  -0.2104
  C  C69  1  0.470880  0.089410  0.492030  1.0  -0.1105
  C  C70  1  0.431860  0.069000  0.822420  1.0  -0.133
  C  C71  1  0.543500  0.112210  0.956590  1.0  0.6991
  C  C72  1  0.652490  0.183520  0.897300  1.0  -0.0197
  C  C73  1  0.676110  0.243440  0.874860  1.0  -0.2448
  C  C74  1  0.531320  0.293880  0.917340  1.0  -0.233
  C  C75  1  0.508370  0.233210  0.941670  1.0  -0.0215
  C  C76  1  0.614590  0.300040  0.884140  1.0  0.1829
  C  C77  1  0.565780  0.469540  0.871500  1.0  -0.2067
  C  C78  1  0.529120  0.507970  0.910590  1.0  -0.1081
  C  C79  1  0.568140  0.177580  0.931000  1.0  -0.1311
  C  C80  1  0.112300  0.387790  0.543410  1.0  0.6989
  C  C81  1  0.233310  0.316480  0.602700  1.0  -0.02
  C  C82  1  0.294410  0.256560  0.625140  1.0  -0.2441
  C  C83  1  0.242540  0.206120  0.582660  1.0  -0.233
  C  C84  1  0.183250  0.266790  0.558330  1.0  -0.0252
  C  C85  1  0.298770  0.199960  0.615860  1.0  0.1827
  C  C86  1  0.406820  0.030460  0.628500  1.0  -0.21
  C  C87  1  0.447680  0.992030  0.589410  1.0  -0.1087
  C  C88  1  0.176720  0.322420  0.569000  1.0  -0.1291
  C  C89  1  0.112300  0.543410  0.387790  1.0  0.6997
  C  C90  1  0.233310  0.602700  0.316480  1.0  -0.0145
  C  C91  1  0.294410  0.625140  0.256560  1.0  -0.2449
  C  C92  1  0.242540  0.582660  0.206120  1.0  -0.2291
  C  C93  1  0.183250  0.558330  0.266790  1.0  -0.025
  C  C94  1  0.298770  0.615860  0.199960  1.0  0.1831
  C  C95  1  0.406820  0.628500  0.030460  1.0  -0.2086
  C  C96  1  0.447680  0.589410  0.992030  1.0  -0.1099
  C  C97  1  0.176720  0.569000  0.322420  1.0  -0.1328
  C  C98  1  0.543500  0.956590  0.112210  1.0  0.7003
  C  C99  1  0.652490  0.897300  0.183520  1.0  -0.0214
  C  C100  1  0.676110  0.874860  0.243440  1.0  -0.2451
  C  C101  1  0.531320  0.917340  0.293880  1.0  -0.2326
  C  C102  1  0.508370  0.941670  0.233210  1.0  -0.0231
  C  C103  1  0.614590  0.884140  0.300040  1.0  0.1832
  C  C104  1  0.565780  0.871500  0.469540  1.0  -0.2129
  C  C105  1  0.529120  0.910590  0.507970  1.0  -0.1087
  C  C106  1  0.568140  0.931000  0.177580  1.0  -0.1327
  C  C107  1  0.456500  0.887790  0.043410  1.0  0.699
  C  C108  1  0.347510  0.816480  0.102700  1.0  -0.0189
  C  C109  1  0.323890  0.756560  0.125140  1.0  -0.2456
  C  C110  1  0.468680  0.706120  0.082660  1.0  -0.2307
  C  C111  1  0.491630  0.766790  0.058330  1.0  -0.0209
  C  C112  1  0.385410  0.699960  0.115860  1.0  0.1819
  C  C113  1  0.434220  0.530460  0.128500  1.0  -0.2069
  C  C114  1  0.470880  0.492030  0.089410  1.0  -0.1055
  C  C115  1  0.431860  0.822420  0.069000  1.0  -0.1304
  C  C116  1  0.887700  0.612210  0.456590  1.0  0.699
  C  C117  1  0.766690  0.683520  0.397300  1.0  -0.021
  C  C118  1  0.705590  0.743440  0.374860  1.0  -0.2446
  C  C119  1  0.757460  0.793880  0.417340  1.0  -0.2314
  C  C120  1  0.816750  0.733210  0.441670  1.0  -0.0256
  C  C121  1  0.701230  0.800040  0.384140  1.0  0.1822
  C  C122  1  0.593180  0.969540  0.371500  1.0  -0.2087
  C  C123  1  0.552320  0.007970  0.410590  1.0  -0.1048
  C  C124  1  0.823280  0.677580  0.431000  1.0  -0.132
  C  C125  1  0.598720  0.401280  0.901280  1.0  0.1474
  C  C126  1  0.520770  0.479230  0.979230  1.0  0.1241
  C  C127  1  0.401280  0.098720  0.598720  1.0  0.1459
  C  C128  1  0.479230  0.020770  0.520770  1.0  0.1253
  C  C129  1  0.401280  0.598720  0.098720  1.0  0.1459
  C  C130  1  0.479230  0.520770  0.020770  1.0  0.1253
  C  C131  1  0.598720  0.901280  0.401280  1.0  0.1474
  C  C132  1  0.520770  0.979230  0.479230  1.0  0.1241
  N  N133  1  0.638860  0.361140  0.861140  1.0  -0.1289
  N  N134  1  0.361140  0.138860  0.638860  1.0  -0.1288
  N  N135  1  0.361140  0.638860  0.138860  1.0  -0.1288
  N  N136  1  0.638860  0.861140  0.361140  1.0  -0.1289
  O  O137  1  0.934300  0.488900  0.610020  1.0  -0.6289
  O  O138  1  0.891140  0.442930  0.564230  1.0  -0.6083
  O  O139  1  0.533220  0.011100  0.889980  1.0  -0.6287
  O  O140  1  0.398300  0.057070  0.935770  1.0  -0.6082
  O  O141  1  0.466780  0.110020  0.988900  1.0  -0.6289
  O  O142  1  0.601700  0.064230  0.942930  1.0  -0.6078
  O  O143  1  0.065700  0.389980  0.511100  1.0  -0.6287
  O  O144  1  0.108860  0.435770  0.557070  1.0  -0.6079
  O  O145  1  0.065700  0.511100  0.389980  1.0  -0.6296
  O  O146  1  0.108860  0.557070  0.435770  1.0  -0.6072
  O  O147  1  0.466780  0.988900  0.110020  1.0  -0.629
  O  O148  1  0.601700  0.942930  0.064230  1.0  -0.6078
  O  O149  1  0.533220  0.889980  0.011100  1.0  -0.6295
  O  O150  1  0.398300  0.935770  0.057070  1.0  -0.6084
  O  O151  1  0.934300  0.610020  0.488900  1.0  -0.6277
  O  O152  1  0.891140  0.564230  0.442930  1.0  -0.6086
