# generated using pymatgen
data_CuH12C20NO4
_symmetry_space_group_name_H-M   'P 1'
_cell_length_a   17.21700000
_cell_length_b   22.93820000
_cell_length_c   22.93820000
_cell_angle_alpha   60.94200000
_cell_angle_beta   67.95770000
_cell_angle_gamma   67.95760000
_symmetry_Int_Tables_number   1
_chemical_formula_structural   CuH12C20NO4
_chemical_formula_sum   'Cu4 H48 C80 N4 O16'
_cell_volume   7128.54852707
_cell_formula_units_Z   4
loop_
 _symmetry_equiv_pos_site_id
 _symmetry_equiv_pos_as_xyz
  1  'x, y, z'
loop_
 _atom_site_type_symbol
 _atom_site_label
 _atom_site_symmetry_multiplicity
 _atom_site_fract_x
 _atom_site_fract_y
 _atom_site_fract_z
 _atom_site_occupancy
 _atom_site_charge
  Cu  Cu1  1  0.476070  0.972640  0.972640  1.0  0.8947
  Cu  Cu2  1  0.921350  0.527360  0.527360  1.0  0.8892
  Cu  Cu3  1  0.078650  0.472640  0.472640  1.0  0.8894
  Cu  Cu4  1  0.523930  0.027360  0.027360  1.0  0.8941
  H  H5  1  0.728100  0.855900  0.110900  1.0  0.1067
  H  H6  1  0.827900  0.756000  0.149600  1.0  0.1212
  H  H7  1  0.744100  0.668600  0.077400  1.0  0.1143
  H  H8  1  0.648400  0.770900  0.033100  1.0  0.1046
  H  H9  1  0.936500  0.674500  0.011300  1.0  0.1058
  H  H10  1  0.998400  0.611300  0.946100  1.0  0.1202
  H  H11  1  0.194900  0.644100  0.389100  1.0  0.1081
  H  H12  1  0.233500  0.744000  0.350400  1.0  0.1194
  H  H13  1  0.990100  0.831400  0.422600  1.0  0.118
  H  H14  1  0.952400  0.729100  0.466900  1.0  0.1049
  H  H15  1  0.122300  0.825500  0.488700  1.0  0.1081
  H  H16  1  0.055800  0.888700  0.553900  1.0  0.1197
  H  H17  1  0.805100  0.610900  0.355900  1.0  0.1075
  H  H18  1  0.766500  0.649600  0.256000  1.0  0.1216
  H  H19  1  0.009900  0.577400  0.168600  1.0  0.1178
  H  H20  1  0.047600  0.533100  0.270900  1.0  0.1058
  H  H21  1  0.877700  0.511300  0.174500  1.0  0.1096
  H  H22  1  0.944200  0.446100  0.111300  1.0  0.1185
  H  H23  1  0.271900  0.889100  0.144100  1.0  0.1077
  H  H24  1  0.172100  0.850400  0.244000  1.0  0.1206
  H  H25  1  0.255900  0.922600  0.331400  1.0  0.1173
  H  H26  1  0.351600  0.966900  0.229100  1.0  0.1051
  H  H27  1  0.063500  0.988700  0.325500  1.0  0.1077
  H  H28  1  0.001600  0.053900  0.388700  1.0  0.1191
  H  H29  1  0.271900  0.144100  0.889100  1.0  0.1064
  H  H30  1  0.172100  0.244000  0.850400  1.0  0.122
  H  H31  1  0.255900  0.331400  0.922600  1.0  0.1146
  H  H32  1  0.351600  0.229100  0.966900  1.0  0.1047
  H  H33  1  0.063500  0.325500  0.988700  1.0  0.1063
  H  H34  1  0.001600  0.388700  0.053900  1.0  0.121
  H  H35  1  0.805100  0.355900  0.610900  1.0  0.1084
  H  H36  1  0.766500  0.256000  0.649600  1.0  0.1198
  H  H37  1  0.009900  0.168600  0.577400  1.0  0.1177
  H  H38  1  0.047600  0.270900  0.533100  1.0  0.1066
  H  H39  1  0.877700  0.174500  0.511300  1.0  0.108
  H  H40  1  0.944200  0.111300  0.446100  1.0  0.1195
  H  H41  1  0.194900  0.389100  0.644100  1.0  0.108
  H  H42  1  0.233500  0.350400  0.744000  1.0  0.1208
  H  H43  1  0.990100  0.422600  0.831400  1.0  0.1175
  H  H44  1  0.952400  0.466900  0.729100  1.0  0.1058
  H  H45  1  0.122300  0.488700  0.825500  1.0  0.1091
  H  H46  1  0.055800  0.553900  0.888700  1.0  0.1196
  H  H47  1  0.728100  0.110900  0.855900  1.0  0.1073
  H  H48  1  0.827900  0.149600  0.756000  1.0  0.1203
  H  H49  1  0.744100  0.077400  0.668600  1.0  0.1176
  H  H50  1  0.648400  0.033100  0.770900  1.0  0.1048
  H  H51  1  0.936500  0.011300  0.674500  1.0  0.1076
  H  H52  1  0.998400  0.946100  0.611300  1.0  0.1186
  C  C53  1  0.731580  0.818430  0.103570  1.0  -0.0152
  C  C54  1  0.790940  0.758750  0.126950  1.0  -0.2258
  C  C55  1  0.796830  0.701750  0.117190  1.0  0.1633
  C  C56  1  0.741690  0.706670  0.083150  1.0  -0.2025
  C  C57  1  0.683220  0.767640  0.057800  1.0  -0.0285
  C  C58  1  0.675730  0.824150  0.068790  1.0  -0.1414
  C  C59  1  0.611170  0.889040  0.042740  1.0  0.6946
  C  C60  1  0.936940  0.628100  0.032020  1.0  -0.2084
  C  C61  1  0.975010  0.589760  0.992820  1.0  -0.1186
  C  C62  1  0.153580  0.681570  0.396430  1.0  -0.013
  C  C63  1  0.176640  0.741250  0.373050  1.0  -0.2262
  C  C64  1  0.115770  0.798250  0.382810  1.0  0.1634
  C  C65  1  0.031510  0.793330  0.416850  1.0  -0.2053
  C  C66  1  0.008660  0.732360  0.442200  1.0  -0.0232
  C  C67  1  0.068670  0.675850  0.431210  1.0  -0.1435
  C  C68  1  0.042950  0.610960  0.457260  1.0  0.6929
  C  C69  1  0.097060  0.871900  0.467980  1.0  -0.2062
  C  C70  1  0.057590  0.910240  0.507180  1.0  -0.1193
  C  C71  1  0.846420  0.603570  0.318430  1.0  -0.0158
  C  C72  1  0.823360  0.626950  0.258750  1.0  -0.2289
  C  C73  1  0.884230  0.617190  0.201750  1.0  0.1634
  C  C74  1  0.968490  0.583150  0.206670  1.0  -0.2011
  C  C75  1  0.991340  0.557800  0.267640  1.0  -0.0228
  C  C76  1  0.931330  0.568790  0.324150  1.0  -0.1471
  C  C77  1  0.957050  0.542740  0.389040  1.0  0.6949
  C  C78  1  0.902940  0.532020  0.128100  1.0  -0.2073
  C  C79  1  0.942410  0.492820  0.089760  1.0  -0.1205
  C  C80  1  0.268420  0.896430  0.181570  1.0  -0.0118
  C  C81  1  0.209060  0.873050  0.241250  1.0  -0.2254
  C  C82  1  0.203170  0.882810  0.298250  1.0  0.1631
  C  C83  1  0.258310  0.916850  0.293330  1.0  -0.1984
  C  C84  1  0.316780  0.942200  0.232360  1.0  -0.0279
  C  C85  1  0.324270  0.931210  0.175850  1.0  -0.1383
  C  C86  1  0.388830  0.957260  0.110960  1.0  0.6952
  C  C87  1  0.063060  0.967980  0.371900  1.0  -0.2035
  C  C88  1  0.024990  0.007180  0.410240  1.0  -0.1179
  C  C89  1  0.268420  0.181570  0.896430  1.0  -0.0172
  C  C90  1  0.209060  0.241250  0.873050  1.0  -0.2267
  C  C91  1  0.203170  0.298250  0.882810  1.0  0.1633
  C  C92  1  0.258310  0.293330  0.916850  1.0  -0.2016
  C  C93  1  0.316780  0.232360  0.942200  1.0  -0.0289
  C  C94  1  0.324270  0.175850  0.931210  1.0  -0.1423
  C  C95  1  0.388830  0.110960  0.957260  1.0  0.6942
  C  C96  1  0.063060  0.371900  0.967980  1.0  -0.2106
  C  C97  1  0.024990  0.410240  0.007180  1.0  -0.1194
  C  C98  1  0.846420  0.318430  0.603570  1.0  -0.0122
  C  C99  1  0.823360  0.258750  0.626950  1.0  -0.228
  C  C100  1  0.884230  0.201750  0.617190  1.0  0.1626
  C  C101  1  0.968490  0.206670  0.583150  1.0  -0.2011
  C  C102  1  0.991340  0.267640  0.557800  1.0  -0.0244
  C  C103  1  0.931330  0.324150  0.568790  1.0  -0.1427
  C  C104  1  0.957050  0.389040  0.542740  1.0  0.6933
  C  C105  1  0.902940  0.128100  0.532020  1.0  -0.2069
  C  C106  1  0.942410  0.089760  0.492820  1.0  -0.1221
  C  C107  1  0.153580  0.396430  0.681570  1.0  -0.0155
  C  C108  1  0.176640  0.373050  0.741250  1.0  -0.2241
  C  C109  1  0.115770  0.382810  0.798250  1.0  0.163
  C  C110  1  0.031510  0.416850  0.793330  1.0  -0.2037
  C  C111  1  0.008660  0.442200  0.732360  1.0  -0.023
  C  C112  1  0.068670  0.431210  0.675850  1.0  -0.1469
  C  C113  1  0.042950  0.457260  0.610960  1.0  0.6951
  C  C114  1  0.097060  0.467980  0.871900  1.0  -0.2056
  C  C115  1  0.057590  0.507180  0.910240  1.0  -0.1202
  C  C116  1  0.731580  0.103570  0.818430  1.0  -0.0098
  C  C117  1  0.790940  0.126950  0.758750  1.0  -0.2255
  C  C118  1  0.796830  0.117190  0.701750  1.0  0.1634
  C  C119  1  0.741690  0.083150  0.706670  1.0  -0.1985
  C  C120  1  0.683220  0.057800  0.767640  1.0  -0.0284
  C  C121  1  0.675730  0.068790  0.824150  1.0  -0.1381
  C  C122  1  0.611170  0.042740  0.889040  1.0  0.6948
  C  C123  1  0.936940  0.032020  0.628100  1.0  -0.204
  C  C124  1  0.975010  0.992820  0.589760  1.0  -0.12
  C  C125  1  0.900130  0.599870  0.099870  1.0  0.1856
  C  C126  1  0.979130  0.520870  0.020870  1.0  0.1561
  C  C127  1  0.099870  0.900130  0.400130  1.0  0.1867
  C  C128  1  0.020870  0.979130  0.479130  1.0  0.1525
  C  C129  1  0.099870  0.400130  0.900130  1.0  0.1867
  C  C130  1  0.020870  0.479130  0.979130  1.0  0.1561
  C  C131  1  0.900130  0.099870  0.599870  1.0  0.1856
  C  C132  1  0.979130  0.020870  0.520870  1.0  0.1524
  N  N133  1  0.859980  0.640020  0.140020  1.0  -0.1273
  N  N134  1  0.140020  0.859980  0.359980  1.0  -0.1272
  N  N135  1  0.140020  0.359980  0.859980  1.0  -0.1272
  N  N136  1  0.859980  0.140020  0.640020  1.0  -0.1273
  O  O137  1  0.565750  0.891200  0.010320  1.0  -0.5768
  O  O138  1  0.606450  0.937970  0.056530  1.0  -0.5761
  O  O139  1  0.967270  0.608800  0.489680  1.0  -0.5727
  O  O140  1  0.100950  0.562030  0.443470  1.0  -0.578
  O  O141  1  0.032730  0.510320  0.391200  1.0  -0.574
  O  O142  1  0.899050  0.556530  0.437970  1.0  -0.578
  O  O143  1  0.434250  0.989680  0.108800  1.0  -0.5729
  O  O144  1  0.393550  0.943470  0.062030  1.0  -0.5767
  O  O145  1  0.434250  0.108800  0.989680  1.0  -0.5762
  O  O146  1  0.393550  0.062030  0.943470  1.0  -0.5768
  O  O147  1  0.032730  0.391200  0.510320  1.0  -0.573
  O  O148  1  0.899050  0.437970  0.556530  1.0  -0.5782
  O  O149  1  0.967270  0.489680  0.608800  1.0  -0.574
  O  O150  1  0.100950  0.443470  0.562030  1.0  -0.5775
  O  O151  1  0.565750  0.010320  0.891200  1.0  -0.5739
  O  O152  1  0.606450  0.056530  0.937970  1.0  -0.5763
