# generated using pymatgen
data_CoH12C20NO4
_symmetry_space_group_name_H-M   'P 1'
_cell_length_a   17.14100000
_cell_length_b   23.09940000
_cell_length_c   23.09940000
_cell_angle_alpha   60.90590000
_cell_angle_beta   68.22110000
_cell_angle_gamma   68.22100000
_symmetry_Int_Tables_number   1
_chemical_formula_structural   CoH12C20NO4
_chemical_formula_sum   'Co4 H48 C80 N4 O16'
_cell_volume   7213.96149960
_cell_formula_units_Z   4
loop_
 _symmetry_equiv_pos_site_id
 _symmetry_equiv_pos_as_xyz
  1  'x, y, z'
loop_
 _atom_site_type_symbol
 _atom_site_label
 _atom_site_symmetry_multiplicity
 _atom_site_fract_x
 _atom_site_fract_y
 _atom_site_fract_z
 _atom_site_occupancy
 _atom_site_charge
  Co  Co1  1  0.972520  0.971420  0.971420  1.0  1.0206
  Co  Co2  1  0.415360  0.528580  0.528580  1.0  1.038
  Co  Co3  1  0.584640  0.471420  0.471420  1.0  1.0358
  Co  Co4  1  0.027480  0.028580  0.028580  1.0  1.0202
  H  H5  1  0.768900  0.891100  0.146700  1.0  0.1022
  H  H6  1  0.757600  0.923300  0.331700  1.0  0.1147
  H  H7  1  0.665800  0.853700  0.246500  1.0  0.124
  H  H8  1  0.854500  0.965200  0.230000  1.0  0.1055
  H  H9  1  0.566600  0.989600  0.325400  1.0  0.1175
  H  H10  1  0.507700  0.054500  0.389500  1.0  0.1097
  H  H11  1  0.306700  0.608900  0.353300  1.0  0.1027
  H  H12  1  0.512600  0.576700  0.168300  1.0  0.1148
  H  H13  1  0.266000  0.646300  0.253500  1.0  0.1253
  H  H14  1  0.549700  0.534800  0.270000  1.0  0.1053
  H  H15  1  0.381600  0.510400  0.174600  1.0  0.1189
  H  H16  1  0.451700  0.445500  0.110500  1.0  0.1097
  H  H17  1  0.693300  0.646700  0.391100  1.0  0.1024
  H  H18  1  0.487400  0.831700  0.423300  1.0  0.1144
  H  H19  1  0.734000  0.746500  0.353700  1.0  0.1234
  H  H20  1  0.450300  0.730000  0.465200  1.0  0.1052
  H  H21  1  0.618400  0.825400  0.489600  1.0  0.1171
  H  H22  1  0.548300  0.889500  0.554500  1.0  0.1121
  H  H23  1  0.231100  0.853300  0.108900  1.0  0.1015
  H  H24  1  0.242400  0.668300  0.076700  1.0  0.1134
  H  H25  1  0.334200  0.753500  0.146300  1.0  0.1241
  H  H26  1  0.145500  0.770000  0.034800  1.0  0.1052
  H  H27  1  0.433400  0.674600  0.010400  1.0  0.1155
  H  H28  1  0.492300  0.610500  0.945500  1.0  0.1103
  H  H29  1  0.231100  0.108900  0.853300  1.0  0.1017
  H  H30  1  0.242400  0.076700  0.668300  1.0  0.1147
  H  H31  1  0.334200  0.146300  0.753500  1.0  0.1237
  H  H32  1  0.145500  0.034800  0.770000  1.0  0.1053
  H  H33  1  0.433400  0.010400  0.674600  1.0  0.1169
  H  H34  1  0.492300  0.945500  0.610500  1.0  0.1096
  H  H35  1  0.693300  0.391100  0.646700  1.0  0.1029
  H  H36  1  0.487400  0.423300  0.831700  1.0  0.115
  H  H37  1  0.734000  0.353700  0.746500  1.0  0.1254
  H  H38  1  0.450300  0.465200  0.730000  1.0  0.1058
  H  H39  1  0.618400  0.489600  0.825400  1.0  0.1191
  H  H40  1  0.548300  0.554500  0.889500  1.0  0.1099
  H  H41  1  0.306700  0.353300  0.608900  1.0  0.1029
  H  H42  1  0.512600  0.168300  0.576700  1.0  0.1137
  H  H43  1  0.266000  0.253500  0.646300  1.0  0.1236
  H  H44  1  0.549700  0.270000  0.534800  1.0  0.1055
  H  H45  1  0.381600  0.174600  0.510400  1.0  0.1177
  H  H46  1  0.451700  0.110500  0.445500  1.0  0.1122
  H  H47  1  0.768900  0.146700  0.891100  1.0  0.1007
  H  H48  1  0.757600  0.331700  0.923300  1.0  0.1137
  H  H49  1  0.665800  0.246500  0.853700  1.0  0.1248
  H  H50  1  0.854500  0.230000  0.965200  1.0  0.1051
  H  H51  1  0.566600  0.325400  0.989600  1.0  0.1147
  H  H52  1  0.507700  0.389500  0.054500  1.0  0.1107
  C  C53  1  0.888090  0.956030  0.110790  1.0  0.6985
  C  C54  1  0.765400  0.898370  0.183830  1.0  -0.016
  C  C55  1  0.758740  0.917930  0.293990  1.0  -0.1836
  C  C56  1  0.821720  0.931990  0.178570  1.0  -0.1707
  C  C57  1  0.703990  0.875410  0.243770  1.0  -0.2625
  C  C58  1  0.817500  0.942020  0.233560  1.0  -0.0224
  C  C59  1  0.700110  0.885070  0.299110  1.0  0.1742
  C  C60  1  0.565230  0.968700  0.371640  1.0  -0.2031
  C  C61  1  0.527990  0.007750  0.411070  1.0  -0.097
  C  C62  1  0.454910  0.543970  0.389210  1.0  0.7004
  C  C63  1  0.347600  0.601630  0.316170  1.0  -0.0212
  C  C64  1  0.470660  0.582070  0.206010  1.0  -0.1843
  C  C65  1  0.432280  0.568010  0.321430  1.0  -0.1654
  C  C66  1  0.323170  0.624590  0.256230  1.0  -0.2658
  C  C67  1  0.493080  0.557980  0.266440  1.0  -0.0209
  C  C68  1  0.384290  0.614930  0.200890  1.0  0.1749
  C  C69  1  0.405570  0.531300  0.128360  1.0  -0.2055
  C  C70  1  0.446810  0.492250  0.088930  1.0  -0.0993
  C  C71  1  0.545090  0.610790  0.456030  1.0  0.6985
  C  C72  1  0.652400  0.683830  0.398370  1.0  -0.0187
  C  C73  1  0.529340  0.793990  0.417930  1.0  -0.1866
  C  C74  1  0.567720  0.678570  0.431990  1.0  -0.1687
  C  C75  1  0.676830  0.743770  0.375410  1.0  -0.2642
  C  C76  1  0.506920  0.733560  0.442020  1.0  -0.0214
  C  C77  1  0.615710  0.799110  0.385070  1.0  0.1738
  C  C78  1  0.594430  0.871640  0.468700  1.0  -0.2041
  C  C79  1  0.553190  0.911070  0.507750  1.0  -0.1029
  C  C80  1  0.111910  0.889210  0.043970  1.0  0.6976
  C  C81  1  0.234600  0.816170  0.101630  1.0  -0.0192
  C  C82  1  0.241260  0.706010  0.082070  1.0  -0.1877
  C  C83  1  0.178280  0.821430  0.068010  1.0  -0.1669
  C  C84  1  0.296010  0.756230  0.124590  1.0  -0.2616
  C  C85  1  0.182500  0.766440  0.057980  1.0  -0.0239
  C  C86  1  0.299890  0.700890  0.114930  1.0  0.1742
  C  C87  1  0.434770  0.628360  0.031300  1.0  -0.2056
  C  C88  1  0.472010  0.588930  0.992250  1.0  -0.0994
  C  C89  1  0.111910  0.043970  0.889210  1.0  0.699
  C  C90  1  0.234600  0.101630  0.816170  1.0  -0.015
  C  C91  1  0.241260  0.082070  0.706010  1.0  -0.1836
  C  C92  1  0.178280  0.068010  0.821430  1.0  -0.1702
  C  C93  1  0.296010  0.124590  0.756230  1.0  -0.2619
  C  C94  1  0.182500  0.057980  0.766440  1.0  -0.022
  C  C95  1  0.299890  0.114930  0.700890  1.0  0.1745
  C  C96  1  0.434770  0.031300  0.628360  1.0  -0.2025
  C  C97  1  0.472010  0.992250  0.588930  1.0  -0.0966
  C  C98  1  0.545090  0.456030  0.610790  1.0  0.6997
  C  C99  1  0.652400  0.398370  0.683830  1.0  -0.0199
  C  C100  1  0.529340  0.417930  0.793990  1.0  -0.1852
  C  C101  1  0.567720  0.431990  0.678570  1.0  -0.1631
  C  C102  1  0.676830  0.375410  0.743770  1.0  -0.2624
  C  C103  1  0.506920  0.442020  0.733560  1.0  -0.021
  C  C104  1  0.615710  0.385070  0.799110  1.0  0.1748
  C  C105  1  0.594430  0.468700  0.871640  1.0  -0.2045
  C  C106  1  0.553190  0.507750  0.911070  1.0  -0.0967
  C  C107  1  0.454910  0.389210  0.543970  1.0  0.698
  C  C108  1  0.347600  0.316170  0.601630  1.0  -0.0165
  C  C109  1  0.470660  0.206010  0.582070  1.0  -0.1848
  C  C110  1  0.432280  0.321430  0.568010  1.0  -0.1686
  C  C111  1  0.323170  0.256230  0.624590  1.0  -0.2656
  C  C112  1  0.493080  0.266440  0.557980  1.0  -0.0203
  C  C113  1  0.384290  0.200890  0.614930  1.0  0.1737
  C  C114  1  0.405570  0.128360  0.531300  1.0  -0.2034
  C  C115  1  0.446810  0.088930  0.492250  1.0  -0.0983
  C  C116  1  0.888090  0.110790  0.956030  1.0  0.6982
  C  C117  1  0.765400  0.183830  0.898370  1.0  -0.0206
  C  C118  1  0.758740  0.293990  0.917930  1.0  -0.187
  C  C119  1  0.821720  0.178570  0.931990  1.0  -0.1689
  C  C120  1  0.703990  0.243770  0.875410  1.0  -0.2638
  C  C121  1  0.817500  0.233560  0.942020  1.0  -0.0239
  C  C122  1  0.700110  0.299110  0.885070  1.0  0.1738
  C  C123  1  0.565230  0.371640  0.968700  1.0  -0.207
  C  C124  1  0.527990  0.411070  0.007750  1.0  -0.0973
  C  C125  1  0.599070  0.900930  0.400930  1.0  0.168
  C  C126  1  0.520630  0.979370  0.479370  1.0  0.1296
  C  C127  1  0.400930  0.599070  0.099070  1.0  0.1671
  C  C128  1  0.479370  0.520630  0.020630  1.0  0.1297
  C  C129  1  0.400930  0.099070  0.599070  1.0  0.1671
  C  C130  1  0.479370  0.020630  0.520630  1.0  0.1306
  C  C131  1  0.599070  0.400930  0.900930  1.0  0.168
  C  C132  1  0.520630  0.479370  0.979370  1.0  0.1287
  N  N133  1  0.638400  0.861600  0.361600  1.0  -0.1308
  N  N134  1  0.361600  0.638400  0.138400  1.0  -0.1306
  N  N135  1  0.361600  0.138400  0.638400  1.0  -0.1306
  N  N136  1  0.638400  0.361600  0.861600  1.0  -0.1308
  O  O137  1  0.890160  0.942920  0.063980  1.0  -0.5946
  O  O138  1  0.934830  0.988620  0.109980  1.0  -0.5885
  O  O139  1  0.397060  0.557080  0.436020  1.0  -0.5955
  O  O140  1  0.533430  0.511380  0.390020  1.0  -0.5889
  O  O141  1  0.602940  0.563980  0.442920  1.0  -0.5945
  O  O142  1  0.466570  0.609980  0.488620  1.0  -0.5889
  O  O143  1  0.109840  0.936020  0.057080  1.0  -0.5953
  O  O144  1  0.065170  0.890020  0.011380  1.0  -0.5932
  O  O145  1  0.109840  0.057080  0.936020  1.0  -0.5937
  O  O146  1  0.065170  0.011380  0.890020  1.0  -0.5895
  O  O147  1  0.602940  0.442920  0.563980  1.0  -0.5957
  O  O148  1  0.466570  0.488620  0.609980  1.0  -0.5872
  O  O149  1  0.397060  0.436020  0.557080  1.0  -0.5938
  O  O150  1  0.533430  0.390020  0.511380  1.0  -0.5895
  O  O151  1  0.890160  0.063980  0.942920  1.0  -0.5958
  O  O152  1  0.934830  0.109980  0.988620  1.0  -0.591
