# generated using pymatgen
data_ZnH12C20NO4
_symmetry_space_group_name_H-M   'P 1'
_cell_length_a   17.95300000
_cell_length_b   19.81930000
_cell_length_c   23.02300000
_cell_angle_alpha   90.00000000
_cell_angle_beta   90.00000000
_cell_angle_gamma   116.93100000
_symmetry_Int_Tables_number   1
_chemical_formula_structural   ZnH12C20NO4
_chemical_formula_sum   'Zn4 H48 C80 N4 O16'
_cell_volume   7303.55376789
_cell_formula_units_Z   4
loop_
 _symmetry_equiv_pos_site_id
 _symmetry_equiv_pos_as_xyz
  1  'x, y, z'
loop_
 _atom_site_type_symbol
 _atom_site_label
 _atom_site_symmetry_multiplicity
 _atom_site_fract_x
 _atom_site_fract_y
 _atom_site_fract_z
 _atom_site_occupancy
 _atom_site_charge
  Zn  Zn1  1  0.085350  0.563440  0.000000  1.0  1.1531
  Zn  Zn2  1  0.914650  0.436560  0.000000  1.0  1.1525
  Zn  Zn3  1  0.478090  0.563440  0.500000  1.0  1.1602
  Zn  Zn4  1  0.521910  0.436560  0.500000  1.0  1.1606
  H  H5  1  0.191800  0.469200  0.872300  1.0  0.1028
  H  H6  1  0.997200  0.246400  0.794500  1.0  0.1081
  H  H7  1  0.957800  0.305400  0.866000  1.0  0.1111
  H  H8  1  0.232100  0.408200  0.805100  1.0  0.1273
  H  H9  1  0.116600  0.186200  0.834300  1.0  0.124
  H  H10  1  0.051300  0.057200  0.834300  1.0  0.1153
  H  H11  1  0.808200  0.530800  0.872300  1.0  0.1034
  H  H12  1  0.002800  0.753600  0.794500  1.0  0.1078
  H  H13  1  0.042200  0.694600  0.866000  1.0  0.1115
  H  H14  1  0.767900  0.591800  0.805100  1.0  0.1273
  H  H15  1  0.883400  0.813800  0.834300  1.0  0.1249
  H  H16  1  0.948700  0.942800  0.834300  1.0  0.1155
  H  H17  1  0.277400  0.469200  0.627700  1.0  0.1032
  H  H18  1  0.249200  0.246400  0.705500  1.0  0.1081
  H  H19  1  0.347600  0.305400  0.634000  1.0  0.1117
  H  H20  1  0.176100  0.408200  0.694900  1.0  0.1271
  H  H21  1  0.069600  0.186200  0.665700  1.0  0.1237
  H  H22  1  0.005900  0.057200  0.665700  1.0  0.1137
  H  H23  1  0.722600  0.530800  0.627700  1.0  0.1033
  H  H24  1  0.750800  0.753600  0.705500  1.0  0.1086
  H  H25  1  0.652400  0.694600  0.634000  1.0  0.1117
  H  H26  1  0.823900  0.591800  0.694900  1.0  0.1262
  H  H27  1  0.930400  0.813800  0.665700  1.0  0.1239
  H  H28  1  0.994100  0.942800  0.665700  1.0  0.1141
  H  H29  1  0.808200  0.530800  0.127700  1.0  0.1029
  H  H30  1  0.002800  0.753600  0.205500  1.0  0.1078
  H  H31  1  0.042200  0.694600  0.134000  1.0  0.1119
  H  H32  1  0.767900  0.591800  0.194900  1.0  0.1271
  H  H33  1  0.883400  0.813800  0.165700  1.0  0.1247
  H  H34  1  0.948700  0.942800  0.165700  1.0  0.1138
  H  H35  1  0.191800  0.469200  0.127700  1.0  0.1033
  H  H36  1  0.997200  0.246400  0.205500  1.0  0.1082
  H  H37  1  0.957800  0.305400  0.134000  1.0  0.1112
  H  H38  1  0.232100  0.408200  0.194900  1.0  0.1274
  H  H39  1  0.116600  0.186200  0.165700  1.0  0.1249
  H  H40  1  0.051300  0.057200  0.165700  1.0  0.1137
  H  H41  1  0.722600  0.530800  0.372300  1.0  0.1029
  H  H42  1  0.750800  0.753600  0.294500  1.0  0.1084
  H  H43  1  0.652400  0.694600  0.366000  1.0  0.1111
  H  H44  1  0.823900  0.591800  0.305100  1.0  0.1265
  H  H45  1  0.930400  0.813800  0.334300  1.0  0.1232
  H  H46  1  0.994100  0.942800  0.334300  1.0  0.1155
  H  H47  1  0.277400  0.469200  0.372300  1.0  0.1033
  H  H48  1  0.249200  0.246400  0.294500  1.0  0.1081
  H  H49  1  0.347600  0.305400  0.366000  1.0  0.1115
  H  H50  1  0.176100  0.408200  0.305100  1.0  0.1269
  H  H51  1  0.069600  0.186200  0.334300  1.0  0.1239
  H  H52  1  0.005900  0.057200  0.334300  1.0  0.1158
  C  C53  1  0.046280  0.434660  0.921520  1.0  0.7003
  C  C54  1  0.070740  0.395220  0.876970  1.0  -0.1242
  C  C55  1  0.152040  0.423620  0.857210  1.0  -0.0022
  C  C56  1  0.117310  0.319600  0.791930  1.0  0.1865
  C  C57  1  0.037250  0.291300  0.810660  1.0  -0.1883
  C  C58  1  0.012970  0.327160  0.853330  1.0  -0.0504
  C  C59  1  0.176410  0.387620  0.816520  1.0  -0.266
  C  C60  1  0.093960  0.160260  0.799950  1.0  -0.1954
  C  C61  1  0.055000  0.082960  0.799860  1.0  -0.142
  C  C62  1  0.953720  0.565340  0.921520  1.0  0.6996
  C  C63  1  0.929260  0.604780  0.876970  1.0  -0.1237
  C  C64  1  0.847960  0.576380  0.857210  1.0  -0.002
  C  C65  1  0.882690  0.680400  0.791930  1.0  0.1872
  C  C66  1  0.962750  0.708700  0.810660  1.0  -0.188
  C  C67  1  0.987030  0.672840  0.853330  1.0  -0.05
  C  C68  1  0.823590  0.612380  0.816520  1.0  -0.2645
  C  C69  1  0.906040  0.839740  0.799950  1.0  -0.1955
  C  C70  1  0.945000  0.917040  0.799860  1.0  -0.141
  C  C71  1  0.388380  0.434660  0.578480  1.0  0.7
  C  C72  1  0.324480  0.395220  0.623030  1.0  -0.1237
  C  C73  1  0.271580  0.423620  0.642790  1.0  -0.0036
  C  C74  1  0.202290  0.319600  0.708070  1.0  0.1861
  C  C75  1  0.254050  0.291300  0.689340  1.0  -0.186
  C  C76  1  0.314190  0.327160  0.646670  1.0  -0.0515
  C  C77  1  0.211210  0.387620  0.683480  1.0  -0.2674
  C  C78  1  0.066300  0.160260  0.700050  1.0  -0.1939
  C  C79  1  0.027960  0.082960  0.700140  1.0  -0.1387
  C  C80  1  0.611620  0.565340  0.578480  1.0  0.7002
  C  C81  1  0.675520  0.604780  0.623030  1.0  -0.1244
  C  C82  1  0.728420  0.576380  0.642790  1.0  -0.0031
  C  C83  1  0.797710  0.680400  0.708070  1.0  0.1862
  C  C84  1  0.745950  0.708700  0.689340  1.0  -0.189
  C  C85  1  0.685810  0.672840  0.646670  1.0  -0.0511
  C  C86  1  0.788790  0.612380  0.683480  1.0  -0.2642
  C  C87  1  0.933700  0.839740  0.700050  1.0  -0.1941
  C  C88  1  0.972040  0.917040  0.700140  1.0  -0.1408
  C  C89  1  0.953720  0.565340  0.078480  1.0  0.6997
  C  C90  1  0.929260  0.604780  0.123030  1.0  -0.1237
  C  C91  1  0.847960  0.576380  0.142790  1.0  -0.0026
  C  C92  1  0.882690  0.680400  0.208070  1.0  0.1865
  C  C93  1  0.962750  0.708700  0.189340  1.0  -0.1877
  C  C94  1  0.987030  0.672840  0.146670  1.0  -0.0506
  C  C95  1  0.823590  0.612380  0.183480  1.0  -0.2653
  C  C96  1  0.906040  0.839740  0.200050  1.0  -0.1938
  C  C97  1  0.945000  0.917040  0.200140  1.0  -0.139
  C  C98  1  0.046280  0.434660  0.078480  1.0  0.7003
  C  C99  1  0.070740  0.395220  0.123030  1.0  -0.1238
  C  C100  1  0.152040  0.423620  0.142790  1.0  -0.0029
  C  C101  1  0.117310  0.319600  0.208070  1.0  0.1859
  C  C102  1  0.037250  0.291300  0.189340  1.0  -0.1881
  C  C103  1  0.012970  0.327160  0.146670  1.0  -0.0506
  C  C104  1  0.176410  0.387620  0.183480  1.0  -0.2655
  C  C105  1  0.093960  0.160260  0.200050  1.0  -0.1945
  C  C106  1  0.055000  0.082960  0.200140  1.0  -0.1406
  C  C107  1  0.611620  0.565340  0.421520  1.0  0.7002
  C  C108  1  0.675520  0.604780  0.376970  1.0  -0.1239
  C  C109  1  0.728420  0.576380  0.357210  1.0  -0.0024
  C  C110  1  0.797710  0.680400  0.291930  1.0  0.1868
  C  C111  1  0.745950  0.708700  0.310660  1.0  -0.1889
  C  C112  1  0.685810  0.672840  0.353330  1.0  -0.0511
  C  C113  1  0.788790  0.612380  0.316520  1.0  -0.2634
  C  C114  1  0.933700  0.839740  0.299950  1.0  -0.1947
  C  C115  1  0.972040  0.917040  0.299860  1.0  -0.1411
  C  C116  1  0.388380  0.434660  0.421520  1.0  0.6998
  C  C117  1  0.324480  0.395220  0.376970  1.0  -0.1242
  C  C118  1  0.271580  0.423620  0.357210  1.0  -0.0028
  C  C119  1  0.202290  0.319600  0.291930  1.0  0.1868
  C  C120  1  0.254050  0.291300  0.310660  1.0  -0.1864
  C  C121  1  0.314190  0.327160  0.353330  1.0  -0.0508
  C  C122  1  0.211210  0.387620  0.316520  1.0  -0.2675
  C  C123  1  0.066300  0.160260  0.299950  1.0  -0.1958
  C  C124  1  0.027960  0.082960  0.299860  1.0  -0.1414
  C  C125  1  0.099890  0.199780  0.750000  1.0  0.1425
  C  C126  1  0.021180  0.042360  0.750000  1.0  0.0748
  C  C127  1  0.900110  0.800220  0.750000  1.0  0.1422
  C  C128  1  0.978820  0.957640  0.750000  1.0  0.0755
  C  C129  1  0.900110  0.800220  0.250000  1.0  0.1422
  C  C130  1  0.978820  0.957640  0.250000  1.0  0.0755
  C  C131  1  0.099890  0.199780  0.250000  1.0  0.1425
  C  C132  1  0.021180  0.042360  0.250000  1.0  0.0747
  N  N133  1  0.140540  0.281080  0.750000  1.0  -0.1283
  N  N134  1  0.859460  0.718920  0.750000  1.0  -0.1282
  N  N135  1  0.859460  0.718920  0.250000  1.0  -0.1282
  N  N136  1  0.140540  0.281080  0.250000  1.0  -0.1283
  O  O137  1  0.101400  0.497940  0.938570  1.0  -0.5936
  O  O138  1  0.971310  0.402240  0.938850  1.0  -0.638
  O  O139  1  0.898600  0.502060  0.938570  1.0  -0.5938
  O  O140  1  0.028690  0.597760  0.938850  1.0  -0.6381
  O  O141  1  0.396540  0.497940  0.561430  1.0  -0.5945
  O  O142  1  0.430930  0.402240  0.561150  1.0  -0.6381
  O  O143  1  0.603460  0.502060  0.561430  1.0  -0.5942
  O  O144  1  0.569070  0.597760  0.561150  1.0  -0.6375
  O  O145  1  0.898600  0.502060  0.061430  1.0  -0.5941
  O  O146  1  0.028690  0.597760  0.061150  1.0  -0.638
  O  O147  1  0.101400  0.497940  0.061430  1.0  -0.5937
  O  O148  1  0.971310  0.402240  0.061150  1.0  -0.6381
  O  O149  1  0.603460  0.502060  0.438570  1.0  -0.5942
  O  O150  1  0.569070  0.597760  0.438850  1.0  -0.6375
  O  O151  1  0.396540  0.497940  0.438570  1.0  -0.594
  O  O152  1  0.430930  0.402240  0.438850  1.0  -0.6384
