# generated using pymatgen
data_Gd2CuC28(NO4)4
_symmetry_space_group_name_H-M   'P 1'
_cell_length_a   7.78150000
_cell_length_b   9.26000000
_cell_length_c   25.54300000
_cell_angle_alpha   90.00000000
_cell_angle_beta   90.00000000
_cell_angle_gamma   97.36000000
_symmetry_Int_Tables_number   1
_chemical_formula_structural   Gd2CuC28(NO4)4
_chemical_formula_sum   'Gd4 Cu2 C56 N8 O32'
_cell_volume   1825.37949038
_cell_formula_units_Z   2
loop_
 _symmetry_equiv_pos_site_id
 _symmetry_equiv_pos_as_xyz
  1  'x, y, z'
loop_
 _atom_site_type_symbol
 _atom_site_label
 _atom_site_symmetry_multiplicity
 _atom_site_fract_x
 _atom_site_fract_y
 _atom_site_fract_z
 _atom_site_occupancy
 _atom_site_charge
  Gd  Gd1  1  0.412770  0.487750  0.349400  1.0  1.8684
  Gd  Gd2  1  0.087230  0.512250  0.849400  1.0  1.8639
  Gd  Gd3  1  0.587230  0.512250  0.650600  1.0  1.8611
  Gd  Gd4  1  0.912770  0.487750  0.150600  1.0  1.8654
  Cu  Cu5  1  0.500000  0.000000  0.500000  1.0  2.8312
  Cu  Cu6  1  0.000000  0.000000  0.000000  1.0  2.8312
  C  C7  1  0.720400  0.403500  0.272000  1.0  0.7366
  C  C8  1  0.662800  0.254100  0.295100  1.0  0.097
  C  C9  1  0.729100  0.130200  0.277200  1.0  -0.0554
  C  C10  1  0.673100  0.997600  0.300900  1.0  0.1158
  C  C11  1  0.552600  0.993200  0.341000  1.0  -0.2761
  C  C12  1  0.493100  0.122100  0.356300  1.0  0.2233
  C  C13  1  0.483900  0.852200  0.368000  1.0  0.8339
  C  C14  1  0.697600  0.777300  0.492700  1.0  0.5756
  C  C15  1  0.800200  0.904400  0.463300  1.0  0.0966
  C  C16  1  0.948300  0.893500  0.435000  1.0  -0.0011
  C  C17  1  0.030900  0.019000  0.411400  1.0  0.0715
  C  C18  1  0.960100  0.149700  0.415200  1.0  -0.2221
  C  C19  1  0.808100  0.150200  0.443000  1.0  0.3121
  C  C20  1  0.042500  0.288100  0.389400  1.0  0.6859
  C  C21  1  0.779600  0.596500  0.772000  1.0  0.7364
  C  C22  1  0.837200  0.745900  0.795100  1.0  0.0963
  C  C23  1  0.770900  0.869800  0.777200  1.0  -0.0541
  C  C24  1  0.826900  0.002400  0.800900  1.0  0.1169
  C  C25  1  0.947400  0.006800  0.841000  1.0  -0.2765
  C  C26  1  0.006900  0.877900  0.856300  1.0  0.223
  C  C27  1  0.016100  0.147800  0.868000  1.0  0.8437
  C  C28  1  0.802400  0.222700  0.992700  1.0  0.5746
  C  C29  1  0.699800  0.095600  0.963300  1.0  0.0961
  C  C30  1  0.551700  0.106500  0.935000  1.0  0.0002
  C  C31  1  0.469100  0.981000  0.911400  1.0  0.0716
  C  C32  1  0.539900  0.850300  0.915200  1.0  -0.222
  C  C33  1  0.691900  0.849800  0.943000  1.0  0.3131
  C  C34  1  0.457500  0.711900  0.889400  1.0  0.6863
  C  C35  1  0.279600  0.596500  0.728000  1.0  0.7366
  C  C36  1  0.337200  0.745900  0.704900  1.0  0.0975
  C  C37  1  0.270900  0.869800  0.722800  1.0  -0.0587
  C  C38  1  0.326900  0.002400  0.699100  1.0  0.116
  C  C39  1  0.447400  0.006800  0.659000  1.0  -0.2764
  C  C40  1  0.506900  0.877900  0.643700  1.0  0.2237
  C  C41  1  0.516100  0.147800  0.632000  1.0  0.8444
  C  C42  1  0.302400  0.222700  0.507300  1.0  0.5744
  C  C43  1  0.199800  0.095600  0.536700  1.0  0.0966
  C  C44  1  0.051700  0.106500  0.565000  1.0  -1e-04
  C  C45  1  0.969100  0.981000  0.588600  1.0  0.073
  C  C46  1  0.039900  0.850300  0.584800  1.0  -0.2212
  C  C47  1  0.191900  0.849800  0.557000  1.0  0.3135
  C  C48  1  0.957500  0.711900  0.610600  1.0  0.6864
  C  C49  1  0.220400  0.403500  0.228000  1.0  0.7364
  C  C50  1  0.162800  0.254100  0.204900  1.0  0.0978
  C  C51  1  0.229100  0.130200  0.222800  1.0  -0.0589
  C  C52  1  0.173100  0.997600  0.199100  1.0  0.1148
  C  C53  1  0.052600  0.993200  0.159000  1.0  -0.2754
  C  C54  1  0.993100  0.122100  0.143700  1.0  0.2247
  C  C55  1  0.983900  0.852200  0.132000  1.0  0.836
  C  C56  1  0.197600  0.777300  0.007300  1.0  0.5751
  C  C57  1  0.300200  0.904400  0.036700  1.0  0.0975
  C  C58  1  0.448300  0.893500  0.065000  1.0  -0.001
  C  C59  1  0.530900  0.019000  0.088600  1.0  0.0729
  C  C60  1  0.460100  0.149700  0.084800  1.0  -0.2213
  C  C61  1  0.308100  0.150200  0.057000  1.0  0.3131
  C  C62  1  0.542500  0.288100  0.110600  1.0  0.6859
  N  N63  1  0.545200  0.250600  0.333500  1.0  -0.4682
  N  N64  1  0.730100  0.030200  0.466600  1.0  -0.8482
  N  N65  1  0.954800  0.749400  0.833500  1.0  -0.4669
  N  N66  1  0.769900  0.969800  0.966600  1.0  -0.8582
  N  N67  1  0.454800  0.749400  0.666500  1.0  -0.4679
  N  N68  1  0.269900  0.969800  0.533400  1.0  -0.8653
  N  N69  1  0.045200  0.250600  0.166500  1.0  -0.4688
  N  N70  1  0.230100  0.030200  0.033400  1.0  -0.8561
  O  O71  1  0.665200  0.509800  0.293540  1.0  -0.6243
  O  O72  1  0.822100  0.409700  0.234340  1.0  -0.7038
  O  O73  1  0.507600  0.736800  0.343400  1.0  -0.7152
  O  O74  1  0.411200  0.858400  0.411170  1.0  -0.8064
  O  O75  1  0.563300  0.808600  0.516600  1.0  -0.6945
  O  O76  1  0.752200  0.657700  0.491620  1.0  -0.4282
  O  O77  1  0.200600  0.295600  0.376700  1.0  -0.7415
  O  O78  1  0.948200  0.385800  0.382900  1.0  -0.4488
  O  O79  1  0.834800  0.490200  0.793540  1.0  -0.6246
  O  O80  1  0.677900  0.590300  0.734340  1.0  -0.704
  O  O81  1  0.992400  0.263200  0.843400  1.0  -0.7144
  O  O82  1  0.088800  0.141600  0.911170  1.0  -0.817
  O  O83  1  0.936700  0.191400  0.016600  1.0  -0.6954
  O  O84  1  0.747800  0.342300  0.991620  1.0  -0.4266
  O  O85  1  0.299400  0.704400  0.876700  1.0  -0.7392
  O  O86  1  0.551800  0.614200  0.882900  1.0  -0.4446
  O  O87  1  0.334800  0.490200  0.706460  1.0  -0.6244
  O  O88  1  0.177900  0.590300  0.765660  1.0  -0.703
  O  O89  1  0.492400  0.263200  0.656600  1.0  -0.714
  O  O90  1  0.588800  0.141600  0.588830  1.0  -0.8039
  O  O91  1  0.436700  0.191400  0.483400  1.0  -0.6952
  O  O92  1  0.247800  0.342300  0.508380  1.0  -0.4269
  O  O93  1  0.799400  0.704400  0.623300  1.0  -0.7398
  O  O94  1  0.051800  0.614200  0.617100  1.0  -0.4436
  O  O95  1  0.165200  0.509800  0.206460  1.0  -0.6235
  O  O96  1  0.322100  0.409700  0.265660  1.0  -0.703
  O  O97  1  0.007600  0.736800  0.156600  1.0  -0.7146
  O  O98  1  0.911200  0.858400  0.088830  1.0  -0.7936
  O  O99  1  0.063300  0.808600  0.983400  1.0  -0.6928
  O  O100  1  0.252200  0.657700  0.008380  1.0  -0.4288
  O  O101  1  0.700600  0.295600  0.123300  1.0  -0.7421
  O  O102  1  0.448200  0.385800  0.117100  1.0  -0.4467
