# generated using pymatgen
data_LaH12C12(NO3)3
_symmetry_space_group_name_H-M   'P 1'
_cell_length_a   4.55880000
_cell_length_b   11.90180000
_cell_length_c   15.80050000
_cell_angle_alpha   85.91200000
_cell_angle_beta   84.81100000
_cell_angle_gamma   83.24900000
_symmetry_Int_Tables_number   1
_chemical_formula_structural   LaH12C12(NO3)3
_chemical_formula_sum   'La2 H24 C24 N6 O18'
_cell_volume   846.27295855
_cell_formula_units_Z   2
loop_
 _symmetry_equiv_pos_site_id
 _symmetry_equiv_pos_as_xyz
  1  'x, y, z'
loop_
 _atom_site_type_symbol
 _atom_site_label
 _atom_site_symmetry_multiplicity
 _atom_site_fract_x
 _atom_site_fract_y
 _atom_site_fract_z
 _atom_site_occupancy
 _atom_site_charge
  La  La1  1  0.808330  0.775740  0.673670  1.0  2.2116
  La  La2  1  0.191670  0.224260  0.326330  1.0  2.2113
  H  H3  1  0.442700  0.107100  0.561300  1.0  0.1197
  H  H4  1  0.463200  0.101000  0.662000  1.0  0.1253
  H  H5  1  0.892200  0.149300  0.739100  1.0  0.1343
  H  H6  1  0.133300  0.235400  0.742500  1.0  0.1325
  H  H7  1  0.560300  0.308400  0.530200  1.0  0.1111
  H  H8  1  0.791300  0.399400  0.529200  1.0  0.1178
  H  H9  1  0.236000  0.450200  0.607900  1.0  0.1198
  H  H10  1  0.267500  0.451700  0.707800  1.0  0.1206
  H  H11  1  0.030600  0.851600  0.922800  1.0  0.1134
  H  H12  1  0.969600  0.972300  0.872400  1.0  0.1272
  H  H13  1  0.572800  0.821800  0.972700  1.0  0.1075
  H  H14  1  0.306800  0.845500  0.044200  1.0  0.1249
  H  H15  1  0.557300  0.892900  0.438700  1.0  0.1122
  H  H16  1  0.536800  0.899000  0.338000  1.0  0.1239
  H  H17  1  0.107800  0.850700  0.260900  1.0  0.133
  H  H18  1  0.866700  0.764600  0.257500  1.0  0.1326
  H  H19  1  0.439700  0.691600  0.469800  1.0  0.1116
  H  H20  1  0.208700  0.600600  0.470800  1.0  0.1197
  H  H21  1  0.764000  0.549800  0.392100  1.0  0.12
  H  H22  1  0.732500  0.548300  0.292200  1.0  0.1218
  H  H23  1  0.969400  0.148400  0.077200  1.0  0.1146
  H  H24  1  0.030400  0.027700  0.127600  1.0  0.1293
  H  H25  1  0.427200  0.178200  0.027300  1.0  0.1109
  H  H26  1  0.693200  0.154500  0.955800  1.0  0.1273
  C  C27  1  0.214300  0.981600  0.624500  1.0  0.7492
  C  C28  1  0.327500  0.097600  0.617000  1.0  -0.2259
  C  C29  1  0.969100  0.217900  0.710500  1.0  -0.2012
  C  C30  1  0.725600  0.314800  0.716900  1.0  0.4793
  C  C31  1  0.975400  0.237500  0.554370  1.0  0.5239
  C  C32  1  0.724300  0.330500  0.560200  1.0  -0.1972
  C  C33  1  0.377800  0.455800  0.650900  1.0  -0.2158
  C  C34  1  0.499400  0.569500  0.636590  1.0  0.7193
  C  C35  1  0.309600  0.867700  0.812800  1.0  0.7513
  C  C36  1  0.127500  0.913800  0.891000  1.0  -0.205
  C  C37  1  0.336000  0.072500  0.939500  1.0  0.477
  C  C38  1  0.457700  0.881800  0.006200  1.0  -0.1818
  C  C39  1  0.785700  0.018400  0.375500  1.0  0.7495
  C  C40  1  0.672500  0.902400  0.383000  1.0  -0.2246
  C  C41  1  0.030900  0.782100  0.289500  1.0  -0.2023
  C  C42  1  0.274400  0.685200  0.283100  1.0  0.4769
  C  C43  1  0.024600  0.762500  0.445630  1.0  0.5259
  C  C44  1  0.275700  0.669500  0.439800  1.0  -0.197
  C  C45  1  0.622200  0.544200  0.349100  1.0  -0.2132
  C  C46  1  0.500600  0.430500  0.363410  1.0  0.7165
  C  C47  1  0.690400  0.132300  0.187200  1.0  0.7511
  C  C48  1  0.872500  0.086200  0.109000  1.0  -0.2046
  C  C49  1  0.664000  0.927500  0.060500  1.0  0.4748
  C  C50  1  0.542300  0.118200  0.993800  1.0  -0.1718
  N  N51  1  0.090700  0.190900  0.624540  1.0  -0.0765
  N  N52  1  0.607500  0.359600  0.645600  1.0  -0.1196
  N  N53  1  0.304600  0.963000  0.947440  1.0  -0.0773
  N  N54  1  0.909300  0.809100  0.375460  1.0  -0.0773
  N  N55  1  0.392500  0.640400  0.354400  1.0  -0.1175
  N  N56  1  0.695400  0.037000  0.052560  1.0  -0.0779
  O  O57  1  0.398700  0.897880  0.607000  1.0  -0.7277
  O  O58  1  0.948400  0.975970  0.648740  1.0  -0.6448
  O  O59  1  0.074800  0.208120  0.482740  1.0  -0.6204
  O  O60  1  0.636600  0.347400  0.787740  1.0  -0.5129
  O  O61  1  0.765400  0.574470  0.612130  1.0  -0.6516
  O  O62  1  0.322200  0.656970  0.651370  1.0  -0.787
  O  O63  1  0.196100  0.798670  0.773740  1.0  -0.7441
  O  O64  1  0.559100  0.900200  0.793470  1.0  -0.6504
  O  O65  1  0.200200  0.139600  0.889610  1.0  -0.5266
  O  O66  1  0.601300  0.102120  0.393000  1.0  -0.7283
  O  O67  1  0.051600  0.024030  0.351260  1.0  -0.6446
  O  O68  1  0.925200  0.791880  0.517260  1.0  -0.6198
  O  O69  1  0.363400  0.652600  0.212260  1.0  -0.523
  O  O70  1  0.234600  0.425530  0.387870  1.0  -0.6515
  O  O71  1  0.677800  0.343030  0.348630  1.0  -0.7865
  O  O72  1  0.803900  0.201330  0.226260  1.0  -0.7418
  O  O73  1  0.440900  0.099800  0.206530  1.0  -0.6528
  O  O74  1  0.799800  0.860400  0.110390  1.0  -0.528
