# generated using pymatgen
data_Zn3H4(C4O5)2
_symmetry_space_group_name_H-M   'P 1'
_cell_length_a   20.48300000
_cell_length_b   20.48300000
_cell_length_c   20.48300000
_cell_angle_alpha   90.00000000
_cell_angle_beta   90.00000000
_cell_angle_gamma   90.00000000
_symmetry_Int_Tables_number   1
_chemical_formula_structural   Zn3H4(C4O5)2
_chemical_formula_sum   'Zn72 H96 C192 O240'
_cell_volume   8593.71001859
_cell_formula_units_Z   24
loop_
 _symmetry_equiv_pos_site_id
 _symmetry_equiv_pos_as_xyz
  1  'x, y, z'
loop_
 _atom_site_type_symbol
 _atom_site_label
 _atom_site_symmetry_multiplicity
 _atom_site_fract_x
 _atom_site_fract_y
 _atom_site_fract_z
 _atom_site_occupancy
 _atom_site_charge
  Zn  Zn1  1  0.608720  0.849650  0.827290  1.0  1.0099
  Zn  Zn2  1  0.440020  0.753880  0.989280  1.0  0.9903
  Zn  Zn3  1  0.484480  0.885220  0.903970  1.0  0.9586
  Zn  Zn4  1  0.891280  0.150350  0.327290  1.0  1.01
  Zn  Zn5  1  0.059980  0.246120  0.489280  1.0  0.9909
  Zn  Zn6  1  0.015520  0.114780  0.403970  1.0  0.9628
  Zn  Zn7  1  0.391280  0.349650  0.672710  1.0  1.0092
  Zn  Zn8  1  0.559980  0.253880  0.510720  1.0  0.99
  Zn  Zn9  1  0.515520  0.385220  0.596030  1.0  0.9606
  Zn  Zn10  1  0.108720  0.650350  0.172710  1.0  1.0094
  Zn  Zn11  1  0.940020  0.746120  0.010720  1.0  0.9917
  Zn  Zn12  1  0.984480  0.614780  0.096030  1.0  0.9648
  Zn  Zn13  1  0.827290  0.608720  0.849650  1.0  1.0081
  Zn  Zn14  1  0.989280  0.440020  0.753880  1.0  0.991
  Zn  Zn15  1  0.903970  0.484480  0.885220  1.0  0.9595
  Zn  Zn16  1  0.327290  0.891280  0.150350  1.0  1.0076
  Zn  Zn17  1  0.489280  0.059980  0.246120  1.0  0.991
  Zn  Zn18  1  0.403970  0.015520  0.114780  1.0  0.9593
  Zn  Zn19  1  0.672710  0.391280  0.349650  1.0  1.0081
  Zn  Zn20  1  0.510720  0.559980  0.253880  1.0  0.9902
  Zn  Zn21  1  0.596030  0.515520  0.385220  1.0  0.9582
  Zn  Zn22  1  0.172710  0.108720  0.650350  1.0  1.0078
  Zn  Zn23  1  0.010720  0.940020  0.746120  1.0  0.9919
  Zn  Zn24  1  0.096030  0.984480  0.614780  1.0  0.9593
  Zn  Zn25  1  0.849650  0.827290  0.608720  1.0  1.0084
  Zn  Zn26  1  0.753880  0.989280  0.440020  1.0  0.9904
  Zn  Zn27  1  0.885220  0.903970  0.484480  1.0  0.9617
  Zn  Zn28  1  0.150350  0.327290  0.891280  1.0  1.0085
  Zn  Zn29  1  0.246120  0.489280  0.059980  1.0  0.9891
  Zn  Zn30  1  0.114780  0.403970  0.015520  1.0  0.9608
  Zn  Zn31  1  0.349650  0.672710  0.391280  1.0  1.0083
  Zn  Zn32  1  0.253880  0.510720  0.559980  1.0  0.9896
  Zn  Zn33  1  0.385220  0.596030  0.515520  1.0  0.9646
  Zn  Zn34  1  0.650350  0.172710  0.108720  1.0  1.0086
  Zn  Zn35  1  0.746120  0.010720  0.940020  1.0  0.9904
  Zn  Zn36  1  0.614780  0.096030  0.984480  1.0  0.9636
  Zn  Zn37  1  0.391280  0.150350  0.172710  1.0  1.0094
  Zn  Zn38  1  0.559980  0.246120  0.010720  1.0  0.9905
  Zn  Zn39  1  0.515520  0.114780  0.096030  1.0  0.9645
  Zn  Zn40  1  0.108720  0.849650  0.672710  1.0  1.0092
  Zn  Zn41  1  0.940020  0.753880  0.510720  1.0  0.9901
  Zn  Zn42  1  0.984480  0.885220  0.596030  1.0  0.9611
  Zn  Zn43  1  0.608720  0.650350  0.327290  1.0  1.0102
  Zn  Zn44  1  0.440020  0.746120  0.489280  1.0  0.9919
  Zn  Zn45  1  0.484480  0.614780  0.403970  1.0  0.9633
  Zn  Zn46  1  0.891280  0.349650  0.827290  1.0  1.0096
  Zn  Zn47  1  0.059980  0.253880  0.989280  1.0  0.9902
  Zn  Zn48  1  0.015520  0.385220  0.903970  1.0  0.9577
  Zn  Zn49  1  0.172710  0.391280  0.150350  1.0  1.0076
  Zn  Zn50  1  0.010720  0.559980  0.246120  1.0  0.9913
  Zn  Zn51  1  0.096030  0.515520  0.114780  1.0  0.9593
  Zn  Zn52  1  0.672710  0.108720  0.849650  1.0  1.0082
  Zn  Zn53  1  0.510720  0.940020  0.753880  1.0  0.9907
  Zn  Zn54  1  0.596030  0.984480  0.885220  1.0  0.9585
  Zn  Zn55  1  0.327290  0.608720  0.650350  1.0  1.0078
  Zn  Zn56  1  0.489280  0.440020  0.746120  1.0  0.9916
  Zn  Zn57  1  0.403970  0.484480  0.614780  1.0  0.9595
  Zn  Zn58  1  0.827290  0.891280  0.349650  1.0  1.0079
  Zn  Zn59  1  0.989280  0.059980  0.253880  1.0  0.9904
  Zn  Zn60  1  0.903970  0.015520  0.385220  1.0  0.9592
  Zn  Zn61  1  0.150350  0.172710  0.391280  1.0  1.0085
  Zn  Zn62  1  0.246120  0.010720  0.559980  1.0  0.989
  Zn  Zn63  1  0.114780  0.096030  0.515520  1.0  0.964
  Zn  Zn64  1  0.849650  0.672710  0.108720  1.0  1.0084
  Zn  Zn65  1  0.753880  0.510720  0.940020  1.0  0.9908
  Zn  Zn66  1  0.885220  0.596030  0.984480  1.0  0.9644
  Zn  Zn67  1  0.650350  0.327290  0.608720  1.0  1.0087
  Zn  Zn68  1  0.746120  0.489280  0.440020  1.0  0.99
  Zn  Zn69  1  0.614780  0.403970  0.484480  1.0  0.9603
  Zn  Zn70  1  0.349650  0.827290  0.891280  1.0  1.0083
  Zn  Zn71  1  0.253880  0.989280  0.059980  1.0  0.9897
  Zn  Zn72  1  0.385220  0.903970  0.015520  1.0  0.962
  H  H73  1  0.622200  0.695700  0.887400  1.0  0.1415
  H  H74  1  0.659500  0.690500  0.004700  1.0  0.1301
  H  H75  1  0.693900  0.796900  0.009800  1.0  0.1353
  H  H76  1  0.768000  0.795100  0.893700  1.0  0.1281
  H  H77  1  0.877800  0.304300  0.387400  1.0  0.1416
  H  H78  1  0.840500  0.309500  0.504700  1.0  0.129
  H  H79  1  0.806100  0.203100  0.509800  1.0  0.1358
  H  H80  1  0.732000  0.204900  0.393700  1.0  0.1269
  H  H81  1  0.377800  0.195700  0.612600  1.0  0.142
  H  H82  1  0.340500  0.190500  0.495300  1.0  0.1292
  H  H83  1  0.306100  0.296900  0.490200  1.0  0.1351
  H  H84  1  0.232000  0.295100  0.606300  1.0  0.1267
  H  H85  1  0.122200  0.804300  0.112600  1.0  0.1415
  H  H86  1  0.159500  0.809500  0.995300  1.0  0.1293
  H  H87  1  0.193900  0.703100  0.990200  1.0  0.1355
  H  H88  1  0.268000  0.704900  0.106300  1.0  0.1277
  H  H89  1  0.887400  0.622200  0.695700  1.0  0.1398
  H  H90  1  0.004700  0.659500  0.690500  1.0  0.1306
  H  H91  1  0.009800  0.693900  0.796900  1.0  0.1336
  H  H92  1  0.893700  0.768000  0.795100  1.0  0.1284
  H  H93  1  0.387400  0.877800  0.304300  1.0  0.1402
  H  H94  1  0.504700  0.840500  0.309500  1.0  0.1296
  H  H95  1  0.509800  0.806100  0.203100  1.0  0.1342
  H  H96  1  0.393700  0.732000  0.204900  1.0  0.1271
  H  H97  1  0.612600  0.377800  0.195700  1.0  0.1408
  H  H98  1  0.495300  0.340500  0.190500  1.0  0.1296
  H  H99  1  0.490200  0.306100  0.296900  1.0  0.1337
  H  H100  1  0.606300  0.232000  0.295100  1.0  0.1283
  H  H101  1  0.112600  0.122200  0.804300  1.0  0.1406
  H  H102  1  0.995300  0.159500  0.809500  1.0  0.1298
  H  H103  1  0.990200  0.193900  0.703100  1.0  0.1333
  H  H104  1  0.106300  0.268000  0.704900  1.0  0.1277
  H  H105  1  0.695700  0.887400  0.622200  1.0  0.1406
  H  H106  1  0.690500  0.004700  0.659500  1.0  0.1301
  H  H107  1  0.796900  0.009800  0.693900  1.0  0.1338
  H  H108  1  0.795100  0.893700  0.768000  1.0  0.1258
  H  H109  1  0.304300  0.387400  0.877800  1.0  0.1414
  H  H110  1  0.309500  0.504700  0.840500  1.0  0.1291
  H  H111  1  0.203100  0.509800  0.806100  1.0  0.1335
  H  H112  1  0.204900  0.393700  0.732000  1.0  0.1261
  H  H113  1  0.195700  0.612600  0.377800  1.0  0.1407
  H  H114  1  0.190500  0.495300  0.340500  1.0  0.1299
  H  H115  1  0.296900  0.490200  0.306100  1.0  0.1333
  H  H116  1  0.295100  0.606300  0.232000  1.0  0.1261
  H  H117  1  0.804300  0.112600  0.122200  1.0  0.1411
  H  H118  1  0.809500  0.995300  0.159500  1.0  0.1296
  H  H119  1  0.703100  0.990200  0.193900  1.0  0.1327
  H  H120  1  0.704900  0.106300  0.268000  1.0  0.1255
  H  H121  1  0.377800  0.304300  0.112600  1.0  0.1414
  H  H122  1  0.340500  0.309500  0.995300  1.0  0.1295
  H  H123  1  0.306100  0.203100  0.990200  1.0  0.1353
  H  H124  1  0.232000  0.204900  0.106300  1.0  0.1269
  H  H125  1  0.122200  0.695700  0.612600  1.0  0.142
  H  H126  1  0.159500  0.690500  0.495300  1.0  0.1293
  H  H127  1  0.193900  0.796900  0.490200  1.0  0.1354
  H  H128  1  0.268000  0.795100  0.606300  1.0  0.1276
  H  H129  1  0.622200  0.804300  0.387400  1.0  0.1418
  H  H130  1  0.659500  0.809500  0.504700  1.0  0.1295
  H  H131  1  0.693900  0.703100  0.509800  1.0  0.1361
  H  H132  1  0.768000  0.704900  0.393700  1.0  0.1277
  H  H133  1  0.877800  0.195700  0.887400  1.0  0.1415
  H  H134  1  0.840500  0.190500  0.004700  1.0  0.1291
  H  H135  1  0.806100  0.296900  0.009800  1.0  0.135
  H  H136  1  0.732000  0.295100  0.893700  1.0  0.1273
  H  H137  1  0.112600  0.377800  0.304300  1.0  0.1405
  H  H138  1  0.995300  0.340500  0.309500  1.0  0.1288
  H  H139  1  0.990200  0.306100  0.203100  1.0  0.1335
  H  H140  1  0.106300  0.232000  0.204900  1.0  0.1272
  H  H141  1  0.612600  0.122200  0.695700  1.0  0.1405
  H  H142  1  0.495300  0.159500  0.690500  1.0  0.1301
  H  H143  1  0.490200  0.193900  0.796900  1.0  0.1337
  H  H144  1  0.606300  0.268000  0.795100  1.0  0.1285
  H  H145  1  0.387400  0.622200  0.804300  1.0  0.1401
  H  H146  1  0.504700  0.659500  0.809500  1.0  0.1299
  H  H147  1  0.509800  0.693900  0.703100  1.0  0.1339
  H  H148  1  0.393700  0.768000  0.704900  1.0  0.1277
  H  H149  1  0.887400  0.877800  0.195700  1.0  0.1403
  H  H150  1  0.004700  0.840500  0.190500  1.0  0.1305
  H  H151  1  0.009800  0.806100  0.296900  1.0  0.1336
  H  H152  1  0.893700  0.732000  0.295100  1.0  0.1281
  H  H153  1  0.304300  0.112600  0.377800  1.0  0.1411
  H  H154  1  0.309500  0.995300  0.340500  1.0  0.1299
  H  H155  1  0.203100  0.990200  0.306100  1.0  0.133
  H  H156  1  0.204900  0.106300  0.232000  1.0  0.1258
  H  H157  1  0.695700  0.612600  0.122200  1.0  0.1406
  H  H158  1  0.690500  0.495300  0.159500  1.0  0.1293
  H  H159  1  0.796900  0.490200  0.193900  1.0  0.1333
  H  H160  1  0.795100  0.606300  0.268000  1.0  0.1255
  H  H161  1  0.804300  0.387400  0.622200  1.0  0.1408
  H  H162  1  0.809500  0.504700  0.659500  1.0  0.1295
  H  H163  1  0.703100  0.509800  0.693900  1.0  0.1335
  H  H164  1  0.704900  0.393700  0.768000  1.0  0.1259
  H  H165  1  0.195700  0.887400  0.877800  1.0  0.1413
  H  H166  1  0.190500  0.004700  0.840500  1.0  0.1294
  H  H167  1  0.296900  0.009800  0.806100  1.0  0.1334
  H  H168  1  0.295100  0.893700  0.732000  1.0  0.1262
  C  C169  1  0.635300  0.732000  0.915700  1.0  0.0616
  C  C170  1  0.574100  0.764900  0.942800  1.0  0.7105
  C  C171  1  0.682000  0.707400  0.965900  1.0  -0.1581
  C  C172  1  0.722300  0.654900  0.932200  1.0  0.6515
  C  C173  1  0.720400  0.769600  0.980800  1.0  -0.1421
  C  C174  1  0.785900  0.756100  0.015000  1.0  0.6853
  C  C175  1  0.726200  0.804600  0.914800  1.0  0.0868
  C  C176  1  0.715000  0.877900  0.920800  1.0  0.7225
  C  C177  1  0.864700  0.268000  0.415700  1.0  0.0654
  C  C178  1  0.925900  0.235100  0.442800  1.0  0.7104
  C  C179  1  0.818000  0.292600  0.465900  1.0  -0.1571
  C  C180  1  0.777700  0.345100  0.432200  1.0  0.6503
  C  C181  1  0.779600  0.230400  0.480800  1.0  -0.1417
  C  C182  1  0.714100  0.243900  0.515000  1.0  0.6804
  C  C183  1  0.773800  0.195400  0.414800  1.0  0.0847
  C  C184  1  0.785000  0.122100  0.420800  1.0  0.7227
  C  C185  1  0.364700  0.232000  0.584300  1.0  0.0656
  C  C186  1  0.425900  0.264900  0.557200  1.0  0.7109
  C  C187  1  0.318000  0.207400  0.534100  1.0  -0.1594
  C  C188  1  0.277700  0.154900  0.567800  1.0  0.6504
  C  C189  1  0.279600  0.269600  0.519200  1.0  -0.143
  C  C190  1  0.214100  0.256100  0.485000  1.0  0.6818
  C  C191  1  0.273800  0.304600  0.585200  1.0  0.0857
  C  C192  1  0.285000  0.377900  0.579200  1.0  0.7221
  C  C193  1  0.135300  0.768000  0.084300  1.0  0.0635
  C  C194  1  0.074100  0.735100  0.057200  1.0  0.7124
  C  C195  1  0.182000  0.792600  0.034100  1.0  -0.1587
  C  C196  1  0.222300  0.845100  0.067800  1.0  0.6508
  C  C197  1  0.220400  0.730400  0.019200  1.0  -0.144
  C  C198  1  0.285900  0.743900  0.985000  1.0  0.6818
  C  C199  1  0.226200  0.695400  0.085200  1.0  0.0856
  C  C200  1  0.215000  0.622100  0.079200  1.0  0.7217
  C  C201  1  0.915700  0.635300  0.732000  1.0  0.0674
  C  C202  1  0.942800  0.574100  0.764900  1.0  0.7141
  C  C203  1  0.965900  0.682000  0.707400  1.0  -0.158
  C  C204  1  0.932200  0.722300  0.654900  1.0  0.6522
  C  C205  1  0.980800  0.720400  0.769600  1.0  -0.1442
  C  C206  1  0.015000  0.785900  0.756100  1.0  0.6837
  C  C207  1  0.914800  0.726200  0.804600  1.0  0.0886
  C  C208  1  0.920800  0.715000  0.877900  1.0  0.723
  C  C209  1  0.415700  0.864700  0.268000  1.0  0.0688
  C  C210  1  0.442800  0.925900  0.235100  1.0  0.7125
  C  C211  1  0.465900  0.818000  0.292600  1.0  -0.1563
  C  C212  1  0.432200  0.777700  0.345100  1.0  0.652
  C  C213  1  0.480800  0.779600  0.230400  1.0  -0.1452
  C  C214  1  0.515000  0.714100  0.243900  1.0  0.6826
  C  C215  1  0.414800  0.773800  0.195400  1.0  0.0878
  C  C216  1  0.420800  0.785000  0.122100  1.0  0.7243
  C  C217  1  0.584300  0.364700  0.232000  1.0  0.0699
  C  C218  1  0.557200  0.425900  0.264900  1.0  0.7126
  C  C219  1  0.534100  0.318000  0.207400  1.0  -0.1573
  C  C220  1  0.567800  0.277700  0.154900  1.0  0.6508
  C  C221  1  0.519200  0.279600  0.269600  1.0  -0.145
  C  C222  1  0.485000  0.214100  0.256100  1.0  0.683
  C  C223  1  0.585200  0.273800  0.304600  1.0  0.0886
  C  C224  1  0.579200  0.285000  0.377900  1.0  0.7237
  C  C225  1  0.084300  0.135300  0.768000  1.0  0.0688
  C  C226  1  0.057200  0.074100  0.735100  1.0  0.7123
  C  C227  1  0.034100  0.182000  0.792600  1.0  -0.1581
  C  C228  1  0.067800  0.222300  0.845100  1.0  0.6532
  C  C229  1  0.019200  0.220400  0.730400  1.0  -0.1461
  C  C230  1  0.985000  0.285900  0.743900  1.0  0.6829
  C  C231  1  0.085200  0.226200  0.695400  1.0  0.089
  C  C232  1  0.079200  0.215000  0.622100  1.0  0.7244
  C  C233  1  0.732000  0.915700  0.635300  1.0  0.0663
  C  C234  1  0.764900  0.942800  0.574100  1.0  0.7116
  C  C235  1  0.707400  0.965900  0.682000  1.0  -0.1633
  C  C236  1  0.654900  0.932200  0.722300  1.0  0.6556
  C  C237  1  0.769600  0.980800  0.720400  1.0  -0.1466
  C  C238  1  0.756100  0.015000  0.785900  1.0  0.6863
  C  C239  1  0.804600  0.914800  0.726200  1.0  0.0858
  C  C240  1  0.877900  0.920800  0.715000  1.0  0.7175
  C  C241  1  0.268000  0.415700  0.864700  1.0  0.0682
  C  C242  1  0.235100  0.442800  0.925900  1.0  0.7093
  C  C243  1  0.292600  0.465900  0.818000  1.0  -0.1613
  C  C244  1  0.345100  0.432200  0.777700  1.0  0.6534
  C  C245  1  0.230400  0.480800  0.779600  1.0  -0.1462
  C  C246  1  0.243900  0.515000  0.714100  1.0  0.6865
  C  C247  1  0.195400  0.414800  0.773800  1.0  0.0854
  C  C248  1  0.122100  0.420800  0.785000  1.0  0.7173
  C  C249  1  0.232000  0.584300  0.364700  1.0  0.0675
  C  C250  1  0.264900  0.557200  0.425900  1.0  0.7105
  C  C251  1  0.207400  0.534100  0.318000  1.0  -0.1629
  C  C252  1  0.154900  0.567800  0.277700  1.0  0.6549
  C  C253  1  0.269600  0.519200  0.279600  1.0  -0.1462
  C  C254  1  0.256100  0.485000  0.214100  1.0  0.6866
  C  C255  1  0.304600  0.585200  0.273800  1.0  0.0855
  C  C256  1  0.377900  0.579200  0.285000  1.0  0.7178
  C  C257  1  0.768000  0.084300  0.135300  1.0  0.0669
  C  C258  1  0.735100  0.057200  0.074100  1.0  0.7117
  C  C259  1  0.792600  0.034100  0.182000  1.0  -0.1621
  C  C260  1  0.845100  0.067800  0.222300  1.0  0.654
  C  C261  1  0.730400  0.019200  0.220400  1.0  -0.1455
  C  C262  1  0.743900  0.985000  0.285900  1.0  0.6856
  C  C263  1  0.695400  0.085200  0.226200  1.0  0.0855
  C  C264  1  0.622100  0.079200  0.215000  1.0  0.7171
  C  C265  1  0.364700  0.268000  0.084300  1.0  0.0662
  C  C266  1  0.425900  0.235100  0.057200  1.0  0.7104
  C  C267  1  0.318000  0.292600  0.034100  1.0  -0.1581
  C  C268  1  0.277700  0.345100  0.067800  1.0  0.6501
  C  C269  1  0.279600  0.230400  0.019200  1.0  -0.1438
  C  C270  1  0.214100  0.243900  0.985000  1.0  0.6805
  C  C271  1  0.273800  0.195400  0.085200  1.0  0.0849
  C  C272  1  0.285000  0.122100  0.079200  1.0  0.7216
  C  C273  1  0.135300  0.732000  0.584300  1.0  0.0626
  C  C274  1  0.074100  0.764900  0.557200  1.0  0.7124
  C  C275  1  0.182000  0.707400  0.534100  1.0  -0.1596
  C  C276  1  0.222300  0.654900  0.567800  1.0  0.6516
  C  C277  1  0.220400  0.769600  0.519200  1.0  -0.1436
  C  C278  1  0.285900  0.756100  0.485000  1.0  0.6836
  C  C279  1  0.226200  0.804600  0.585200  1.0  0.0868
  C  C280  1  0.215000  0.877900  0.579200  1.0  0.7217
  C  C281  1  0.635300  0.768000  0.415700  1.0  0.0626
  C  C282  1  0.574100  0.735100  0.442800  1.0  0.7106
  C  C283  1  0.682000  0.792600  0.465900  1.0  -0.1582
  C  C284  1  0.722300  0.845100  0.432200  1.0  0.6516
  C  C285  1  0.720400  0.730400  0.480800  1.0  -0.1421
  C  C286  1  0.785900  0.743900  0.515000  1.0  0.6836
  C  C287  1  0.726200  0.695400  0.414800  1.0  0.0851
  C  C288  1  0.715000  0.622100  0.420800  1.0  0.7223
  C  C289  1  0.864700  0.232000  0.915700  1.0  0.065
  C  C290  1  0.925900  0.264900  0.942800  1.0  0.7109
  C  C291  1  0.818000  0.207400  0.965900  1.0  -0.1573
  C  C292  1  0.777700  0.154900  0.932200  1.0  0.6501
  C  C293  1  0.779600  0.269600  0.980800  1.0  -0.1416
  C  C294  1  0.714100  0.256100  0.015000  1.0  0.6815
  C  C295  1  0.773800  0.304600  0.914800  1.0  0.086
  C  C296  1  0.785000  0.377900  0.920800  1.0  0.7232
  C  C297  1  0.084300  0.364700  0.268000  1.0  0.0696
  C  C298  1  0.057200  0.425900  0.235100  1.0  0.7128
  C  C299  1  0.034100  0.318000  0.292600  1.0  -0.1572
  C  C300  1  0.067800  0.277700  0.345100  1.0  0.6526
  C  C301  1  0.019200  0.279600  0.230400  1.0  -0.1464
  C  C302  1  0.985000  0.214100  0.243900  1.0  0.6832
  C  C303  1  0.085200  0.273800  0.195400  1.0  0.0879
  C  C304  1  0.079200  0.285000  0.122100  1.0  0.7245
  C  C305  1  0.584300  0.135300  0.732000  1.0  0.0679
  C  C306  1  0.557200  0.074100  0.764900  1.0  0.7131
  C  C307  1  0.534100  0.182000  0.707400  1.0  -0.1587
  C  C308  1  0.567800  0.222300  0.654900  1.0  0.6515
  C  C309  1  0.519200  0.220400  0.769600  1.0  -0.1461
  C  C310  1  0.485000  0.285900  0.756100  1.0  0.6825
  C  C311  1  0.585200  0.226200  0.804600  1.0  0.0895
  C  C312  1  0.579200  0.215000  0.877900  1.0  0.7234
  C  C313  1  0.415700  0.635300  0.768000  1.0  0.0687
  C  C314  1  0.442800  0.574100  0.735100  1.0  0.7132
  C  C315  1  0.465900  0.682000  0.792600  1.0  -0.1575
  C  C316  1  0.432200  0.722300  0.845100  1.0  0.6522
  C  C317  1  0.480800  0.720400  0.730400  1.0  -0.1439
  C  C318  1  0.515000  0.785900  0.743900  1.0  0.6824
  C  C319  1  0.414800  0.726200  0.695400  1.0  0.0882
  C  C320  1  0.420800  0.715000  0.622100  1.0  0.7243
  C  C321  1  0.915700  0.864700  0.232000  1.0  0.0686
  C  C322  1  0.942800  0.925900  0.264900  1.0  0.7125
  C  C323  1  0.965900  0.818000  0.207400  1.0  -0.1568
  C  C324  1  0.932200  0.777700  0.154900  1.0  0.6517
  C  C325  1  0.980800  0.779600  0.269600  1.0  -0.1443
  C  C326  1  0.015000  0.714100  0.256100  1.0  0.6836
  C  C327  1  0.914800  0.773800  0.304600  1.0  0.0881
  C  C328  1  0.920800  0.785000  0.377900  1.0  0.7233
  C  C329  1  0.268000  0.084300  0.364700  1.0  0.0685
  C  C330  1  0.235100  0.057200  0.425900  1.0  0.7099
  C  C331  1  0.292600  0.034100  0.318000  1.0  -0.1612
  C  C332  1  0.345100  0.067800  0.277700  1.0  0.6537
  C  C333  1  0.230400  0.019200  0.279600  1.0  -0.1455
  C  C334  1  0.243900  0.985000  0.214100  1.0  0.6852
  C  C335  1  0.195400  0.085200  0.273800  1.0  0.0853
  C  C336  1  0.122100  0.079200  0.285000  1.0  0.7172
  C  C337  1  0.732000  0.584300  0.135300  1.0  0.0661
  C  C338  1  0.764900  0.557200  0.074100  1.0  0.7118
  C  C339  1  0.707400  0.534100  0.182000  1.0  -0.1636
  C  C340  1  0.654900  0.567800  0.222300  1.0  0.6554
  C  C341  1  0.769600  0.519200  0.220400  1.0  -0.1463
  C  C342  1  0.756100  0.485000  0.285900  1.0  0.6863
  C  C343  1  0.804600  0.585200  0.226200  1.0  0.0854
  C  C344  1  0.877900  0.579200  0.215000  1.0  0.7179
  C  C345  1  0.768000  0.415700  0.635300  1.0  0.0672
  C  C346  1  0.735100  0.442800  0.574100  1.0  0.7119
  C  C347  1  0.792600  0.465900  0.682000  1.0  -0.1616
  C  C348  1  0.845100  0.432200  0.722300  1.0  0.6543
  C  C349  1  0.730400  0.480800  0.720400  1.0  -0.1464
  C  C350  1  0.743900  0.515000  0.785900  1.0  0.6865
  C  C351  1  0.695400  0.414800  0.726200  1.0  0.0859
  C  C352  1  0.622100  0.420800  0.715000  1.0  0.717
  C  C353  1  0.232000  0.915700  0.864700  1.0  0.0672
  C  C354  1  0.264900  0.942800  0.925900  1.0  0.7093
  C  C355  1  0.207400  0.965900  0.818000  1.0  -0.1633
  C  C356  1  0.154900  0.932200  0.777700  1.0  0.6545
  C  C357  1  0.269600  0.980800  0.779600  1.0  -0.1464
  C  C358  1  0.256100  0.015000  0.714100  1.0  0.6866
  C  C359  1  0.304600  0.914800  0.773800  1.0  0.0861
  C  C360  1  0.377900  0.920800  0.785000  1.0  0.7176
  O  O361  1  0.671700  0.780100  0.876600  1.0  -0.3437
  O  O362  1  0.556400  0.814400  0.913500  1.0  -0.6246
  O  O363  1  0.543100  0.736800  0.986200  1.0  -0.5773
  O  O364  1  0.701800  0.594900  0.943800  1.0  -0.6
  O  O365  1  0.767300  0.668300  0.897900  1.0  -0.5341
  O  O366  1  0.780500  0.722400  0.065700  1.0  -0.5691
  O  O367  1  0.839000  0.777400  0.993000  1.0  -0.6066
  O  O368  1  0.758900  0.912500  0.948000  1.0  -0.5817
  O  O369  1  0.663300  0.902600  0.901800  1.0  -0.6331
  O  O370  1  0.543700  0.921500  0.841400  1.0  -1.0371
  O  O371  1  0.828300  0.219900  0.376600  1.0  -0.3439
  O  O372  1  0.943600  0.185600  0.413500  1.0  -0.6218
  O  O373  1  0.956900  0.263200  0.486200  1.0  -0.5772
  O  O374  1  0.798200  0.405100  0.443800  1.0  -0.5986
  O  O375  1  0.732700  0.331700  0.397900  1.0  -0.534
  O  O376  1  0.719500  0.277600  0.565700  1.0  -0.5686
  O  O377  1  0.661000  0.222600  0.493000  1.0  -0.6083
  O  O378  1  0.741100  0.087500  0.448000  1.0  -0.5826
  O  O379  1  0.836700  0.097400  0.401800  1.0  -0.6328
  O  O380  1  0.956300  0.078500  0.341400  1.0  -1.0353
  O  O381  1  0.328300  0.280100  0.623400  1.0  -0.34
  O  O382  1  0.443600  0.314400  0.586500  1.0  -0.6246
  O  O383  1  0.456900  0.236800  0.513800  1.0  -0.5771
  O  O384  1  0.298200  0.094900  0.556200  1.0  -0.602
  O  O385  1  0.232700  0.168300  0.602100  1.0  -0.5332
  O  O386  1  0.219500  0.222400  0.434300  1.0  -0.5691
  O  O387  1  0.161000  0.277400  0.507000  1.0  -0.6081
  O  O388  1  0.241100  0.412500  0.552000  1.0  -0.5836
  O  O389  1  0.336700  0.402600  0.598200  1.0  -0.6323
  O  O390  1  0.456300  0.421500  0.658600  1.0  -1.0361
  O  O391  1  0.171700  0.719900  0.123400  1.0  -0.3406
  O  O392  1  0.056400  0.685600  0.086500  1.0  -0.6221
  O  O393  1  0.043100  0.763200  0.013800  1.0  -0.5765
  O  O394  1  0.201800  0.905100  0.056200  1.0  -0.6004
  O  O395  1  0.267300  0.831700  0.102100  1.0  -0.5341
  O  O396  1  0.280500  0.777600  0.934300  1.0  -0.5686
  O  O397  1  0.339000  0.722600  0.007000  1.0  -0.6084
  O  O398  1  0.258900  0.587500  0.052000  1.0  -0.5842
  O  O399  1  0.163300  0.597400  0.098200  1.0  -0.634
  O  O400  1  0.043700  0.578500  0.158600  1.0  -1.0378
  O  O401  1  0.876600  0.671700  0.780100  1.0  -0.3407
  O  O402  1  0.913500  0.556400  0.814400  1.0  -0.623
  O  O403  1  0.986200  0.543100  0.736800  1.0  -0.5755
  O  O404  1  0.943800  0.701800  0.594900  1.0  -0.608
  O  O405  1  0.897900  0.767300  0.668300  1.0  -0.5361
  O  O406  1  0.065700  0.780500  0.722400  1.0  -0.5658
  O  O407  1  0.993000  0.839000  0.777400  1.0  -0.6121
  O  O408  1  0.948000  0.758900  0.912500  1.0  -0.5797
  O  O409  1  0.901800  0.663300  0.902600  1.0  -0.6355
  O  O410  1  0.841400  0.543700  0.921500  1.0  -1.0355
  O  O411  1  0.376600  0.828300  0.219900  1.0  -0.3412
  O  O412  1  0.413500  0.943600  0.185600  1.0  -0.6259
  O  O413  1  0.486200  0.956900  0.263200  1.0  -0.5762
  O  O414  1  0.443800  0.798200  0.405100  1.0  -0.6052
  O  O415  1  0.397900  0.732700  0.331700  1.0  -0.5359
  O  O416  1  0.565700  0.719500  0.277600  1.0  -0.5663
  O  O417  1  0.493000  0.661000  0.222600  1.0  -0.6127
  O  O418  1  0.448000  0.741100  0.087500  1.0  -0.5803
  O  O419  1  0.401800  0.836700  0.097400  1.0  -0.6344
  O  O420  1  0.341400  0.956300  0.078500  1.0  -1.0351
  O  O421  1  0.623400  0.328300  0.280100  1.0  -0.3367
  O  O422  1  0.586500  0.443600  0.314400  1.0  -0.626
  O  O423  1  0.513800  0.456900  0.236800  1.0  -0.5751
  O  O424  1  0.556200  0.298200  0.094900  1.0  -0.61
  O  O425  1  0.602100  0.232700  0.168300  1.0  -0.535
  O  O426  1  0.434300  0.219500  0.222400  1.0  -0.5661
  O  O427  1  0.507000  0.161000  0.277400  1.0  -0.6141
  O  O428  1  0.552000  0.241100  0.412500  1.0  -0.5793
  O  O429  1  0.598200  0.336700  0.402600  1.0  -0.6366
  O  O430  1  0.658600  0.456300  0.421500  1.0  -1.0368
  O  O431  1  0.123400  0.171700  0.719900  1.0  -0.3367
  O  O432  1  0.086500  0.056400  0.685600  1.0  -0.6248
  O  O433  1  0.013800  0.043100  0.763200  1.0  -0.5752
  O  O434  1  0.056200  0.201800  0.905100  1.0  -0.6101
  O  O435  1  0.102100  0.267300  0.831700  1.0  -0.5357
  O  O436  1  0.934300  0.280500  0.777600  1.0  -0.5668
  O  O437  1  0.007000  0.339000  0.722600  1.0  -0.6133
  O  O438  1  0.052000  0.258900  0.587500  1.0  -0.5811
  O  O439  1  0.098200  0.163300  0.597400  1.0  -0.6355
  O  O440  1  0.158600  0.043700  0.578500  1.0  -1.0376
  O  O441  1  0.780100  0.876600  0.671700  1.0  -0.3391
  O  O442  1  0.814400  0.913500  0.556400  1.0  -0.6244
  O  O443  1  0.736800  0.986200  0.543100  1.0  -0.5737
  O  O444  1  0.594900  0.943800  0.701800  1.0  -0.6032
  O  O445  1  0.668300  0.897900  0.767300  1.0  -0.5362
  O  O446  1  0.722400  0.065700  0.780500  1.0  -0.5664
  O  O447  1  0.777400  0.993000  0.839000  1.0  -0.6098
  O  O448  1  0.912500  0.948000  0.758900  1.0  -0.5823
  O  O449  1  0.902600  0.901800  0.663300  1.0  -0.6344
  O  O450  1  0.921500  0.841400  0.543700  1.0  -1.0356
  O  O451  1  0.219900  0.376600  0.828300  1.0  -0.3373
  O  O452  1  0.185600  0.413500  0.943600  1.0  -0.6254
  O  O453  1  0.263200  0.486200  0.956900  1.0  -0.5737
  O  O454  1  0.405100  0.443800  0.798200  1.0  -0.602
  O  O455  1  0.331700  0.397900  0.732700  1.0  -0.5371
  O  O456  1  0.277600  0.565700  0.719500  1.0  -0.5694
  O  O457  1  0.222600  0.493000  0.661000  1.0  -0.6113
  O  O458  1  0.087500  0.448000  0.741100  1.0  -0.5858
  O  O459  1  0.097400  0.401800  0.836700  1.0  -0.6361
  O  O460  1  0.078500  0.341400  0.956300  1.0  -1.0368
  O  O461  1  0.280100  0.623400  0.328300  1.0  -0.3362
  O  O462  1  0.314400  0.586500  0.443600  1.0  -0.6244
  O  O463  1  0.236800  0.513800  0.456900  1.0  -0.5739
  O  O464  1  0.094900  0.556200  0.298200  1.0  -0.6016
  O  O465  1  0.168300  0.602100  0.232700  1.0  -0.537
  O  O466  1  0.222400  0.434300  0.219500  1.0  -0.5669
  O  O467  1  0.277400  0.507000  0.161000  1.0  -0.6105
  O  O468  1  0.412500  0.552000  0.241100  1.0  -0.5844
  O  O469  1  0.402600  0.598200  0.336700  1.0  -0.6365
  O  O470  1  0.421500  0.658600  0.456300  1.0  -1.0352
  O  O471  1  0.719900  0.123400  0.171700  1.0  -0.3345
  O  O472  1  0.685600  0.086500  0.056400  1.0  -0.6257
  O  O473  1  0.763200  0.013800  0.043100  1.0  -0.5738
  O  O474  1  0.905100  0.056200  0.201800  1.0  -0.6029
  O  O475  1  0.831700  0.102100  0.267300  1.0  -0.5366
  O  O476  1  0.777600  0.934300  0.280500  1.0  -0.5678
  O  O477  1  0.722600  0.007000  0.339000  1.0  -0.6111
  O  O478  1  0.587500  0.052000  0.258900  1.0  -0.5832
  O  O479  1  0.597400  0.098200  0.163300  1.0  -0.6352
  O  O480  1  0.578500  0.158600  0.043700  1.0  -1.0369
  O  O481  1  0.328300  0.219900  0.123400  1.0  -0.3408
  O  O482  1  0.443600  0.185600  0.086500  1.0  -0.6217
  O  O483  1  0.456900  0.263200  0.013800  1.0  -0.5776
  O  O484  1  0.298200  0.405100  0.056200  1.0  -0.5985
  O  O485  1  0.232700  0.331700  0.102100  1.0  -0.5336
  O  O486  1  0.219500  0.277600  0.934300  1.0  -0.57
  O  O487  1  0.161000  0.222600  0.007000  1.0  -0.6095
  O  O488  1  0.241100  0.087500  0.052000  1.0  -0.5836
  O  O489  1  0.336700  0.097400  0.098200  1.0  -0.6332
  O  O490  1  0.456300  0.078500  0.158600  1.0  -1.0362
  O  O491  1  0.171700  0.780100  0.623400  1.0  -0.3399
  O  O492  1  0.056400  0.814400  0.586500  1.0  -0.6244
  O  O493  1  0.043100  0.736800  0.513800  1.0  -0.5759
  O  O494  1  0.201800  0.594900  0.556200  1.0  -0.5998
  O  O495  1  0.267300  0.668300  0.602100  1.0  -0.5337
  O  O496  1  0.280500  0.722400  0.434300  1.0  -0.5704
  O  O497  1  0.339000  0.777400  0.507000  1.0  -0.6078
  O  O498  1  0.258900  0.912500  0.552000  1.0  -0.5839
  O  O499  1  0.163300  0.902600  0.598200  1.0  -0.6325
  O  O500  1  0.043700  0.921500  0.658600  1.0  -1.0374
  O  O501  1  0.671700  0.719900  0.376600  1.0  -0.344
  O  O502  1  0.556400  0.685600  0.413500  1.0  -0.6218
  O  O503  1  0.543100  0.763200  0.486200  1.0  -0.578
  O  O504  1  0.701800  0.905100  0.443800  1.0  -0.6005
  O  O505  1  0.767300  0.831700  0.397900  1.0  -0.5343
  O  O506  1  0.780500  0.777600  0.565700  1.0  -0.5709
  O  O507  1  0.839000  0.722600  0.493000  1.0  -0.6071
  O  O508  1  0.758900  0.587500  0.448000  1.0  -0.582
  O  O509  1  0.663300  0.597400  0.401800  1.0  -0.6334
  O  O510  1  0.543700  0.578500  0.341400  1.0  -1.0366
  O  O511  1  0.828300  0.280100  0.876600  1.0  -0.3437
  O  O512  1  0.943600  0.314400  0.913500  1.0  -0.6249
  O  O513  1  0.956900  0.236800  0.986200  1.0  -0.5767
  O  O514  1  0.798200  0.094900  0.943800  1.0  -0.602
  O  O515  1  0.732700  0.168300  0.897900  1.0  -0.5338
  O  O516  1  0.719500  0.222400  0.065700  1.0  -0.5701
  O  O517  1  0.661000  0.277400  0.993000  1.0  -0.6076
  O  O518  1  0.741100  0.412500  0.948000  1.0  -0.5828
  O  O519  1  0.836700  0.402600  0.901800  1.0  -0.6328
  O  O520  1  0.956300  0.421500  0.841400  1.0  -1.0361
  O  O521  1  0.123400  0.328300  0.219900  1.0  -0.3371
  O  O522  1  0.086500  0.443600  0.185600  1.0  -0.6261
  O  O523  1  0.013800  0.456900  0.263200  1.0  -0.5755
  O  O524  1  0.056200  0.298200  0.405100  1.0  -0.6058
  O  O525  1  0.102100  0.232700  0.331700  1.0  -0.5351
  O  O526  1  0.934300  0.219500  0.277600  1.0  -0.5677
  O  O527  1  0.007000  0.161000  0.222600  1.0  -0.6137
  O  O528  1  0.052000  0.241100  0.087500  1.0  -0.5792
  O  O529  1  0.098200  0.336700  0.097400  1.0  -0.6352
  O  O530  1  0.158600  0.456300  0.078500  1.0  -1.0369
  O  O531  1  0.623400  0.171700  0.780100  1.0  -0.3364
  O  O532  1  0.586500  0.056400  0.814400  1.0  -0.6229
  O  O533  1  0.513800  0.043100  0.736800  1.0  -0.5742
  O  O534  1  0.556200  0.201800  0.594900  1.0  -0.6081
  O  O535  1  0.602100  0.267300  0.668300  1.0  -0.5357
  O  O536  1  0.434300  0.280500  0.722400  1.0  -0.5677
  O  O537  1  0.507000  0.339000  0.777400  1.0  -0.6142
  O  O538  1  0.552000  0.258900  0.912500  1.0  -0.5808
  O  O539  1  0.598200  0.163300  0.902600  1.0  -0.6355
  O  O540  1  0.658600  0.043700  0.921500  1.0  -1.037
  O  O541  1  0.376600  0.671700  0.719900  1.0  -0.3412
  O  O542  1  0.413500  0.556400  0.685600  1.0  -0.6247
  O  O543  1  0.486200  0.543100  0.763200  1.0  -0.5756
  O  O544  1  0.443800  0.701800  0.905100  1.0  -0.6098
  O  O545  1  0.397900  0.767300  0.831700  1.0  -0.5364
  O  O546  1  0.565700  0.780500  0.777600  1.0  -0.5677
  O  O547  1  0.493000  0.839000  0.722600  1.0  -0.612
  O  O548  1  0.448000  0.758900  0.587500  1.0  -0.5798
  O  O549  1  0.401800  0.663300  0.597400  1.0  -0.6352
  O  O550  1  0.341400  0.543700  0.578500  1.0  -1.0358
  O  O551  1  0.876600  0.828300  0.280100  1.0  -0.3407
  O  O552  1  0.913500  0.943600  0.314400  1.0  -0.6258
  O  O553  1  0.986200  0.956900  0.236800  1.0  -0.5759
  O  O554  1  0.943800  0.798200  0.094900  1.0  -0.6097
  O  O555  1  0.897900  0.732700  0.168300  1.0  -0.5355
  O  O556  1  0.065700  0.719500  0.222400  1.0  -0.5674
  O  O557  1  0.993000  0.661000  0.277400  1.0  -0.613
  O  O558  1  0.948000  0.741100  0.412500  1.0  -0.5802
  O  O559  1  0.901800  0.836700  0.402600  1.0  -0.6361
  O  O560  1  0.841400  0.956300  0.421500  1.0  -1.0355
  O  O561  1  0.219900  0.123400  0.328300  1.0  -0.3343
  O  O562  1  0.185600  0.086500  0.443600  1.0  -0.6259
  O  O563  1  0.263200  0.013800  0.456900  1.0  -0.5741
  O  O564  1  0.405100  0.056200  0.298200  1.0  -0.6018
  O  O565  1  0.331700  0.102100  0.232700  1.0  -0.5369
  O  O566  1  0.277600  0.934300  0.219500  1.0  -0.5698
  O  O567  1  0.222600  0.007000  0.161000  1.0  -0.6112
  O  O568  1  0.087500  0.052000  0.241100  1.0  -0.5842
  O  O569  1  0.097400  0.098200  0.336700  1.0  -0.6369
  O  O570  1  0.078500  0.158600  0.456300  1.0  -1.0364
  O  O571  1  0.780100  0.623400  0.171700  1.0  -0.3362
  O  O572  1  0.814400  0.586500  0.056400  1.0  -0.6242
  O  O573  1  0.736800  0.513800  0.043100  1.0  -0.5736
  O  O574  1  0.594900  0.556200  0.201800  1.0  -0.6035
  O  O575  1  0.668300  0.602100  0.267300  1.0  -0.5364
  O  O576  1  0.722400  0.434300  0.280500  1.0  -0.5673
  O  O577  1  0.777400  0.507000  0.339000  1.0  -0.61
  O  O578  1  0.912500  0.552000  0.258900  1.0  -0.5824
  O  O579  1  0.902600  0.598200  0.163300  1.0  -0.635
  O  O580  1  0.921500  0.658600  0.043700  1.0  -1.0354
  O  O581  1  0.719900  0.376600  0.671700  1.0  -0.3374
  O  O582  1  0.685600  0.413500  0.556400  1.0  -0.6255
  O  O583  1  0.763200  0.486200  0.543100  1.0  -0.5733
  O  O584  1  0.905100  0.443800  0.701800  1.0  -0.6026
  O  O585  1  0.831700  0.397900  0.767300  1.0  -0.5366
  O  O586  1  0.777600  0.565700  0.780500  1.0  -0.5704
  O  O587  1  0.722600  0.493000  0.839000  1.0  -0.6113
  O  O588  1  0.587500  0.448000  0.758900  1.0  -0.5834
  O  O589  1  0.597400  0.401800  0.663300  1.0  -0.6343
  O  O590  1  0.578500  0.341400  0.543700  1.0  -1.0372
  O  O591  1  0.280100  0.876600  0.828300  1.0  -0.339
  O  O592  1  0.314400  0.913500  0.943600  1.0  -0.6243
  O  O593  1  0.236800  0.986200  0.956900  1.0  -0.574
  O  O594  1  0.094900  0.943800  0.798200  1.0  -0.6022
  O  O595  1  0.168300  0.897900  0.732700  1.0  -0.537
  O  O596  1  0.222400  0.065700  0.719500  1.0  -0.5695
  O  O597  1  0.277400  0.993000  0.661000  1.0  -0.6099
  O  O598  1  0.412500  0.948000  0.741100  1.0  -0.5858
  O  O599  1  0.402600  0.901800  0.836700  1.0  -0.6358
  O  O600  1  0.421500  0.841400  0.956300  1.0  -1.0356
