# generated using pymatgen
data_CoH3C4O5
_symmetry_space_group_name_H-M   'P 1'
_cell_length_a   20.52130000
_cell_length_b   20.52130000
_cell_length_c   20.52130000
_cell_angle_alpha   90.00000000
_cell_angle_beta   90.00000000
_cell_angle_gamma   90.00000000
_symmetry_Int_Tables_number   1
_chemical_formula_structural   CoH3C4O5
_chemical_formula_sum   'Co48 H144 C192 O240'
_cell_volume   8642.00688660
_cell_formula_units_Z   48
loop_
 _symmetry_equiv_pos_site_id
 _symmetry_equiv_pos_as_xyz
  1  'x, y, z'
loop_
 _atom_site_type_symbol
 _atom_site_label
 _atom_site_symmetry_multiplicity
 _atom_site_fract_x
 _atom_site_fract_y
 _atom_site_fract_z
 _atom_site_occupancy
 _atom_site_charge
  Co  Co1  1  0.838720  0.601620  0.856850  1.0  1.0403
  Co  Co2  1  0.994030  0.438910  0.724150  1.0  1.1178
  Co  Co3  1  0.661280  0.398380  0.356850  1.0  1.0374
  Co  Co4  1  0.505970  0.561090  0.224150  1.0  1.1176
  Co  Co5  1  0.161280  0.101620  0.643150  1.0  1.0364
  Co  Co6  1  0.005970  0.938910  0.775850  1.0  1.1073
  Co  Co7  1  0.338720  0.898380  0.143150  1.0  1.0409
  Co  Co8  1  0.494030  0.061090  0.275850  1.0  1.1118
  Co  Co9  1  0.856850  0.838720  0.601620  1.0  1.0409
  Co  Co10  1  0.724150  0.994030  0.438910  1.0  1.1065
  Co  Co11  1  0.356850  0.661280  0.398380  1.0  1.0413
  Co  Co12  1  0.224150  0.505970  0.561090  1.0  1.1072
  Co  Co13  1  0.643150  0.161280  0.101620  1.0  1.0401
  Co  Co14  1  0.775850  0.005970  0.938910  1.0  1.1065
  Co  Co15  1  0.143150  0.338720  0.898380  1.0  1.0405
  Co  Co16  1  0.275850  0.494030  0.061090  1.0  1.1106
  Co  Co17  1  0.601620  0.856850  0.838720  1.0  1.0403
  Co  Co18  1  0.438910  0.724150  0.994030  1.0  1.1079
  Co  Co19  1  0.398380  0.356850  0.661280  1.0  1.0417
  Co  Co20  1  0.561090  0.224150  0.505970  1.0  1.1122
  Co  Co21  1  0.101620  0.643150  0.161280  1.0  1.0405
  Co  Co22  1  0.938910  0.775850  0.005970  1.0  1.1149
  Co  Co23  1  0.898380  0.143150  0.338720  1.0  1.0396
  Co  Co24  1  0.061090  0.275850  0.494030  1.0  1.1138
  Co  Co25  1  0.161280  0.398380  0.143150  1.0  1.0369
  Co  Co26  1  0.005970  0.561090  0.275850  1.0  1.1104
  Co  Co27  1  0.338720  0.601620  0.643150  1.0  1.0396
  Co  Co28  1  0.494030  0.438910  0.775850  1.0  1.1121
  Co  Co29  1  0.838720  0.898380  0.356850  1.0  1.0412
  Co  Co30  1  0.994030  0.061090  0.224150  1.0  1.1158
  Co  Co31  1  0.661280  0.101620  0.856850  1.0  1.0368
  Co  Co32  1  0.505970  0.938910  0.724150  1.0  1.1142
  Co  Co33  1  0.143150  0.161280  0.398380  1.0  1.0404
  Co  Co34  1  0.275850  0.005970  0.561090  1.0  1.1102
  Co  Co35  1  0.643150  0.338720  0.601620  1.0  1.0401
  Co  Co36  1  0.775850  0.494030  0.438910  1.0  1.1098
  Co  Co37  1  0.356850  0.838720  0.898380  1.0  1.0415
  Co  Co38  1  0.224150  0.994030  0.061090  1.0  1.1061
  Co  Co39  1  0.856850  0.661280  0.101620  1.0  1.0409
  Co  Co40  1  0.724150  0.505970  0.938910  1.0  1.1024
  Co  Co41  1  0.398380  0.143150  0.161280  1.0  1.0407
  Co  Co42  1  0.561090  0.275850  0.005970  1.0  1.1145
  Co  Co43  1  0.601620  0.643150  0.338720  1.0  1.0398
  Co  Co44  1  0.438910  0.775850  0.494030  1.0  1.1124
  Co  Co45  1  0.898380  0.356850  0.838720  1.0  1.0401
  Co  Co46  1  0.061090  0.224150  0.994030  1.0  1.1077
  Co  Co47  1  0.101620  0.856850  0.661280  1.0  1.0416
  Co  Co48  1  0.938910  0.724150  0.505970  1.0  1.1118
  H  H49  1  0.879000  0.622300  0.699400  1.0  0.1374
  H  H50  1  0.997500  0.660800  0.692400  1.0  0.1356
  H  H51  1  0.008400  0.699800  0.793400  1.0  0.1333
  H  H52  1  0.888700  0.762900  0.805000  1.0  0.1277
  H  H53  1  0.853500  0.494800  0.923500  1.0  0.2812
  H  H54  1  0.841700  0.551700  0.973400  1.0  0.274
  H  H55  1  0.621000  0.377700  0.199400  1.0  0.1391
  H  H56  1  0.502500  0.339200  0.192400  1.0  0.1349
  H  H57  1  0.491600  0.300200  0.293400  1.0  0.1332
  H  H58  1  0.611300  0.237100  0.305000  1.0  0.1276
  H  H59  1  0.646500  0.505200  0.423500  1.0  0.2815
  H  H60  1  0.658300  0.448300  0.473400  1.0  0.2733
  H  H61  1  0.121000  0.122300  0.800600  1.0  0.1392
  H  H62  1  0.002500  0.160800  0.807600  1.0  0.1345
  H  H63  1  0.991600  0.199800  0.706600  1.0  0.1341
  H  H64  1  0.111300  0.262900  0.695000  1.0  0.1283
  H  H65  1  0.146500  0.994800  0.576500  1.0  0.2821
  H  H66  1  0.158300  0.051700  0.526600  1.0  0.2739
  H  H67  1  0.379000  0.877700  0.300600  1.0  0.1389
  H  H68  1  0.497500  0.839200  0.307600  1.0  0.1356
  H  H69  1  0.508400  0.800200  0.206600  1.0  0.1348
  H  H70  1  0.388700  0.737100  0.195000  1.0  0.1282
  H  H71  1  0.353500  0.005200  0.076500  1.0  0.2817
  H  H72  1  0.341700  0.948300  0.026600  1.0  0.2728
  H  H73  1  0.699400  0.879000  0.622300  1.0  0.138
  H  H74  1  0.692400  0.997500  0.660800  1.0  0.136
  H  H75  1  0.793400  0.008400  0.699800  1.0  0.1331
  H  H76  1  0.805000  0.888700  0.762900  1.0  0.1257
  H  H77  1  0.923500  0.853500  0.494800  1.0  0.2794
  H  H78  1  0.973400  0.841700  0.551700  1.0  0.2736
  H  H79  1  0.199400  0.621000  0.377700  1.0  0.1383
  H  H80  1  0.192400  0.502500  0.339200  1.0  0.1366
  H  H81  1  0.293400  0.491600  0.300200  1.0  0.1331
  H  H82  1  0.305000  0.611300  0.237100  1.0  0.1257
  H  H83  1  0.423500  0.646500  0.505200  1.0  0.2797
  H  H84  1  0.473400  0.658300  0.448300  1.0  0.2734
  H  H85  1  0.800600  0.121000  0.122300  1.0  0.1391
  H  H86  1  0.807600  0.002500  0.160800  1.0  0.1359
  H  H87  1  0.706600  0.991600  0.199800  1.0  0.133
  H  H88  1  0.695000  0.111300  0.262900  1.0  0.1265
  H  H89  1  0.576500  0.146500  0.994800  1.0  0.279
  H  H90  1  0.526600  0.158300  0.051700  1.0  0.2744
  H  H91  1  0.300600  0.379000  0.877700  1.0  0.1388
  H  H92  1  0.307600  0.497500  0.839200  1.0  0.1356
  H  H93  1  0.206600  0.508400  0.800200  1.0  0.1331
  H  H94  1  0.195000  0.388700  0.737100  1.0  0.1273
  H  H95  1  0.076500  0.353500  0.005200  1.0  0.2809
  H  H96  1  0.026600  0.341700  0.948300  1.0  0.2755
  H  H97  1  0.622300  0.699400  0.879000  1.0  0.14
  H  H98  1  0.660800  0.692400  0.997500  1.0  0.1364
  H  H99  1  0.699800  0.793400  0.008400  1.0  0.1342
  H  H100  1  0.762900  0.805000  0.888700  1.0  0.1279
  H  H101  1  0.494800  0.923500  0.853500  1.0  0.2822
  H  H102  1  0.551700  0.973400  0.841700  1.0  0.2735
  H  H103  1  0.377700  0.199400  0.621000  1.0  0.1412
  H  H104  1  0.339200  0.192400  0.502500  1.0  0.1362
  H  H105  1  0.300200  0.293400  0.491600  1.0  0.1352
  H  H106  1  0.237100  0.305000  0.611300  1.0  0.1271
  H  H107  1  0.505200  0.423500  0.646500  1.0  0.2805
  H  H108  1  0.448300  0.473400  0.658300  1.0  0.2738
  H  H109  1  0.122300  0.800600  0.121000  1.0  0.1399
  H  H110  1  0.160800  0.807600  0.002500  1.0  0.1353
  H  H111  1  0.199800  0.706600  0.991600  1.0  0.1351
  H  H112  1  0.262900  0.695000  0.111300  1.0  0.1287
  H  H113  1  0.994800  0.576500  0.146500  1.0  0.2814
  H  H114  1  0.051700  0.526600  0.158300  1.0  0.2735
  H  H115  1  0.877700  0.300600  0.379000  1.0  0.14
  H  H116  1  0.839200  0.307600  0.497500  1.0  0.1352
  H  H117  1  0.800200  0.206600  0.508400  1.0  0.1347
  H  H118  1  0.737100  0.195000  0.388700  1.0  0.1284
  H  H119  1  0.005200  0.076500  0.353500  1.0  0.2805
  H  H120  1  0.948300  0.026600  0.341700  1.0  0.2734
  H  H121  1  0.121000  0.377700  0.300600  1.0  0.139
  H  H122  1  0.002500  0.339200  0.307600  1.0  0.1347
  H  H123  1  0.991600  0.300200  0.206600  1.0  0.1341
  H  H124  1  0.111300  0.237100  0.195000  1.0  0.1284
  H  H125  1  0.146500  0.505200  0.076500  1.0  0.2822
  H  H126  1  0.158300  0.448300  0.026600  1.0  0.2737
  H  H127  1  0.379000  0.622300  0.800600  1.0  0.1378
  H  H128  1  0.497500  0.660800  0.807600  1.0  0.1358
  H  H129  1  0.508400  0.699800  0.706600  1.0  0.1348
  H  H130  1  0.388700  0.762900  0.695000  1.0  0.1285
  H  H131  1  0.353500  0.494800  0.576500  1.0  0.2819
  H  H132  1  0.341700  0.551700  0.526600  1.0  0.273
  H  H133  1  0.879000  0.877700  0.199400  1.0  0.1387
  H  H134  1  0.997500  0.839200  0.192400  1.0  0.1356
  H  H135  1  0.008400  0.800200  0.293400  1.0  0.1335
  H  H136  1  0.888700  0.737100  0.305000  1.0  0.1274
  H  H137  1  0.853500  0.005200  0.423500  1.0  0.2806
  H  H138  1  0.841700  0.948300  0.473400  1.0  0.2724
  H  H139  1  0.621000  0.122300  0.699400  1.0  0.1394
  H  H140  1  0.502500  0.160800  0.692400  1.0  0.1341
  H  H141  1  0.491600  0.199800  0.793400  1.0  0.1331
  H  H142  1  0.611300  0.262900  0.805000  1.0  0.1278
  H  H143  1  0.646500  0.994800  0.923500  1.0  0.2819
  H  H144  1  0.658300  0.051700  0.973400  1.0  0.2749
  H  H145  1  0.300600  0.121000  0.377700  1.0  0.1385
  H  H146  1  0.307600  0.002500  0.339200  1.0  0.136
  H  H147  1  0.206600  0.991600  0.300200  1.0  0.1329
  H  H148  1  0.195000  0.111300  0.237100  1.0  0.1267
  H  H149  1  0.076500  0.146500  0.505200  1.0  0.2811
  H  H150  1  0.026600  0.158300  0.448300  1.0  0.2752
  H  H151  1  0.800600  0.379000  0.622300  1.0  0.138
  H  H152  1  0.807600  0.497500  0.660800  1.0  0.1347
  H  H153  1  0.706600  0.508400  0.699800  1.0  0.1333
  H  H154  1  0.695000  0.388700  0.762900  1.0  0.127
  H  H155  1  0.576500  0.353500  0.494800  1.0  0.2798
  H  H156  1  0.526600  0.341700  0.551700  1.0  0.2747
  H  H157  1  0.199400  0.879000  0.877700  1.0  0.1387
  H  H158  1  0.192400  0.997500  0.839200  1.0  0.1352
  H  H159  1  0.293400  0.008400  0.800200  1.0  0.1328
  H  H160  1  0.305000  0.888700  0.737100  1.0  0.1256
  H  H161  1  0.423500  0.853500  0.005200  1.0  0.2799
  H  H162  1  0.473400  0.841700  0.948300  1.0  0.2736
  H  H163  1  0.699400  0.621000  0.122300  1.0  0.1387
  H  H164  1  0.692400  0.502500  0.160800  1.0  0.1348
  H  H165  1  0.793400  0.491600  0.199800  1.0  0.1336
  H  H166  1  0.805000  0.611300  0.262900  1.0  0.1258
  H  H167  1  0.923500  0.646500  0.994800  1.0  0.2782
  H  H168  1  0.973400  0.658300  0.051700  1.0  0.2732
  H  H169  1  0.377700  0.300600  0.121000  1.0  0.14
  H  H170  1  0.339200  0.307600  0.002500  1.0  0.1363
  H  H171  1  0.300200  0.206600  0.991600  1.0  0.1353
  H  H172  1  0.237100  0.195000  0.111300  1.0  0.128
  H  H173  1  0.505200  0.076500  0.146500  1.0  0.2802
  H  H174  1  0.448300  0.026600  0.158300  1.0  0.2732
  H  H175  1  0.622300  0.800600  0.379000  1.0  0.1394
  H  H176  1  0.660800  0.807600  0.497500  1.0  0.1349
  H  H177  1  0.699800  0.706600  0.508400  1.0  0.1344
  H  H178  1  0.762900  0.695000  0.388700  1.0  0.129
  H  H179  1  0.494800  0.576500  0.353500  1.0  0.2815
  H  H180  1  0.551700  0.526600  0.341700  1.0  0.2739
  H  H181  1  0.877700  0.199400  0.879000  1.0  0.1405
  H  H182  1  0.839200  0.192400  0.997500  1.0  0.1355
  H  H183  1  0.800200  0.293400  0.008400  1.0  0.1343
  H  H184  1  0.737100  0.305000  0.888700  1.0  0.1272
  H  H185  1  0.005200  0.423500  0.853500  1.0  0.281
  H  H186  1  0.948300  0.473400  0.841700  1.0  0.2733
  H  H187  1  0.122300  0.699400  0.621000  1.0  0.1414
  H  H188  1  0.160800  0.692400  0.502500  1.0  0.1353
  H  H189  1  0.199800  0.793400  0.491600  1.0  0.135
  H  H190  1  0.262900  0.805000  0.611300  1.0  0.1286
  H  H191  1  0.994800  0.923500  0.646500  1.0  0.282
  H  H192  1  0.051700  0.973400  0.658300  1.0  0.2741
  C  C193  1  0.909000  0.633870  0.734720  1.0  0.0811
  C  C194  1  0.938520  0.570920  0.762030  1.0  0.6882
  C  C195  1  0.958510  0.683330  0.708350  1.0  -0.154
  C  C196  1  0.925880  0.720860  0.653030  1.0  0.6936
  C  C197  1  0.975060  0.723920  0.769100  1.0  -0.1469
  C  C198  1  0.003650  0.791340  0.753670  1.0  0.6815
  C  C199  1  0.912270  0.721670  0.809890  1.0  0.0812
  C  C200  1  0.926040  0.709630  0.881750  1.0  0.6986
  C  C201  1  0.591000  0.366130  0.234720  1.0  0.0833
  C  C202  1  0.561480  0.429080  0.262030  1.0  0.6876
  C  C203  1  0.541490  0.316670  0.208350  1.0  -0.1528
  C  C204  1  0.574120  0.279140  0.153030  1.0  0.6939
  C  C205  1  0.524940  0.276080  0.269100  1.0  -0.148
  C  C206  1  0.496350  0.208660  0.253670  1.0  0.6814
  C  C207  1  0.587730  0.278330  0.309890  1.0  0.0819
  C  C208  1  0.573960  0.290370  0.381750  1.0  0.7001
  C  C209  1  0.091000  0.133870  0.765280  1.0  0.0834
  C  C210  1  0.061480  0.070920  0.737970  1.0  0.6865
  C  C211  1  0.041490  0.183330  0.791650  1.0  -0.153
  C  C212  1  0.074120  0.220860  0.846970  1.0  0.6945
  C  C213  1  0.024940  0.223920  0.730900  1.0  -0.149
  C  C214  1  0.996350  0.291340  0.746330  1.0  0.6822
  C  C215  1  0.087730  0.221670  0.690110  1.0  0.0815
  C  C216  1  0.073960  0.209630  0.618250  1.0  0.7
  C  C217  1  0.409000  0.866130  0.265280  1.0  0.0823
  C  C218  1  0.438520  0.929080  0.237970  1.0  0.6882
  C  C219  1  0.458510  0.816670  0.291650  1.0  -0.1531
  C  C220  1  0.425880  0.779140  0.346970  1.0  0.6949
  C  C221  1  0.475060  0.776080  0.230900  1.0  -0.1479
  C  C222  1  0.503650  0.708660  0.246330  1.0  0.6818
  C  C223  1  0.412270  0.778330  0.190110  1.0  0.08
  C  C224  1  0.426040  0.790370  0.118250  1.0  0.6987
  C  C225  1  0.734720  0.909000  0.633870  1.0  0.0787
  C  C226  1  0.762030  0.938520  0.570920  1.0  0.6898
  C  C227  1  0.708350  0.958510  0.683330  1.0  -0.1561
  C  C228  1  0.653030  0.925880  0.720860  1.0  0.6921
  C  C229  1  0.769100  0.975060  0.723920  1.0  -0.1503
  C  C230  1  0.753670  0.003650  0.791340  1.0  0.6805
  C  C231  1  0.809890  0.912270  0.721670  1.0  0.0829
  C  C232  1  0.881750  0.926040  0.709630  1.0  0.6942
  C  C233  1  0.234720  0.591000  0.366130  1.0  0.0796
  C  C234  1  0.262030  0.561480  0.429080  1.0  0.6865
  C  C235  1  0.208350  0.541490  0.316670  1.0  -0.1563
  C  C236  1  0.153030  0.574120  0.279140  1.0  0.6898
  C  C237  1  0.269100  0.524940  0.276080  1.0  -0.1508
  C  C238  1  0.253670  0.496350  0.208660  1.0  0.6842
  C  C239  1  0.309890  0.587730  0.278330  1.0  0.0824
  C  C240  1  0.381750  0.573960  0.290370  1.0  0.6945
  C  C241  1  0.765280  0.091000  0.133870  1.0  0.0796
  C  C242  1  0.737970  0.061480  0.070920  1.0  0.6881
  C  C243  1  0.791650  0.041490  0.183330  1.0  -0.1561
  C  C244  1  0.846970  0.074120  0.220860  1.0  0.6933
  C  C245  1  0.730900  0.024940  0.223920  1.0  -0.1501
  C  C246  1  0.746330  0.996350  0.291340  1.0  0.6828
  C  C247  1  0.690110  0.087730  0.221670  1.0  0.0819
  C  C248  1  0.618250  0.073960  0.209630  1.0  0.695
  C  C249  1  0.265280  0.409000  0.866130  1.0  0.0799
  C  C250  1  0.237970  0.438520  0.929080  1.0  0.6882
  C  C251  1  0.291650  0.458510  0.816670  1.0  -0.1545
  C  C252  1  0.346970  0.425880  0.779140  1.0  0.6938
  C  C253  1  0.230900  0.475060  0.776080  1.0  -0.1501
  C  C254  1  0.246330  0.503650  0.708660  1.0  0.6835
  C  C255  1  0.190110  0.412270  0.778330  1.0  0.0824
  C  C256  1  0.118250  0.426040  0.790370  1.0  0.6945
  C  C257  1  0.633870  0.734720  0.909000  1.0  0.0777
  C  C258  1  0.570920  0.762030  0.938520  1.0  0.6857
  C  C259  1  0.683330  0.708350  0.958510  1.0  -0.1536
  C  C260  1  0.720860  0.653030  0.925880  1.0  0.694
  C  C261  1  0.723920  0.769100  0.975060  1.0  -0.1454
  C  C262  1  0.791340  0.753670  0.003650  1.0  0.6832
  C  C263  1  0.721670  0.809890  0.912270  1.0  0.0813
  C  C264  1  0.709630  0.881750  0.926040  1.0  0.6959
  C  C265  1  0.366130  0.234720  0.591000  1.0  0.0797
  C  C266  1  0.429080  0.262030  0.561480  1.0  0.6874
  C  C267  1  0.316670  0.208350  0.541490  1.0  -0.154
  C  C268  1  0.279140  0.153030  0.574120  1.0  0.6953
  C  C269  1  0.276080  0.269100  0.524940  1.0  -0.146
  C  C270  1  0.208660  0.253670  0.496350  1.0  0.683
  C  C271  1  0.278330  0.309890  0.587730  1.0  0.082
  C  C272  1  0.290370  0.381750  0.573960  1.0  0.6967
  C  C273  1  0.133870  0.765280  0.091000  1.0  0.0792
  C  C274  1  0.070920  0.737970  0.061480  1.0  0.6859
  C  C275  1  0.183330  0.791650  0.041490  1.0  -0.1535
  C  C276  1  0.220860  0.846970  0.074120  1.0  0.6917
  C  C277  1  0.223920  0.730900  0.024940  1.0  -0.1464
  C  C278  1  0.291340  0.746330  0.996350  1.0  0.6829
  C  C279  1  0.221670  0.690110  0.087730  1.0  0.0819
  C  C280  1  0.209630  0.618250  0.073960  1.0  0.6964
  C  C281  1  0.866130  0.265280  0.409000  1.0  0.0795
  C  C282  1  0.929080  0.237970  0.438520  1.0  0.6882
  C  C283  1  0.816670  0.291650  0.458510  1.0  -0.1532
  C  C284  1  0.779140  0.346970  0.425880  1.0  0.6948
  C  C285  1  0.776080  0.230900  0.475060  1.0  -0.1462
  C  C286  1  0.708660  0.246330  0.503650  1.0  0.6822
  C  C287  1  0.778330  0.190110  0.412270  1.0  0.081
  C  C288  1  0.790370  0.118250  0.426040  1.0  0.6967
  C  C289  1  0.091000  0.366130  0.265280  1.0  0.0836
  C  C290  1  0.061480  0.429080  0.237970  1.0  0.6878
  C  C291  1  0.041490  0.316670  0.291650  1.0  -0.1526
  C  C292  1  0.074120  0.279140  0.346970  1.0  0.6952
  C  C293  1  0.024940  0.276080  0.230900  1.0  -0.149
  C  C294  1  0.996350  0.208660  0.246330  1.0  0.6819
  C  C295  1  0.087730  0.278330  0.190110  1.0  0.0811
  C  C296  1  0.073960  0.290370  0.118250  1.0  0.7
  C  C297  1  0.409000  0.633870  0.765280  1.0  0.0826
  C  C298  1  0.438520  0.570920  0.737970  1.0  0.6878
  C  C299  1  0.458510  0.683330  0.791650  1.0  -0.1535
  C  C300  1  0.425880  0.720860  0.846970  1.0  0.6942
  C  C301  1  0.475060  0.723920  0.730900  1.0  -0.1473
  C  C302  1  0.503650  0.791340  0.746330  1.0  0.6808
  C  C303  1  0.412270  0.721670  0.690110  1.0  0.0806
  C  C304  1  0.426040  0.709630  0.618250  1.0  0.6986
  C  C305  1  0.909000  0.866130  0.234720  1.0  0.0819
  C  C306  1  0.938520  0.929080  0.262030  1.0  0.6884
  C  C307  1  0.958510  0.816670  0.208350  1.0  -0.1534
  C  C308  1  0.925880  0.779140  0.153030  1.0  0.6945
  C  C309  1  0.975060  0.776080  0.269100  1.0  -0.1469
  C  C310  1  0.003650  0.708660  0.253670  1.0  0.6815
  C  C311  1  0.912270  0.778330  0.309890  1.0  0.0806
  C  C312  1  0.926040  0.790370  0.381750  1.0  0.6991
  C  C313  1  0.591000  0.133870  0.734720  1.0  0.0819
  C  C314  1  0.561480  0.070920  0.762030  1.0  0.6863
  C  C315  1  0.541490  0.183330  0.708350  1.0  -0.1536
  C  C316  1  0.574120  0.220860  0.653030  1.0  0.6931
  C  C317  1  0.524940  0.223920  0.769100  1.0  -0.1487
  C  C318  1  0.496350  0.291340  0.753670  1.0  0.6806
  C  C319  1  0.587730  0.221670  0.809890  1.0  0.0824
  C  C320  1  0.573960  0.209630  0.881750  1.0  0.6994
  C  C321  1  0.265280  0.091000  0.366130  1.0  0.0799
  C  C322  1  0.237970  0.061480  0.429080  1.0  0.6872
  C  C323  1  0.291650  0.041490  0.316670  1.0  -0.1551
  C  C324  1  0.346970  0.074120  0.279140  1.0  0.6932
  C  C325  1  0.230900  0.024940  0.276080  1.0  -0.15
  C  C326  1  0.246330  0.996350  0.208660  1.0  0.6848
  C  C327  1  0.190110  0.087730  0.278330  1.0  0.0819
  C  C328  1  0.118250  0.073960  0.290370  1.0  0.695
  C  C329  1  0.765280  0.409000  0.633870  1.0  0.0797
  C  C330  1  0.737970  0.438520  0.570920  1.0  0.6901
  C  C331  1  0.791650  0.458510  0.683330  1.0  -0.1552
  C  C332  1  0.846970  0.425880  0.720860  1.0  0.6942
  C  C333  1  0.730900  0.475060  0.723920  1.0  -0.1505
  C  C334  1  0.746330  0.503650  0.791340  1.0  0.6808
  C  C335  1  0.690110  0.412270  0.721670  1.0  0.0826
  C  C336  1  0.618250  0.426040  0.709630  1.0  0.6944
  C  C337  1  0.234720  0.909000  0.866130  1.0  0.0794
  C  C338  1  0.262030  0.938520  0.929080  1.0  0.6876
  C  C339  1  0.208350  0.958510  0.816670  1.0  -0.1557
  C  C340  1  0.153030  0.925880  0.779140  1.0  0.6909
  C  C341  1  0.269100  0.975060  0.776080  1.0  -0.1502
  C  C342  1  0.253670  0.003650  0.708660  1.0  0.6833
  C  C343  1  0.309890  0.912270  0.778330  1.0  0.0834
  C  C344  1  0.381750  0.926040  0.790370  1.0  0.6942
  C  C345  1  0.734720  0.591000  0.133870  1.0  0.0789
  C  C346  1  0.762030  0.561480  0.070920  1.0  0.6876
  C  C347  1  0.708350  0.541490  0.183330  1.0  -0.1572
  C  C348  1  0.653030  0.574120  0.220860  1.0  0.6906
  C  C349  1  0.769100  0.524940  0.223920  1.0  -0.1507
  C  C350  1  0.753670  0.496350  0.291340  1.0  0.6829
  C  C351  1  0.809890  0.587730  0.221670  1.0  0.0823
  C  C352  1  0.881750  0.573960  0.209630  1.0  0.6946
  C  C353  1  0.366130  0.265280  0.091000  1.0  0.0802
  C  C354  1  0.429080  0.237970  0.061480  1.0  0.6878
  C  C355  1  0.316670  0.291650  0.041490  1.0  -0.1533
  C  C356  1  0.279140  0.346970  0.074120  1.0  0.6939
  C  C357  1  0.276080  0.230900  0.024940  1.0  -0.1471
  C  C358  1  0.208660  0.246330  0.996350  1.0  0.6838
  C  C359  1  0.278330  0.190110  0.087730  1.0  0.0818
  C  C360  1  0.290370  0.118250  0.073960  1.0  0.6967
  C  C361  1  0.633870  0.765280  0.409000  1.0  0.0787
  C  C362  1  0.570920  0.737970  0.438520  1.0  0.6855
  C  C363  1  0.683330  0.791650  0.458510  1.0  -0.1537
  C  C364  1  0.720860  0.846970  0.425880  1.0  0.6937
  C  C365  1  0.723920  0.730900  0.475060  1.0  -0.1458
  C  C366  1  0.791340  0.746330  0.503650  1.0  0.6829
  C  C367  1  0.721670  0.690110  0.412270  1.0  0.0803
  C  C368  1  0.709630  0.618250  0.426040  1.0  0.6968
  C  C369  1  0.866130  0.234720  0.909000  1.0  0.0793
  C  C370  1  0.929080  0.262030  0.938520  1.0  0.6881
  C  C371  1  0.816670  0.208350  0.958510  1.0  -0.1534
  C  C372  1  0.779140  0.153030  0.925880  1.0  0.6946
  C  C373  1  0.776080  0.269100  0.975060  1.0  -0.1457
  C  C374  1  0.708660  0.253670  0.003650  1.0  0.683
  C  C375  1  0.778330  0.309890  0.912270  1.0  0.0817
  C  C376  1  0.790370  0.381750  0.926040  1.0  0.6956
  C  C377  1  0.133870  0.734720  0.591000  1.0  0.0782
  C  C378  1  0.070920  0.762030  0.561480  1.0  0.6818
  C  C379  1  0.183330  0.708350  0.541490  1.0  -0.1539
  C  C380  1  0.220860  0.653030  0.574120  1.0  0.694
  C  C381  1  0.223920  0.769100  0.524940  1.0  -0.1454
  C  C382  1  0.291340  0.753670  0.496350  1.0  0.683
  C  C383  1  0.221670  0.809890  0.587730  1.0  0.0825
  C  C384  1  0.209630  0.881750  0.573960  1.0  0.6963
  O  O385  1  0.872970  0.669020  0.783820  1.0  -0.3432
  O  O386  1  0.919060  0.551650  0.817040  1.0  -0.5924
  O  O387  1  0.977360  0.541410  0.726160  1.0  -0.5734
  O  O388  1  0.929060  0.694030  0.598540  1.0  -0.6136
  O  O389  1  0.896710  0.772670  0.665350  1.0  -0.5555
  O  O390  1  0.051230  0.790210  0.714960  1.0  -0.5913
  O  O391  1  0.980720  0.840400  0.780880  1.0  -0.5961
  O  O392  1  0.957470  0.753450  0.910420  1.0  -0.5618
  O  O393  1  0.906420  0.657870  0.908070  1.0  -0.5997
  O  O394  1  0.827280  0.533100  0.932370  1.0  -0.8344
  O  O395  1  0.627030  0.330980  0.283820  1.0  -0.3416
  O  O396  1  0.580940  0.448350  0.317040  1.0  -0.593
  O  O397  1  0.522640  0.458590  0.226160  1.0  -0.5725
  O  O398  1  0.570940  0.305970  0.098540  1.0  -0.6161
  O  O399  1  0.603290  0.227330  0.165350  1.0  -0.5571
  O  O400  1  0.448770  0.209790  0.214960  1.0  -0.5919
  O  O401  1  0.519280  0.159600  0.280880  1.0  -0.5988
  O  O402  1  0.542530  0.246550  0.410420  1.0  -0.5599
  O  O403  1  0.593580  0.342130  0.408070  1.0  -0.6022
  O  O404  1  0.672720  0.466900  0.432370  1.0  -0.8338
  O  O405  1  0.127030  0.169020  0.716180  1.0  -0.341
  O  O406  1  0.080940  0.051650  0.682960  1.0  -0.5933
  O  O407  1  0.022640  0.041410  0.773840  1.0  -0.5719
  O  O408  1  0.070940  0.194030  0.901460  1.0  -0.615
  O  O409  1  0.103290  0.272670  0.834650  1.0  -0.5568
  O  O410  1  0.948770  0.290210  0.785040  1.0  -0.5926
  O  O411  1  0.019280  0.340400  0.719120  1.0  -0.5962
  O  O412  1  0.042530  0.253450  0.589580  1.0  -0.5618
  O  O413  1  0.093580  0.157870  0.591930  1.0  -0.6007
  O  O414  1  0.172720  0.033100  0.567630  1.0  -0.8341
  O  O415  1  0.372970  0.830980  0.216180  1.0  -0.3435
  O  O416  1  0.419060  0.948350  0.182960  1.0  -0.5933
  O  O417  1  0.477360  0.958590  0.273840  1.0  -0.5728
  O  O418  1  0.429060  0.805970  0.401460  1.0  -0.6124
  O  O419  1  0.396710  0.727330  0.334650  1.0  -0.5557
  O  O420  1  0.551230  0.709790  0.285040  1.0  -0.5925
  O  O421  1  0.480720  0.659600  0.219120  1.0  -0.5961
  O  O422  1  0.457470  0.746550  0.089580  1.0  -0.5608
  O  O423  1  0.406420  0.842130  0.091930  1.0  -0.602
  O  O424  1  0.327280  0.966900  0.067630  1.0  -0.8346
  O  O425  1  0.783820  0.872970  0.669020  1.0  -0.3399
  O  O426  1  0.817040  0.919060  0.551650  1.0  -0.5902
  O  O427  1  0.726160  0.977360  0.541410  1.0  -0.5702
  O  O428  1  0.598540  0.929060  0.694030  1.0  -0.6124
  O  O429  1  0.665350  0.896710  0.772670  1.0  -0.5596
  O  O430  1  0.714960  0.051230  0.790210  1.0  -0.5937
  O  O431  1  0.780880  0.980720  0.840400  1.0  -0.597
  O  O432  1  0.910420  0.957470  0.753450  1.0  -0.5654
  O  O433  1  0.908070  0.906420  0.657870  1.0  -0.6013
  O  O434  1  0.932370  0.827280  0.533100  1.0  -0.8272
  O  O435  1  0.283820  0.627030  0.330980  1.0  -0.3374
  O  O436  1  0.317040  0.580940  0.448350  1.0  -0.5912
  O  O437  1  0.226160  0.522640  0.458590  1.0  -0.5697
  O  O438  1  0.098540  0.570940  0.305970  1.0  -0.6141
  O  O439  1  0.165350  0.603290  0.227330  1.0  -0.5577
  O  O440  1  0.214960  0.448770  0.209790  1.0  -0.5944
  O  O441  1  0.280880  0.519280  0.159600  1.0  -0.5939
  O  O442  1  0.410420  0.542530  0.246550  1.0  -0.564
  O  O443  1  0.408070  0.593580  0.342130  1.0  -0.6024
  O  O444  1  0.432370  0.672720  0.466900  1.0  -0.8269
  O  O445  1  0.716180  0.127030  0.169020  1.0  -0.3379
  O  O446  1  0.682960  0.080940  0.051650  1.0  -0.5927
  O  O447  1  0.773840  0.022640  0.041410  1.0  -0.5704
  O  O448  1  0.901460  0.070940  0.194030  1.0  -0.6128
  O  O449  1  0.834650  0.103290  0.272670  1.0  -0.5583
  O  O450  1  0.785040  0.948770  0.290210  1.0  -0.5942
  O  O451  1  0.719120  0.019280  0.340400  1.0  -0.5948
  O  O452  1  0.589580  0.042530  0.253450  1.0  -0.5649
  O  O453  1  0.591930  0.093580  0.157870  1.0  -0.6026
  O  O454  1  0.567630  0.172720  0.033100  1.0  -0.829
  O  O455  1  0.216180  0.372970  0.830980  1.0  -0.3399
  O  O456  1  0.182960  0.419060  0.948350  1.0  -0.5923
  O  O457  1  0.273840  0.477360  0.958590  1.0  -0.5697
  O  O458  1  0.401460  0.429060  0.805970  1.0  -0.6143
  O  O459  1  0.334650  0.396710  0.727330  1.0  -0.5582
  O  O460  1  0.285040  0.551230  0.709790  1.0  -0.5937
  O  O461  1  0.219120  0.480720  0.659600  1.0  -0.5937
  O  O462  1  0.089580  0.457470  0.746550  1.0  -0.5649
  O  O463  1  0.091930  0.406420  0.842130  1.0  -0.6026
  O  O464  1  0.067630  0.327280  0.966900  1.0  -0.8262
  O  O465  1  0.669020  0.783820  0.872970  1.0  -0.3469
  O  O466  1  0.551650  0.817040  0.919060  1.0  -0.5912
  O  O467  1  0.541410  0.726160  0.977360  1.0  -0.5735
  O  O468  1  0.694030  0.598540  0.929060  1.0  -0.6088
  O  O469  1  0.772670  0.665350  0.896710  1.0  -0.556
  O  O470  1  0.790210  0.714960  0.051230  1.0  -0.5976
  O  O471  1  0.840400  0.780880  0.980720  1.0  -0.5947
  O  O472  1  0.753450  0.910420  0.957470  1.0  -0.5623
  O  O473  1  0.657870  0.908070  0.906420  1.0  -0.6007
  O  O474  1  0.533100  0.932370  0.827280  1.0  -0.8367
  O  O475  1  0.330980  0.283820  0.627030  1.0  -0.3444
  O  O476  1  0.448350  0.317040  0.580940  1.0  -0.5918
  O  O477  1  0.458590  0.226160  0.522640  1.0  -0.5732
  O  O478  1  0.305970  0.098540  0.570940  1.0  -0.6086
  O  O479  1  0.227330  0.165350  0.603290  1.0  -0.5559
  O  O480  1  0.209790  0.214960  0.448770  1.0  -0.5948
  O  O481  1  0.159600  0.280880  0.519280  1.0  -0.5948
  O  O482  1  0.246550  0.410420  0.542530  1.0  -0.5621
  O  O483  1  0.342130  0.408070  0.593580  1.0  -0.6026
  O  O484  1  0.466900  0.432370  0.672720  1.0  -0.8345
  O  O485  1  0.169020  0.716180  0.127030  1.0  -0.3443
  O  O486  1  0.051650  0.682960  0.080940  1.0  -0.5904
  O  O487  1  0.041410  0.773840  0.022640  1.0  -0.5716
  O  O488  1  0.194030  0.901460  0.070940  1.0  -0.6097
  O  O489  1  0.272670  0.834650  0.103290  1.0  -0.5571
  O  O490  1  0.290210  0.785040  0.948770  1.0  -0.5951
  O  O491  1  0.340400  0.719120  0.019280  1.0  -0.5949
  O  O492  1  0.253450  0.589580  0.042530  1.0  -0.563
  O  O493  1  0.157870  0.591930  0.093580  1.0  -0.6014
  O  O494  1  0.033100  0.567630  0.172720  1.0  -0.8359
  O  O495  1  0.830980  0.216180  0.372970  1.0  -0.3473
  O  O496  1  0.948350  0.182960  0.419060  1.0  -0.5894
  O  O497  1  0.958590  0.273840  0.477360  1.0  -0.5713
  O  O498  1  0.805970  0.401460  0.429060  1.0  -0.6083
  O  O499  1  0.727330  0.334650  0.396710  1.0  -0.5557
  O  O500  1  0.709790  0.285040  0.551230  1.0  -0.597
  O  O501  1  0.659600  0.219120  0.480720  1.0  -0.5934
  O  O502  1  0.746550  0.089580  0.457470  1.0  -0.563
  O  O503  1  0.842130  0.091930  0.406420  1.0  -0.6008
  O  O504  1  0.966900  0.067630  0.327280  1.0  -0.8356
  O  O505  1  0.127030  0.330980  0.216180  1.0  -0.3412
  O  O506  1  0.080940  0.448350  0.182960  1.0  -0.5934
  O  O507  1  0.022640  0.458590  0.273840  1.0  -0.5718
  O  O508  1  0.070940  0.305970  0.401460  1.0  -0.6122
  O  O509  1  0.103290  0.227330  0.334650  1.0  -0.5568
  O  O510  1  0.948770  0.209790  0.285040  1.0  -0.594
  O  O511  1  0.019280  0.159600  0.219120  1.0  -0.5959
  O  O512  1  0.042530  0.246550  0.089580  1.0  -0.5603
  O  O513  1  0.093580  0.342130  0.091930  1.0  -0.6021
  O  O514  1  0.172720  0.466900  0.067630  1.0  -0.8333
  O  O515  1  0.372970  0.669020  0.716180  1.0  -0.3434
  O  O516  1  0.419060  0.551650  0.682960  1.0  -0.5934
  O  O517  1  0.477360  0.541410  0.773840  1.0  -0.5732
  O  O518  1  0.429060  0.694030  0.901460  1.0  -0.6151
  O  O519  1  0.396710  0.772670  0.834650  1.0  -0.5553
  O  O520  1  0.551230  0.790210  0.785040  1.0  -0.5924
  O  O521  1  0.480720  0.840400  0.719120  1.0  -0.5963
  O  O522  1  0.457470  0.753450  0.589580  1.0  -0.5624
  O  O523  1  0.406420  0.657870  0.591930  1.0  -0.5996
  O  O524  1  0.327280  0.533100  0.567630  1.0  -0.8351
  O  O525  1  0.872970  0.830980  0.283820  1.0  -0.3432
  O  O526  1  0.919060  0.948350  0.317040  1.0  -0.5928
  O  O527  1  0.977360  0.958590  0.226160  1.0  -0.5734
  O  O528  1  0.929060  0.805970  0.098540  1.0  -0.6163
  O  O529  1  0.896710  0.727330  0.165350  1.0  -0.5558
  O  O530  1  0.051230  0.709790  0.214960  1.0  -0.5912
  O  O531  1  0.980720  0.659600  0.280880  1.0  -0.5964
  O  O532  1  0.957470  0.746550  0.410420  1.0  -0.5606
  O  O533  1  0.906420  0.842130  0.408070  1.0  -0.6027
  O  O534  1  0.827280  0.966900  0.432370  1.0  -0.8338
  O  O535  1  0.627030  0.169020  0.783820  1.0  -0.3415
  O  O536  1  0.580940  0.051650  0.817040  1.0  -0.5926
  O  O537  1  0.522640  0.041410  0.726160  1.0  -0.5728
  O  O538  1  0.570940  0.194030  0.598540  1.0  -0.6134
  O  O539  1  0.603290  0.272670  0.665350  1.0  -0.557
  O  O540  1  0.448770  0.290210  0.714960  1.0  -0.5911
  O  O541  1  0.519280  0.340400  0.780880  1.0  -0.5987
  O  O542  1  0.542530  0.253450  0.910420  1.0  -0.5618
  O  O543  1  0.593580  0.157870  0.908070  1.0  -0.6005
  O  O544  1  0.672720  0.033100  0.932370  1.0  -0.8349
  O  O545  1  0.216180  0.127030  0.330980  1.0  -0.3372
  O  O546  1  0.182960  0.080940  0.448350  1.0  -0.5928
  O  O547  1  0.273840  0.022640  0.458590  1.0  -0.5702
  O  O548  1  0.401460  0.070940  0.305970  1.0  -0.6143
  O  O549  1  0.334650  0.103290  0.227330  1.0  -0.5574
  O  O550  1  0.285040  0.948770  0.209790  1.0  -0.5938
  O  O551  1  0.219120  0.019280  0.159600  1.0  -0.5936
  O  O552  1  0.089580  0.042530  0.246550  1.0  -0.5639
  O  O553  1  0.091930  0.093580  0.342130  1.0  -0.6032
  O  O554  1  0.067630  0.172720  0.466900  1.0  -0.8279
  O  O555  1  0.716180  0.372970  0.669020  1.0  -0.3404
  O  O556  1  0.682960  0.419060  0.551650  1.0  -0.5922
  O  O557  1  0.773840  0.477360  0.541410  1.0  -0.57
  O  O558  1  0.901460  0.429060  0.694030  1.0  -0.6123
  O  O559  1  0.834650  0.396710  0.772670  1.0  -0.5593
  O  O560  1  0.785040  0.551230  0.790210  1.0  -0.5945
  O  O561  1  0.719120  0.480720  0.840400  1.0  -0.5956
  O  O562  1  0.589580  0.457470  0.753450  1.0  -0.5652
  O  O563  1  0.591930  0.406420  0.657870  1.0  -0.6022
  O  O564  1  0.567630  0.327280  0.533100  1.0  -0.8272
  O  O565  1  0.283820  0.872970  0.830980  1.0  -0.3396
  O  O566  1  0.317040  0.919060  0.948350  1.0  -0.5906
  O  O567  1  0.226160  0.977360  0.958590  1.0  -0.5698
  O  O568  1  0.098540  0.929060  0.805970  1.0  -0.6142
  O  O569  1  0.165350  0.896710  0.727330  1.0  -0.5584
  O  O570  1  0.214960  0.051230  0.709790  1.0  -0.5935
  O  O571  1  0.280880  0.980720  0.659600  1.0  -0.5939
  O  O572  1  0.410420  0.957470  0.746550  1.0  -0.5657
  O  O573  1  0.408070  0.906420  0.842130  1.0  -0.6022
  O  O574  1  0.432370  0.827280  0.966900  1.0  -0.8261
  O  O575  1  0.783820  0.627030  0.169020  1.0  -0.3379
  O  O576  1  0.817040  0.580940  0.051650  1.0  -0.5911
  O  O577  1  0.726160  0.522640  0.041410  1.0  -0.5702
  O  O578  1  0.598540  0.570940  0.194030  1.0  -0.6127
  O  O579  1  0.665350  0.603290  0.272670  1.0  -0.5587
  O  O580  1  0.714960  0.448770  0.290210  1.0  -0.5948
  O  O581  1  0.780880  0.519280  0.340400  1.0  -0.5962
  O  O582  1  0.910420  0.542530  0.253450  1.0  -0.5647
  O  O583  1  0.908070  0.593580  0.157870  1.0  -0.6017
  O  O584  1  0.932370  0.672720  0.033100  1.0  -0.8282
  O  O585  1  0.330980  0.216180  0.127030  1.0  -0.3446
  O  O586  1  0.448350  0.182960  0.080940  1.0  -0.5905
  O  O587  1  0.458590  0.273840  0.022640  1.0  -0.5723
  O  O588  1  0.305970  0.401460  0.070940  1.0  -0.6081
  O  O589  1  0.227330  0.334650  0.103290  1.0  -0.5562
  O  O590  1  0.209790  0.285040  0.948770  1.0  -0.5948
  O  O591  1  0.159600  0.219120  0.019280  1.0  -0.5945
  O  O592  1  0.246550  0.089580  0.042530  1.0  -0.5625
  O  O593  1  0.342130  0.091930  0.093580  1.0  -0.602
  O  O594  1  0.466900  0.067630  0.172720  1.0  -0.8351
  O  O595  1  0.669020  0.716180  0.372970  1.0  -0.3473
  O  O596  1  0.551650  0.682960  0.419060  1.0  -0.5893
  O  O597  1  0.541410  0.773840  0.477360  1.0  -0.5716
  O  O598  1  0.694030  0.901460  0.429060  1.0  -0.6101
  O  O599  1  0.772670  0.834650  0.396710  1.0  -0.5564
  O  O600  1  0.790210  0.785040  0.551230  1.0  -0.597
  O  O601  1  0.840400  0.719120  0.480720  1.0  -0.594
  O  O602  1  0.753450  0.589580  0.457470  1.0  -0.5621
  O  O603  1  0.657870  0.591930  0.406420  1.0  -0.5997
  O  O604  1  0.533100  0.567630  0.327280  1.0  -0.8373
  O  O605  1  0.830980  0.283820  0.872970  1.0  -0.3469
  O  O606  1  0.948350  0.317040  0.919060  1.0  -0.5915
  O  O607  1  0.958590  0.226160  0.977360  1.0  -0.5737
  O  O608  1  0.805970  0.098540  0.929060  1.0  -0.6086
  O  O609  1  0.727330  0.165350  0.896710  1.0  -0.5552
  O  O610  1  0.709790  0.214960  0.051230  1.0  -0.597
  O  O611  1  0.659600  0.280880  0.980720  1.0  -0.5943
  O  O612  1  0.746550  0.410420  0.957470  1.0  -0.563
  O  O613  1  0.842130  0.408070  0.906420  1.0  -0.6017
  O  O614  1  0.966900  0.432370  0.827280  1.0  -0.8359
  O  O615  1  0.169020  0.783820  0.627030  1.0  -0.3441
  O  O616  1  0.051650  0.817040  0.580940  1.0  -0.5915
  O  O617  1  0.041410  0.726160  0.522640  1.0  -0.5727
  O  O618  1  0.194030  0.598540  0.570940  1.0  -0.6084
  O  O619  1  0.272670  0.665350  0.603290  1.0  -0.5568
  O  O620  1  0.290210  0.714960  0.448770  1.0  -0.5953
  O  O621  1  0.340400  0.780880  0.519280  1.0  -0.5954
  O  O622  1  0.253450  0.910420  0.542530  1.0  -0.5631
  O  O623  1  0.157870  0.908070  0.593580  1.0  -0.6017
  O  O624  1  0.033100  0.932370  0.672720  1.0  -0.8348
