# generated using pymatgen
data_CoH3C4O5
_symmetry_space_group_name_H-M   'P 1'
_cell_length_a   20.44800000
_cell_length_b   20.44800000
_cell_length_c   20.44800000
_cell_angle_alpha   90.00000000
_cell_angle_beta   90.00000000
_cell_angle_gamma   90.00000000
_symmetry_Int_Tables_number   1
_chemical_formula_structural   CoH3C4O5
_chemical_formula_sum   'Co48 H144 C192 O240'
_cell_volume   8549.73215539
_cell_formula_units_Z   48
loop_
 _symmetry_equiv_pos_site_id
 _symmetry_equiv_pos_as_xyz
  1  'x, y, z'
loop_
 _atom_site_type_symbol
 _atom_site_label
 _atom_site_symmetry_multiplicity
 _atom_site_fract_x
 _atom_site_fract_y
 _atom_site_fract_z
 _atom_site_occupancy
 _atom_site_charge
  Co  Co1  1  0.838670  0.601570  0.856820  1.0  1.0457
  Co  Co2  1  0.993930  0.438750  0.724030  1.0  1.0972
  Co  Co3  1  0.661330  0.398430  0.356820  1.0  1.0437
  Co  Co4  1  0.506070  0.561250  0.224030  1.0  1.0965
  Co  Co5  1  0.161330  0.101570  0.643180  1.0  1.0427
  Co  Co6  1  0.006070  0.938750  0.775970  1.0  1.093
  Co  Co7  1  0.338670  0.898430  0.143180  1.0  1.046
  Co  Co8  1  0.493930  0.061250  0.275970  1.0  1.0953
  Co  Co9  1  0.856820  0.838670  0.601570  1.0  1.047
  Co  Co10  1  0.724030  0.993930  0.438750  1.0  1.0881
  Co  Co11  1  0.356820  0.661330  0.398430  1.0  1.0475
  Co  Co12  1  0.224030  0.506070  0.561250  1.0  1.0875
  Co  Co13  1  0.643180  0.161330  0.101570  1.0  1.0464
  Co  Co14  1  0.775970  0.006070  0.938750  1.0  1.0904
  Co  Co15  1  0.143180  0.338670  0.898430  1.0  1.0464
  Co  Co16  1  0.275970  0.493930  0.061250  1.0  1.0926
  Co  Co17  1  0.601570  0.856820  0.838670  1.0  1.0465
  Co  Co18  1  0.438750  0.724030  0.993930  1.0  1.09
  Co  Co19  1  0.398430  0.356820  0.661330  1.0  1.0471
  Co  Co20  1  0.561250  0.224030  0.506070  1.0  1.0919
  Co  Co21  1  0.101570  0.643180  0.161330  1.0  1.0463
  Co  Co22  1  0.938750  0.775970  0.006070  1.0  1.1005
  Co  Co23  1  0.898430  0.143180  0.338670  1.0  1.046
  Co  Co24  1  0.061250  0.275970  0.493930  1.0  1.0977
  Co  Co25  1  0.161330  0.398430  0.143180  1.0  1.0434
  Co  Co26  1  0.006070  0.561250  0.275970  1.0  1.0932
  Co  Co27  1  0.338670  0.601570  0.643180  1.0  1.0453
  Co  Co28  1  0.493930  0.438750  0.775970  1.0  1.0974
  Co  Co29  1  0.838670  0.898430  0.356820  1.0  1.0465
  Co  Co30  1  0.993930  0.061250  0.224030  1.0  1.0981
  Co  Co31  1  0.661330  0.101570  0.856820  1.0  1.043
  Co  Co32  1  0.506070  0.938750  0.724030  1.0  1.0978
  Co  Co33  1  0.143180  0.161330  0.398430  1.0  1.0467
  Co  Co34  1  0.275970  0.006070  0.561250  1.0  1.0926
  Co  Co35  1  0.643180  0.338670  0.601570  1.0  1.0462
  Co  Co36  1  0.775970  0.493930  0.438750  1.0  1.0948
  Co  Co37  1  0.356820  0.838670  0.898430  1.0  1.0473
  Co  Co38  1  0.224030  0.993930  0.061250  1.0  1.0904
  Co  Co39  1  0.856820  0.661330  0.101570  1.0  1.0473
  Co  Co40  1  0.724030  0.506070  0.938750  1.0  1.0884
  Co  Co41  1  0.398430  0.143180  0.161330  1.0  1.0464
  Co  Co42  1  0.561250  0.275970  0.006070  1.0  1.1013
  Co  Co43  1  0.601570  0.643180  0.338670  1.0  1.046
  Co  Co44  1  0.438750  0.775970  0.493930  1.0  1.1015
  Co  Co45  1  0.898430  0.356820  0.838670  1.0  1.0466
  Co  Co46  1  0.061250  0.224030  0.993930  1.0  1.0903
  Co  Co47  1  0.101570  0.856820  0.661330  1.0  1.047
  Co  Co48  1  0.938750  0.724030  0.506070  1.0  1.0951
  H  H49  1  0.878800  0.622000  0.699000  1.0  0.1358
  H  H50  1  0.997400  0.661200  0.692000  1.0  0.1275
  H  H51  1  0.008500  0.699300  0.793200  1.0  0.1307
  H  H52  1  0.888900  0.763200  0.804900  1.0  0.1288
  H  H53  1  0.853300  0.494600  0.923100  1.0  0.2847
  H  H54  1  0.841500  0.551700  0.973200  1.0  0.2735
  H  H55  1  0.621200  0.378000  0.199000  1.0  0.1363
  H  H56  1  0.502600  0.338800  0.192000  1.0  0.1259
  H  H57  1  0.491500  0.300700  0.293200  1.0  0.1301
  H  H58  1  0.611100  0.236800  0.304900  1.0  0.1287
  H  H59  1  0.646700  0.505400  0.423100  1.0  0.2853
  H  H60  1  0.658500  0.448300  0.473200  1.0  0.2728
  H  H61  1  0.121200  0.122000  0.801000  1.0  0.1364
  H  H62  1  0.002600  0.161200  0.808000  1.0  0.1263
  H  H63  1  0.991500  0.199300  0.706800  1.0  0.1309
  H  H64  1  0.111100  0.263200  0.695100  1.0  0.1285
  H  H65  1  0.146700  0.994600  0.576900  1.0  0.2857
  H  H66  1  0.158500  0.051700  0.526800  1.0  0.2731
  H  H67  1  0.378800  0.878000  0.301000  1.0  0.1364
  H  H68  1  0.497400  0.838800  0.308000  1.0  0.1271
  H  H69  1  0.508500  0.800700  0.206800  1.0  0.132
  H  H70  1  0.388900  0.736800  0.195100  1.0  0.1283
  H  H71  1  0.353300  0.005400  0.076900  1.0  0.2854
  H  H72  1  0.341500  0.948300  0.026800  1.0  0.2717
  H  H73  1  0.699000  0.878800  0.622000  1.0  0.136
  H  H74  1  0.692000  0.997400  0.661200  1.0  0.1273
  H  H75  1  0.793200  0.008500  0.699300  1.0  0.1301
  H  H76  1  0.804900  0.888900  0.763200  1.0  0.1267
  H  H77  1  0.923100  0.853300  0.494600  1.0  0.2834
  H  H78  1  0.973200  0.841500  0.551700  1.0  0.273
  H  H79  1  0.199000  0.621200  0.378000  1.0  0.1359
  H  H80  1  0.192000  0.502600  0.338800  1.0  0.1279
  H  H81  1  0.293200  0.491500  0.300700  1.0  0.1299
  H  H82  1  0.304900  0.611100  0.236800  1.0  0.1264
  H  H83  1  0.423100  0.646700  0.505400  1.0  0.2831
  H  H84  1  0.473200  0.658500  0.448300  1.0  0.2728
  H  H85  1  0.801000  0.121200  0.122000  1.0  0.1363
  H  H86  1  0.808000  0.002600  0.161200  1.0  0.1274
  H  H87  1  0.706800  0.991500  0.199300  1.0  0.1298
  H  H88  1  0.695100  0.111100  0.263200  1.0  0.1266
  H  H89  1  0.576900  0.146700  0.994600  1.0  0.2827
  H  H90  1  0.526800  0.158500  0.051700  1.0  0.2736
  H  H91  1  0.301000  0.378800  0.878000  1.0  0.1363
  H  H92  1  0.308000  0.497400  0.838800  1.0  0.1267
  H  H93  1  0.206800  0.508500  0.800700  1.0  0.1303
  H  H94  1  0.195100  0.388900  0.736800  1.0  0.127
  H  H95  1  0.076900  0.353300  0.005400  1.0  0.2843
  H  H96  1  0.026800  0.341500  0.948300  1.0  0.2749
  H  H97  1  0.622000  0.699000  0.878800  1.0  0.1377
  H  H98  1  0.661200  0.692000  0.997400  1.0  0.1277
  H  H99  1  0.699300  0.793200  0.008500  1.0  0.131
  H  H100  1  0.763200  0.804900  0.888900  1.0  0.1289
  H  H101  1  0.494600  0.923100  0.853300  1.0  0.2857
  H  H102  1  0.551700  0.973200  0.841500  1.0  0.2732
  H  H103  1  0.378000  0.199000  0.621200  1.0  0.1384
  H  H104  1  0.338800  0.192000  0.502600  1.0  0.1275
  H  H105  1  0.300700  0.293200  0.491500  1.0  0.132
  H  H106  1  0.236800  0.304900  0.611100  1.0  0.1277
  H  H107  1  0.505400  0.423100  0.646700  1.0  0.2842
  H  H108  1  0.448300  0.473200  0.658500  1.0  0.2733
  H  H109  1  0.122000  0.801000  0.121200  1.0  0.1372
  H  H110  1  0.161200  0.808000  0.002600  1.0  0.1275
  H  H111  1  0.199300  0.706800  0.991500  1.0  0.132
  H  H112  1  0.263200  0.695100  0.111100  1.0  0.1288
  H  H113  1  0.994600  0.576900  0.146700  1.0  0.2852
  H  H114  1  0.051700  0.526800  0.158500  1.0  0.2725
  H  H115  1  0.878000  0.301000  0.378800  1.0  0.137
  H  H116  1  0.838800  0.308000  0.497400  1.0  0.1265
  H  H117  1  0.800700  0.206800  0.508500  1.0  0.1313
  H  H118  1  0.736800  0.195100  0.388900  1.0  0.1277
  H  H119  1  0.005400  0.076900  0.353300  1.0  0.2843
  H  H120  1  0.948300  0.026800  0.341500  1.0  0.2725
  H  H121  1  0.121200  0.378000  0.301000  1.0  0.1363
  H  H122  1  0.002600  0.338800  0.308000  1.0  0.1255
  H  H123  1  0.991500  0.300700  0.206800  1.0  0.1308
  H  H124  1  0.111100  0.236800  0.195100  1.0  0.1284
  H  H125  1  0.146700  0.505400  0.076900  1.0  0.2861
  H  H126  1  0.158500  0.448300  0.026800  1.0  0.2729
  H  H127  1  0.378800  0.622000  0.801000  1.0  0.1364
  H  H128  1  0.497400  0.661200  0.808000  1.0  0.1276
  H  H129  1  0.508500  0.699300  0.706800  1.0  0.1318
  H  H130  1  0.388900  0.763200  0.695100  1.0  0.1284
  H  H131  1  0.353300  0.494600  0.576900  1.0  0.2855
  H  H132  1  0.341500  0.551700  0.526800  1.0  0.2721
  H  H133  1  0.878800  0.878000  0.199000  1.0  0.1361
  H  H134  1  0.997400  0.838800  0.192000  1.0  0.1273
  H  H135  1  0.008500  0.800700  0.293200  1.0  0.1308
  H  H136  1  0.888900  0.736800  0.304900  1.0  0.1288
  H  H137  1  0.853300  0.005400  0.423100  1.0  0.2843
  H  H138  1  0.841500  0.948300  0.473200  1.0  0.2718
  H  H139  1  0.621200  0.122000  0.699000  1.0  0.1362
  H  H140  1  0.502600  0.161200  0.692000  1.0  0.126
  H  H141  1  0.491500  0.199300  0.793200  1.0  0.1301
  H  H142  1  0.611100  0.263200  0.804900  1.0  0.1286
  H  H143  1  0.646700  0.994600  0.923100  1.0  0.2853
  H  H144  1  0.658500  0.051700  0.973200  1.0  0.2744
  H  H145  1  0.301000  0.121200  0.378000  1.0  0.1358
  H  H146  1  0.308000  0.002600  0.338800  1.0  0.1282
  H  H147  1  0.206800  0.991500  0.300700  1.0  0.1297
  H  H148  1  0.195100  0.111100  0.236800  1.0  0.1265
  H  H149  1  0.076900  0.146700  0.505400  1.0  0.2843
  H  H150  1  0.026800  0.158500  0.448300  1.0  0.2744
  H  H151  1  0.801000  0.378800  0.622000  1.0  0.1363
  H  H152  1  0.808000  0.497400  0.661200  1.0  0.1267
  H  H153  1  0.706800  0.508500  0.699300  1.0  0.1305
  H  H154  1  0.695100  0.388900  0.763200  1.0  0.127
  H  H155  1  0.576900  0.353300  0.494600  1.0  0.2837
  H  H156  1  0.526800  0.341500  0.551700  1.0  0.2741
  H  H157  1  0.199000  0.878800  0.878000  1.0  0.1363
  H  H158  1  0.192000  0.997400  0.838800  1.0  0.1269
  H  H159  1  0.293200  0.008500  0.800700  1.0  0.1298
  H  H160  1  0.304900  0.888900  0.736800  1.0  0.1267
  H  H161  1  0.423100  0.853300  0.005400  1.0  0.2833
  H  H162  1  0.473200  0.841500  0.948300  1.0  0.2731
  H  H163  1  0.699000  0.621200  0.122000  1.0  0.1362
  H  H164  1  0.692000  0.502600  0.161200  1.0  0.1271
  H  H165  1  0.793200  0.491500  0.199300  1.0  0.1303
  H  H166  1  0.804900  0.611100  0.263200  1.0  0.1264
  H  H167  1  0.923100  0.646700  0.994600  1.0  0.282
  H  H168  1  0.973200  0.658500  0.051700  1.0  0.2726
  H  H169  1  0.378000  0.301000  0.121200  1.0  0.1372
  H  H170  1  0.338800  0.308000  0.002600  1.0  0.1276
  H  H171  1  0.300700  0.206800  0.991500  1.0  0.1321
  H  H172  1  0.236800  0.195100  0.111100  1.0  0.1278
  H  H173  1  0.505400  0.076900  0.146700  1.0  0.2841
  H  H174  1  0.448300  0.026800  0.158500  1.0  0.2721
  H  H175  1  0.622000  0.801000  0.378800  1.0  0.1372
  H  H176  1  0.661200  0.808000  0.497400  1.0  0.1272
  H  H177  1  0.699300  0.706800  0.508500  1.0  0.1312
  H  H178  1  0.763200  0.695100  0.388900  1.0  0.1287
  H  H179  1  0.494600  0.576900  0.353300  1.0  0.2853
  H  H180  1  0.551700  0.526800  0.341500  1.0  0.2731
  H  H181  1  0.878000  0.199000  0.878800  1.0  0.1375
  H  H182  1  0.838800  0.192000  0.997400  1.0  0.1269
  H  H183  1  0.800700  0.293200  0.008500  1.0  0.1309
  H  H184  1  0.736800  0.304900  0.888900  1.0  0.128
  H  H185  1  0.005400  0.423100  0.853300  1.0  0.2845
  H  H186  1  0.948300  0.473200  0.841500  1.0  0.2728
  H  H187  1  0.122000  0.699000  0.621200  1.0  0.1386
  H  H188  1  0.161200  0.692000  0.502600  1.0  0.1275
  H  H189  1  0.199300  0.793200  0.491500  1.0  0.132
  H  H190  1  0.263200  0.804900  0.611100  1.0  0.1288
  H  H191  1  0.994600  0.923100  0.646700  1.0  0.2856
  H  H192  1  0.051700  0.973200  0.658500  1.0  0.2736
  C  C193  1  0.909000  0.633600  0.734300  1.0  0.0846
  C  C194  1  0.938200  0.571200  0.762000  1.0  0.7017
  C  C195  1  0.958200  0.683700  0.708200  1.0  -0.156
  C  C196  1  0.925900  0.721200  0.653200  1.0  0.6984
  C  C197  1  0.975100  0.723800  0.769000  1.0  -0.1498
  C  C198  1  0.003700  0.791200  0.753900  1.0  0.685
  C  C199  1  0.912500  0.721800  0.809900  1.0  0.0787
  C  C200  1  0.926100  0.709800  0.881600  1.0  0.7038
  C  C201  1  0.591000  0.366400  0.234300  1.0  0.0869
  C  C202  1  0.561800  0.428800  0.262000  1.0  0.7017
  C  C203  1  0.541800  0.316300  0.208200  1.0  -0.1545
  C  C204  1  0.574100  0.278800  0.153200  1.0  0.6984
  C  C205  1  0.524900  0.276200  0.269000  1.0  -0.1512
  C  C206  1  0.496300  0.208800  0.253900  1.0  0.687
  C  C207  1  0.587500  0.278200  0.309900  1.0  0.0791
  C  C208  1  0.573900  0.290200  0.381600  1.0  0.7057
  C  C209  1  0.091000  0.133600  0.765700  1.0  0.087
  C  C210  1  0.061800  0.071200  0.738000  1.0  0.7002
  C  C211  1  0.041800  0.183700  0.791800  1.0  -0.1551
  C  C212  1  0.074100  0.221200  0.846800  1.0  0.6979
  C  C213  1  0.024900  0.223800  0.731000  1.0  -0.1526
  C  C214  1  0.996300  0.291200  0.746100  1.0  0.6874
  C  C215  1  0.087500  0.221800  0.690100  1.0  0.079
  C  C216  1  0.073900  0.209800  0.618400  1.0  0.7042
  C  C217  1  0.409000  0.866400  0.265700  1.0  0.0861
  C  C218  1  0.438200  0.928800  0.238000  1.0  0.7018
  C  C219  1  0.458200  0.816300  0.291800  1.0  -0.1548
  C  C220  1  0.425900  0.778800  0.346800  1.0  0.6983
  C  C221  1  0.475100  0.776200  0.231000  1.0  -0.1507
  C  C222  1  0.503700  0.708800  0.246100  1.0  0.6876
  C  C223  1  0.412500  0.778200  0.190100  1.0  0.0768
  C  C224  1  0.426100  0.790200  0.118400  1.0  0.7035
  C  C225  1  0.734300  0.909000  0.633600  1.0  0.0825
  C  C226  1  0.762000  0.938200  0.571200  1.0  0.7049
  C  C227  1  0.708200  0.958200  0.683700  1.0  -0.1581
  C  C228  1  0.653200  0.925900  0.721200  1.0  0.6967
  C  C229  1  0.769000  0.975100  0.723800  1.0  -0.1529
  C  C230  1  0.753900  0.003700  0.791200  1.0  0.6861
  C  C231  1  0.809900  0.912500  0.721800  1.0  0.0805
  C  C232  1  0.881600  0.926100  0.709800  1.0  0.6997
  C  C233  1  0.234300  0.591000  0.366400  1.0  0.0834
  C  C234  1  0.262000  0.561800  0.428800  1.0  0.7005
  C  C235  1  0.208200  0.541800  0.316300  1.0  -0.1584
  C  C236  1  0.153200  0.574100  0.278800  1.0  0.6954
  C  C237  1  0.269000  0.524900  0.276200  1.0  -0.1531
  C  C238  1  0.253900  0.496300  0.208800  1.0  0.6895
  C  C239  1  0.309900  0.587500  0.278200  1.0  0.0795
  C  C240  1  0.381600  0.573900  0.290200  1.0  0.7007
  C  C241  1  0.765700  0.091000  0.133600  1.0  0.0833
  C  C242  1  0.738000  0.061800  0.071200  1.0  0.7033
  C  C243  1  0.791800  0.041800  0.183700  1.0  -0.1581
  C  C244  1  0.846800  0.074100  0.221200  1.0  0.6966
  C  C245  1  0.731000  0.024900  0.223800  1.0  -0.153
  C  C246  1  0.746100  0.996300  0.291200  1.0  0.689
  C  C247  1  0.690100  0.087500  0.221800  1.0  0.0802
  C  C248  1  0.618400  0.073900  0.209800  1.0  0.7009
  C  C249  1  0.265700  0.409000  0.866400  1.0  0.0836
  C  C250  1  0.238000  0.438200  0.928800  1.0  0.7023
  C  C251  1  0.291800  0.458200  0.816300  1.0  -0.1565
  C  C252  1  0.346800  0.425900  0.778800  1.0  0.6963
  C  C253  1  0.231000  0.475100  0.776200  1.0  -0.153
  C  C254  1  0.246100  0.503700  0.708800  1.0  0.6883
  C  C255  1  0.190100  0.412500  0.778200  1.0  0.0792
  C  C256  1  0.118400  0.426100  0.790200  1.0  0.7005
  C  C257  1  0.633600  0.734300  0.909000  1.0  0.0814
  C  C258  1  0.571200  0.762000  0.938200  1.0  0.7003
  C  C259  1  0.683700  0.708200  0.958200  1.0  -0.1556
  C  C260  1  0.721200  0.653200  0.925900  1.0  0.6981
  C  C261  1  0.723800  0.769000  0.975100  1.0  -0.1479
  C  C262  1  0.791200  0.753900  0.003700  1.0  0.6876
  C  C263  1  0.721800  0.809900  0.912500  1.0  0.0781
  C  C264  1  0.709800  0.881600  0.926100  1.0  0.702
  C  C265  1  0.366400  0.234300  0.591000  1.0  0.0826
  C  C266  1  0.428800  0.262000  0.561800  1.0  0.7014
  C  C267  1  0.316300  0.208200  0.541800  1.0  -0.1564
  C  C268  1  0.278800  0.153200  0.574100  1.0  0.6982
  C  C269  1  0.276200  0.269000  0.524900  1.0  -0.1487
  C  C270  1  0.208800  0.253900  0.496300  1.0  0.6875
  C  C271  1  0.278200  0.309900  0.587500  1.0  0.079
  C  C272  1  0.290200  0.381600  0.573900  1.0  0.7027
  C  C273  1  0.133600  0.765700  0.091000  1.0  0.0827
  C  C274  1  0.071200  0.738000  0.061800  1.0  0.6999
  C  C275  1  0.183700  0.791800  0.041800  1.0  -0.156
  C  C276  1  0.221200  0.846800  0.074100  1.0  0.696
  C  C277  1  0.223800  0.731000  0.024900  1.0  -0.1482
  C  C278  1  0.291200  0.746100  0.996300  1.0  0.688
  C  C279  1  0.221800  0.690100  0.087500  1.0  0.0786
  C  C280  1  0.209800  0.618400  0.073900  1.0  0.7025
  C  C281  1  0.866400  0.265700  0.409000  1.0  0.0828
  C  C282  1  0.928800  0.238000  0.438200  1.0  0.7024
  C  C283  1  0.816300  0.291800  0.458200  1.0  -0.1555
  C  C284  1  0.778800  0.346800  0.425900  1.0  0.6977
  C  C285  1  0.776200  0.231000  0.475100  1.0  -0.1486
  C  C286  1  0.708800  0.246100  0.503700  1.0  0.6873
  C  C287  1  0.778200  0.190100  0.412500  1.0  0.0777
  C  C288  1  0.790200  0.118400  0.426100  1.0  0.7026
  C  C289  1  0.091000  0.366400  0.265700  1.0  0.0872
  C  C290  1  0.061800  0.428800  0.238000  1.0  0.7018
  C  C291  1  0.041800  0.316300  0.291800  1.0  -0.1544
  C  C292  1  0.074100  0.278800  0.346800  1.0  0.6983
  C  C293  1  0.024900  0.276200  0.231000  1.0  -0.1524
  C  C294  1  0.996300  0.208800  0.246100  1.0  0.6887
  C  C295  1  0.087500  0.278200  0.190100  1.0  0.0782
  C  C296  1  0.073900  0.290200  0.118400  1.0  0.7045
  C  C297  1  0.409000  0.633600  0.765700  1.0  0.0863
  C  C298  1  0.438200  0.571200  0.738000  1.0  0.7015
  C  C299  1  0.458200  0.683700  0.791800  1.0  -0.1555
  C  C300  1  0.425900  0.721200  0.846800  1.0  0.698
  C  C301  1  0.475100  0.723800  0.731000  1.0  -0.1502
  C  C302  1  0.503700  0.791200  0.746100  1.0  0.6861
  C  C303  1  0.412500  0.721800  0.690100  1.0  0.0779
  C  C304  1  0.426100  0.709800  0.618400  1.0  0.7032
  C  C305  1  0.909000  0.866400  0.234300  1.0  0.0857
  C  C306  1  0.938200  0.928800  0.262000  1.0  0.7019
  C  C307  1  0.958200  0.816300  0.208200  1.0  -0.1551
  C  C308  1  0.925900  0.778800  0.153200  1.0  0.6993
  C  C309  1  0.975100  0.776200  0.269000  1.0  -0.1497
  C  C310  1  0.003700  0.708800  0.253900  1.0  0.6867
  C  C311  1  0.912500  0.778200  0.309900  1.0  0.0777
  C  C312  1  0.926100  0.790200  0.381600  1.0  0.7043
  C  C313  1  0.591000  0.133600  0.734300  1.0  0.0855
  C  C314  1  0.561800  0.071200  0.762000  1.0  0.7002
  C  C315  1  0.541800  0.183700  0.708200  1.0  -0.1555
  C  C316  1  0.574100  0.221200  0.653200  1.0  0.6978
  C  C317  1  0.524900  0.223800  0.769000  1.0  -0.1522
  C  C318  1  0.496300  0.291200  0.753900  1.0  0.6855
  C  C319  1  0.587500  0.221800  0.809900  1.0  0.0801
  C  C320  1  0.573900  0.209800  0.881600  1.0  0.7053
  C  C321  1  0.265700  0.091000  0.366400  1.0  0.0837
  C  C322  1  0.238000  0.061800  0.428800  1.0  0.7015
  C  C323  1  0.291800  0.041800  0.316300  1.0  -0.1572
  C  C324  1  0.346800  0.074100  0.278800  1.0  0.696
  C  C325  1  0.231000  0.024900  0.276200  1.0  -0.1527
  C  C326  1  0.246100  0.996300  0.208800  1.0  0.6897
  C  C327  1  0.190100  0.087500  0.278200  1.0  0.0791
  C  C328  1  0.118400  0.073900  0.290200  1.0  0.7012
  C  C329  1  0.765700  0.409000  0.633600  1.0  0.0835
  C  C330  1  0.738000  0.438200  0.571200  1.0  0.7053
  C  C331  1  0.791800  0.458200  0.683700  1.0  -0.1572
  C  C332  1  0.846800  0.425900  0.721200  1.0  0.697
  C  C333  1  0.731000  0.475100  0.723800  1.0  -0.1534
  C  C334  1  0.746100  0.503700  0.791200  1.0  0.6865
  C  C335  1  0.690100  0.412500  0.721800  1.0  0.0804
  C  C336  1  0.618400  0.426100  0.709800  1.0  0.7001
  C  C337  1  0.234300  0.909000  0.866400  1.0  0.0833
  C  C338  1  0.262000  0.938200  0.928800  1.0  0.7016
  C  C339  1  0.208200  0.958200  0.816300  1.0  -0.1578
  C  C340  1  0.153200  0.925900  0.778800  1.0  0.6959
  C  C341  1  0.269000  0.975100  0.776200  1.0  -0.1527
  C  C342  1  0.253900  0.003700  0.708800  1.0  0.6875
  C  C343  1  0.309900  0.912500  0.778200  1.0  0.08
  C  C344  1  0.381600  0.926100  0.790200  1.0  0.6998
  C  C345  1  0.734300  0.591000  0.133600  1.0  0.0826
  C  C346  1  0.762000  0.561800  0.071200  1.0  0.7026
  C  C347  1  0.708200  0.541800  0.183700  1.0  -0.1592
  C  C348  1  0.653200  0.574100  0.221200  1.0  0.6959
  C  C349  1  0.769000  0.524900  0.223800  1.0  -0.1532
  C  C350  1  0.753900  0.496300  0.291200  1.0  0.6887
  C  C351  1  0.809900  0.587500  0.221800  1.0  0.0803
  C  C352  1  0.881600  0.573900  0.209800  1.0  0.7005
  C  C353  1  0.366400  0.265700  0.091000  1.0  0.0833
  C  C354  1  0.428800  0.238000  0.061800  1.0  0.7016
  C  C355  1  0.316300  0.291800  0.041800  1.0  -0.1559
  C  C356  1  0.278800  0.346800  0.074100  1.0  0.6966
  C  C357  1  0.276200  0.231000  0.024900  1.0  -0.1493
  C  C358  1  0.208800  0.246100  0.996300  1.0  0.6882
  C  C359  1  0.278200  0.190100  0.087500  1.0  0.0786
  C  C360  1  0.290200  0.118400  0.073900  1.0  0.7029
  C  C361  1  0.633600  0.765700  0.409000  1.0  0.0823
  C  C362  1  0.571200  0.738000  0.438200  1.0  0.6997
  C  C363  1  0.683700  0.791800  0.458200  1.0  -0.1558
  C  C364  1  0.721200  0.846800  0.425900  1.0  0.6976
  C  C365  1  0.723800  0.731000  0.475100  1.0  -0.1478
  C  C366  1  0.791200  0.746100  0.503700  1.0  0.6881
  C  C367  1  0.721800  0.690100  0.412500  1.0  0.0769
  C  C368  1  0.709800  0.618400  0.426100  1.0  0.7027
  C  C369  1  0.866400  0.234300  0.909000  1.0  0.0826
  C  C370  1  0.928800  0.262000  0.938200  1.0  0.7027
  C  C371  1  0.816300  0.208200  0.958200  1.0  -0.1555
  C  C372  1  0.778800  0.153200  0.925900  1.0  0.6975
  C  C373  1  0.776200  0.269000  0.975100  1.0  -0.1485
  C  C374  1  0.708800  0.253900  0.003700  1.0  0.6865
  C  C375  1  0.778200  0.309900  0.912500  1.0  0.0787
  C  C376  1  0.790200  0.381600  0.926100  1.0  0.7018
  C  C377  1  0.133600  0.734300  0.591000  1.0  0.0816
  C  C378  1  0.071200  0.762000  0.561800  1.0  0.6999
  C  C379  1  0.183700  0.708200  0.541800  1.0  -0.1562
  C  C380  1  0.221200  0.653200  0.574100  1.0  0.6982
  C  C381  1  0.223800  0.769000  0.524900  1.0  -0.1477
  C  C382  1  0.291200  0.753900  0.496300  1.0  0.6873
  C  C383  1  0.221800  0.809900  0.587500  1.0  0.0793
  C  C384  1  0.209800  0.881600  0.573900  1.0  0.7021
  O  O385  1  0.873100  0.668880  0.783840  1.0  -0.3493
  O  O386  1  0.919200  0.551400  0.816800  1.0  -0.5862
  O  O387  1  0.977200  0.541000  0.726000  1.0  -0.5776
  O  O388  1  0.929300  0.694100  0.598500  1.0  -0.6148
  O  O389  1  0.896800  0.772300  0.665500  1.0  -0.5491
  O  O390  1  0.051300  0.790500  0.715100  1.0  -0.5886
  O  O391  1  0.980700  0.840400  0.781500  1.0  -0.5979
  O  O392  1  0.957400  0.754100  0.910200  1.0  -0.5701
  O  O393  1  0.906600  0.658400  0.908200  1.0  -0.605
  O  O394  1  0.827000  0.533100  0.932100  1.0  -0.8256
  O  O395  1  0.626900  0.331120  0.283840  1.0  -0.3478
  O  O396  1  0.580800  0.448600  0.316800  1.0  -0.5864
  O  O397  1  0.522800  0.459000  0.226000  1.0  -0.5777
  O  O398  1  0.570700  0.305900  0.098500  1.0  -0.6162
  O  O399  1  0.603200  0.227700  0.165500  1.0  -0.5504
  O  O400  1  0.448700  0.209500  0.215100  1.0  -0.5898
  O  O401  1  0.519300  0.159600  0.281500  1.0  -0.5988
  O  O402  1  0.542600  0.245900  0.410200  1.0  -0.5686
  O  O403  1  0.593400  0.341600  0.408200  1.0  -0.6055
  O  O404  1  0.673000  0.466900  0.432100  1.0  -0.8252
  O  O405  1  0.126900  0.168880  0.716160  1.0  -0.3471
  O  O406  1  0.080800  0.051400  0.683200  1.0  -0.5857
  O  O407  1  0.022800  0.041000  0.774000  1.0  -0.577
  O  O408  1  0.070700  0.194100  0.901500  1.0  -0.6168
  O  O409  1  0.103200  0.272300  0.834500  1.0  -0.5499
  O  O410  1  0.948700  0.290500  0.784900  1.0  -0.59
  O  O411  1  0.019300  0.340400  0.718500  1.0  -0.5982
  O  O412  1  0.042600  0.254100  0.589800  1.0  -0.5703
  O  O413  1  0.093400  0.158400  0.591800  1.0  -0.6044
  O  O414  1  0.173000  0.033100  0.567900  1.0  -0.8261
  O  O415  1  0.373100  0.831120  0.216160  1.0  -0.3492
  O  O416  1  0.419200  0.948600  0.183200  1.0  -0.5861
  O  O417  1  0.477200  0.959000  0.274000  1.0  -0.5771
  O  O418  1  0.429300  0.805900  0.401500  1.0  -0.613
  O  O419  1  0.396800  0.727700  0.334500  1.0  -0.5493
  O  O420  1  0.551300  0.709500  0.284900  1.0  -0.5898
  O  O421  1  0.480700  0.659600  0.218500  1.0  -0.5978
  O  O422  1  0.457400  0.745900  0.089800  1.0  -0.5692
  O  O423  1  0.406600  0.841600  0.091800  1.0  -0.6057
  O  O424  1  0.327000  0.966900  0.067900  1.0  -0.8261
  O  O425  1  0.783840  0.873100  0.668880  1.0  -0.3458
  O  O426  1  0.816800  0.919200  0.551400  1.0  -0.5841
  O  O427  1  0.726000  0.977200  0.541000  1.0  -0.5745
  O  O428  1  0.598500  0.929300  0.694100  1.0  -0.6132
  O  O429  1  0.665500  0.896800  0.772300  1.0  -0.5523
  O  O430  1  0.715100  0.051300  0.790500  1.0  -0.5915
  O  O431  1  0.781500  0.980700  0.840400  1.0  -0.5976
  O  O432  1  0.910200  0.957400  0.754100  1.0  -0.5747
  O  O433  1  0.908200  0.906600  0.658400  1.0  -0.6062
  O  O434  1  0.932100  0.827000  0.533100  1.0  -0.8187
  O  O435  1  0.283840  0.626900  0.331120  1.0  -0.3436
  O  O436  1  0.316800  0.580800  0.448600  1.0  -0.5854
  O  O437  1  0.226000  0.522800  0.459000  1.0  -0.5748
  O  O438  1  0.098500  0.570700  0.305900  1.0  -0.6153
  O  O439  1  0.165500  0.603200  0.227700  1.0  -0.5508
  O  O440  1  0.215100  0.448700  0.209500  1.0  -0.5931
  O  O441  1  0.281500  0.519300  0.159600  1.0  -0.5955
  O  O442  1  0.410200  0.542600  0.245900  1.0  -0.5735
  O  O443  1  0.408200  0.593400  0.341600  1.0  -0.6078
  O  O444  1  0.432100  0.673000  0.466900  1.0  -0.8181
  O  O445  1  0.716160  0.126900  0.168880  1.0  -0.3441
  O  O446  1  0.683200  0.080800  0.051400  1.0  -0.5869
  O  O447  1  0.774000  0.022800  0.041000  1.0  -0.5755
  O  O448  1  0.901500  0.070700  0.194100  1.0  -0.6134
  O  O449  1  0.834500  0.103200  0.272300  1.0  -0.5515
  O  O450  1  0.784900  0.948700  0.290500  1.0  -0.5928
  O  O451  1  0.718500  0.019300  0.340400  1.0  -0.5965
  O  O452  1  0.589800  0.042600  0.254100  1.0  -0.5746
  O  O453  1  0.591800  0.093400  0.158400  1.0  -0.6068
  O  O454  1  0.567900  0.173000  0.033100  1.0  -0.8208
  O  O455  1  0.216160  0.373100  0.831120  1.0  -0.3457
  O  O456  1  0.183200  0.419200  0.948600  1.0  -0.5862
  O  O457  1  0.274000  0.477200  0.959000  1.0  -0.5742
  O  O458  1  0.401500  0.429300  0.805900  1.0  -0.6153
  O  O459  1  0.334500  0.396800  0.727700  1.0  -0.5514
  O  O460  1  0.284900  0.551300  0.709500  1.0  -0.5924
  O  O461  1  0.218500  0.480700  0.659600  1.0  -0.5959
  O  O462  1  0.089800  0.457400  0.745900  1.0  -0.5739
  O  O463  1  0.091800  0.406600  0.841600  1.0  -0.607
  O  O464  1  0.067900  0.327000  0.966900  1.0  -0.8175
  O  O465  1  0.668880  0.783840  0.873100  1.0  -0.3538
  O  O466  1  0.551400  0.816800  0.919200  1.0  -0.5852
  O  O467  1  0.541000  0.726000  0.977200  1.0  -0.5791
  O  O468  1  0.694100  0.598500  0.929300  1.0  -0.6119
  O  O469  1  0.772300  0.665500  0.896800  1.0  -0.5493
  O  O470  1  0.790500  0.715100  0.051300  1.0  -0.5953
  O  O471  1  0.840400  0.781500  0.980700  1.0  -0.5958
  O  O472  1  0.754100  0.910200  0.957400  1.0  -0.571
  O  O473  1  0.658400  0.908200  0.906600  1.0  -0.6055
  O  O474  1  0.533100  0.932100  0.827000  1.0  -0.8283
  O  O475  1  0.331120  0.283840  0.626900  1.0  -0.3508
  O  O476  1  0.448600  0.316800  0.580800  1.0  -0.5852
  O  O477  1  0.459000  0.226000  0.522800  1.0  -0.5785
  O  O478  1  0.305900  0.098500  0.570700  1.0  -0.6121
  O  O479  1  0.227700  0.165500  0.603200  1.0  -0.5488
  O  O480  1  0.209500  0.215100  0.448700  1.0  -0.5938
  O  O481  1  0.159600  0.281500  0.519300  1.0  -0.5961
  O  O482  1  0.245900  0.410200  0.542600  1.0  -0.5709
  O  O483  1  0.341600  0.408200  0.593400  1.0  -0.606
  O  O484  1  0.466900  0.432100  0.673000  1.0  -0.8264
  O  O485  1  0.168880  0.716160  0.126900  1.0  -0.3505
  O  O486  1  0.051400  0.683200  0.080800  1.0  -0.5852
  O  O487  1  0.041000  0.774000  0.022800  1.0  -0.5769
  O  O488  1  0.194100  0.901500  0.070700  1.0  -0.6116
  O  O489  1  0.272300  0.834500  0.103200  1.0  -0.5505
  O  O490  1  0.290500  0.784900  0.948700  1.0  -0.5944
  O  O491  1  0.340400  0.718500  0.019300  1.0  -0.5961
  O  O492  1  0.254100  0.589800  0.042600  1.0  -0.5719
  O  O493  1  0.158400  0.591800  0.093400  1.0  -0.6055
  O  O494  1  0.033100  0.567900  0.173000  1.0  -0.8279
  O  O495  1  0.831120  0.216160  0.373100  1.0  -0.3542
  O  O496  1  0.948600  0.183200  0.419200  1.0  -0.5846
  O  O497  1  0.959000  0.274000  0.477200  1.0  -0.5764
  O  O498  1  0.805900  0.401500  0.429300  1.0  -0.6113
  O  O499  1  0.727700  0.334500  0.396800  1.0  -0.5484
  O  O500  1  0.709500  0.284900  0.551300  1.0  -0.5954
  O  O501  1  0.659600  0.218500  0.480700  1.0  -0.595
  O  O502  1  0.745900  0.089800  0.457400  1.0  -0.5714
  O  O503  1  0.841600  0.091800  0.406600  1.0  -0.6047
  O  O504  1  0.966900  0.067900  0.327000  1.0  -0.8273
  O  O505  1  0.126900  0.331120  0.216160  1.0  -0.3474
  O  O506  1  0.080800  0.448600  0.183200  1.0  -0.5858
  O  O507  1  0.022800  0.459000  0.274000  1.0  -0.5768
  O  O508  1  0.070700  0.305900  0.401500  1.0  -0.613
  O  O509  1  0.103200  0.227700  0.334500  1.0  -0.55
  O  O510  1  0.948700  0.209500  0.284900  1.0  -0.5903
  O  O511  1  0.019300  0.159600  0.218500  1.0  -0.5972
  O  O512  1  0.042600  0.245900  0.089800  1.0  -0.5693
  O  O513  1  0.093400  0.341600  0.091800  1.0  -0.6045
  O  O514  1  0.173000  0.466900  0.067900  1.0  -0.8252
  O  O515  1  0.373100  0.668880  0.716160  1.0  -0.3492
  O  O516  1  0.419200  0.551400  0.683200  1.0  -0.5863
  O  O517  1  0.477200  0.541000  0.774000  1.0  -0.5782
  O  O518  1  0.429300  0.694100  0.901500  1.0  -0.6167
  O  O519  1  0.396800  0.772300  0.834500  1.0  -0.5488
  O  O520  1  0.551300  0.790500  0.784900  1.0  -0.5895
  O  O521  1  0.480700  0.840400  0.718500  1.0  -0.598
  O  O522  1  0.457400  0.754100  0.589800  1.0  -0.5707
  O  O523  1  0.406600  0.658400  0.591800  1.0  -0.6044
  O  O524  1  0.327000  0.533100  0.567900  1.0  -0.8267
  O  O525  1  0.873100  0.831120  0.283840  1.0  -0.3492
  O  O526  1  0.919200  0.948600  0.316800  1.0  -0.5865
  O  O527  1  0.977200  0.959000  0.226000  1.0  -0.5769
  O  O528  1  0.929300  0.805900  0.098500  1.0  -0.616
  O  O529  1  0.896800  0.727700  0.165500  1.0  -0.5495
  O  O530  1  0.051300  0.709500  0.215100  1.0  -0.5887
  O  O531  1  0.980700  0.659600  0.281500  1.0  -0.5981
  O  O532  1  0.957400  0.745900  0.410200  1.0  -0.5689
  O  O533  1  0.906600  0.841600  0.408200  1.0  -0.606
  O  O534  1  0.827000  0.966900  0.432100  1.0  -0.8251
  O  O535  1  0.626900  0.168880  0.783840  1.0  -0.3476
  O  O536  1  0.580800  0.051400  0.816800  1.0  -0.5859
  O  O537  1  0.522800  0.041000  0.726000  1.0  -0.5781
  O  O538  1  0.570700  0.194100  0.598500  1.0  -0.6151
  O  O539  1  0.603200  0.272300  0.665500  1.0  -0.5503
  O  O540  1  0.448700  0.290500  0.715100  1.0  -0.5884
  O  O541  1  0.519300  0.340400  0.781500  1.0  -0.5995
  O  O542  1  0.542600  0.254100  0.910200  1.0  -0.57
  O  O543  1  0.593400  0.158400  0.908200  1.0  -0.6035
  O  O544  1  0.673000  0.033100  0.932100  1.0  -0.8264
  O  O545  1  0.216160  0.126900  0.331120  1.0  -0.3435
  O  O546  1  0.183200  0.080800  0.448600  1.0  -0.5868
  O  O547  1  0.274000  0.022800  0.459000  1.0  -0.5754
  O  O548  1  0.401500  0.070700  0.305900  1.0  -0.6151
  O  O549  1  0.334500  0.103200  0.227700  1.0  -0.5506
  O  O550  1  0.284900  0.948700  0.209500  1.0  -0.5925
  O  O551  1  0.218500  0.019300  0.159600  1.0  -0.596
  O  O552  1  0.089800  0.042600  0.245900  1.0  -0.5733
  O  O553  1  0.091800  0.093400  0.341600  1.0  -0.6075
  O  O554  1  0.067900  0.173000  0.466900  1.0  -0.8193
  O  O555  1  0.716160  0.373100  0.668880  1.0  -0.346
  O  O556  1  0.683200  0.419200  0.551400  1.0  -0.5861
  O  O557  1  0.774000  0.477200  0.541000  1.0  -0.574
  O  O558  1  0.901500  0.429300  0.694100  1.0  -0.6132
  O  O559  1  0.834500  0.396800  0.772300  1.0  -0.5523
  O  O560  1  0.784900  0.551300  0.790500  1.0  -0.5922
  O  O561  1  0.718500  0.480700  0.840400  1.0  -0.5968
  O  O562  1  0.589800  0.457400  0.754100  1.0  -0.5747
  O  O563  1  0.591800  0.406600  0.658400  1.0  -0.6055
  O  O564  1  0.567900  0.327000  0.533100  1.0  -0.8189
  O  O565  1  0.283840  0.873100  0.831120  1.0  -0.3456
  O  O566  1  0.316800  0.919200  0.948600  1.0  -0.5844
  O  O567  1  0.226000  0.977200  0.959000  1.0  -0.5744
  O  O568  1  0.098500  0.929300  0.805900  1.0  -0.6153
  O  O569  1  0.165500  0.896800  0.727700  1.0  -0.5512
  O  O570  1  0.215100  0.051300  0.709500  1.0  -0.591
  O  O571  1  0.281500  0.980700  0.659600  1.0  -0.5953
  O  O572  1  0.410200  0.957400  0.745900  1.0  -0.5746
  O  O573  1  0.408200  0.906600  0.841600  1.0  -0.6064
  O  O574  1  0.432100  0.827000  0.966900  1.0  -0.8172
  O  O575  1  0.783840  0.626900  0.168880  1.0  -0.3442
  O  O576  1  0.816800  0.580800  0.051400  1.0  -0.5854
  O  O577  1  0.726000  0.522800  0.041000  1.0  -0.5752
  O  O578  1  0.598500  0.570700  0.194100  1.0  -0.6137
  O  O579  1  0.665500  0.603200  0.272300  1.0  -0.5517
  O  O580  1  0.715100  0.448700  0.290500  1.0  -0.593
  O  O581  1  0.781500  0.519300  0.340400  1.0  -0.5975
  O  O582  1  0.910200  0.542600  0.254100  1.0  -0.5743
  O  O583  1  0.908200  0.593400  0.158400  1.0  -0.606
  O  O584  1  0.932100  0.673000  0.033100  1.0  -0.8198
  O  O585  1  0.331120  0.216160  0.126900  1.0  -0.3509
  O  O586  1  0.448600  0.183200  0.080800  1.0  -0.5852
  O  O587  1  0.459000  0.274000  0.022800  1.0  -0.5775
  O  O588  1  0.305900  0.401500  0.070700  1.0  -0.6112
  O  O589  1  0.227700  0.334500  0.103200  1.0  -0.549
  O  O590  1  0.209500  0.284900  0.948700  1.0  -0.5942
  O  O591  1  0.159600  0.218500  0.019300  1.0  -0.5957
  O  O592  1  0.245900  0.089800  0.042600  1.0  -0.5713
  O  O593  1  0.341600  0.091800  0.093400  1.0  -0.6051
  O  O594  1  0.466900  0.067900  0.173000  1.0  -0.8271
  O  O595  1  0.668880  0.716160  0.373100  1.0  -0.3539
  O  O596  1  0.551400  0.683200  0.419200  1.0  -0.5845
  O  O597  1  0.541000  0.774000  0.477200  1.0  -0.5764
  O  O598  1  0.694100  0.901500  0.429300  1.0  -0.6121
  O  O599  1  0.772300  0.834500  0.396800  1.0  -0.5497
  O  O600  1  0.790500  0.784900  0.551300  1.0  -0.5952
  O  O601  1  0.840400  0.718500  0.480700  1.0  -0.5953
  O  O602  1  0.754100  0.589800  0.457400  1.0  -0.5707
  O  O603  1  0.658400  0.591800  0.406600  1.0  -0.6042
  O  O604  1  0.533100  0.567900  0.327000  1.0  -0.8289
  O  O605  1  0.831120  0.283840  0.873100  1.0  -0.3541
  O  O606  1  0.948600  0.316800  0.919200  1.0  -0.5856
  O  O607  1  0.959000  0.226000  0.977200  1.0  -0.5797
  O  O608  1  0.805900  0.098500  0.929300  1.0  -0.6123
  O  O609  1  0.727700  0.165500  0.896800  1.0  -0.5481
  O  O610  1  0.709500  0.215100  0.051300  1.0  -0.5947
  O  O611  1  0.659600  0.281500  0.980700  1.0  -0.5952
  O  O612  1  0.745900  0.410200  0.957400  1.0  -0.5716
  O  O613  1  0.841600  0.408200  0.906600  1.0  -0.6052
  O  O614  1  0.966900  0.432100  0.827000  1.0  -0.8275
  O  O615  1  0.168880  0.783840  0.626900  1.0  -0.3505
  O  O616  1  0.051400  0.816800  0.580800  1.0  -0.5848
  O  O617  1  0.041000  0.726000  0.522800  1.0  -0.5784
  O  O618  1  0.194100  0.598500  0.570700  1.0  -0.6112
  O  O619  1  0.272300  0.665500  0.603200  1.0  -0.5503
  O  O620  1  0.290500  0.715100  0.448700  1.0  -0.5937
  O  O621  1  0.340400  0.781500  0.519300  1.0  -0.5967
  O  O622  1  0.254100  0.910200  0.542600  1.0  -0.5718
  O  O623  1  0.158400  0.908200  0.593400  1.0  -0.605
  O  O624  1  0.033100  0.932100  0.673000  1.0  -0.8265
