# generated using pymatgen
data_CoH3C4O5
_symmetry_space_group_name_H-M   'P 1'
_cell_length_a   20.49500000
_cell_length_b   20.49500000
_cell_length_c   20.49500000
_cell_angle_alpha   90.00000000
_cell_angle_beta   90.00000000
_cell_angle_gamma   90.00000000
_symmetry_Int_Tables_number   1
_chemical_formula_structural   CoH3C4O5
_chemical_formula_sum   'Co48 H144 C192 O240'
_cell_volume   8608.82278738
_cell_formula_units_Z   48
loop_
 _symmetry_equiv_pos_site_id
 _symmetry_equiv_pos_as_xyz
  1  'x, y, z'
loop_
 _atom_site_type_symbol
 _atom_site_label
 _atom_site_symmetry_multiplicity
 _atom_site_fract_x
 _atom_site_fract_y
 _atom_site_fract_z
 _atom_site_occupancy
 _atom_site_charge
  Co  Co1  1  0.838540  0.601750  0.856820  1.0  1.0409
  Co  Co2  1  0.993740  0.439190  0.724190  1.0  1.1032
  Co  Co3  1  0.661460  0.398250  0.356820  1.0  1.0392
  Co  Co4  1  0.506260  0.560810  0.224190  1.0  1.1022
  Co  Co5  1  0.161460  0.101750  0.643180  1.0  1.0382
  Co  Co6  1  0.006260  0.939190  0.775810  1.0  1.0996
  Co  Co7  1  0.338540  0.898250  0.143180  1.0  1.0413
  Co  Co8  1  0.493740  0.060810  0.275810  1.0  1.1022
  Co  Co9  1  0.856820  0.838540  0.601750  1.0  1.0427
  Co  Co10  1  0.724190  0.993740  0.439190  1.0  1.0956
  Co  Co11  1  0.356820  0.661460  0.398250  1.0  1.0432
  Co  Co12  1  0.224190  0.506260  0.560810  1.0  1.0946
  Co  Co13  1  0.643180  0.161460  0.101750  1.0  1.042
  Co  Co14  1  0.775810  0.006260  0.939190  1.0  1.1001
  Co  Co15  1  0.143180  0.338540  0.898250  1.0  1.042
  Co  Co16  1  0.275810  0.493740  0.060810  1.0  1.102
  Co  Co17  1  0.601750  0.856820  0.838540  1.0  1.0418
  Co  Co18  1  0.439190  0.724190  0.993740  1.0  1.1001
  Co  Co19  1  0.398250  0.356820  0.661460  1.0  1.042
  Co  Co20  1  0.560810  0.224190  0.506260  1.0  1.102
  Co  Co21  1  0.101750  0.643180  0.161460  1.0  1.0422
  Co  Co22  1  0.939190  0.775810  0.006260  1.0  1.1064
  Co  Co23  1  0.898250  0.143180  0.338540  1.0  1.0416
  Co  Co24  1  0.060810  0.275810  0.493740  1.0  1.1042
  Co  Co25  1  0.161460  0.398250  0.143180  1.0  1.0389
  Co  Co26  1  0.006260  0.560810  0.275810  1.0  1.0995
  Co  Co27  1  0.338540  0.601750  0.643180  1.0  1.0407
  Co  Co28  1  0.493740  0.439190  0.775810  1.0  1.1039
  Co  Co29  1  0.838540  0.898250  0.356820  1.0  1.0417
  Co  Co30  1  0.993740  0.060810  0.224190  1.0  1.1032
  Co  Co31  1  0.661460  0.101750  0.856820  1.0  1.0385
  Co  Co32  1  0.506260  0.939190  0.724190  1.0  1.103
  Co  Co33  1  0.143180  0.161460  0.398250  1.0  1.0423
  Co  Co34  1  0.275810  0.006260  0.560810  1.0  1.1017
  Co  Co35  1  0.643180  0.338540  0.601750  1.0  1.0418
  Co  Co36  1  0.775810  0.493740  0.439190  1.0  1.1046
  Co  Co37  1  0.356820  0.838540  0.898250  1.0  1.043
  Co  Co38  1  0.224190  0.993740  0.060810  1.0  1.0977
  Co  Co39  1  0.856820  0.661460  0.101750  1.0  1.0429
  Co  Co40  1  0.724190  0.506260  0.939190  1.0  1.0955
  Co  Co41  1  0.398250  0.143180  0.161460  1.0  1.0419
  Co  Co42  1  0.560810  0.275810  0.006260  1.0  1.1075
  Co  Co43  1  0.601750  0.643180  0.338540  1.0  1.0419
  Co  Co44  1  0.439190  0.775810  0.493740  1.0  1.1073
  Co  Co45  1  0.898250  0.356820  0.838540  1.0  1.0416
  Co  Co46  1  0.060810  0.224190  0.993740  1.0  1.1006
  Co  Co47  1  0.101750  0.856820  0.661460  1.0  1.0422
  Co  Co48  1  0.939190  0.724190  0.506260  1.0  1.105
  H  H49  1  0.879400  0.622400  0.699000  1.0  0.1369
  H  H50  1  0.997500  0.661500  0.692500  1.0  0.1338
  H  H51  1  0.007900  0.699500  0.793600  1.0  0.1315
  H  H52  1  0.888400  0.763100  0.805400  1.0  0.1265
  H  H53  1  0.853200  0.494900  0.922900  1.0  0.2801
  H  H54  1  0.841700  0.551900  0.973000  1.0  0.2812
  H  H55  1  0.620600  0.377600  0.199000  1.0  0.1368
  H  H56  1  0.502500  0.338500  0.192500  1.0  0.1331
  H  H57  1  0.492100  0.300500  0.293600  1.0  0.1313
  H  H58  1  0.611600  0.236900  0.305400  1.0  0.1263
  H  H59  1  0.646800  0.505100  0.422900  1.0  0.2807
  H  H60  1  0.658300  0.448100  0.473000  1.0  0.2809
  H  H61  1  0.120600  0.122400  0.801000  1.0  0.1369
  H  H62  1  0.002500  0.161500  0.807500  1.0  0.1333
  H  H63  1  0.992100  0.199500  0.706400  1.0  0.132
  H  H64  1  0.111600  0.263100  0.694600  1.0  0.1262
  H  H65  1  0.146800  0.994900  0.577100  1.0  0.2806
  H  H66  1  0.158300  0.051900  0.527000  1.0  0.2807
  H  H67  1  0.379400  0.877600  0.301000  1.0  0.1371
  H  H68  1  0.497500  0.838500  0.307500  1.0  0.1334
  H  H69  1  0.507900  0.800500  0.206400  1.0  0.1328
  H  H70  1  0.388400  0.736900  0.194600  1.0  0.1261
  H  H71  1  0.353200  0.005100  0.077100  1.0  0.2805
  H  H72  1  0.341700  0.948100  0.027000  1.0  0.2793
  H  H73  1  0.699000  0.879400  0.622400  1.0  0.1365
  H  H74  1  0.692500  0.997500  0.661500  1.0  0.1339
  H  H75  1  0.793600  0.007900  0.699500  1.0  0.1308
  H  H76  1  0.805400  0.888400  0.763100  1.0  0.1242
  H  H77  1  0.922900  0.853200  0.494900  1.0  0.2781
  H  H78  1  0.973000  0.841700  0.551900  1.0  0.28
  H  H79  1  0.199000  0.620600  0.377600  1.0  0.1365
  H  H80  1  0.192500  0.502500  0.338500  1.0  0.1344
  H  H81  1  0.293600  0.492100  0.300500  1.0  0.131
  H  H82  1  0.305400  0.611600  0.236900  1.0  0.1243
  H  H83  1  0.422900  0.646800  0.505100  1.0  0.2779
  H  H84  1  0.473000  0.658300  0.448100  1.0  0.2805
  H  H85  1  0.801000  0.120600  0.122400  1.0  0.1366
  H  H86  1  0.807500  0.002500  0.161500  1.0  0.1341
  H  H87  1  0.706400  0.992100  0.199500  1.0  0.131
  H  H88  1  0.694600  0.111600  0.263100  1.0  0.1243
  H  H89  1  0.577100  0.146800  0.994900  1.0  0.2777
  H  H90  1  0.527000  0.158300  0.051900  1.0  0.2811
  H  H91  1  0.301000  0.379400  0.877600  1.0  0.1365
  H  H92  1  0.307500  0.497500  0.838500  1.0  0.1339
  H  H93  1  0.206400  0.507900  0.800500  1.0  0.1308
  H  H94  1  0.194600  0.388400  0.736900  1.0  0.1248
  H  H95  1  0.077100  0.353200  0.005100  1.0  0.2788
  H  H96  1  0.027000  0.341700  0.948100  1.0  0.282
  H  H97  1  0.622400  0.699000  0.879400  1.0  0.1384
  H  H98  1  0.661500  0.692500  0.997500  1.0  0.1335
  H  H99  1  0.699500  0.793600  0.007900  1.0  0.1319
  H  H100  1  0.763100  0.805400  0.888400  1.0  0.1267
  H  H101  1  0.494900  0.922900  0.853200  1.0  0.2803
  H  H102  1  0.551900  0.973000  0.841700  1.0  0.2805
  H  H103  1  0.377600  0.199000  0.620600  1.0  0.1392
  H  H104  1  0.338500  0.192500  0.502500  1.0  0.1338
  H  H105  1  0.300500  0.293600  0.492100  1.0  0.1331
  H  H106  1  0.236900  0.305400  0.611600  1.0  0.1258
  H  H107  1  0.505100  0.422900  0.646800  1.0  0.2787
  H  H108  1  0.448100  0.473000  0.658300  1.0  0.2805
  H  H109  1  0.122400  0.801000  0.120600  1.0  0.138
  H  H110  1  0.161500  0.807500  0.002500  1.0  0.1338
  H  H111  1  0.199500  0.706400  0.992100  1.0  0.1331
  H  H112  1  0.263100  0.694600  0.111600  1.0  0.1262
  H  H113  1  0.994900  0.577100  0.146800  1.0  0.2798
  H  H114  1  0.051900  0.527000  0.158300  1.0  0.2802
  H  H115  1  0.877600  0.301000  0.379400  1.0  0.1382
  H  H116  1  0.838500  0.307500  0.497500  1.0  0.1327
  H  H117  1  0.800500  0.206400  0.507900  1.0  0.1325
  H  H118  1  0.736900  0.194600  0.388400  1.0  0.1261
  H  H119  1  0.005100  0.077100  0.353200  1.0  0.2794
  H  H120  1  0.948100  0.027000  0.341700  1.0  0.2804
  H  H121  1  0.120600  0.377600  0.301000  1.0  0.1368
  H  H122  1  0.002500  0.338500  0.307500  1.0  0.1326
  H  H123  1  0.992100  0.300500  0.206400  1.0  0.1321
  H  H124  1  0.111600  0.236900  0.194600  1.0  0.126
  H  H125  1  0.146800  0.505100  0.077100  1.0  0.2811
  H  H126  1  0.158300  0.448100  0.027000  1.0  0.2805
  H  H127  1  0.379400  0.622400  0.801000  1.0  0.1371
  H  H128  1  0.497500  0.661500  0.807500  1.0  0.1338
  H  H129  1  0.507900  0.699500  0.706400  1.0  0.1327
  H  H130  1  0.388400  0.763100  0.694600  1.0  0.1263
  H  H131  1  0.353200  0.494900  0.577100  1.0  0.2805
  H  H132  1  0.341700  0.551900  0.527000  1.0  0.2796
  H  H133  1  0.879400  0.877600  0.199000  1.0  0.1372
  H  H134  1  0.997500  0.838500  0.192500  1.0  0.1339
  H  H135  1  0.007900  0.800500  0.293600  1.0  0.1315
  H  H136  1  0.888400  0.736900  0.305400  1.0  0.1264
  H  H137  1  0.853200  0.005100  0.422900  1.0  0.2798
  H  H138  1  0.841700  0.948100  0.473000  1.0  0.2797
  H  H139  1  0.620600  0.122400  0.699000  1.0  0.1367
  H  H140  1  0.502500  0.161500  0.692500  1.0  0.1329
  H  H141  1  0.492100  0.199500  0.793600  1.0  0.1312
  H  H142  1  0.611600  0.263100  0.805400  1.0  0.1263
  H  H143  1  0.646800  0.994900  0.922900  1.0  0.2807
  H  H144  1  0.658300  0.051900  0.973000  1.0  0.282
  H  H145  1  0.301000  0.120600  0.377600  1.0  0.1361
  H  H146  1  0.307500  0.002500  0.338500  1.0  0.135
  H  H147  1  0.206400  0.992100  0.300500  1.0  0.131
  H  H148  1  0.194600  0.111600  0.236900  1.0  0.1244
  H  H149  1  0.077100  0.146800  0.505100  1.0  0.2794
  H  H150  1  0.027000  0.158300  0.448100  1.0  0.282
  H  H151  1  0.801000  0.379400  0.622400  1.0  0.1365
  H  H152  1  0.807500  0.497500  0.661500  1.0  0.1335
  H  H153  1  0.706400  0.507900  0.699500  1.0  0.131
  H  H154  1  0.694600  0.388400  0.763100  1.0  0.1247
  H  H155  1  0.577100  0.353200  0.494900  1.0  0.2784
  H  H156  1  0.527000  0.341700  0.551900  1.0  0.2811
  H  H157  1  0.199000  0.879400  0.877600  1.0  0.1366
  H  H158  1  0.192500  0.997500  0.838500  1.0  0.1339
  H  H159  1  0.293600  0.007900  0.800500  1.0  0.1304
  H  H160  1  0.305400  0.888400  0.736900  1.0  0.1244
  H  H161  1  0.422900  0.853200  0.005100  1.0  0.2779
  H  H162  1  0.473000  0.841700  0.948100  1.0  0.2803
  H  H163  1  0.699000  0.620600  0.122400  1.0  0.1368
  H  H164  1  0.692500  0.502500  0.161500  1.0  0.1336
  H  H165  1  0.793600  0.492100  0.199500  1.0  0.1313
  H  H166  1  0.805400  0.611600  0.263100  1.0  0.1241
  H  H167  1  0.922900  0.646800  0.994900  1.0  0.2768
  H  H168  1  0.973000  0.658300  0.051900  1.0  0.2801
  H  H169  1  0.377600  0.301000  0.120600  1.0  0.1381
  H  H170  1  0.338500  0.307500  0.002500  1.0  0.134
  H  H171  1  0.300500  0.206400  0.992100  1.0  0.1334
  H  H172  1  0.236900  0.194600  0.111600  1.0  0.1258
  H  H173  1  0.505100  0.077100  0.146800  1.0  0.2788
  H  H174  1  0.448100  0.027000  0.158300  1.0  0.2801
  H  H175  1  0.622400  0.801000  0.379400  1.0  0.1381
  H  H176  1  0.661500  0.807500  0.497500  1.0  0.1329
  H  H177  1  0.699500  0.706400  0.507900  1.0  0.1323
  H  H178  1  0.763100  0.694600  0.388400  1.0  0.1265
  H  H179  1  0.494900  0.577100  0.353200  1.0  0.28
  H  H180  1  0.551900  0.527000  0.341700  1.0  0.281
  H  H181  1  0.877600  0.199000  0.879400  1.0  0.1383
  H  H182  1  0.838500  0.192500  0.997500  1.0  0.133
  H  H183  1  0.800500  0.293600  0.007900  1.0  0.1319
  H  H184  1  0.736900  0.305400  0.888400  1.0  0.1265
  H  H185  1  0.005100  0.422900  0.853200  1.0  0.2794
  H  H186  1  0.948100  0.473000  0.841700  1.0  0.2802
  H  H187  1  0.122400  0.699000  0.620600  1.0  0.1391
  H  H188  1  0.161500  0.692500  0.502500  1.0  0.1338
  H  H189  1  0.199500  0.793600  0.492100  1.0  0.1329
  H  H190  1  0.263100  0.805400  0.611600  1.0  0.1261
  H  H191  1  0.994900  0.922900  0.646800  1.0  0.2798
  H  H192  1  0.051900  0.973000  0.658300  1.0  0.2804
  C  C193  1  0.909400  0.633900  0.734400  1.0  0.0861
  C  C194  1  0.938400  0.571000  0.762000  1.0  0.7015
  C  C195  1  0.958300  0.683700  0.708500  1.0  -0.1547
  C  C196  1  0.925900  0.721200  0.653100  1.0  0.7033
  C  C197  1  0.974600  0.723800  0.769400  1.0  -0.1506
  C  C198  1  0.003600  0.791800  0.753700  1.0  0.6803
  C  C199  1  0.911900  0.721800  0.810300  1.0  0.0841
  C  C200  1  0.925800  0.709500  0.882000  1.0  0.69
  C  C201  1  0.590600  0.366100  0.234400  1.0  0.0881
  C  C202  1  0.561600  0.429000  0.262000  1.0  0.6998
  C  C203  1  0.541700  0.316300  0.208500  1.0  -0.1532
  C  C204  1  0.574100  0.278800  0.153100  1.0  0.7036
  C  C205  1  0.525400  0.276200  0.269400  1.0  -0.1518
  C  C206  1  0.496400  0.208200  0.253700  1.0  0.6824
  C  C207  1  0.588100  0.278200  0.310300  1.0  0.0849
  C  C208  1  0.574200  0.290500  0.382000  1.0  0.6913
  C  C209  1  0.090600  0.133900  0.765600  1.0  0.0884
  C  C210  1  0.061600  0.071000  0.738000  1.0  0.6996
  C  C211  1  0.041700  0.183700  0.791500  1.0  -0.1532
  C  C212  1  0.074100  0.221200  0.846900  1.0  0.7037
  C  C213  1  0.025400  0.223800  0.730600  1.0  -0.153
  C  C214  1  0.996400  0.291800  0.746300  1.0  0.6838
  C  C215  1  0.088100  0.221800  0.689700  1.0  0.0853
  C  C216  1  0.074200  0.209500  0.618000  1.0  0.6899
  C  C217  1  0.409400  0.866100  0.265600  1.0  0.0879
  C  C218  1  0.438400  0.929000  0.238000  1.0  0.7005
  C  C219  1  0.458300  0.816300  0.291500  1.0  -0.1534
  C  C220  1  0.425900  0.778800  0.346900  1.0  0.7033
  C  C221  1  0.474600  0.776200  0.230600  1.0  -0.1518
  C  C222  1  0.503600  0.708200  0.246300  1.0  0.6824
  C  C223  1  0.411900  0.778200  0.189700  1.0  0.0836
  C  C224  1  0.425800  0.790500  0.118000  1.0  0.6891
  C  C225  1  0.734400  0.909400  0.633900  1.0  0.0837
  C  C226  1  0.762000  0.938400  0.571000  1.0  0.7027
  C  C227  1  0.708500  0.958300  0.683700  1.0  -0.1562
  C  C228  1  0.653100  0.925900  0.721200  1.0  0.7015
  C  C229  1  0.769400  0.974600  0.723800  1.0  -0.154
  C  C230  1  0.753700  0.003600  0.791800  1.0  0.6814
  C  C231  1  0.810300  0.911900  0.721800  1.0  0.086
  C  C232  1  0.882000  0.925800  0.709500  1.0  0.6878
  C  C233  1  0.234400  0.590600  0.366100  1.0  0.0846
  C  C234  1  0.262000  0.561600  0.429000  1.0  0.6994
  C  C235  1  0.208500  0.541700  0.316300  1.0  -0.1567
  C  C236  1  0.153100  0.574100  0.278800  1.0  0.7
  C  C237  1  0.269400  0.525400  0.276200  1.0  -0.1537
  C  C238  1  0.253700  0.496400  0.208200  1.0  0.686
  C  C239  1  0.310300  0.588100  0.278200  1.0  0.0845
  C  C240  1  0.382000  0.574200  0.290500  1.0  0.6882
  C  C241  1  0.765600  0.090600  0.133900  1.0  0.0845
  C  C242  1  0.738000  0.061600  0.071000  1.0  0.7018
  C  C243  1  0.791500  0.041700  0.183700  1.0  -0.1567
  C  C244  1  0.846900  0.074100  0.221200  1.0  0.702
  C  C245  1  0.730600  0.025400  0.223800  1.0  -0.1529
  C  C246  1  0.746300  0.996400  0.291800  1.0  0.685
  C  C247  1  0.689700  0.088100  0.221800  1.0  0.0849
  C  C248  1  0.618000  0.074200  0.209500  1.0  0.6881
  C  C249  1  0.265600  0.409400  0.866100  1.0  0.0848
  C  C250  1  0.238000  0.438400  0.929000  1.0  0.7
  C  C251  1  0.291500  0.458300  0.816300  1.0  -0.155
  C  C252  1  0.346900  0.425900  0.778800  1.0  0.7027
  C  C253  1  0.230600  0.474600  0.776200  1.0  -0.1531
  C  C254  1  0.246300  0.503600  0.708200  1.0  0.6849
  C  C255  1  0.189700  0.411900  0.778200  1.0  0.0844
  C  C256  1  0.118000  0.425800  0.790500  1.0  0.6885
  C  C257  1  0.633900  0.734400  0.909400  1.0  0.0821
  C  C258  1  0.571000  0.762000  0.938400  1.0  0.6991
  C  C259  1  0.683700  0.708500  0.958300  1.0  -0.1539
  C  C260  1  0.721200  0.653100  0.925900  1.0  0.703
  C  C261  1  0.723800  0.769400  0.974600  1.0  -0.1482
  C  C262  1  0.791800  0.753700  0.003600  1.0  0.6832
  C  C263  1  0.721800  0.810300  0.911900  1.0  0.0835
  C  C264  1  0.709500  0.882000  0.925800  1.0  0.6888
  C  C265  1  0.366100  0.234400  0.590600  1.0  0.0841
  C  C266  1  0.429000  0.262000  0.561600  1.0  0.7014
  C  C267  1  0.316300  0.208500  0.541700  1.0  -0.1549
  C  C268  1  0.278800  0.153100  0.574100  1.0  0.7041
  C  C269  1  0.276200  0.269400  0.525400  1.0  -0.1485
  C  C270  1  0.208200  0.253700  0.496400  1.0  0.6836
  C  C271  1  0.278200  0.310300  0.588100  1.0  0.0843
  C  C272  1  0.290500  0.382000  0.574200  1.0  0.6898
  C  C273  1  0.133900  0.765600  0.090600  1.0  0.0838
  C  C274  1  0.071000  0.738000  0.061600  1.0  0.6992
  C  C275  1  0.183700  0.791500  0.041700  1.0  -0.1543
  C  C276  1  0.221200  0.846900  0.074100  1.0  0.7009
  C  C277  1  0.223800  0.730600  0.025400  1.0  -0.1489
  C  C278  1  0.291800  0.746300  0.996400  1.0  0.6831
  C  C279  1  0.221800  0.689700  0.088100  1.0  0.0841
  C  C280  1  0.209500  0.618000  0.074200  1.0  0.6887
  C  C281  1  0.866100  0.265600  0.409400  1.0  0.084
  C  C282  1  0.929000  0.238000  0.438400  1.0  0.7021
  C  C283  1  0.816300  0.291500  0.458300  1.0  -0.1538
  C  C284  1  0.778800  0.346900  0.425900  1.0  0.7028
  C  C285  1  0.776200  0.230600  0.474600  1.0  -0.1486
  C  C286  1  0.708200  0.246300  0.503600  1.0  0.6839
  C  C287  1  0.778200  0.189700  0.411900  1.0  0.0831
  C  C288  1  0.790500  0.118000  0.425800  1.0  0.6897
  C  C289  1  0.090600  0.366100  0.265600  1.0  0.0889
  C  C290  1  0.061600  0.429000  0.238000  1.0  0.6998
  C  C291  1  0.041700  0.316300  0.291500  1.0  -0.1527
  C  C292  1  0.074100  0.278800  0.346900  1.0  0.7041
  C  C293  1  0.025400  0.276200  0.230600  1.0  -0.1529
  C  C294  1  0.996400  0.208200  0.246300  1.0  0.6845
  C  C295  1  0.088100  0.278200  0.189700  1.0  0.0849
  C  C296  1  0.074200  0.290500  0.118000  1.0  0.6899
  C  C297  1  0.409400  0.633900  0.765600  1.0  0.0879
  C  C298  1  0.438400  0.571000  0.738000  1.0  0.701
  C  C299  1  0.458300  0.683700  0.791500  1.0  -0.1539
  C  C300  1  0.425900  0.721200  0.846900  1.0  0.7031
  C  C301  1  0.474600  0.723800  0.730600  1.0  -0.1511
  C  C302  1  0.503600  0.791800  0.746300  1.0  0.6814
  C  C303  1  0.411900  0.721800  0.689700  1.0  0.0842
  C  C304  1  0.425800  0.709500  0.618000  1.0  0.6891
  C  C305  1  0.909400  0.866100  0.234400  1.0  0.0868
  C  C306  1  0.938400  0.929000  0.262000  1.0  0.7009
  C  C307  1  0.958300  0.816300  0.208500  1.0  -0.154
  C  C308  1  0.925900  0.778800  0.153100  1.0  0.7039
  C  C309  1  0.974600  0.776200  0.269400  1.0  -0.1507
  C  C310  1  0.003600  0.708200  0.253700  1.0  0.6816
  C  C311  1  0.911900  0.778200  0.310300  1.0  0.0835
  C  C312  1  0.925800  0.790500  0.382000  1.0  0.6903
  C  C313  1  0.590600  0.133900  0.734400  1.0  0.0868
  C  C314  1  0.561600  0.071000  0.762000  1.0  0.6997
  C  C315  1  0.541700  0.183700  0.708500  1.0  -0.154
  C  C316  1  0.574100  0.221200  0.653100  1.0  0.7032
  C  C317  1  0.525400  0.223800  0.769400  1.0  -0.1527
  C  C318  1  0.496400  0.291800  0.753700  1.0  0.6815
  C  C319  1  0.588100  0.221800  0.810300  1.0  0.0853
  C  C320  1  0.574200  0.209500  0.882000  1.0  0.691
  C  C321  1  0.265600  0.090600  0.366100  1.0  0.0849
  C  C322  1  0.238000  0.061600  0.429000  1.0  0.6999
  C  C323  1  0.291500  0.041700  0.316300  1.0  -0.1559
  C  C324  1  0.346900  0.074100  0.278800  1.0  0.7019
  C  C325  1  0.230600  0.025400  0.276200  1.0  -0.1526
  C  C326  1  0.246300  0.996400  0.208200  1.0  0.6866
  C  C327  1  0.189700  0.088100  0.278200  1.0  0.0838
  C  C328  1  0.118000  0.074200  0.290500  1.0  0.6883
  C  C329  1  0.765600  0.409400  0.633900  1.0  0.0847
  C  C330  1  0.738000  0.438400  0.571000  1.0  0.7029
  C  C331  1  0.791500  0.458300  0.683700  1.0  -0.1556
  C  C332  1  0.846900  0.425900  0.721200  1.0  0.7029
  C  C333  1  0.730600  0.474600  0.723800  1.0  -0.1537
  C  C334  1  0.746300  0.503600  0.791800  1.0  0.6821
  C  C335  1  0.689700  0.411900  0.721800  1.0  0.0857
  C  C336  1  0.618000  0.425800  0.709500  1.0  0.6881
  C  C337  1  0.234400  0.909400  0.866100  1.0  0.0844
  C  C338  1  0.262000  0.938400  0.929000  1.0  0.6996
  C  C339  1  0.208500  0.958300  0.816300  1.0  -0.1558
  C  C340  1  0.153100  0.925900  0.778800  1.0  0.701
  C  C341  1  0.269400  0.974600  0.776200  1.0  -0.1537
  C  C342  1  0.253700  0.003600  0.708200  1.0  0.6836
  C  C343  1  0.310300  0.911900  0.778200  1.0  0.0854
  C  C344  1  0.382000  0.925800  0.790500  1.0  0.688
  C  C345  1  0.734400  0.590600  0.133900  1.0  0.0838
  C  C346  1  0.762000  0.561600  0.071000  1.0  0.7016
  C  C347  1  0.708500  0.541700  0.183700  1.0  -0.1574
  C  C348  1  0.653100  0.574100  0.221200  1.0  0.7001
  C  C349  1  0.769400  0.525400  0.223800  1.0  -0.1539
  C  C350  1  0.753700  0.496400  0.291800  1.0  0.6845
  C  C351  1  0.810300  0.588100  0.221800  1.0  0.0854
  C  C352  1  0.882000  0.574200  0.209500  1.0  0.6881
  C  C353  1  0.366100  0.265600  0.090600  1.0  0.0847
  C  C354  1  0.429000  0.238000  0.061600  1.0  0.7016
  C  C355  1  0.316300  0.291500  0.041700  1.0  -0.1542
  C  C356  1  0.278800  0.346900  0.074100  1.0  0.7022
  C  C357  1  0.276200  0.230600  0.025400  1.0  -0.1494
  C  C358  1  0.208200  0.246300  0.996400  1.0  0.6842
  C  C359  1  0.278200  0.189700  0.088100  1.0  0.0841
  C  C360  1  0.290500  0.118000  0.074200  1.0  0.6897
  C  C361  1  0.633900  0.765600  0.409400  1.0  0.0831
  C  C362  1  0.571000  0.738000  0.438400  1.0  0.6989
  C  C363  1  0.683700  0.791500  0.458300  1.0  -0.1541
  C  C364  1  0.721200  0.846900  0.425900  1.0  0.7023
  C  C365  1  0.723800  0.730600  0.474600  1.0  -0.1483
  C  C366  1  0.791800  0.746300  0.503600  1.0  0.684
  C  C367  1  0.721800  0.689700  0.411900  1.0  0.0822
  C  C368  1  0.709500  0.618000  0.425800  1.0  0.6892
  C  C369  1  0.866100  0.234400  0.909400  1.0  0.0837
  C  C370  1  0.929000  0.262000  0.938400  1.0  0.702
  C  C371  1  0.816300  0.208500  0.958300  1.0  -0.154
  C  C372  1  0.778800  0.153100  0.925900  1.0  0.7031
  C  C373  1  0.776200  0.269400  0.974600  1.0  -0.1483
  C  C374  1  0.708200  0.253700  0.003600  1.0  0.6828
  C  C375  1  0.778200  0.310300  0.911900  1.0  0.0837
  C  C376  1  0.790500  0.382000  0.925800  1.0  0.6888
  C  C377  1  0.133900  0.734400  0.590600  1.0  0.0827
  C  C378  1  0.071000  0.762000  0.561600  1.0  0.6993
  C  C379  1  0.183700  0.708500  0.541700  1.0  -0.1545
  C  C380  1  0.221200  0.653100  0.574100  1.0  0.7034
  C  C381  1  0.223800  0.769400  0.525400  1.0  -0.1481
  C  C382  1  0.291800  0.753700  0.496400  1.0  0.6825
  C  C383  1  0.221800  0.810300  0.588100  1.0  0.085
  C  C384  1  0.209500  0.882000  0.574200  1.0  0.6887
  O  O385  1  0.872900  0.669200  0.783900  1.0  -0.3556
  O  O386  1  0.919000  0.551700  0.817000  1.0  -0.5855
  O  O387  1  0.977500  0.541600  0.726800  1.0  -0.5829
  O  O388  1  0.929700  0.694600  0.599000  1.0  -0.6106
  O  O389  1  0.896600  0.772200  0.665700  1.0  -0.5487
  O  O390  1  0.050700  0.790600  0.714900  1.0  -0.5863
  O  O391  1  0.981000  0.840800  0.781800  1.0  -0.5829
  O  O392  1  0.957100  0.753700  0.910600  1.0  -0.582
  O  O393  1  0.906300  0.658400  0.908200  1.0  -0.6043
  O  O394  1  0.827100  0.533300  0.932000  1.0  -0.8306
  O  O395  1  0.627100  0.330800  0.283900  1.0  -0.3539
  O  O396  1  0.581000  0.448300  0.317000  1.0  -0.5858
  O  O397  1  0.522500  0.458400  0.226800  1.0  -0.5825
  O  O398  1  0.570300  0.305400  0.099000  1.0  -0.6125
  O  O399  1  0.603400  0.227800  0.165700  1.0  -0.5507
  O  O400  1  0.449300  0.209400  0.214900  1.0  -0.5875
  O  O401  1  0.519000  0.159200  0.281800  1.0  -0.5852
  O  O402  1  0.542900  0.246300  0.410600  1.0  -0.5798
  O  O403  1  0.593700  0.341600  0.408200  1.0  -0.6044
  O  O404  1  0.672900  0.466700  0.432000  1.0  -0.8303
  O  O405  1  0.127100  0.169200  0.716100  1.0  -0.353
  O  O406  1  0.081000  0.051700  0.683000  1.0  -0.5851
  O  O407  1  0.022500  0.041600  0.773200  1.0  -0.5822
  O  O408  1  0.070300  0.194600  0.901000  1.0  -0.6119
  O  O409  1  0.103400  0.272200  0.834300  1.0  -0.5501
  O  O410  1  0.949300  0.290600  0.785100  1.0  -0.588
  O  O411  1  0.019000  0.340800  0.718200  1.0  -0.5823
  O  O412  1  0.042900  0.253700  0.589400  1.0  -0.5815
  O  O413  1  0.093700  0.158400  0.591800  1.0  -0.6041
  O  O414  1  0.172900  0.033300  0.568000  1.0  -0.8309
  O  O415  1  0.372900  0.830800  0.216100  1.0  -0.3551
  O  O416  1  0.419000  0.948300  0.183000  1.0  -0.5852
  O  O417  1  0.477500  0.958400  0.273200  1.0  -0.5825
  O  O418  1  0.429700  0.805400  0.401000  1.0  -0.6095
  O  O419  1  0.396600  0.727800  0.334300  1.0  -0.5491
  O  O420  1  0.550700  0.709400  0.285100  1.0  -0.5877
  O  O421  1  0.481000  0.659200  0.218200  1.0  -0.5826
  O  O422  1  0.457100  0.746300  0.089400  1.0  -0.5813
  O  O423  1  0.406300  0.841600  0.091800  1.0  -0.6052
  O  O424  1  0.327100  0.966700  0.068000  1.0  -0.831
  O  O425  1  0.783900  0.872900  0.669200  1.0  -0.3515
  O  O426  1  0.817000  0.919000  0.551700  1.0  -0.5827
  O  O427  1  0.726800  0.977500  0.541600  1.0  -0.58
  O  O428  1  0.599000  0.929700  0.694600  1.0  -0.6089
  O  O429  1  0.665700  0.896600  0.772200  1.0  -0.5531
  O  O430  1  0.714900  0.050700  0.790600  1.0  -0.5899
  O  O431  1  0.781800  0.981000  0.840800  1.0  -0.584
  O  O432  1  0.910600  0.957100  0.753700  1.0  -0.5886
  O  O433  1  0.908200  0.906300  0.658400  1.0  -0.6052
  O  O434  1  0.932000  0.827100  0.533300  1.0  -0.8237
  O  O435  1  0.283900  0.627100  0.330800  1.0  -0.351
  O  O436  1  0.317000  0.581000  0.448300  1.0  -0.5835
  O  O437  1  0.226800  0.522500  0.458400  1.0  -0.5805
  O  O438  1  0.099000  0.570300  0.305400  1.0  -0.61
  O  O439  1  0.165700  0.603400  0.227800  1.0  -0.5513
  O  O440  1  0.214900  0.449300  0.209400  1.0  -0.5916
  O  O441  1  0.281800  0.519000  0.159200  1.0  -0.581
  O  O442  1  0.410600  0.542900  0.246300  1.0  -0.5871
  O  O443  1  0.408200  0.593700  0.341600  1.0  -0.6064
  O  O444  1  0.432000  0.672900  0.466700  1.0  -0.8228
  O  O445  1  0.716100  0.127100  0.169200  1.0  -0.3511
  O  O446  1  0.683000  0.081000  0.051700  1.0  -0.5846
  O  O447  1  0.773200  0.022500  0.041600  1.0  -0.5805
  O  O448  1  0.901000  0.070300  0.194600  1.0  -0.6095
  O  O449  1  0.834300  0.103400  0.272200  1.0  -0.5522
  O  O450  1  0.785100  0.949300  0.290600  1.0  -0.5915
  O  O451  1  0.718200  0.019000  0.340800  1.0  -0.582
  O  O452  1  0.589400  0.042900  0.253700  1.0  -0.5882
  O  O453  1  0.591800  0.093700  0.158400  1.0  -0.6059
  O  O454  1  0.568000  0.172900  0.033300  1.0  -0.8255
  O  O455  1  0.216100  0.372900  0.830800  1.0  -0.3515
  O  O456  1  0.183000  0.419000  0.948300  1.0  -0.5839
  O  O457  1  0.273200  0.477500  0.958400  1.0  -0.5791
  O  O458  1  0.401000  0.429700  0.805400  1.0  -0.6107
  O  O459  1  0.334300  0.396600  0.727800  1.0  -0.5521
  O  O460  1  0.285100  0.550700  0.709400  1.0  -0.5901
  O  O461  1  0.218200  0.481000  0.659200  1.0  -0.5813
  O  O462  1  0.089400  0.457100  0.746300  1.0  -0.587
  O  O463  1  0.091800  0.406300  0.841600  1.0  -0.6063
  O  O464  1  0.068000  0.327100  0.966700  1.0  -0.8226
  O  O465  1  0.669200  0.783900  0.872900  1.0  -0.3591
  O  O466  1  0.551700  0.817000  0.919000  1.0  -0.5831
  O  O467  1  0.541600  0.726800  0.977500  1.0  -0.5823
  O  O468  1  0.694600  0.599000  0.929700  1.0  -0.6087
  O  O469  1  0.772200  0.665700  0.896600  1.0  -0.5493
  O  O470  1  0.790600  0.714900  0.050700  1.0  -0.5951
  O  O471  1  0.840800  0.781800  0.981000  1.0  -0.5805
  O  O472  1  0.753700  0.910600  0.957100  1.0  -0.584
  O  O473  1  0.658400  0.908200  0.906300  1.0  -0.6047
  O  O474  1  0.533300  0.932000  0.827100  1.0  -0.8329
  O  O475  1  0.330800  0.283900  0.627100  1.0  -0.357
  O  O476  1  0.448300  0.317000  0.581000  1.0  -0.5841
  O  O477  1  0.458400  0.226800  0.522500  1.0  -0.5822
  O  O478  1  0.305400  0.099000  0.570300  1.0  -0.6085
  O  O479  1  0.227800  0.165700  0.603400  1.0  -0.5493
  O  O480  1  0.209400  0.214900  0.449300  1.0  -0.5918
  O  O481  1  0.159200  0.281800  0.519000  1.0  -0.5808
  O  O482  1  0.246300  0.410600  0.542900  1.0  -0.5827
  O  O483  1  0.341600  0.408200  0.593700  1.0  -0.6054
  O  O484  1  0.466700  0.432000  0.672900  1.0  -0.8313
  O  O485  1  0.169200  0.716100  0.127100  1.0  -0.3571
  O  O486  1  0.051700  0.683000  0.081000  1.0  -0.5835
  O  O487  1  0.041600  0.773200  0.022500  1.0  -0.5808
  O  O488  1  0.194600  0.901000  0.070300  1.0  -0.6085
  O  O489  1  0.272200  0.834300  0.103400  1.0  -0.5508
  O  O490  1  0.290600  0.785100  0.949300  1.0  -0.5928
  O  O491  1  0.340800  0.718200  0.019000  1.0  -0.5812
  O  O492  1  0.253700  0.589400  0.042900  1.0  -0.5842
  O  O493  1  0.158400  0.591800  0.093700  1.0  -0.6054
  O  O494  1  0.033300  0.568000  0.172900  1.0  -0.8329
  O  O495  1  0.830800  0.216100  0.372900  1.0  -0.3597
  O  O496  1  0.948300  0.183000  0.419000  1.0  -0.5824
  O  O497  1  0.958400  0.273200  0.477500  1.0  -0.5817
  O  O498  1  0.805400  0.401000  0.429700  1.0  -0.6075
  O  O499  1  0.727800  0.334300  0.396600  1.0  -0.5486
  O  O500  1  0.709400  0.285100  0.550700  1.0  -0.5948
  O  O501  1  0.659200  0.218200  0.481000  1.0  -0.5802
  O  O502  1  0.746300  0.089400  0.457100  1.0  -0.5841
  O  O503  1  0.841600  0.091800  0.406300  1.0  -0.603
  O  O504  1  0.966700  0.068000  0.327100  1.0  -0.8319
  O  O505  1  0.127100  0.330800  0.216100  1.0  -0.3532
  O  O506  1  0.081000  0.448300  0.183000  1.0  -0.5847
  O  O507  1  0.022500  0.458400  0.273200  1.0  -0.5822
  O  O508  1  0.070300  0.305400  0.401000  1.0  -0.6094
  O  O509  1  0.103400  0.227800  0.334300  1.0  -0.5502
  O  O510  1  0.949300  0.209400  0.285100  1.0  -0.5881
  O  O511  1  0.019000  0.159200  0.218200  1.0  -0.5826
  O  O512  1  0.042900  0.246300  0.089400  1.0  -0.5803
  O  O513  1  0.093700  0.341600  0.091800  1.0  -0.6037
  O  O514  1  0.172900  0.466700  0.068000  1.0  -0.8299
  O  O515  1  0.372900  0.669200  0.716100  1.0  -0.3552
  O  O516  1  0.419000  0.551700  0.683000  1.0  -0.5855
  O  O517  1  0.477500  0.541600  0.773200  1.0  -0.5827
  O  O518  1  0.429700  0.694600  0.901000  1.0  -0.6117
  O  O519  1  0.396600  0.772200  0.834300  1.0  -0.5484
  O  O520  1  0.550700  0.790600  0.785100  1.0  -0.5873
  O  O521  1  0.481000  0.840800  0.718200  1.0  -0.5813
  O  O522  1  0.457100  0.753700  0.589400  1.0  -0.5822
  O  O523  1  0.406300  0.658400  0.591800  1.0  -0.6038
  O  O524  1  0.327100  0.533300  0.568000  1.0  -0.8316
  O  O525  1  0.872900  0.830800  0.283900  1.0  -0.3554
  O  O526  1  0.919000  0.948300  0.317000  1.0  -0.5858
  O  O527  1  0.977500  0.958400  0.226800  1.0  -0.5827
  O  O528  1  0.929700  0.805400  0.099000  1.0  -0.6122
  O  O529  1  0.896600  0.727800  0.165700  1.0  -0.5494
  O  O530  1  0.050700  0.709400  0.214900  1.0  -0.5863
  O  O531  1  0.981000  0.659200  0.281800  1.0  -0.5842
  O  O532  1  0.957100  0.746300  0.410600  1.0  -0.5811
  O  O533  1  0.906300  0.841600  0.408200  1.0  -0.6048
  O  O534  1  0.827100  0.966700  0.432000  1.0  -0.83
  O  O535  1  0.627100  0.169200  0.783900  1.0  -0.3539
  O  O536  1  0.581000  0.051700  0.817000  1.0  -0.5855
  O  O537  1  0.522500  0.041600  0.726800  1.0  -0.5829
  O  O538  1  0.570300  0.194600  0.599000  1.0  -0.6111
  O  O539  1  0.603400  0.272200  0.665700  1.0  -0.5505
  O  O540  1  0.449300  0.290600  0.714900  1.0  -0.5864
  O  O541  1  0.519000  0.340800  0.781800  1.0  -0.585
  O  O542  1  0.542900  0.253700  0.910600  1.0  -0.5818
  O  O543  1  0.593700  0.158400  0.908200  1.0  -0.6027
  O  O544  1  0.672900  0.033300  0.932000  1.0  -0.8315
  O  O545  1  0.216100  0.127100  0.330800  1.0  -0.3508
  O  O546  1  0.183000  0.081000  0.448300  1.0  -0.5845
  O  O547  1  0.273200  0.022500  0.458400  1.0  -0.5801
  O  O548  1  0.401000  0.070300  0.305400  1.0  -0.6104
  O  O549  1  0.334300  0.103400  0.227800  1.0  -0.551
  O  O550  1  0.285100  0.949300  0.209400  1.0  -0.5911
  O  O551  1  0.218200  0.019000  0.159200  1.0  -0.5809
  O  O552  1  0.089400  0.042900  0.246300  1.0  -0.5864
  O  O553  1  0.091800  0.093700  0.341600  1.0  -0.6066
  O  O554  1  0.068000  0.172900  0.466700  1.0  -0.824
  O  O555  1  0.716100  0.372900  0.669200  1.0  -0.3516
  O  O556  1  0.683000  0.419000  0.551700  1.0  -0.5838
  O  O557  1  0.773200  0.477500  0.541600  1.0  -0.5789
  O  O558  1  0.901000  0.429700  0.694600  1.0  -0.6091
  O  O559  1  0.834300  0.396600  0.772200  1.0  -0.5531
  O  O560  1  0.785100  0.550700  0.790600  1.0  -0.5903
  O  O561  1  0.718200  0.481000  0.840800  1.0  -0.5828
  O  O562  1  0.589400  0.457100  0.753700  1.0  -0.5885
  O  O563  1  0.591800  0.406300  0.658400  1.0  -0.6047
  O  O564  1  0.568000  0.327100  0.533300  1.0  -0.824
  O  O565  1  0.283900  0.872900  0.830800  1.0  -0.3514
  O  O566  1  0.317000  0.919000  0.948300  1.0  -0.5829
  O  O567  1  0.226800  0.977500  0.958400  1.0  -0.58
  O  O568  1  0.099000  0.929700  0.805400  1.0  -0.6103
  O  O569  1  0.165700  0.896600  0.727800  1.0  -0.5521
  O  O570  1  0.214900  0.050700  0.709400  1.0  -0.5895
  O  O571  1  0.281800  0.981000  0.659200  1.0  -0.5812
  O  O572  1  0.410600  0.957100  0.746300  1.0  -0.5884
  O  O573  1  0.408200  0.906300  0.841600  1.0  -0.6052
  O  O574  1  0.432000  0.827100  0.966700  1.0  -0.8222
  O  O575  1  0.783900  0.627100  0.169200  1.0  -0.3512
  O  O576  1  0.817000  0.581000  0.051700  1.0  -0.5834
  O  O577  1  0.726800  0.522500  0.041600  1.0  -0.5812
  O  O578  1  0.599000  0.570300  0.194600  1.0  -0.6094
  O  O579  1  0.665700  0.603400  0.272200  1.0  -0.5524
  O  O580  1  0.714900  0.449300  0.290600  1.0  -0.5914
  O  O581  1  0.781800  0.519000  0.340800  1.0  -0.5835
  O  O582  1  0.910600  0.542900  0.253700  1.0  -0.5884
  O  O583  1  0.908200  0.593700  0.158400  1.0  -0.605
  O  O584  1  0.932000  0.672900  0.033300  1.0  -0.8245
  O  O585  1  0.330800  0.216100  0.127100  1.0  -0.3576
  O  O586  1  0.448300  0.183000  0.081000  1.0  -0.5835
  O  O587  1  0.458400  0.273200  0.022500  1.0  -0.5816
  O  O588  1  0.305400  0.401000  0.070300  1.0  -0.6078
  O  O589  1  0.227800  0.334300  0.103400  1.0  -0.5495
  O  O590  1  0.209400  0.285100  0.949300  1.0  -0.5922
  O  O591  1  0.159200  0.218200  0.019000  1.0  -0.5814
  O  O592  1  0.246300  0.089400  0.042900  1.0  -0.583
  O  O593  1  0.341600  0.091800  0.093700  1.0  -0.6044
  O  O594  1  0.466700  0.068000  0.172900  1.0  -0.8321
  O  O595  1  0.669200  0.716100  0.372900  1.0  -0.3594
  O  O596  1  0.551700  0.683000  0.419000  1.0  -0.5823
  O  O597  1  0.541600  0.773200  0.477500  1.0  -0.5813
  O  O598  1  0.694600  0.901000  0.429700  1.0  -0.6087
  O  O599  1  0.772200  0.834300  0.396600  1.0  -0.5497
  O  O600  1  0.790600  0.785100  0.550700  1.0  -0.595
  O  O601  1  0.840800  0.718200  0.481000  1.0  -0.5802
  O  O602  1  0.753700  0.589400  0.457100  1.0  -0.5839
  O  O603  1  0.658400  0.591800  0.406300  1.0  -0.6034
  O  O604  1  0.533300  0.568000  0.327100  1.0  -0.8336
  O  O605  1  0.830800  0.283900  0.872900  1.0  -0.3595
  O  O606  1  0.948300  0.317000  0.919000  1.0  -0.5835
  O  O607  1  0.958400  0.226800  0.977500  1.0  -0.5831
  O  O608  1  0.805400  0.099000  0.929700  1.0  -0.6084
  O  O609  1  0.727800  0.165700  0.896600  1.0  -0.5483
  O  O610  1  0.709400  0.214900  0.050700  1.0  -0.5941
  O  O611  1  0.659200  0.281800  0.981000  1.0  -0.58
  O  O612  1  0.746300  0.410600  0.957100  1.0  -0.5844
  O  O613  1  0.841600  0.408200  0.906300  1.0  -0.6035
  O  O614  1  0.966700  0.432000  0.827100  1.0  -0.832
  O  O615  1  0.169200  0.783900  0.627100  1.0  -0.3566
  O  O616  1  0.051700  0.817000  0.581000  1.0  -0.5837
  O  O617  1  0.041600  0.726800  0.522500  1.0  -0.5819
  O  O618  1  0.194600  0.599000  0.570300  1.0  -0.6081
  O  O619  1  0.272200  0.665700  0.603400  1.0  -0.5505
  O  O620  1  0.290600  0.714900  0.449300  1.0  -0.5922
  O  O621  1  0.340800  0.781800  0.519000  1.0  -0.5812
  O  O622  1  0.253700  0.910600  0.542900  1.0  -0.5841
  O  O623  1  0.158400  0.908200  0.593700  1.0  -0.6052
  O  O624  1  0.033300  0.932000  0.672900  1.0  -0.8315
