# generated using pymatgen
data_Zn9H20(C12O17)2
_symmetry_space_group_name_H-M   'P 1'
_cell_length_a   20.71300000
_cell_length_b   20.71300000
_cell_length_c   20.71300000
_cell_angle_alpha   90.00000000
_cell_angle_beta   90.00000000
_cell_angle_gamma   90.00000000
_symmetry_Int_Tables_number   1
_chemical_formula_structural   Zn9H20(C12O17)2
_chemical_formula_sum   'Zn72 H160 C192 O272'
_cell_volume   8886.46460710
_cell_formula_units_Z   8
loop_
 _symmetry_equiv_pos_site_id
 _symmetry_equiv_pos_as_xyz
  1  'x, y, z'
loop_
 _atom_site_type_symbol
 _atom_site_label
 _atom_site_symmetry_multiplicity
 _atom_site_fract_x
 _atom_site_fract_y
 _atom_site_fract_z
 _atom_site_occupancy
 _atom_site_charge
  Zn  Zn1  1  0.600430  0.852570  0.826600  1.0  0.9937
  Zn  Zn2  1  0.440450  0.736240  0.991840  1.0  0.9848
  Zn  Zn3  1  0.848510  0.881320  0.966170  1.0  0.8537
  Zn  Zn4  1  0.826600  0.600430  0.852570  1.0  0.9946
  Zn  Zn5  1  0.991840  0.440450  0.736240  1.0  1.0016
  Zn  Zn6  1  0.966170  0.848510  0.881320  1.0  0.9174
  Zn  Zn7  1  0.852570  0.826600  0.600430  1.0  0.9939
  Zn  Zn8  1  0.736240  0.991840  0.440450  1.0  0.9902
  Zn  Zn9  1  0.881320  0.966170  0.848510  1.0  0.9296
  Zn  Zn10  1  0.899570  0.147430  0.326600  1.0  0.994
  Zn  Zn11  1  0.059550  0.263760  0.491840  1.0  0.9885
  Zn  Zn12  1  0.651490  0.118680  0.466170  1.0  0.8542
  Zn  Zn13  1  0.673400  0.399570  0.352570  1.0  0.9946
  Zn  Zn14  1  0.508160  0.559550  0.236240  1.0  1.0009
  Zn  Zn15  1  0.533830  0.151490  0.381320  1.0  0.9148
  Zn  Zn16  1  0.647430  0.173400  0.100430  1.0  0.9943
  Zn  Zn17  1  0.763760  0.008160  0.940450  1.0  0.9858
  Zn  Zn18  1  0.618680  0.033830  0.348510  1.0  0.932
  Zn  Zn19  1  0.399570  0.352570  0.673400  1.0  0.9946
  Zn  Zn20  1  0.559550  0.236240  0.508160  1.0  0.9844
  Zn  Zn21  1  0.151490  0.381320  0.533830  1.0  0.8629
  Zn  Zn22  1  0.173400  0.100430  0.647430  1.0  0.9943
  Zn  Zn23  1  0.008160  0.940450  0.763760  1.0  1.0037
  Zn  Zn24  1  0.033830  0.348510  0.618680  1.0  0.9134
  Zn  Zn25  1  0.147430  0.326600  0.899570  1.0  0.9947
  Zn  Zn26  1  0.263760  0.491840  0.059550  1.0  0.9853
  Zn  Zn27  1  0.118680  0.466170  0.651490  1.0  0.9278
  Zn  Zn28  1  0.100430  0.647430  0.173400  1.0  0.9941
  Zn  Zn29  1  0.940450  0.763760  0.008160  1.0  0.9872
  Zn  Zn30  1  0.348510  0.618680  0.033830  1.0  0.8653
  Zn  Zn31  1  0.326600  0.899570  0.147430  1.0  0.9949
  Zn  Zn32  1  0.491840  0.059550  0.263760  1.0  1.0038
  Zn  Zn33  1  0.466170  0.651490  0.118680  1.0  0.9167
  Zn  Zn34  1  0.352570  0.673400  0.399570  1.0  0.9941
  Zn  Zn35  1  0.236240  0.508160  0.559550  1.0  0.9893
  Zn  Zn36  1  0.381320  0.533830  0.151490  1.0  0.9304
  Zn  Zn37  1  0.399570  0.147430  0.173400  1.0  0.9944
  Zn  Zn38  1  0.559550  0.263760  0.008160  1.0  0.988
  Zn  Zn39  1  0.151490  0.118680  0.033830  1.0  0.864
  Zn  Zn40  1  0.173400  0.399570  0.147430  1.0  0.9948
  Zn  Zn41  1  0.008160  0.559550  0.263760  1.0  1.0031
  Zn  Zn42  1  0.033830  0.151490  0.118680  1.0  0.9137
  Zn  Zn43  1  0.147430  0.173400  0.399570  1.0  0.9948
  Zn  Zn44  1  0.263760  0.008160  0.559550  1.0  0.9854
  Zn  Zn45  1  0.118680  0.033830  0.151490  1.0  0.9309
  Zn  Zn46  1  0.100430  0.852570  0.673400  1.0  0.9945
  Zn  Zn47  1  0.940450  0.736240  0.508160  1.0  0.9841
  Zn  Zn48  1  0.348510  0.881320  0.533830  1.0  0.8645
  Zn  Zn49  1  0.326600  0.600430  0.647430  1.0  0.9946
  Zn  Zn50  1  0.491840  0.440450  0.763760  1.0  1.0042
  Zn  Zn51  1  0.466170  0.848510  0.618680  1.0  0.9173
  Zn  Zn52  1  0.352570  0.826600  0.899570  1.0  0.9944
  Zn  Zn53  1  0.236240  0.991840  0.059550  1.0  0.9894
  Zn  Zn54  1  0.381320  0.966170  0.651490  1.0  0.9283
  Zn  Zn55  1  0.600430  0.647430  0.326600  1.0  0.9936
  Zn  Zn56  1  0.440450  0.763760  0.491840  1.0  0.9878
  Zn  Zn57  1  0.848510  0.618680  0.466170  1.0  0.8547
  Zn  Zn58  1  0.826600  0.899570  0.352570  1.0  0.9952
  Zn  Zn59  1  0.991840  0.059550  0.236240  1.0  1.0016
  Zn  Zn60  1  0.966170  0.651490  0.381320  1.0  0.9172
  Zn  Zn61  1  0.852570  0.673400  0.100430  1.0  0.9939
  Zn  Zn62  1  0.736240  0.508160  0.940450  1.0  0.9898
  Zn  Zn63  1  0.881320  0.533830  0.348510  1.0  0.931
  Zn  Zn64  1  0.899570  0.352570  0.826600  1.0  0.9942
  Zn  Zn65  1  0.059550  0.236240  0.991840  1.0  0.9851
  Zn  Zn66  1  0.651490  0.381320  0.966170  1.0  0.853
  Zn  Zn67  1  0.673400  0.100430  0.852570  1.0  0.9946
  Zn  Zn68  1  0.508160  0.940450  0.736240  1.0  1.0
  Zn  Zn69  1  0.533830  0.348510  0.881320  1.0  0.9143
  Zn  Zn70  1  0.647430  0.326600  0.600430  1.0  0.9946
  Zn  Zn71  1  0.763760  0.491840  0.440450  1.0  0.9861
  Zn  Zn72  1  0.618680  0.466170  0.848510  1.0  0.9296
  H  H73  1  0.613780  0.691390  0.875720  1.0  0.1013
  H  H74  1  0.651290  0.690500  0.001810  1.0  0.099
  H  H75  1  0.687460  0.797840  0.007990  1.0  0.1011
  H  H76  1  0.765590  0.797570  0.883050  1.0  0.0919
  H  H77  1  0.974920  0.443300  0.642500  1.0  0.289
  H  H78  1  0.023200  0.491580  0.642500  1.0  0.2801
  H  H79  1  0.181580  0.366700  0.633300  1.0  0.1237
  H  H80  1  0.875720  0.613780  0.691390  1.0  0.1018
  H  H81  1  0.001810  0.651290  0.690500  1.0  0.1014
  H  H82  1  0.007990  0.687460  0.797840  1.0  0.0999
  H  H83  1  0.883050  0.765590  0.797570  1.0  0.0954
  H  H84  1  0.642500  0.974920  0.443300  1.0  0.2871
  H  H85  1  0.642500  0.023200  0.491580  1.0  0.2762
  H  H86  1  0.633300  0.181580  0.366700  1.0  0.1171
  H  H87  1  0.691390  0.875720  0.613780  1.0  0.1023
  H  H88  1  0.690500  0.001810  0.651290  1.0  0.1031
  H  H89  1  0.797840  0.007990  0.687460  1.0  0.1029
  H  H90  1  0.797570  0.883050  0.765590  1.0  0.0984
  H  H91  1  0.443300  0.642500  0.974920  1.0  0.2841
  H  H92  1  0.491580  0.642500  0.023200  1.0  0.2794
  H  H93  1  0.886220  0.308610  0.375720  1.0  0.1012
  H  H94  1  0.848710  0.309500  0.501810  1.0  0.0993
  H  H95  1  0.812540  0.202160  0.507990  1.0  0.1014
  H  H96  1  0.734410  0.202430  0.383050  1.0  0.0921
  H  H97  1  0.525080  0.556700  0.142500  1.0  0.2891
  H  H98  1  0.476800  0.508420  0.142500  1.0  0.2791
  H  H99  1  0.318420  0.633300  0.133300  1.0  0.1218
  H  H100  1  0.624280  0.386220  0.191390  1.0  0.1009
  H  H101  1  0.498190  0.348710  0.190500  1.0  0.1022
  H  H102  1  0.492010  0.312540  0.297840  1.0  0.0996
  H  H103  1  0.616950  0.234410  0.297570  1.0  0.096
  H  H104  1  0.857500  0.025080  0.943300  1.0  0.288
  H  H105  1  0.857500  0.976800  0.991580  1.0  0.2757
  H  H106  1  0.866700  0.818420  0.866700  1.0  0.1173
  H  H107  1  0.808610  0.124280  0.113780  1.0  0.1014
  H  H108  1  0.809500  0.998190  0.151290  1.0  0.1016
  H  H109  1  0.702160  0.992010  0.187460  1.0  0.1017
  H  H110  1  0.702430  0.116950  0.265590  1.0  0.0986
  H  H111  1  0.056700  0.357500  0.474920  1.0  0.2855
  H  H112  1  0.008420  0.357500  0.523200  1.0  0.28
  H  H113  1  0.386220  0.191390  0.624280  1.0  0.1012
  H  H114  1  0.348710  0.190500  0.498190  1.0  0.0994
  H  H115  1  0.312540  0.297840  0.492010  1.0  0.1017
  H  H116  1  0.234410  0.297570  0.616950  1.0  0.092
  H  H117  1  0.025080  0.943300  0.857500  1.0  0.2888
  H  H118  1  0.976800  0.991580  0.857500  1.0  0.2798
  H  H119  1  0.818420  0.866700  0.866700  1.0  0.1218
  H  H120  1  0.124280  0.113780  0.808610  1.0  0.1008
  H  H121  1  0.998190  0.151290  0.809500  1.0  0.1018
  H  H122  1  0.992010  0.187460  0.702160  1.0  0.0994
  H  H123  1  0.116950  0.265590  0.702430  1.0  0.0951
  H  H124  1  0.357500  0.474920  0.056700  1.0  0.287
  H  H125  1  0.357500  0.523200  0.008420  1.0  0.2754
  H  H126  1  0.366700  0.681580  0.133300  1.0  0.116
  H  H127  1  0.308610  0.375720  0.886220  1.0  0.1012
  H  H128  1  0.309500  0.501810  0.848710  1.0  0.1023
  H  H129  1  0.202160  0.507990  0.812540  1.0  0.1027
  H  H130  1  0.202430  0.383050  0.734410  1.0  0.0992
  H  H131  1  0.556700  0.142500  0.525080  1.0  0.2867
  H  H132  1  0.508420  0.142500  0.476800  1.0  0.279
  H  H133  1  0.113780  0.808610  0.124280  1.0  0.101
  H  H134  1  0.151290  0.809500  0.998190  1.0  0.1001
  H  H135  1  0.187460  0.702160  0.992010  1.0  0.1008
  H  H136  1  0.265590  0.702430  0.116950  1.0  0.0921
  H  H137  1  0.474920  0.056700  0.357500  1.0  0.2889
  H  H138  1  0.523200  0.008420  0.357500  1.0  0.2777
  H  H139  1  0.681580  0.133300  0.366700  1.0  0.124
  H  H140  1  0.375720  0.886220  0.308610  1.0  0.1016
  H  H141  1  0.501810  0.848710  0.309500  1.0  0.1012
  H  H142  1  0.507990  0.812540  0.202160  1.0  0.1006
  H  H143  1  0.383050  0.734410  0.202430  1.0  0.0954
  H  H144  1  0.142500  0.525080  0.556700  1.0  0.2886
  H  H145  1  0.142500  0.476800  0.508420  1.0  0.2755
  H  H146  1  0.133300  0.318420  0.633300  1.0  0.1173
  H  H147  1  0.191390  0.624280  0.386220  1.0  0.1018
  H  H148  1  0.190500  0.498190  0.348710  1.0  0.1024
  H  H149  1  0.297840  0.492010  0.312540  1.0  0.1022
  H  H150  1  0.297570  0.616950  0.234410  1.0  0.0994
  H  H151  1  0.943300  0.857500  0.025080  1.0  0.2865
  H  H152  1  0.991580  0.857500  0.976800  1.0  0.2794
  H  H153  1  0.386220  0.308610  0.124280  1.0  0.1012
  H  H154  1  0.348710  0.309500  0.998190  1.0  0.0997
  H  H155  1  0.312540  0.202160  0.992010  1.0  0.1014
  H  H156  1  0.234410  0.202430  0.116950  1.0  0.0922
  H  H157  1  0.025080  0.556700  0.357500  1.0  0.2894
  H  H158  1  0.976800  0.508420  0.357500  1.0  0.2785
  H  H159  1  0.818420  0.633300  0.366700  1.0  0.1215
  H  H160  1  0.124280  0.386220  0.308610  1.0  0.1008
  H  H161  1  0.998190  0.348710  0.309500  1.0  0.1017
  H  H162  1  0.992010  0.312540  0.202160  1.0  0.0999
  H  H163  1  0.116950  0.234410  0.202430  1.0  0.0955
  H  H164  1  0.357500  0.025080  0.556700  1.0  0.2877
  H  H165  1  0.357500  0.976800  0.508420  1.0  0.2751
  H  H166  1  0.366700  0.818420  0.633300  1.0  0.1175
  H  H167  1  0.308610  0.124280  0.386220  1.0  0.1011
  H  H168  1  0.309500  0.998190  0.348710  1.0  0.102
  H  H169  1  0.202160  0.992010  0.312540  1.0  0.1023
  H  H170  1  0.202430  0.116950  0.234410  1.0  0.0994
  H  H171  1  0.556700  0.357500  0.025080  1.0  0.287
  H  H172  1  0.508420  0.357500  0.976800  1.0  0.2794
  H  H173  1  0.113780  0.691390  0.624280  1.0  0.1013
  H  H174  1  0.151290  0.690500  0.498190  1.0  0.0996
  H  H175  1  0.187460  0.797840  0.492010  1.0  0.1008
  H  H176  1  0.265590  0.797570  0.616950  1.0  0.0925
  H  H177  1  0.474920  0.443300  0.857500  1.0  0.2883
  H  H178  1  0.523200  0.491580  0.857500  1.0  0.2794
  H  H179  1  0.681580  0.366700  0.866700  1.0  0.1239
  H  H180  1  0.375720  0.613780  0.808610  1.0  0.1016
  H  H181  1  0.501810  0.651290  0.809500  1.0  0.1013
  H  H182  1  0.507990  0.687460  0.702160  1.0  0.1001
  H  H183  1  0.383050  0.765590  0.702430  1.0  0.0955
  H  H184  1  0.142500  0.974920  0.056700  1.0  0.287
  H  H185  1  0.142500  0.023200  0.008420  1.0  0.2757
  H  H186  1  0.133300  0.181580  0.133300  1.0  0.1171
  H  H187  1  0.191390  0.875720  0.886220  1.0  0.1022
  H  H188  1  0.190500  0.001810  0.848710  1.0  0.1027
  H  H189  1  0.297840  0.007990  0.812540  1.0  0.1028
  H  H190  1  0.297570  0.883050  0.734410  1.0  0.099
  H  H191  1  0.943300  0.642500  0.525080  1.0  0.2862
  H  H192  1  0.991580  0.642500  0.476800  1.0  0.2793
  H  H193  1  0.613780  0.808610  0.375720  1.0  0.1013
  H  H194  1  0.651290  0.809500  0.501810  1.0  0.0993
  H  H195  1  0.687460  0.702160  0.507990  1.0  0.1023
  H  H196  1  0.765590  0.702430  0.383050  1.0  0.0919
  H  H197  1  0.974920  0.056700  0.142500  1.0  0.2896
  H  H198  1  0.023200  0.008420  0.142500  1.0  0.2784
  H  H199  1  0.181580  0.133300  0.133300  1.0  0.1241
  H  H200  1  0.875720  0.886220  0.191390  1.0  0.1018
  H  H201  1  0.001810  0.848710  0.190500  1.0  0.1016
  H  H202  1  0.007990  0.812540  0.297840  1.0  0.0998
  H  H203  1  0.883050  0.734410  0.297570  1.0  0.0956
  H  H204  1  0.642500  0.525080  0.943300  1.0  0.2887
  H  H205  1  0.642500  0.476800  0.991580  1.0  0.276
  H  H206  1  0.633300  0.318420  0.866700  1.0  0.1171
  H  H207  1  0.691390  0.624280  0.113780  1.0  0.1023
  H  H208  1  0.690500  0.498190  0.151290  1.0  0.1021
  H  H209  1  0.797840  0.492010  0.187460  1.0  0.1024
  H  H210  1  0.797570  0.616950  0.265590  1.0  0.0984
  H  H211  1  0.443300  0.857500  0.474920  1.0  0.2849
  H  H212  1  0.491580  0.857500  0.523200  1.0  0.2797
  H  H213  1  0.886220  0.191390  0.875720  1.0  0.1012
  H  H214  1  0.848710  0.190500  0.001810  1.0  0.0992
  H  H215  1  0.812540  0.297840  0.007990  1.0  0.1009
  H  H216  1  0.734410  0.297570  0.883050  1.0  0.0916
  H  H217  1  0.525080  0.943300  0.642500  1.0  0.2889
  H  H218  1  0.476800  0.991580  0.642500  1.0  0.2805
  H  H219  1  0.318420  0.866700  0.633300  1.0  0.1218
  H  H220  1  0.624280  0.113780  0.691390  1.0  0.1012
  H  H221  1  0.498190  0.151290  0.690500  1.0  0.1017
  H  H222  1  0.492010  0.187460  0.797840  1.0  0.0998
  H  H223  1  0.616950  0.265590  0.797570  1.0  0.0954
  H  H224  1  0.857500  0.474920  0.443300  1.0  0.2872
  H  H225  1  0.857500  0.523200  0.491580  1.0  0.276
  H  H226  1  0.866700  0.681580  0.366700  1.0  0.1161
  H  H227  1  0.808610  0.375720  0.613780  1.0  0.1014
  H  H228  1  0.809500  0.501810  0.651290  1.0  0.1023
  H  H229  1  0.702160  0.507990  0.687460  1.0  0.1022
  H  H230  1  0.702430  0.383050  0.765590  1.0  0.0985
  H  H231  1  0.056700  0.142500  0.974920  1.0  0.285
  H  H232  1  0.008420  0.142500  0.023200  1.0  0.2793
  C  C233  1  0.630100  0.733100  0.907700  1.0  0.0621
  C  C234  1  0.570800  0.765800  0.937200  1.0  0.6936
  C  C235  1  0.677600  0.708400  0.956900  1.0  -0.0401
  C  C236  1  0.716400  0.653400  0.925900  1.0  0.6795
  C  C237  1  0.717100  0.768100  0.972400  1.0  -0.0313
  C  C238  1  0.781900  0.754800  0.004800  1.0  0.6873
  C  C239  1  0.717400  0.805600  0.908400  1.0  0.0774
  C  C240  1  0.706600  0.877800  0.917200  1.0  0.6652
  C  C241  1  0.907700  0.630100  0.733100  1.0  0.0628
  C  C242  1  0.937200  0.570800  0.765800  1.0  0.6984
  C  C243  1  0.956900  0.677600  0.708400  1.0  -0.0408
  C  C244  1  0.925900  0.716400  0.653400  1.0  0.6855
  C  C245  1  0.972400  0.717100  0.768100  1.0  -0.0319
  C  C246  1  0.004800  0.781900  0.754800  1.0  0.6865
  C  C247  1  0.908400  0.717400  0.805600  1.0  0.0766
  C  C248  1  0.917200  0.706600  0.877800  1.0  0.6655
  C  C249  1  0.733100  0.907700  0.630100  1.0  0.0628
  C  C250  1  0.765800  0.937200  0.570800  1.0  0.6981
  C  C251  1  0.708400  0.956900  0.677600  1.0  -0.0417
  C  C252  1  0.653400  0.925900  0.716400  1.0  0.6804
  C  C253  1  0.768100  0.972400  0.717100  1.0  -0.0336
  C  C254  1  0.754800  0.004800  0.781900  1.0  0.6864
  C  C255  1  0.805600  0.908400  0.717400  1.0  0.0777
  C  C256  1  0.877800  0.917200  0.706600  1.0  0.6767
  C  C257  1  0.869900  0.266900  0.407700  1.0  0.0626
  C  C258  1  0.929200  0.234200  0.437200  1.0  0.6934
  C  C259  1  0.822400  0.291600  0.456900  1.0  -0.0417
  C  C260  1  0.783600  0.346600  0.425900  1.0  0.6793
  C  C261  1  0.782900  0.231900  0.472400  1.0  -0.03
  C  C262  1  0.718100  0.245200  0.504800  1.0  0.6856
  C  C263  1  0.782600  0.194400  0.408400  1.0  0.077
  C  C264  1  0.793400  0.122200  0.417200  1.0  0.6661
  C  C265  1  0.592300  0.369900  0.233100  1.0  0.0634
  C  C266  1  0.562800  0.429200  0.265800  1.0  0.6971
  C  C267  1  0.543100  0.322400  0.208400  1.0  -0.0405
  C  C268  1  0.574100  0.283600  0.153400  1.0  0.6844
  C  C269  1  0.527600  0.282900  0.268100  1.0  -0.0335
  C  C270  1  0.495200  0.218100  0.254800  1.0  0.6861
  C  C271  1  0.591600  0.282600  0.305600  1.0  0.0774
  C  C272  1  0.582800  0.293400  0.377800  1.0  0.6659
  C  C273  1  0.766900  0.092300  0.130100  1.0  0.0632
  C  C274  1  0.734200  0.062800  0.070800  1.0  0.6979
  C  C275  1  0.791600  0.043100  0.177600  1.0  -0.0418
  C  C276  1  0.846600  0.074100  0.216400  1.0  0.6799
  C  C277  1  0.731900  0.027600  0.217100  1.0  -0.0342
  C  C278  1  0.745200  0.995200  0.281900  1.0  0.6875
  C  C279  1  0.694400  0.091600  0.217400  1.0  0.0777
  C  C280  1  0.622200  0.082800  0.206600  1.0  0.6759
  C  C281  1  0.369900  0.233100  0.592300  1.0  0.063
  C  C282  1  0.429200  0.265800  0.562800  1.0  0.6932
  C  C283  1  0.322400  0.208400  0.543100  1.0  -0.0404
  C  C284  1  0.283600  0.153400  0.574100  1.0  0.6793
  C  C285  1  0.282900  0.268100  0.527600  1.0  -0.0304
  C  C286  1  0.218100  0.254800  0.495200  1.0  0.6857
  C  C287  1  0.282600  0.305600  0.591600  1.0  0.0771
  C  C288  1  0.293400  0.377800  0.582800  1.0  0.6656
  C  C289  1  0.092300  0.130100  0.766900  1.0  0.0644
  C  C290  1  0.062800  0.070800  0.734200  1.0  0.6969
  C  C291  1  0.043100  0.177600  0.791600  1.0  -0.0406
  C  C292  1  0.074100  0.216400  0.846600  1.0  0.6825
  C  C293  1  0.027600  0.217100  0.731900  1.0  -0.0343
  C  C294  1  0.995200  0.281900  0.745200  1.0  0.6863
  C  C295  1  0.091600  0.217400  0.694400  1.0  0.0773
  C  C296  1  0.082800  0.206600  0.622200  1.0  0.6667
  C  C297  1  0.266900  0.407700  0.869900  1.0  0.0638
  C  C298  1  0.234200  0.437200  0.929200  1.0  0.6975
  C  C299  1  0.291600  0.456900  0.822400  1.0  -0.0413
  C  C300  1  0.346600  0.425900  0.783600  1.0  0.6812
  C  C301  1  0.231900  0.472400  0.782900  1.0  -0.034
  C  C302  1  0.245200  0.504800  0.718100  1.0  0.6863
  C  C303  1  0.194400  0.408400  0.782600  1.0  0.0778
  C  C304  1  0.122200  0.417200  0.793400  1.0  0.6756
  C  C305  1  0.130100  0.766900  0.092300  1.0  0.0626
  C  C306  1  0.070800  0.734200  0.062800  1.0  0.6935
  C  C307  1  0.177600  0.791600  0.043100  1.0  -0.0418
  C  C308  1  0.216400  0.846600  0.074100  1.0  0.6761
  C  C309  1  0.217100  0.731900  0.027600  1.0  -0.0299
  C  C310  1  0.281900  0.745200  0.995200  1.0  0.6853
  C  C311  1  0.217400  0.694400  0.091600  1.0  0.077
  C  C312  1  0.206600  0.622200  0.082800  1.0  0.6631
  C  C313  1  0.407700  0.869900  0.266900  1.0  0.063
  C  C314  1  0.437200  0.929200  0.234200  1.0  0.6972
  C  C315  1  0.456900  0.822400  0.291600  1.0  -0.0408
  C  C316  1  0.425900  0.783600  0.346600  1.0  0.6823
  C  C317  1  0.472400  0.782900  0.231900  1.0  -0.0323
  C  C318  1  0.504800  0.718100  0.245200  1.0  0.6862
  C  C319  1  0.408400  0.782600  0.194400  1.0  0.0773
  C  C320  1  0.417200  0.793400  0.122200  1.0  0.6668
  C  C321  1  0.233100  0.592300  0.369900  1.0  0.0621
  C  C322  1  0.265800  0.562800  0.429200  1.0  0.6982
  C  C323  1  0.208400  0.543100  0.322400  1.0  -0.0408
  C  C324  1  0.153400  0.574100  0.283600  1.0  0.6804
  C  C325  1  0.268100  0.527600  0.282900  1.0  -0.0317
  C  C326  1  0.254800  0.495200  0.218100  1.0  0.6859
  C  C327  1  0.305600  0.591600  0.282600  1.0  0.0785
  C  C328  1  0.377800  0.582800  0.293400  1.0  0.6786
  C  C329  1  0.369900  0.266900  0.092300  1.0  0.0627
  C  C330  1  0.429200  0.234200  0.062800  1.0  0.6927
  C  C331  1  0.322400  0.291600  0.043100  1.0  -0.0418
  C  C332  1  0.283600  0.346600  0.074100  1.0  0.677
  C  C333  1  0.282900  0.231900  0.027600  1.0  -0.0301
  C  C334  1  0.218100  0.245200  0.995200  1.0  0.6863
  C  C335  1  0.282600  0.194400  0.091600  1.0  0.0772
  C  C336  1  0.293400  0.122200  0.082800  1.0  0.6652
  C  C337  1  0.092300  0.369900  0.266900  1.0  0.0635
  C  C338  1  0.062800  0.429200  0.234200  1.0  0.6974
  C  C339  1  0.043100  0.322400  0.291600  1.0  -0.0405
  C  C340  1  0.074100  0.283600  0.346600  1.0  0.6823
  C  C341  1  0.027600  0.282900  0.231900  1.0  -0.0342
  C  C342  1  0.995200  0.218100  0.245200  1.0  0.6859
  C  C343  1  0.091600  0.282600  0.194400  1.0  0.0776
  C  C344  1  0.082800  0.293400  0.122200  1.0  0.6673
  C  C345  1  0.266900  0.092300  0.369900  1.0  0.063
  C  C346  1  0.234200  0.062800  0.429200  1.0  0.6975
  C  C347  1  0.291600  0.043100  0.322400  1.0  -0.0409
  C  C348  1  0.346600  0.074100  0.283600  1.0  0.6806
  C  C349  1  0.231900  0.027600  0.282900  1.0  -0.0331
  C  C350  1  0.245200  0.995200  0.218100  1.0  0.686
  C  C351  1  0.194400  0.091600  0.282600  1.0  0.0785
  C  C352  1  0.122200  0.082800  0.293400  1.0  0.6758
  C  C353  1  0.130100  0.733100  0.592300  1.0  0.0628
  C  C354  1  0.070800  0.765800  0.562800  1.0  0.6937
  C  C355  1  0.177600  0.708400  0.543100  1.0  -0.0405
  C  C356  1  0.216400  0.653400  0.574100  1.0  0.6787
  C  C357  1  0.217100  0.768100  0.527600  1.0  -0.0302
  C  C358  1  0.281900  0.754800  0.495200  1.0  0.6848
  C  C359  1  0.217400  0.805600  0.591600  1.0  0.077
  C  C360  1  0.206600  0.877800  0.582800  1.0  0.6653
  C  C361  1  0.407700  0.630100  0.766900  1.0  0.0641
  C  C362  1  0.437200  0.570800  0.734200  1.0  0.6974
  C  C363  1  0.456900  0.677600  0.791600  1.0  -0.0407
  C  C364  1  0.425900  0.716400  0.846600  1.0  0.6823
  C  C365  1  0.472400  0.717100  0.731900  1.0  -0.0321
  C  C366  1  0.504800  0.781900  0.745200  1.0  0.6864
  C  C367  1  0.408400  0.717400  0.694400  1.0  0.0766
  C  C368  1  0.417200  0.706600  0.622200  1.0  0.667
  C  C369  1  0.233100  0.907700  0.869900  1.0  0.0632
  C  C370  1  0.265800  0.937200  0.929200  1.0  0.6981
  C  C371  1  0.208400  0.956900  0.822400  1.0  -0.041
  C  C372  1  0.153400  0.925900  0.783600  1.0  0.6808
  C  C373  1  0.268100  0.972400  0.782900  1.0  -0.0318
  C  C374  1  0.254800  0.004800  0.718100  1.0  0.6861
  C  C375  1  0.305600  0.908400  0.782600  1.0  0.0778
  C  C376  1  0.377800  0.917200  0.793400  1.0  0.6777
  C  C377  1  0.630100  0.766900  0.407700  1.0  0.0624
  C  C378  1  0.570800  0.734200  0.437200  1.0  0.694
  C  C379  1  0.677600  0.791600  0.456900  1.0  -0.042
  C  C380  1  0.716400  0.846600  0.425900  1.0  0.6785
  C  C381  1  0.717100  0.731900  0.472400  1.0  -0.0307
  C  C382  1  0.781900  0.745200  0.504800  1.0  0.6876
  C  C383  1  0.717400  0.694400  0.408400  1.0  0.077
  C  C384  1  0.706600  0.622200  0.417200  1.0  0.6643
  C  C385  1  0.907700  0.869900  0.233100  1.0  0.063
  C  C386  1  0.937200  0.929200  0.265800  1.0  0.6971
  C  C387  1  0.956900  0.822400  0.208400  1.0  -0.0409
  C  C388  1  0.925900  0.783600  0.153400  1.0  0.6855
  C  C389  1  0.972400  0.782900  0.268100  1.0  -0.0318
  C  C390  1  0.004800  0.718100  0.254800  1.0  0.6862
  C  C391  1  0.908400  0.782600  0.305600  1.0  0.077
  C  C392  1  0.917200  0.793400  0.377800  1.0  0.6652
  C  C393  1  0.733100  0.592300  0.130100  1.0  0.0626
  C  C394  1  0.765800  0.562800  0.070800  1.0  0.6979
  C  C395  1  0.708400  0.543100  0.177600  1.0  -0.0417
  C  C396  1  0.653400  0.574100  0.216400  1.0  0.6797
  C  C397  1  0.768100  0.527600  0.217100  1.0  -0.0334
  C  C398  1  0.754800  0.495200  0.281900  1.0  0.6875
  C  C399  1  0.805600  0.591600  0.217400  1.0  0.0778
  C  C400  1  0.877800  0.582800  0.206600  1.0  0.6775
  C  C401  1  0.869900  0.233100  0.907700  1.0  0.0627
  C  C402  1  0.929200  0.265800  0.937200  1.0  0.6933
  C  C403  1  0.822400  0.208400  0.956900  1.0  -0.0399
  C  C404  1  0.783600  0.153400  0.925900  1.0  0.6799
  C  C405  1  0.782900  0.268100  0.972400  1.0  -0.0305
  C  C406  1  0.718100  0.254800  0.004800  1.0  0.6856
  C  C407  1  0.782600  0.305600  0.908400  1.0  0.0771
  C  C408  1  0.793400  0.377800  0.917200  1.0  0.6652
  C  C409  1  0.592300  0.130100  0.733100  1.0  0.063
  C  C410  1  0.562800  0.070800  0.765800  1.0  0.6977
  C  C411  1  0.543100  0.177600  0.708400  1.0  -0.0408
  C  C412  1  0.574100  0.216400  0.653400  1.0  0.6845
  C  C413  1  0.527600  0.217100  0.768100  1.0  -0.0337
  C  C414  1  0.495200  0.281900  0.754800  1.0  0.6866
  C  C415  1  0.591600  0.217400  0.805600  1.0  0.0772
  C  C416  1  0.582800  0.206600  0.877800  1.0  0.6653
  C  C417  1  0.766900  0.407700  0.630100  1.0  0.0633
  C  C418  1  0.734200  0.437200  0.570800  1.0  0.6984
  C  C419  1  0.791600  0.456900  0.677600  1.0  -0.042
  C  C420  1  0.846600  0.425900  0.716400  1.0  0.6807
  C  C421  1  0.731900  0.472400  0.717100  1.0  -0.0354
  C  C422  1  0.745200  0.504800  0.781900  1.0  0.6863
  C  C423  1  0.694400  0.408400  0.717400  1.0  0.0775
  C  C424  1  0.622200  0.417200  0.706600  1.0  0.6758
  O  O425  1  0.666300  0.778700  0.869300  1.0  -0.364
  O  O426  1  0.551800  0.817300  0.913200  1.0  -0.5867
  O  O427  1  0.542900  0.736500  0.982500  1.0  -0.6067
  O  O428  1  0.697500  0.598600  0.937200  1.0  -0.6456
  O  O429  1  0.762000  0.666800  0.888200  1.0  -0.5854
  O  O430  1  0.778900  0.717700  0.051400  1.0  -0.5964
  O  O431  1  0.831700  0.782900  0.985700  1.0  -0.6421
  O  O432  1  0.748100  0.907000  0.949900  1.0  -0.6644
  O  O433  1  0.657300  0.904300  0.893400  1.0  -0.591
  O  O434  1  0.535200  0.923500  0.827000  1.0  -0.6339
  O  O435  1  0.443300  0.642500  0.023200  1.0  -0.6563
  O  O436  1  0.869300  0.666300  0.778700  1.0  -0.3607
  O  O437  1  0.913200  0.551800  0.817300  1.0  -0.5901
  O  O438  1  0.982500  0.542900  0.736500  1.0  -0.6038
  O  O439  1  0.937200  0.697500  0.598600  1.0  -0.6475
  O  O440  1  0.888200  0.762000  0.666800  1.0  -0.5859
  O  O441  1  0.051400  0.778900  0.717700  1.0  -0.5927
  O  O442  1  0.985700  0.831700  0.782900  1.0  -0.6484
  O  O443  1  0.949900  0.748100  0.907000  1.0  -0.6601
  O  O444  1  0.893400  0.657300  0.904300  1.0  -0.5965
  O  O445  1  0.827000  0.535200  0.923500  1.0  -0.6277
  O  O446  1  0.023200  0.443300  0.642500  1.0  -0.664
  O  O447  1  0.778700  0.869300  0.666300  1.0  -0.352
  O  O448  1  0.817300  0.913200  0.551800  1.0  -0.5831
  O  O449  1  0.736500  0.982500  0.542900  1.0  -0.6056
  O  O450  1  0.598600  0.937200  0.697500  1.0  -0.6471
  O  O451  1  0.666800  0.888200  0.762000  1.0  -0.5868
  O  O452  1  0.717700  0.051400  0.778900  1.0  -0.5948
  O  O453  1  0.782900  0.985700  0.831700  1.0  -0.6419
  O  O454  1  0.907000  0.949900  0.748100  1.0  -0.6729
  O  O455  1  0.904300  0.893400  0.657300  1.0  -0.5945
  O  O456  1  0.923500  0.827000  0.535200  1.0  -0.6296
  O  O457  1  0.642500  0.023200  0.443300  1.0  -0.6664
  O  O458  1  0.866700  0.866700  0.866700  1.0  -0.4698
  O  O459  1  0.833700  0.221300  0.369300  1.0  -0.3656
  O  O460  1  0.948200  0.182700  0.413200  1.0  -0.5867
  O  O461  1  0.957100  0.263500  0.482500  1.0  -0.6063
  O  O462  1  0.802500  0.401400  0.437200  1.0  -0.6459
  O  O463  1  0.738000  0.333200  0.388200  1.0  -0.5853
  O  O464  1  0.721100  0.282300  0.551400  1.0  -0.5957
  O  O465  1  0.668300  0.217100  0.485700  1.0  -0.6429
  O  O466  1  0.751900  0.093000  0.449900  1.0  -0.6629
  O  O467  1  0.842700  0.095700  0.393400  1.0  -0.59
  O  O468  1  0.964800  0.076500  0.327000  1.0  -0.6329
  O  O469  1  0.056700  0.357500  0.523200  1.0  -0.6531
  O  O470  1  0.630700  0.333700  0.278700  1.0  -0.358
  O  O471  1  0.586800  0.448200  0.317300  1.0  -0.5927
  O  O472  1  0.517500  0.457100  0.236500  1.0  -0.6037
  O  O473  1  0.562800  0.302500  0.098600  1.0  -0.647
  O  O474  1  0.611800  0.238000  0.166800  1.0  -0.5852
  O  O475  1  0.448600  0.221100  0.217700  1.0  -0.5923
  O  O476  1  0.514300  0.168300  0.282900  1.0  -0.6483
  O  O477  1  0.550100  0.251900  0.407000  1.0  -0.6619
  O  O478  1  0.606600  0.342700  0.404300  1.0  -0.5977
  O  O479  1  0.673000  0.464800  0.423500  1.0  -0.6298
  O  O480  1  0.476800  0.556700  0.142500  1.0  -0.6662
  O  O481  1  0.721300  0.130700  0.166300  1.0  -0.3483
  O  O482  1  0.682700  0.086800  0.051800  1.0  -0.5845
  O  O483  1  0.763500  0.017500  0.042900  1.0  -0.6048
  O  O484  1  0.901400  0.062800  0.197500  1.0  -0.6477
  O  O485  1  0.833200  0.111800  0.262000  1.0  -0.5879
  O  O486  1  0.782300  0.948600  0.278900  1.0  -0.5943
  O  O487  1  0.717100  0.014300  0.331700  1.0  -0.6423
  O  O488  1  0.593000  0.050100  0.248100  1.0  -0.6732
  O  O489  1  0.595700  0.106600  0.157300  1.0  -0.5941
  O  O490  1  0.576500  0.173000  0.035200  1.0  -0.6325
  O  O491  1  0.857500  0.976800  0.943300  1.0  -0.6647
  O  O492  1  0.633300  0.133300  0.366700  1.0  -0.4753
  O  O493  1  0.333700  0.278700  0.630700  1.0  -0.3656
  O  O494  1  0.448200  0.317300  0.586800  1.0  -0.5851
  O  O495  1  0.457100  0.236500  0.517500  1.0  -0.6074
  O  O496  1  0.302500  0.098600  0.562800  1.0  -0.6455
  O  O497  1  0.238000  0.166800  0.611800  1.0  -0.5854
  O  O498  1  0.221100  0.217700  0.448600  1.0  -0.5969
  O  O499  1  0.168300  0.282900  0.514300  1.0  -0.6425
  O  O500  1  0.251900  0.407000  0.550100  1.0  -0.6655
  O  O501  1  0.342700  0.404300  0.606600  1.0  -0.5895
  O  O502  1  0.464800  0.423500  0.673000  1.0  -0.633
  O  O503  1  0.556700  0.142500  0.476800  1.0  -0.6546
  O  O504  1  0.130700  0.166300  0.721300  1.0  -0.3575
  O  O505  1  0.086800  0.051800  0.682700  1.0  -0.5916
  O  O506  1  0.017500  0.042900  0.763500  1.0  -0.6039
  O  O507  1  0.062800  0.197500  0.901400  1.0  -0.6469
  O  O508  1  0.111800  0.262000  0.833200  1.0  -0.5849
  O  O509  1  0.948600  0.278900  0.782300  1.0  -0.5926
  O  O510  1  0.014300  0.331700  0.717100  1.0  -0.6481
  O  O511  1  0.050100  0.248100  0.593000  1.0  -0.6621
  O  O512  1  0.106600  0.157300  0.595700  1.0  -0.597
  O  O513  1  0.173000  0.035200  0.576500  1.0  -0.6305
  O  O514  1  0.976800  0.943300  0.857500  1.0  -0.6664
  O  O515  1  0.221300  0.369300  0.833700  1.0  -0.3506
  O  O516  1  0.182700  0.413200  0.948200  1.0  -0.5849
  O  O517  1  0.263500  0.482500  0.957100  1.0  -0.6058
  O  O518  1  0.401400  0.437200  0.802500  1.0  -0.6467
  O  O519  1  0.333200  0.388200  0.738000  1.0  -0.5883
  O  O520  1  0.282300  0.551400  0.721100  1.0  -0.5946
  O  O521  1  0.217100  0.485700  0.668300  1.0  -0.6419
  O  O522  1  0.093000  0.449900  0.751900  1.0  -0.6711
  O  O523  1  0.095700  0.393400  0.842700  1.0  -0.5951
  O  O524  1  0.076500  0.327000  0.964800  1.0  -0.6313
  O  O525  1  0.357500  0.523200  0.056700  1.0  -0.6642
  O  O526  1  0.133300  0.366700  0.633300  1.0  -0.4743
  O  O527  1  0.166300  0.721300  0.130700  1.0  -0.3655
  O  O528  1  0.051800  0.682700  0.086800  1.0  -0.5863
  O  O529  1  0.042900  0.763500  0.017500  1.0  -0.6077
  O  O530  1  0.197500  0.901400  0.062800  1.0  -0.6462
  O  O531  1  0.262000  0.833200  0.111800  1.0  -0.5861
  O  O532  1  0.278900  0.782300  0.948600  1.0  -0.5957
  O  O533  1  0.331700  0.717100  0.014300  1.0  -0.643
  O  O534  1  0.248100  0.593000  0.050100  1.0  -0.6646
  O  O535  1  0.157300  0.595700  0.106600  1.0  -0.592
  O  O536  1  0.035200  0.576500  0.173000  1.0  -0.6344
  O  O537  1  0.943300  0.857500  0.976800  1.0  -0.6567
  O  O538  1  0.369300  0.833700  0.221300  1.0  -0.3596
  O  O539  1  0.413200  0.948200  0.182700  1.0  -0.5906
  O  O540  1  0.482500  0.957100  0.263500  1.0  -0.6037
  O  O541  1  0.437200  0.802500  0.401400  1.0  -0.6478
  O  O542  1  0.388200  0.738000  0.333200  1.0  -0.5854
  O  O543  1  0.551400  0.721100  0.282300  1.0  -0.5933
  O  O544  1  0.485700  0.668300  0.217100  1.0  -0.6483
  O  O545  1  0.449900  0.751900  0.093000  1.0  -0.6603
  O  O546  1  0.393400  0.842700  0.095700  1.0  -0.5953
  O  O547  1  0.327000  0.964800  0.076500  1.0  -0.6272
  O  O548  1  0.523200  0.056700  0.357500  1.0  -0.6647
  O  O549  1  0.278700  0.630700  0.333700  1.0  -0.3483
  O  O550  1  0.317300  0.586800  0.448200  1.0  -0.585
  O  O551  1  0.236500  0.517500  0.457100  1.0  -0.6057
  O  O552  1  0.098600  0.562800  0.302500  1.0  -0.6469
  O  O553  1  0.166800  0.611800  0.238000  1.0  -0.588
  O  O554  1  0.217700  0.448600  0.221100  1.0  -0.5947
  O  O555  1  0.282900  0.514300  0.168300  1.0  -0.6418
  O  O556  1  0.407000  0.550100  0.251900  1.0  -0.6717
  O  O557  1  0.404300  0.606600  0.342700  1.0  -0.5938
  O  O558  1  0.423500  0.673000  0.464800  1.0  -0.6316
  O  O559  1  0.142500  0.476800  0.556700  1.0  -0.6634
  O  O560  1  0.366700  0.633300  0.133300  1.0  -0.4698
  O  O561  1  0.333700  0.221300  0.130700  1.0  -0.3662
  O  O562  1  0.448200  0.182700  0.086800  1.0  -0.5855
  O  O563  1  0.457100  0.263500  0.017500  1.0  -0.6071
  O  O564  1  0.302500  0.401400  0.062800  1.0  -0.646
  O  O565  1  0.238000  0.333200  0.111800  1.0  -0.586
  O  O566  1  0.221100  0.282300  0.948600  1.0  -0.5961
  O  O567  1  0.168300  0.217100  0.014300  1.0  -0.6419
  O  O568  1  0.251900  0.093000  0.050100  1.0  -0.6641
  O  O569  1  0.342700  0.095700  0.106600  1.0  -0.5904
  O  O570  1  0.464800  0.076500  0.173000  1.0  -0.634
  O  O571  1  0.556700  0.357500  0.976800  1.0  -0.6551
  O  O572  1  0.130700  0.333700  0.221300  1.0  -0.3574
  O  O573  1  0.086800  0.448200  0.182700  1.0  -0.5907
  O  O574  1  0.017500  0.457100  0.263500  1.0  -0.6039
  O  O575  1  0.062800  0.302500  0.401400  1.0  -0.6477
  O  O576  1  0.111800  0.238000  0.333200  1.0  -0.5846
  O  O577  1  0.948600  0.221100  0.282300  1.0  -0.5927
  O  O578  1  0.014300  0.168300  0.217100  1.0  -0.6481
  O  O579  1  0.050100  0.251900  0.093000  1.0  -0.662
  O  O580  1  0.106600  0.342700  0.095700  1.0  -0.5974
  O  O581  1  0.173000  0.464800  0.076500  1.0  -0.6301
  O  O582  1  0.976800  0.556700  0.357500  1.0  -0.6665
  O  O583  1  0.221300  0.130700  0.333700  1.0  -0.3475
  O  O584  1  0.182700  0.086800  0.448200  1.0  -0.5846
  O  O585  1  0.263500  0.017500  0.457100  1.0  -0.6053
  O  O586  1  0.401400  0.062800  0.302500  1.0  -0.6471
  O  O587  1  0.333200  0.111800  0.238000  1.0  -0.5881
  O  O588  1  0.282300  0.948600  0.221100  1.0  -0.5944
  O  O589  1  0.217100  0.014300  0.168300  1.0  -0.6412
  O  O590  1  0.093000  0.050100  0.251900  1.0  -0.6714
  O  O591  1  0.095700  0.106600  0.342700  1.0  -0.5948
  O  O592  1  0.076500  0.173000  0.464800  1.0  -0.6325
  O  O593  1  0.357500  0.976800  0.556700  1.0  -0.6633
  O  O594  1  0.133300  0.133300  0.133300  1.0  -0.4753
  O  O595  1  0.166300  0.778700  0.630700  1.0  -0.365
  O  O596  1  0.051800  0.817300  0.586800  1.0  -0.586
  O  O597  1  0.042900  0.736500  0.517500  1.0  -0.6077
  O  O598  1  0.197500  0.598600  0.562800  1.0  -0.6456
  O  O599  1  0.262000  0.666800  0.611800  1.0  -0.5855
  O  O600  1  0.278900  0.717700  0.448600  1.0  -0.5969
  O  O601  1  0.331700  0.782900  0.514300  1.0  -0.6426
  O  O602  1  0.248100  0.907000  0.550100  1.0  -0.6645
  O  O603  1  0.157300  0.904300  0.606600  1.0  -0.5915
  O  O604  1  0.035200  0.923500  0.673000  1.0  -0.6339
  O  O605  1  0.943300  0.642500  0.476800  1.0  -0.6568
  O  O606  1  0.369300  0.666300  0.721300  1.0  -0.3601
  O  O607  1  0.413200  0.551800  0.682700  1.0  -0.5907
  O  O608  1  0.482500  0.542900  0.763500  1.0  -0.6039
  O  O609  1  0.437200  0.697500  0.901400  1.0  -0.6471
  O  O610  1  0.388200  0.762000  0.833200  1.0  -0.5855
  O  O611  1  0.551400  0.778900  0.782300  1.0  -0.5933
  O  O612  1  0.485700  0.831700  0.717100  1.0  -0.6481
  O  O613  1  0.449900  0.748100  0.593000  1.0  -0.6604
  O  O614  1  0.393400  0.657300  0.595700  1.0  -0.5958
  O  O615  1  0.327000  0.535200  0.576500  1.0  -0.6276
  O  O616  1  0.523200  0.443300  0.857500  1.0  -0.6644
  O  O617  1  0.278700  0.869300  0.833700  1.0  -0.3511
  O  O618  1  0.317300  0.913200  0.948200  1.0  -0.5844
  O  O619  1  0.236500  0.982500  0.957100  1.0  -0.6058
  O  O620  1  0.098600  0.937200  0.802500  1.0  -0.6465
  O  O621  1  0.166800  0.888200  0.738000  1.0  -0.5881
  O  O622  1  0.217700  0.051400  0.721100  1.0  -0.5946
  O  O623  1  0.282900  0.985700  0.668300  1.0  -0.6422
  O  O624  1  0.407000  0.949900  0.751900  1.0  -0.6713
  O  O625  1  0.404300  0.893400  0.842700  1.0  -0.5935
  O  O626  1  0.423500  0.827000  0.964800  1.0  -0.6291
  O  O627  1  0.142500  0.023200  0.056700  1.0  -0.665
  O  O628  1  0.366700  0.866700  0.633300  1.0  -0.47
  O  O629  1  0.666300  0.721300  0.369300  1.0  -0.3646
  O  O630  1  0.551800  0.682700  0.413200  1.0  -0.5874
  O  O631  1  0.542900  0.763500  0.482500  1.0  -0.6067
  O  O632  1  0.697500  0.901400  0.437200  1.0  -0.6462
  O  O633  1  0.762000  0.833200  0.388200  1.0  -0.5857
  O  O634  1  0.778900  0.782300  0.551400  1.0  -0.5962
  O  O635  1  0.831700  0.717100  0.485700  1.0  -0.6425
  O  O636  1  0.748100  0.593000  0.449900  1.0  -0.6629
  O  O637  1  0.657300  0.595700  0.393400  1.0  -0.5906
  O  O638  1  0.535200  0.576500  0.327000  1.0  -0.6346
  O  O639  1  0.443300  0.857500  0.523200  1.0  -0.6559
  O  O640  1  0.869300  0.833700  0.278700  1.0  -0.3599
  O  O641  1  0.913200  0.948200  0.317300  1.0  -0.5913
  O  O642  1  0.982500  0.957100  0.236500  1.0  -0.6034
  O  O643  1  0.937200  0.802500  0.098600  1.0  -0.647
  O  O644  1  0.888200  0.738000  0.166800  1.0  -0.5859
  O  O645  1  0.051400  0.721100  0.217700  1.0  -0.5928
  O  O646  1  0.985700  0.668300  0.282900  1.0  -0.6486
  O  O647  1  0.949900  0.751900  0.407000  1.0  -0.66
  O  O648  1  0.893400  0.842700  0.404300  1.0  -0.5967
  O  O649  1  0.827000  0.964800  0.423500  1.0  -0.6274
  O  O650  1  0.023200  0.056700  0.142500  1.0  -0.6649
  O  O651  1  0.778700  0.630700  0.166300  1.0  -0.3491
  O  O652  1  0.817300  0.586800  0.051800  1.0  -0.5844
  O  O653  1  0.736500  0.517500  0.042900  1.0  -0.6052
  O  O654  1  0.598600  0.562800  0.197500  1.0  -0.6478
  O  O655  1  0.666800  0.611800  0.262000  1.0  -0.5876
  O  O656  1  0.717700  0.448600  0.278900  1.0  -0.5946
  O  O657  1  0.782900  0.514300  0.331700  1.0  -0.6424
  O  O658  1  0.907000  0.550100  0.248100  1.0  -0.6737
  O  O659  1  0.904300  0.606600  0.157300  1.0  -0.5947
  O  O660  1  0.923500  0.673000  0.035200  1.0  -0.6314
  O  O661  1  0.642500  0.476800  0.943300  1.0  -0.6641
  O  O662  1  0.866700  0.633300  0.366700  1.0  -0.4703
  O  O663  1  0.833700  0.278700  0.869300  1.0  -0.365
  O  O664  1  0.948200  0.317300  0.913200  1.0  -0.5859
  O  O665  1  0.957100  0.236500  0.982500  1.0  -0.6068
  O  O666  1  0.802500  0.098600  0.937200  1.0  -0.6453
  O  O667  1  0.738000  0.166800  0.888200  1.0  -0.5853
  O  O668  1  0.721100  0.217700  0.051400  1.0  -0.596
  O  O669  1  0.668300  0.282900  0.985700  1.0  -0.6434
  O  O670  1  0.751900  0.407000  0.949900  1.0  -0.6649
  O  O671  1  0.842700  0.404300  0.893400  1.0  -0.5897
  O  O672  1  0.964800  0.423500  0.827000  1.0  -0.6318
  O  O673  1  0.056700  0.142500  0.023200  1.0  -0.6532
  O  O674  1  0.630700  0.166300  0.778700  1.0  -0.3581
  O  O675  1  0.586800  0.051800  0.817300  1.0  -0.5915
  O  O676  1  0.517500  0.042900  0.736500  1.0  -0.6039
  O  O677  1  0.562800  0.197500  0.598600  1.0  -0.6473
  O  O678  1  0.611800  0.262000  0.666800  1.0  -0.5856
  O  O679  1  0.448600  0.278900  0.717700  1.0  -0.5925
  O  O680  1  0.514300  0.331700  0.782900  1.0  -0.6483
  O  O681  1  0.550100  0.248100  0.907000  1.0  -0.662
  O  O682  1  0.606600  0.157300  0.904300  1.0  -0.5964
  O  O683  1  0.673000  0.035200  0.923500  1.0  -0.6297
  O  O684  1  0.476800  0.943300  0.642500  1.0  -0.6653
  O  O685  1  0.721300  0.369300  0.666300  1.0  -0.3513
  O  O686  1  0.682700  0.413200  0.551800  1.0  -0.5841
  O  O687  1  0.763500  0.482500  0.542900  1.0  -0.6056
  O  O688  1  0.901400  0.437200  0.697500  1.0  -0.6473
  O  O689  1  0.833200  0.388200  0.762000  1.0  -0.5872
  O  O690  1  0.782300  0.551400  0.778900  1.0  -0.5947
  O  O691  1  0.717100  0.485700  0.831700  1.0  -0.6422
  O  O692  1  0.593000  0.449900  0.748100  1.0  -0.6725
  O  O693  1  0.595700  0.393400  0.657300  1.0  -0.5949
  O  O694  1  0.576500  0.327000  0.535200  1.0  -0.6319
  O  O695  1  0.857500  0.523200  0.443300  1.0  -0.6656
  O  O696  1  0.633300  0.366700  0.866700  1.0  -0.474
