# generated using pymatgen
data_UH2(C5O4)2
_symmetry_space_group_name_H-M   'P 1'
_cell_length_a   10.47720000
_cell_length_b   15.67530000
_cell_length_c   12.77080000
_cell_angle_alpha   90.00000000
_cell_angle_beta   102.04700000
_cell_angle_gamma   90.00000000
_symmetry_Int_Tables_number   1
_chemical_formula_structural   UH2(C5O4)2
_chemical_formula_sum   'U4 H8 C40 O32'
_cell_volume   2051.19862305
_cell_formula_units_Z   4
loop_
 _symmetry_equiv_pos_site_id
 _symmetry_equiv_pos_as_xyz
  1  'x, y, z'
loop_
 _atom_site_type_symbol
 _atom_site_label
 _atom_site_symmetry_multiplicity
 _atom_site_fract_x
 _atom_site_fract_y
 _atom_site_fract_z
 _atom_site_occupancy
 _atom_site_charge
  U  U1  1  0.000000  0.471750  0.250000  1.0  2.4591
  U  U2  1  0.500000  0.971750  0.250000  1.0  2.4591
  U  U3  1  0.000000  0.528250  0.750000  1.0  2.4585
  U  U4  1  0.500000  0.028250  0.750000  1.0  2.4585
  H  H5  1  0.753940  0.738030  0.182720  1.0  0.1174
  H  H6  1  0.253940  0.238030  0.182720  1.0  0.1174
  H  H7  1  0.246060  0.738030  0.317280  1.0  0.1177
  H  H8  1  0.746060  0.238030  0.317280  1.0  0.1177
  H  H9  1  0.246060  0.261970  0.817280  1.0  0.1178
  H  H10  1  0.746060  0.761970  0.817280  1.0  0.1178
  H  H11  1  0.753940  0.261970  0.682720  1.0  0.1172
  H  H12  1  0.253940  0.761970  0.682720  1.0  0.1172
  C  C13  1  0.877500  0.608820  0.123400  1.0  0.6785
  C  C14  1  0.694000  0.813690  0.052600  1.0  -0.0699
  C  C15  1  0.810200  0.680040  0.057200  1.0  -0.1465
  C  C16  1  0.752800  0.743260  0.107600  1.0  -0.0656
  C  C17  1  0.631700  0.876100  0.115600  1.0  0.7086
  C  C18  1  0.377500  0.108820  0.123400  1.0  0.6785
  C  C19  1  0.194000  0.313690  0.052600  1.0  -0.0699
  C  C20  1  0.310200  0.180040  0.057200  1.0  -0.1465
  C  C21  1  0.252800  0.243260  0.107600  1.0  -0.0656
  C  C22  1  0.131700  0.376100  0.115600  1.0  0.7086
  C  C23  1  0.122500  0.608820  0.376600  1.0  0.6777
  C  C24  1  0.306000  0.813690  0.447400  1.0  -0.0705
  C  C25  1  0.189800  0.680040  0.442800  1.0  -0.147
  C  C26  1  0.247200  0.743260  0.392400  1.0  -0.0643
  C  C27  1  0.368300  0.876100  0.384400  1.0  0.71
  C  C28  1  0.622500  0.108820  0.376600  1.0  0.6777
  C  C29  1  0.806000  0.313690  0.447400  1.0  -0.0705
  C  C30  1  0.689800  0.180040  0.442800  1.0  -0.147
  C  C31  1  0.747200  0.243260  0.392400  1.0  -0.0643
  C  C32  1  0.868300  0.376100  0.384400  1.0  0.71
  C  C33  1  0.122500  0.391180  0.876600  1.0  0.6768
  C  C34  1  0.306000  0.186310  0.947400  1.0  -0.0708
  C  C35  1  0.189800  0.319960  0.942800  1.0  -0.1466
  C  C36  1  0.247200  0.256740  0.892400  1.0  -0.0642
  C  C37  1  0.368300  0.123900  0.884400  1.0  0.71
  C  C38  1  0.622500  0.891180  0.876600  1.0  0.6768
  C  C39  1  0.806000  0.686310  0.947400  1.0  -0.0708
  C  C40  1  0.689800  0.819960  0.942800  1.0  -0.1466
  C  C41  1  0.747200  0.756740  0.892400  1.0  -0.0642
  C  C42  1  0.868300  0.623900  0.884400  1.0  0.71
  C  C43  1  0.877500  0.391180  0.623400  1.0  0.6779
  C  C44  1  0.694000  0.186310  0.552600  1.0  -0.0707
  C  C45  1  0.810200  0.319960  0.557200  1.0  -0.1469
  C  C46  1  0.752800  0.256740  0.607600  1.0  -0.0657
  C  C47  1  0.631700  0.123900  0.615600  1.0  0.7078
  C  C48  1  0.377500  0.891180  0.623400  1.0  0.6779
  C  C49  1  0.194000  0.686310  0.552600  1.0  -0.0707
  C  C50  1  0.310200  0.819960  0.557200  1.0  -0.1469
  C  C51  1  0.252800  0.756740  0.607600  1.0  -0.0657
  C  C52  1  0.131700  0.623900  0.615600  1.0  0.7078
  O  O53  1  0.855900  0.596460  0.216670  1.0  -0.6779
  O  O54  1  0.533800  0.849120  0.147900  1.0  -0.6123
  O  O55  1  0.955200  0.561450  0.087250  1.0  -0.6004
  O  O56  1  0.675900  0.948260  0.140200  1.0  -0.5621
  O  O57  1  0.355900  0.096460  0.216670  1.0  -0.6779
  O  O58  1  0.033800  0.349120  0.147900  1.0  -0.6123
  O  O59  1  0.455200  0.061450  0.087250  1.0  -0.6004
  O  O60  1  0.175900  0.448260  0.140200  1.0  -0.5621
  O  O61  1  0.144100  0.596460  0.283330  1.0  -0.6755
  O  O62  1  0.466200  0.849120  0.352100  1.0  -0.6129
  O  O63  1  0.044800  0.561450  0.412750  1.0  -0.5984
  O  O64  1  0.324100  0.948260  0.359800  1.0  -0.5625
  O  O65  1  0.644100  0.096460  0.283330  1.0  -0.6755
  O  O66  1  0.966200  0.349120  0.352100  1.0  -0.6129
  O  O67  1  0.544800  0.061450  0.412750  1.0  -0.5984
  O  O68  1  0.824100  0.448260  0.359800  1.0  -0.5624
  O  O69  1  0.144100  0.403540  0.783330  1.0  -0.6752
  O  O70  1  0.466200  0.150880  0.852100  1.0  -0.612
  O  O71  1  0.044800  0.438550  0.912750  1.0  -0.5982
  O  O72  1  0.324100  0.051740  0.859800  1.0  -0.5612
  O  O73  1  0.644100  0.903540  0.783330  1.0  -0.6752
  O  O74  1  0.966200  0.650880  0.852100  1.0  -0.612
  O  O75  1  0.544800  0.938550  0.912750  1.0  -0.5982
  O  O76  1  0.824100  0.551740  0.859800  1.0  -0.5612
  O  O77  1  0.855900  0.403540  0.716670  1.0  -0.6801
  O  O78  1  0.533800  0.150880  0.647900  1.0  -0.6134
  O  O79  1  0.955200  0.438550  0.587250  1.0  -0.5995
  O  O80  1  0.675900  0.051740  0.640200  1.0  -0.5637
  O  O81  1  0.355900  0.903540  0.716670  1.0  -0.6818
  O  O82  1  0.033800  0.650880  0.647900  1.0  -0.6134
  O  O83  1  0.455200  0.938550  0.587250  1.0  -0.5995
  O  O84  1  0.175900  0.551740  0.640200  1.0  -0.5637
