# generated using pymatgen
data_CuH8C16O5
_symmetry_space_group_name_H-M   'P 1'
_cell_length_a   21.04900000
_cell_length_b   21.04900000
_cell_length_c   32.54220000
_cell_angle_alpha   108.86900000
_cell_angle_beta   108.86900000
_cell_angle_gamma   90.00010000
_symmetry_Int_Tables_number   1
_chemical_formula_structural   CuH8C16O5
_chemical_formula_sum   'Cu8 H64 C128 O40'
_cell_volume   12821.76928881
_cell_formula_units_Z   8
loop_
 _symmetry_equiv_pos_site_id
 _symmetry_equiv_pos_as_xyz
  1  'x, y, z'
loop_
 _atom_site_type_symbol
 _atom_site_label
 _atom_site_symmetry_multiplicity
 _atom_site_fract_x
 _atom_site_fract_y
 _atom_site_fract_z
 _atom_site_occupancy
 _atom_site_charge
  Cu  Cu1  1  0.909650  0.895350  0.719320  1.0  0.927
  Cu  Cu2  1  0.809670  0.823970  0.719320  1.0  0.9259
  Cu  Cu3  1  0.145350  0.559670  0.219320  1.0  0.9252
  Cu  Cu4  1  0.073970  0.659650  0.219320  1.0  0.9278
  Cu  Cu5  1  0.440330  0.854650  0.780680  1.0  0.9242
  Cu  Cu6  1  0.340350  0.926030  0.780680  1.0  0.9268
  Cu  Cu7  1  0.176030  0.190330  0.280680  1.0  0.9266
  Cu  Cu8  1  0.104650  0.090350  0.280680  1.0  0.9257
  H  H9  1  0.672200  0.943900  0.540800  1.0  0.1337
  H  H10  1  0.743400  0.953000  0.611000  1.0  0.0942
  H  H11  1  0.495000  0.909400  0.681200  1.0  0.1082
  H  H12  1  0.569200  0.922700  0.642400  1.0  0.1185
  H  H13  1  0.406500  0.989000  0.536400  1.0  0.105
  H  H14  1  0.384700  0.977400  0.599200  1.0  0.1355
  H  H15  1  0.382700  0.970500  0.666667  1.0  0.117
  H  H16  1  0.646300  0.883300  0.622000  1.0  0.0931
  H  H17  1  0.868600  0.596900  0.540800  1.0  0.1349
  H  H18  1  0.867600  0.658000  0.611000  1.0  0.0951
  H  H19  1  0.186200  0.771800  0.681200  1.0  0.1067
  H  H20  1  0.073200  0.719700  0.642400  1.0  0.1191
  H  H21  1  0.129900  0.547400  0.536400  1.0  0.1062
  H  H22  1  0.214500  0.621800  0.599200  1.0  0.1356
  H  H23  1  0.283900  0.696100  0.666667  1.0  0.1153
  H  H24  1  0.975700  0.738700  0.622000  1.0  0.0915
  H  H25  1  0.193900  0.618600  0.040800  1.0  0.133
  H  H26  1  0.203000  0.617600  0.111000  1.0  0.0941
  H  H27  1  0.159400  0.936200  0.181200  1.0  0.1072
  H  H28  1  0.172700  0.823200  0.142400  1.0  0.1181
  H  H29  1  0.239000  0.879900  0.036400  1.0  0.1065
  H  H30  1  0.227400  0.964500  0.099200  1.0  0.1379
  H  H31  1  0.220500  0.033900  0.166600  1.0  0.1167
  H  H32  1  0.133300  0.725700  0.122000  1.0  0.0935
  H  H33  1  0.846900  0.422200  0.040800  1.0  0.1343
  H  H34  1  0.908000  0.493400  0.111000  1.0  0.0957
  H  H35  1  0.021800  0.245000  0.181200  1.0  0.1088
  H  H36  1  0.969700  0.319200  0.142400  1.0  0.1192
  H  H37  1  0.797400  0.156500  0.036400  1.0  0.1064
  H  H38  1  0.871800  0.134700  0.099200  1.0  0.1358
  H  H39  1  0.946100  0.132700  0.166600  1.0  0.1156
  H  H40  1  0.988700  0.396300  0.122000  1.0  0.0928
  H  H41  1  0.381400  0.806100  0.959200  1.0  0.1344
  H  H42  1  0.382400  0.797000  0.889000  1.0  0.095
  H  H43  1  0.063800  0.840600  0.818800  1.0  0.1064
  H  H44  1  0.176800  0.827300  0.857600  1.0  0.1188
  H  H45  1  0.120100  0.761000  0.963600  1.0  0.1059
  H  H46  1  0.035500  0.772600  0.900800  1.0  0.1369
  H  H47  1  0.966100  0.779500  0.833400  1.0  0.1162
  H  H48  1  0.274300  0.866700  0.878000  1.0  0.0931
  H  H49  1  0.577800  0.153100  0.959200  1.0  0.1349
  H  H50  1  0.506600  0.092000  0.889000  1.0  0.0957
  H  H51  1  0.755000  0.978200  0.818800  1.0  0.1044
  H  H52  1  0.680800  0.030300  0.857600  1.0  0.1191
  H  H53  1  0.843500  0.202600  0.963600  1.0  0.1065
  H  H54  1  0.865300  0.128200  0.900800  1.0  0.1359
  H  H55  1  0.867300  0.053900  0.833400  1.0  0.1174
  H  H56  1  0.603700  0.011300  0.878000  1.0  0.0918
  H  H57  1  0.403100  0.131400  0.459200  1.0  0.133
  H  H58  1  0.342000  0.132400  0.389000  1.0  0.0948
  H  H59  1  0.228200  0.813800  0.318800  1.0  0.1072
  H  H60  1  0.280300  0.926800  0.357600  1.0  0.1189
  H  H61  1  0.452600  0.870100  0.463600  1.0  0.1063
  H  H62  1  0.378200  0.785500  0.400800  1.0  0.1367
  H  H63  1  0.303900  0.716100  0.333400  1.0  0.1156
  H  H64  1  0.261300  0.024300  0.378000  1.0  0.0928
  H  H65  1  0.056100  0.327800  0.459200  1.0  0.1339
  H  H66  1  0.047000  0.256600  0.389000  1.0  0.0951
  H  H67  1  0.090600  0.505000  0.318800  1.0  0.1059
  H  H68  1  0.077300  0.430800  0.357600  1.0  0.1199
  H  H69  1  0.011000  0.593500  0.463600  1.0  0.1052
  H  H70  1  0.022600  0.615300  0.400800  1.0  0.1365
  H  H71  1  0.029500  0.617300  0.333400  1.0  0.1164
  H  H72  1  0.116700  0.353700  0.378000  1.0  0.0932
  C  C73  1  0.408500  0.926600  0.715600  1.0  0.6833
  C  C74  1  0.616430  0.938530  0.580460  1.0  0.0962
  C  C75  1  0.629650  0.950050  0.544100  1.0  -0.1326
  C  C76  1  0.579790  0.970690  0.512580  1.0  0.2716
  C  C77  1  0.516910  0.979810  0.517420  1.0  -0.0393
  C  C78  1  0.503780  0.968280  0.553760  1.0  0.0242
  C  C79  1  0.553540  0.947640  0.585280  1.0  0.0542
  C  C80  1  0.775100  0.897200  0.658600  1.0  0.6777
  C  C81  1  0.725520  0.925420  0.623240  1.0  -0.1337
  C  C82  1  0.462800  0.932800  0.666000  1.0  -0.0763
  C  C83  1  0.536740  0.937940  0.621280  1.0  -0.1047
  C  C84  1  0.476400  0.949100  0.627400  1.0  -0.0463
  C  C85  1  0.440560  0.977260  0.558720  1.0  -0.1061
  C  C86  1  0.426810  0.969310  0.595620  1.0  -0.0968
  C  C87  1  0.415480  0.946080  0.680160  1.0  -0.1097
  C  C88  1  0.663270  0.912670  0.610540  1.0  -0.0967
  C  C89  1  0.307100  0.789000  0.715600  1.0  0.6784
  C  C90  1  0.964030  0.641930  0.580460  1.0  0.0947
  C  C91  1  0.914450  0.594050  0.544100  1.0  -0.1323
  C  C92  1  0.932790  0.541890  0.512580  1.0  0.2527
  C  C93  1  0.000510  0.537610  0.517420  1.0  -0.0393
  C  C94  1  0.049980  0.585480  0.553760  1.0  0.0258
  C  C95  1  0.031740  0.637640  0.585280  1.0  0.0544
  C  C96  1  0.883500  0.761400  0.658600  1.0  0.6763
  C  C97  1  0.897720  0.697820  0.623240  1.0  -0.1392
  C  C98  1  0.203200  0.733200  0.666000  1.0  -0.0749
  C  C99  1  0.084540  0.683340  0.621280  1.0  -0.1043
  C  C100  1  0.151000  0.678300  0.627400  1.0  -0.0486
  C  C101  1  0.118160  0.581460  0.558720  1.0  -0.1068
  C  C102  1  0.168810  0.626310  0.595620  1.0  -0.1
  C  C103  1  0.264680  0.734080  0.680160  1.0  -0.1076
  C  C104  1  0.947270  0.697870  0.610540  1.0  -0.0988
  C  C105  1  0.176600  0.057100  0.215600  1.0  0.6788
  C  C106  1  0.188530  0.714030  0.080460  1.0  0.0941
  C  C107  1  0.200050  0.664450  0.044100  1.0  -0.1295
  C  C108  1  0.220690  0.682790  0.012580  1.0  0.263
  C  C109  1  0.229810  0.750510  0.017420  1.0  -0.0376
  C  C110  1  0.218280  0.799980  0.053760  1.0  0.0221
  C  C111  1  0.197640  0.781740  0.085280  1.0  0.0548
  C  C112  1  0.147200  0.633500  0.158600  1.0  0.6763
  C  C113  1  0.175420  0.647720  0.123240  1.0  -0.138
  C  C114  1  0.182800  0.953200  0.166000  1.0  -0.0783
  C  C115  1  0.187940  0.834540  0.121280  1.0  -0.1062
  C  C116  1  0.199100  0.901000  0.127400  1.0  -0.047
  C  C117  1  0.227260  0.868160  0.058720  1.0  -0.1082
  C  C118  1  0.219310  0.918810  0.095620  1.0  -0.0993
  C  C119  1  0.196080  0.014680  0.180160  1.0  -0.1069
  C  C120  1  0.162670  0.697270  0.110540  1.0  -0.0974
  C  C121  1  0.039000  0.158500  0.215600  1.0  0.68
  C  C122  1  0.891930  0.366430  0.080460  1.0  0.0957
  C  C123  1  0.844050  0.379650  0.044100  1.0  -0.1341
  C  C124  1  0.791890  0.329790  0.012580  1.0  0.2682
  C  C125  1  0.787610  0.266910  0.017420  1.0  -0.0388
  C  C126  1  0.835480  0.253780  0.053760  1.0  0.0252
  C  C127  1  0.887640  0.303540  0.085280  1.0  0.0545
  C  C128  1  0.011400  0.525100  0.158600  1.0  0.6763
  C  C129  1  0.947820  0.475520  0.123240  1.0  -0.1379
  C  C130  1  0.983200  0.212800  0.166000  1.0  -0.0759
  C  C131  1  0.933340  0.286740  0.121280  1.0  -0.1064
  C  C132  1  0.928300  0.226400  0.127400  1.0  -0.0447
  C  C133  1  0.831460  0.190560  0.058720  1.0  -0.108
  C  C134  1  0.876310  0.176810  0.095620  1.0  -0.0982
  C  C135  1  0.984080  0.165480  0.180160  1.0  -0.1096
  C  C136  1  0.947870  0.413270  0.110540  1.0  -0.0967
  C  C137  1  0.942900  0.823400  0.784400  1.0  0.6801
  C  C138  1  0.285970  0.811470  0.919540  1.0  0.0932
  C  C139  1  0.335550  0.799950  0.955900  1.0  -0.1317
  C  C140  1  0.317210  0.779310  0.987420  1.0  0.2638
  C  C141  1  0.249490  0.770190  0.982580  1.0  -0.0383
  C  C142  1  0.200020  0.781720  0.946240  1.0  0.0227
  C  C143  1  0.218260  0.802360  0.914720  1.0  0.0553
  C  C144  1  0.366500  0.852800  0.841400  1.0  0.676
  C  C145  1  0.352280  0.824580  0.876760  1.0  -0.1369
  C  C146  1  0.046800  0.817200  0.834000  1.0  -0.0761
  C  C147  1  0.165460  0.812060  0.878720  1.0  -0.1084
  C  C148  1  0.099000  0.800900  0.872600  1.0  -0.0475
  C  C149  1  0.131840  0.772740  0.941280  1.0  -0.1075
  C  C150  1  0.081190  0.780690  0.904380  1.0  -0.0973
  C  C151  1  0.985320  0.803920  0.819840  1.0  -0.1119
  C  C152  1  0.302730  0.837330  0.889460  1.0  -0.0958
  C  C153  1  0.841500  0.961000  0.784400  1.0  0.6782
  C  C154  1  0.633570  0.108070  0.919540  1.0  0.0944
  C  C155  1  0.620350  0.155950  0.955900  1.0  -0.1328
  C  C156  1  0.670210  0.208110  0.987420  1.0  0.2606
  C  C157  1  0.733090  0.212390  0.982580  1.0  -0.0389
  C  C158  1  0.746220  0.164520  0.946240  1.0  0.0247
  C  C159  1  0.696460  0.112360  0.914720  1.0  0.0544
  C  C160  1  0.474900  0.988600  0.841400  1.0  0.677
  C  C161  1  0.524480  0.052180  0.876760  1.0  -0.1398
  C  C162  1  0.787200  0.016800  0.834000  1.0  -0.075
  C  C163  1  0.713260  0.066660  0.878720  1.0  -0.1037
  C  C164  1  0.773600  0.071700  0.872600  1.0  -0.0458
  C  C165  1  0.809440  0.168540  0.941280  1.0  -0.107
  C  C166  1  0.823190  0.123690  0.904380  1.0  -0.0951
  C  C167  1  0.834520  0.015920  0.819840  1.0  -0.1072
  C  C168  1  0.586730  0.052130  0.889460  1.0  -0.0962
  C  C169  1  0.211000  0.692900  0.284400  1.0  0.679
  C  C170  1  0.358070  0.035970  0.419540  1.0  0.0943
  C  C171  1  0.405950  0.085550  0.455900  1.0  -0.1285
  C  C172  1  0.458110  0.067210  0.487420  1.0  0.2663
  C  C173  1  0.462390  0.999490  0.482580  1.0  -0.0381
  C  C174  1  0.414520  0.950020  0.446240  1.0  0.0249
  C  C175  1  0.362360  0.968260  0.414720  1.0  0.0544
  C  C176  1  0.238600  0.116500  0.341400  1.0  0.6772
  C  C177  1  0.302180  0.102280  0.376760  1.0  -0.1376
  C  C178  1  0.266800  0.796800  0.334000  1.0  -0.0759
  C  C179  1  0.316660  0.915460  0.378720  1.0  -0.1078
  C  C180  1  0.321700  0.849000  0.372600  1.0  -0.0473
  C  C181  1  0.418540  0.881840  0.441280  1.0  -0.1089
  C  C182  1  0.373690  0.831190  0.404380  1.0  -0.1
  C  C183  1  0.265920  0.735320  0.319840  1.0  -0.1063
  C  C184  1  0.302130  0.052730  0.389460  1.0  -0.0955
  C  C185  1  0.073400  0.591500  0.284400  1.0  0.6829
  C  C186  1  0.061470  0.383570  0.419540  1.0  0.0971
  C  C187  1  0.049950  0.370350  0.455900  1.0  -0.1363
  C  C188  1  0.029310  0.420210  0.487420  1.0  0.2666
  C  C189  1  0.020190  0.483090  0.482580  1.0  -0.039
  C  C190  1  0.031720  0.496220  0.446240  1.0  0.0257
  C  C191  1  0.052360  0.446460  0.414720  1.0  0.0543
  C  C192  1  0.102800  0.224900  0.341400  1.0  0.6771
  C  C193  1  0.074580  0.274480  0.376760  1.0  -0.1383
  C  C194  1  0.067200  0.537200  0.334000  1.0  -0.0752
  C  C195  1  0.062060  0.463260  0.378720  1.0  -0.104
  C  C196  1  0.050900  0.523600  0.372600  1.0  -0.0463
  C  C197  1  0.022740  0.559440  0.441280  1.0  -0.1079
  C  C198  1  0.030690  0.573190  0.404380  1.0  -0.0994
  C  C199  1  0.053920  0.584520  0.319840  1.0  -0.1111
  C  C200  1  0.087330  0.336730  0.389460  1.0  -0.0951
  O  O201  1  0.840140  0.925140  0.674080  1.0  -0.5278
  O  O202  1  0.449730  0.891130  0.735860  1.0  -0.5929
  O  O203  1  0.360640  0.943040  0.730680  1.0  -0.5814
  O  O204  1  0.757240  0.854640  0.670280  1.0  -0.5342
  O  O205  1  0.596020  0.983420  0.479240  1.0  -0.424
  O  O206  1  0.833940  0.748940  0.674080  1.0  -0.5373
  O  O207  1  0.286130  0.844730  0.735860  1.0  -0.5908
  O  O208  1  0.370040  0.787640  0.730680  1.0  -0.5834
  O  O209  1  0.913040  0.815640  0.670280  1.0  -0.5344
  O  O210  1  0.883220  0.495820  0.479240  1.0  -0.4298
  O  O211  1  0.175140  0.583940  0.174080  1.0  -0.5349
  O  O212  1  0.141130  0.036130  0.235860  1.0  -0.5926
  O  O213  1  0.193040  0.120040  0.230680  1.0  -0.5832
  O  O214  1  0.104640  0.663040  0.170280  1.0  -0.5347
  O  O215  1  0.233420  0.633220  0.979240  1.0  -0.4351
  O  O216  1  0.998940  0.590140  0.174080  1.0  -0.5416
  O  O217  1  0.094730  0.199730  0.235860  1.0  -0.5908
  O  O218  1  0.037640  0.110640  0.230680  1.0  -0.58
  O  O219  1  0.065640  0.507240  0.170280  1.0  -0.5357
  O  O220  1  0.745820  0.346020  0.979240  1.0  -0.4368
  O  O221  1  0.416060  0.824860  0.825920  1.0  -0.5378
  O  O222  1  0.963870  0.858870  0.764140  1.0  -0.5942
  O  O223  1  0.879960  0.806960  0.769320  1.0  -0.5828
  O  O224  1  0.336960  0.895360  0.829720  1.0  -0.5345
  O  O225  1  0.366780  0.766580  0.020760  1.0  -0.4357
  O  O226  1  0.409860  0.001060  0.825920  1.0  -0.5418
  O  O227  1  0.800270  0.905270  0.764140  1.0  -0.5906
  O  O228  1  0.889360  0.962360  0.769320  1.0  -0.5818
  O  O229  1  0.492760  0.934360  0.829720  1.0  -0.5339
  O  O230  1  0.653980  0.254180  0.020760  1.0  -0.4333
  O  O231  1  0.251060  0.166060  0.325920  1.0  -0.5383
  O  O232  1  0.155270  0.713870  0.264140  1.0  -0.5939
  O  O233  1  0.212360  0.629960  0.269320  1.0  -0.5882
  O  O234  1  0.184360  0.086960  0.329720  1.0  -0.5334
  O  O235  1  0.504180  0.116780  0.520760  1.0  -0.4332
  O  O236  1  0.074860  0.159860  0.325920  1.0  -0.5266
  O  O237  1  0.108870  0.550270  0.264140  1.0  -0.5915
  O  O238  1  0.056960  0.639360  0.269320  1.0  -0.5805
  O  O239  1  0.145360  0.242760  0.329720  1.0  -0.5358
  O  O240  1  0.016580  0.403980  0.520760  1.0  -0.4434
