# generated using pymatgen
data_CuH13C24O5
_symmetry_space_group_name_H-M   'P 1'
_cell_length_a   23.84900000
_cell_length_b   23.84900000
_cell_length_c   40.25740000
_cell_angle_alpha   107.23000000
_cell_angle_beta   107.23000000
_cell_angle_gamma   90.00020000
_symmetry_Int_Tables_number   1
_chemical_formula_structural   CuH13C24O5
_chemical_formula_sum   'Cu8 H104 C192 O40'
_cell_volume   20791.55054258
_cell_formula_units_Z   8
loop_
 _symmetry_equiv_pos_site_id
 _symmetry_equiv_pos_as_xyz
  1  'x, y, z'
loop_
 _atom_site_type_symbol
 _atom_site_label
 _atom_site_symmetry_multiplicity
 _atom_site_fract_x
 _atom_site_fract_y
 _atom_site_fract_z
 _atom_site_occupancy
 _atom_site_charge
  Cu  Cu1  1  0.901920  0.904310  0.728700  1.0  0.932
  Cu  Cu2  1  0.826780  0.824390  0.728700  1.0  0.9324
  Cu  Cu3  1  0.154310  0.576780  0.228700  1.0  0.9334
  Cu  Cu4  1  0.074390  0.651920  0.228700  1.0  0.933
  Cu  Cu5  1  0.423220  0.845690  0.771300  1.0  0.9331
  Cu  Cu6  1  0.348080  0.925610  0.771300  1.0  0.9338
  Cu  Cu7  1  0.175610  0.173220  0.271300  1.0  0.9333
  Cu  Cu8  1  0.095690  0.098080  0.271300  1.0  0.9317
  H  H9  1  0.236400  0.626900  0.636000  1.0  0.1295
  H  H10  1  0.310000  0.690000  0.685200  1.0  0.1226
  H  H11  1  0.200700  0.819200  0.690400  1.0  0.1281
  H  H12  1  0.127100  0.756100  0.641200  1.0  0.1267
  H  H13  1  0.895500  0.600400  0.608400  1.0  0.1263
  H  H14  1  0.868000  0.670400  0.653600  1.0  0.1191
  H  H15  1  0.959900  0.799000  0.639600  1.0  0.1245
  H  H16  1  0.987500  0.729100  0.594600  1.0  0.1222
  H  H17  1  0.882300  0.578800  0.540800  1.0  0.1289
  H  H18  1  0.185100  0.601000  0.577600  1.0  0.137
  H  H19  1  0.111600  0.537000  0.529600  1.0  0.1054
  H  H20  1  0.059200  0.678100  0.619200  1.0  0.119
  H  H21  1  0.912000  0.470800  0.474200  1.0  0.2935
  H  H22  1  0.399600  0.009100  0.636000  1.0  0.1293
  H  H23  1  0.375200  0.995200  0.685200  1.0  0.1272
  H  H24  1  0.489700  0.871200  0.690400  1.0  0.1276
  H  H25  1  0.514100  0.885100  0.641200  1.0  0.1262
  H  H26  1  0.712900  0.008000  0.608400  1.0  0.1259
  H  H27  1  0.785600  0.983200  0.653600  1.0  0.1214
  H  H28  1  0.679700  0.840600  0.639600  1.0  0.1236
  H  H29  1  0.607100  0.865500  0.594600  1.0  0.1198
  H  H30  1  0.658500  0.962000  0.540800  1.0  0.1283
  H  H31  1  0.392500  0.976600  0.577600  1.0  0.1373
  H  H32  1  0.418000  0.992600  0.529600  1.0  0.105
  H  H33  1  0.560000  0.941100  0.619200  1.0  0.1185
  H  H34  1  0.562200  0.003400  0.474200  1.0  0.2869
  H  H35  1  0.876900  0.149600  0.136000  1.0  0.1303
  H  H36  1  0.940000  0.125200  0.185200  1.0  0.1258
  H  H37  1  0.069200  0.239700  0.190400  1.0  0.1287
  H  H38  1  0.006100  0.264100  0.141200  1.0  0.1252
  H  H39  1  0.850400  0.462900  0.108400  1.0  0.1261
  H  H40  1  0.920400  0.535600  0.153600  1.0  0.1193
  H  H41  1  0.049000  0.429700  0.139600  1.0  0.124
  H  H42  1  0.979100  0.357100  0.094600  1.0  0.1215
  H  H43  1  0.828800  0.408500  0.040800  1.0  0.128
  H  H44  1  0.851000  0.142500  0.077600  1.0  0.1382
  H  H45  1  0.787000  0.168000  0.029600  1.0  0.1065
  H  H46  1  0.928100  0.310000  0.119200  1.0  0.1186
  H  H47  1  0.720800  0.312200  0.974200  1.0  0.294
  H  H48  1  0.259100  0.986400  0.136000  1.0  0.1292
  H  H49  1  0.245200  0.060000  0.185200  1.0  0.1228
  H  H50  1  0.121200  0.950700  0.190400  1.0  0.1288
  H  H51  1  0.135100  0.877100  0.141200  1.0  0.1261
  H  H52  1  0.258000  0.645500  0.108400  1.0  0.1264
  H  H53  1  0.233200  0.618000  0.153600  1.0  0.1186
  H  H54  1  0.090600  0.709900  0.139600  1.0  0.1224
  H  H55  1  0.115500  0.737500  0.094600  1.0  0.1212
  H  H56  1  0.212000  0.632300  0.040800  1.0  0.1284
  H  H57  1  0.226600  0.935100  0.077600  1.0  0.1384
  H  H58  1  0.242600  0.861600  0.029600  1.0  0.1069
  H  H59  1  0.191100  0.809200  0.119200  1.0  0.1187
  H  H60  1  0.253400  0.662000  0.974200  1.0  0.2923
  H  H61  1  0.850400  0.123100  0.864000  1.0  0.13
  H  H62  1  0.874800  0.060000  0.814800  1.0  0.1261
  H  H63  1  0.760300  0.930800  0.809600  1.0  0.1288
  H  H64  1  0.735900  0.993900  0.858800  1.0  0.126
  H  H65  1  0.537100  0.149600  0.891600  1.0  0.1273
  H  H66  1  0.464400  0.079600  0.846400  1.0  0.1198
  H  H67  1  0.570300  0.951000  0.860400  1.0  0.1236
  H  H68  1  0.642900  0.020900  0.905400  1.0  0.1232
  H  H69  1  0.591500  0.171200  0.959200  1.0  0.1286
  H  H70  1  0.857500  0.149000  0.922400  1.0  0.1381
  H  H71  1  0.832000  0.213000  0.970400  1.0  0.1056
  H  H72  1  0.690000  0.071900  0.880800  1.0  0.119
  H  H73  1  0.687800  0.279200  0.025800  1.0  0.2944
  H  H74  1  0.013600  0.740900  0.864000  1.0  0.1293
  H  H75  1  0.940000  0.754800  0.814800  1.0  0.1227
  H  H76  1  0.049300  0.878800  0.809600  1.0  0.1296
  H  H77  1  0.122900  0.864900  0.858800  1.0  0.1271
  H  H78  1  0.354500  0.742000  0.891600  1.0  0.126
  H  H79  1  0.382000  0.766800  0.846400  1.0  0.1191
  H  H80  1  0.290100  0.909400  0.860400  1.0  0.1228
  H  H81  1  0.262500  0.884500  0.905400  1.0  0.1227
  H  H82  1  0.367700  0.788000  0.959200  1.0  0.128
  H  H83  1  0.064900  0.773400  0.922400  1.0  0.1387
  H  H84  1  0.138400  0.757400  0.970400  1.0  0.1078
  H  H85  1  0.190800  0.808900  0.880800  1.0  0.1189
  H  H86  1  0.338000  0.746600  0.025800  1.0  0.2921
  H  H87  1  0.990900  0.600400  0.364000  1.0  0.1289
  H  H88  1  0.004800  0.624800  0.314800  1.0  0.1276
  H  H89  1  0.128800  0.510300  0.309600  1.0  0.1283
  H  H90  1  0.114900  0.485900  0.358800  1.0  0.1258
  H  H91  1  0.992000  0.287100  0.391600  1.0  0.1267
  H  H92  1  0.016800  0.214400  0.346400  1.0  0.1202
  H  H93  1  0.159400  0.320300  0.360400  1.0  0.1244
  H  H94  1  0.134500  0.392900  0.405400  1.0  0.1183
  H  H95  1  0.038000  0.341500  0.459200  1.0  0.1287
  H  H96  1  0.023400  0.607500  0.422400  1.0  0.1368
  H  H97  1  0.007400  0.582000  0.470400  1.0  0.1047
  H  H98  1  0.058900  0.440000  0.380800  1.0  0.118
  H  H99  1  0.996600  0.437800  0.525800  1.0  0.2874
  H  H100  1  0.373100  0.763600  0.364000  1.0  0.1289
  H  H101  1  0.310000  0.690000  0.314800  1.0  0.1225
  H  H102  1  0.180800  0.799300  0.309600  1.0  0.1271
  H  H103  1  0.243900  0.872900  0.358800  1.0  0.1254
  H  H104  1  0.399600  0.104500  0.391600  1.0  0.1267
  H  H105  1  0.329600  0.132000  0.346400  1.0  0.1193
  H  H106  1  0.201000  0.040100  0.360400  1.0  0.1245
  H  H107  1  0.270900  0.012500  0.405400  1.0  0.1207
  H  H108  1  0.421200  0.117700  0.459200  1.0  0.1274
  H  H109  1  0.399000  0.814900  0.422400  1.0  0.1379
  H  H110  1  0.463000  0.888400  0.470400  1.0  0.1053
  H  H111  1  0.321900  0.940800  0.380800  1.0  0.1193
  H  H112  1  0.529200  0.088000  0.525800  1.0  0.2927
  C  C113  1  0.898600  0.789600  0.679000  1.0  0.5908
  C  C114  1  0.174640  0.685440  0.633880  1.0  0.0719
  C  C115  1  0.229180  0.665680  0.646960  1.0  -0.1276
  C  C116  1  0.273030  0.703330  0.676260  1.0  -0.0567
  C  C117  1  0.262330  0.760630  0.692460  1.0  -0.108
  C  C118  1  0.207890  0.780390  0.679380  1.0  -0.052
  C  C119  1  0.164040  0.742840  0.650080  1.0  -0.1383
  C  C120  1  0.944180  0.657980  0.597160  1.0  0.0422
  C  C121  1  0.908480  0.640480  0.614760  1.0  -0.1173
  C  C122  1  0.892040  0.682240  0.641680  1.0  -0.0491
  C  C123  1  0.911290  0.741490  0.650980  1.0  -0.1268
  C  C124  1  0.946890  0.758990  0.633380  1.0  -0.0533
  C  C125  1  0.963330  0.717230  0.606460  1.0  -0.0844
  C  C126  1  0.965950  0.614250  0.570700  1.0  0.0617
  C  C127  1  0.024740  0.610340  0.572080  1.0  0.0195
  C  C128  1  0.039570  0.568370  0.544540  1.0  0.0504
  C  C129  1  0.995600  0.530200  0.515600  1.0  -0.0635
  C  C130  1  0.936810  0.534110  0.514220  1.0  0.3004
  C  C131  1  0.921980  0.576180  0.541760  1.0  -0.1492
  C  C132  1  0.128460  0.644860  0.602920  1.0  0.0209
  C  C133  1  0.145300  0.603500  0.576400  1.0  -0.2068
  C  C134  1  0.307600  0.803100  0.721400  1.0  0.5131
  C  C135  1  0.100890  0.565690  0.547780  1.0  -0.1191
  C  C136  1  0.069340  0.648940  0.600880  1.0  -0.1945
  C  C137  1  0.780400  0.889400  0.679000  1.0  0.5901
  C  C138  1  0.459240  0.948440  0.633880  1.0  0.0708
  C  C139  1  0.417780  0.981280  0.646960  1.0  -0.1291
  C  C140  1  0.403230  0.972930  0.676260  1.0  -0.0576
  C  C141  1  0.430130  0.931830  0.692460  1.0  -0.106
  C  C142  1  0.471490  0.898990  0.679380  1.0  -0.0518
  C  C143  1  0.486040  0.907240  0.650080  1.0  -0.1367
  C  C144  1  0.652980  0.939180  0.597160  1.0  0.0409
  C  C145  1  0.706280  0.974280  0.614760  1.0  -0.1161
  C  C146  1  0.749640  0.959440  0.641680  1.0  -0.0485
  C  C147  1  0.739690  0.909490  0.650980  1.0  -0.125
  C  C148  1  0.686490  0.874390  0.633380  1.0  -0.053
  C  C149  1  0.643130  0.889230  0.606460  1.0  -0.0824
  C  C150  1  0.604750  0.956450  0.570700  1.0  0.0626
  C  C151  1  0.547340  0.961740  0.572080  1.0  0.0201
  C  C152  1  0.504970  0.976170  0.544540  1.0  0.0501
  C  C153  1  0.520000  0.985400  0.515600  1.0  -0.0638
  C  C154  1  0.577410  0.980110  0.514220  1.0  0.3032
  C  C155  1  0.619780  0.965580  0.541760  1.0  -0.149
  C  C156  1  0.474460  0.958060  0.602920  1.0  0.0207
  C  C157  1  0.431100  0.972900  0.576400  1.0  -0.2075
  C  C158  1  0.413800  0.918300  0.721400  1.0  0.5136
  C  C159  1  0.446890  0.982090  0.547780  1.0  -0.1168
  C  C160  1  0.531540  0.951940  0.600880  1.0  -0.1944
  C  C161  1  0.039600  0.530400  0.179000  1.0  0.5879
  C  C162  1  0.935440  0.209240  0.133880  1.0  0.0733
  C  C163  1  0.915680  0.167780  0.146960  1.0  -0.1282
  C  C164  1  0.953330  0.153230  0.176260  1.0  -0.0576
  C  C165  1  0.010630  0.180130  0.192460  1.0  -0.1068
  C  C166  1  0.030390  0.221490  0.179380  1.0  -0.051
  C  C167  1  0.992840  0.236040  0.150080  1.0  -0.1371
  C  C168  1  0.907980  0.402980  0.097160  1.0  0.0424
  C  C169  1  0.890480  0.456280  0.114760  1.0  -0.1206
  C  C170  1  0.932240  0.499640  0.141680  1.0  -0.0486
  C  C171  1  0.991490  0.489690  0.150980  1.0  -0.1252
  C  C172  1  0.008990  0.436490  0.133380  1.0  -0.0527
  C  C173  1  0.967230  0.393130  0.106460  1.0  -0.0794
  C  C174  1  0.864250  0.354750  0.070700  1.0  0.0633
  C  C175  1  0.860340  0.297340  0.072080  1.0  0.02
  C  C176  1  0.818370  0.254970  0.044540  1.0  0.05
  C  C177  1  0.780200  0.270000  0.015600  1.0  -0.0629
  C  C178  1  0.784110  0.327410  0.014220  1.0  0.3062
  C  C179  1  0.826180  0.369780  0.041760  1.0  -0.1475
  C  C180  1  0.894860  0.224460  0.102920  1.0  0.0219
  C  C181  1  0.853500  0.181100  0.076400  1.0  -0.2063
  C  C182  1  0.053100  0.163800  0.221400  1.0  0.5164
  C  C183  1  0.815690  0.196890  0.047780  1.0  -0.117
  C  C184  1  0.898940  0.281540  0.100880  1.0  -0.1933
  C  C185  1  0.139400  0.648600  0.179000  1.0  0.5909
  C  C186  1  0.198440  0.924640  0.133880  1.0  0.0742
  C  C187  1  0.231280  0.979180  0.146960  1.0  -0.1288
  C  C188  1  0.222930  0.023030  0.176260  1.0  -0.0571
  C  C189  1  0.181830  0.012330  0.192460  1.0  -0.1085
  C  C190  1  0.148990  0.957890  0.179380  1.0  -0.0511
  C  C191  1  0.157240  0.914040  0.150080  1.0  -0.1367
  C  C192  1  0.189180  0.694180  0.097160  1.0  0.0424
  C  C193  1  0.224280  0.658480  0.114760  1.0  -0.115
  C  C194  1  0.209440  0.642040  0.141680  1.0  -0.0487
  C  C195  1  0.159490  0.661290  0.150980  1.0  -0.1262
  C  C196  1  0.124390  0.696890  0.133380  1.0  -0.0545
  C  C197  1  0.139230  0.713330  0.106460  1.0  -0.0821
  C  C198  1  0.206450  0.715950  0.070700  1.0  0.0628
  C  C199  1  0.211740  0.774740  0.072080  1.0  0.0192
  C  C200  1  0.226170  0.789570  0.044540  1.0  0.0505
  C  C201  1  0.235400  0.745600  0.015600  1.0  -0.0641
  C  C202  1  0.230110  0.686810  0.014220  1.0  0.3077
  C  C203  1  0.215580  0.671980  0.041760  1.0  -0.1437
  C  C204  1  0.208060  0.878460  0.102920  1.0  0.0231
  C  C205  1  0.222900  0.895300  0.076400  1.0  -0.2091
  C  C206  1  0.168300  0.057600  0.221400  1.0  0.5156
  C  C207  1  0.232090  0.850890  0.047780  1.0  -0.1208
  C  C208  1  0.201940  0.819340  0.100880  1.0  -0.1959
  C  C209  1  0.469600  0.960400  0.821000  1.0  0.5895
  C  C210  1  0.790760  0.064560  0.866120  1.0  0.0711
  C  C211  1  0.832220  0.084320  0.853040  1.0  -0.1287
  C  C212  1  0.846770  0.046670  0.823740  1.0  -0.0559
  C  C213  1  0.819870  0.989370  0.807540  1.0  -0.1067
  C  C214  1  0.778510  0.969610  0.820620  1.0  -0.0498
  C  C215  1  0.763960  0.007160  0.849920  1.0  -0.138
  C  C216  1  0.597020  0.092020  0.902840  1.0  0.0418
  C  C217  1  0.543720  0.109520  0.885240  1.0  -0.1171
  C  C218  1  0.500360  0.067760  0.858320  1.0  -0.0512
  C  C219  1  0.510310  0.008510  0.849020  1.0  -0.1257
  C  C220  1  0.563510  0.991010  0.866620  1.0  -0.0521
  C  C221  1  0.606870  0.032770  0.893540  1.0  -0.0831
  C  C222  1  0.645250  0.135750  0.929300  1.0  0.0616
  C  C223  1  0.702660  0.139660  0.927920  1.0  0.0203
  C  C224  1  0.745030  0.181630  0.955460  1.0  0.05
  C  C225  1  0.730000  0.219800  0.984400  1.0  -0.0649
  C  C226  1  0.672590  0.215890  0.985780  1.0  0.3051
  C  C227  1  0.630220  0.173820  0.958240  1.0  -0.1516
  C  C228  1  0.775540  0.105140  0.897080  1.0  0.0211
  C  C229  1  0.818900  0.146500  0.923600  1.0  -0.2076
  C  C230  1  0.836200  0.946900  0.778600  1.0  0.5138
  C  C231  1  0.803110  0.184310  0.952220  1.0  -0.1162
  C  C232  1  0.718460  0.101060  0.899120  1.0  -0.1955
  C  C233  1  0.351400  0.860600  0.821000  1.0  0.5913
  C  C234  1  0.075360  0.801560  0.866120  1.0  0.0711
  C  C235  1  0.020820  0.768720  0.853040  1.0  -0.1294
  C  C236  1  0.976970  0.777070  0.823740  1.0  -0.0573
  C  C237  1  0.987670  0.818170  0.807540  1.0  -0.1078
  C  C238  1  0.042110  0.851010  0.820620  1.0  -0.0517
  C  C239  1  0.085960  0.842760  0.849920  1.0  -0.1374
  C  C240  1  0.305820  0.810820  0.902840  1.0  0.0411
  C  C241  1  0.341520  0.775720  0.885240  1.0  -0.1165
  C  C242  1  0.357960  0.790560  0.858320  1.0  -0.0499
  C  C243  1  0.338710  0.840510  0.849020  1.0  -0.1285
  C  C244  1  0.303110  0.875610  0.866620  1.0  -0.0543
  C  C245  1  0.286670  0.860770  0.893540  1.0  -0.0848
  C  C246  1  0.284050  0.793550  0.929300  1.0  0.062
  C  C247  1  0.225260  0.788260  0.927920  1.0  0.0195
  C  C248  1  0.210430  0.773830  0.955460  1.0  0.0504
  C  C249  1  0.254400  0.764600  0.984400  1.0  -0.0634
  C  C250  1  0.313190  0.769890  0.985780  1.0  0.3032
  C  C251  1  0.328020  0.784420  0.958240  1.0  -0.1454
  C  C252  1  0.121540  0.791940  0.897080  1.0  0.0214
  C  C253  1  0.104700  0.777100  0.923600  1.0  -0.208
  C  C254  1  0.942400  0.831700  0.778600  1.0  0.5131
  C  C255  1  0.149110  0.767910  0.952220  1.0  -0.12
  C  C256  1  0.180660  0.798060  0.899120  1.0  -0.1955
  C  C257  1  0.110600  0.219600  0.321000  1.0  0.589
  C  C258  1  0.051560  0.540760  0.366120  1.0  0.0733
  C  C259  1  0.018720  0.582220  0.353040  1.0  -0.1281
  C  C260  1  0.027070  0.596770  0.323740  1.0  -0.0578
  C  C261  1  0.068170  0.569870  0.307540  1.0  -0.1064
  C  C262  1  0.101010  0.528510  0.320620  1.0  -0.0512
  C  C263  1  0.092760  0.513960  0.349920  1.0  -0.1349
  C  C264  1  0.060820  0.347020  0.402840  1.0  0.0431
  C  C265  1  0.025720  0.293720  0.385240  1.0  -0.119
  C  C266  1  0.040560  0.250360  0.358320  1.0  -0.0457
  C  C267  1  0.090510  0.260310  0.349020  1.0  -0.1247
  C  C268  1  0.125610  0.313510  0.366620  1.0  -0.0547
  C  C269  1  0.110770  0.356870  0.393540  1.0  -0.0793
  C  C270  1  0.043550  0.395250  0.429300  1.0  0.063
  C  C271  1  0.038260  0.452660  0.427920  1.0  0.0201
  C  C272  1  0.023830  0.495030  0.455460  1.0  0.0502
  C  C273  1  0.014600  0.480000  0.484400  1.0  -0.0637
  C  C274  1  0.019890  0.422590  0.485780  1.0  0.3082
  C  C275  1  0.034420  0.380220  0.458240  1.0  -0.1454
  C  C276  1  0.041940  0.525540  0.397080  1.0  0.0228
  C  C277  1  0.027100  0.568900  0.423600  1.0  -0.2076
  C  C278  1  0.081700  0.586200  0.278600  1.0  0.5157
  C  C279  1  0.017910  0.553110  0.452220  1.0  -0.1175
  C  C280  1  0.048060  0.468460  0.399120  1.0  -0.1941
  C  C281  1  0.210400  0.101400  0.321000  1.0  0.5903
  C  C282  1  0.314560  0.825360  0.366120  1.0  0.0732
  C  C283  1  0.334320  0.770820  0.353040  1.0  -0.1267
  C  C284  1  0.296670  0.726970  0.323740  1.0  -0.0574
  C  C285  1  0.239370  0.737670  0.307540  1.0  -0.1082
  C  C286  1  0.219610  0.792110  0.320620  1.0  -0.054
  C  C287  1  0.257160  0.835960  0.349920  1.0  -0.1376
  C  C288  1  0.342020  0.055820  0.402840  1.0  0.0423
  C  C289  1  0.359520  0.091520  0.385240  1.0  -0.1172
  C  C290  1  0.317760  0.107960  0.358320  1.0  -0.0496
  C  C291  1  0.258510  0.088710  0.349020  1.0  -0.1277
  C  C292  1  0.241010  0.053110  0.366620  1.0  -0.0538
  C  C293  1  0.282770  0.036670  0.393540  1.0  -0.0832
  C  C294  1  0.385750  0.034050  0.429300  1.0  0.0626
  C  C295  1  0.389660  0.975260  0.427920  1.0  0.0194
  C  C296  1  0.431630  0.960430  0.455460  1.0  0.0493
  C  C297  1  0.469800  0.004400  0.484400  1.0  -0.0652
  C  C298  1  0.465890  0.063190  0.485780  1.0  0.3097
  C  C299  1  0.423820  0.078020  0.458240  1.0  -0.1422
  C  C300  1  0.355140  0.871540  0.397080  1.0  0.0221
  C  C301  1  0.396500  0.854700  0.423600  1.0  -0.2072
  C  C302  1  0.196900  0.692400  0.278600  1.0  0.5155
  C  C303  1  0.434310  0.899110  0.452220  1.0  -0.1206
  C  C304  1  0.351060  0.930660  0.399120  1.0  -0.1952
  O  O305  1  0.917940  0.841440  0.690480  1.0  -0.5484
  O  O306  1  0.359520  0.797220  0.732640  1.0  -0.5577
  O  O307  1  0.293340  0.862840  0.734680  1.0  -0.5816
  O  O308  1  0.858610  0.770410  0.693620  1.0  -0.5701
  O  O309  1  0.895700  0.495600  0.486600  1.0  -0.4924
  O  O310  1  0.772540  0.849040  0.690480  1.0  -0.5482
  O  O311  1  0.373120  0.935420  0.732640  1.0  -0.5576
  O  O312  1  0.441340  0.871840  0.734680  1.0  -0.5829
  O  O313  1  0.835010  0.923210  0.693620  1.0  -0.5701
  O  O314  1  0.590900  0.991000  0.486600  1.0  -0.4919
  O  O315  1  0.091440  0.522540  0.190480  1.0  -0.549
  O  O316  1  0.047220  0.123120  0.232640  1.0  -0.5576
  O  O317  1  0.112840  0.191340  0.234680  1.0  -0.5803
  O  O318  1  0.020410  0.585010  0.193620  1.0  -0.5691
  O  O319  1  0.745600  0.340900  0.986600  1.0  -0.4933
  O  O320  1  0.099040  0.667940  0.190480  1.0  -0.5494
  O  O321  1  0.185420  0.109520  0.232640  1.0  -0.5561
  O  O322  1  0.121840  0.043340  0.234680  1.0  -0.5824
  O  O323  1  0.173210  0.608610  0.193620  1.0  -0.5703
  O  O324  1  0.241000  0.645700  0.986600  1.0  -0.4989
  O  O325  1  0.477460  0.908560  0.809520  1.0  -0.5502
  O  O326  1  0.876880  0.952780  0.767360  1.0  -0.5576
  O  O327  1  0.808660  0.887160  0.765320  1.0  -0.5821
  O  O328  1  0.414990  0.979590  0.806380  1.0  -0.5692
  O  O329  1  0.659100  0.254400  0.013400  1.0  -0.4927
  O  O330  1  0.332060  0.900960  0.809520  1.0  -0.5496
  O  O331  1  0.890480  0.814580  0.767360  1.0  -0.5564
  O  O332  1  0.956660  0.878160  0.765320  1.0  -0.582
  O  O333  1  0.391390  0.826790  0.806380  1.0  -0.5705
  O  O334  1  0.354300  0.759000  0.013400  1.0  -0.4979
  O  O335  1  0.150960  0.227460  0.309520  1.0  -0.549
  O  O336  1  0.064580  0.626880  0.267360  1.0  -0.5583
  O  O337  1  0.128160  0.558660  0.265320  1.0  -0.5815
  O  O338  1  0.076790  0.164990  0.306380  1.0  -0.5692
  O  O339  1  0.009000  0.409100  0.513400  1.0  -0.4926
  O  O340  1  0.158560  0.082060  0.309520  1.0  -0.5481
  O  O341  1  0.202780  0.640480  0.267360  1.0  -0.5577
  O  O342  1  0.137160  0.706660  0.265320  1.0  -0.5806
  O  O343  1  0.229590  0.141390  0.306380  1.0  -0.5707
  O  O344  1  0.504400  0.104300  0.513400  1.0  -0.4923
