# generated using pymatgen
data_CuH16(C6O)5
_symmetry_space_group_name_H-M   'P 1'
_cell_length_a   30.94920000
_cell_length_b   30.94920000
_cell_length_c   45.91360000
_cell_angle_alpha   70.30350000
_cell_angle_beta   70.30350000
_cell_angle_gamma   89.99990000
_symmetry_Int_Tables_number   1
_chemical_formula_structural   CuH16(C6O)5
_chemical_formula_sum   'Cu8 H128 C240 O40'
_cell_volume   38661.34800694
_cell_formula_units_Z   8
loop_
 _symmetry_equiv_pos_site_id
 _symmetry_equiv_pos_as_xyz
  1  'x, y, z'
loop_
 _atom_site_type_symbol
 _atom_site_label
 _atom_site_symmetry_multiplicity
 _atom_site_fract_x
 _atom_site_fract_y
 _atom_site_fract_z
 _atom_site_occupancy
 _atom_site_charge
  Cu  Cu1  1  0.638880  0.081580  0.780240  1.0  0.9297
  Cu  Cu2  1  0.580880  0.138180  0.780240  1.0  0.9324
  Cu  Cu3  1  0.831580  0.830880  0.280240  1.0  0.9321
  Cu  Cu4  1  0.888180  0.888880  0.280240  1.0  0.9383
  Cu  Cu5  1  0.169120  0.168420  0.719760  1.0  0.9328
  Cu  Cu6  1  0.111120  0.111820  0.719760  1.0  0.9375
  Cu  Cu7  1  0.861820  0.419120  0.219760  1.0  0.932
  Cu  Cu8  1  0.918420  0.361120  0.219760  1.0  0.9309
  H  H9  1  0.713200  0.126500  0.888000  1.0  0.1251
  H  H10  1  0.691300  0.103300  0.851400  1.0  0.119
  H  H11  1  0.596800  0.192300  0.852400  1.0  0.1186
  H  H12  1  0.618800  0.215700  0.888800  1.0  0.1215
  H  H13  1  0.929200  0.151100  0.835400  1.0  0.1288
  H  H14  1  0.981900  0.133600  0.792600  1.0  0.1212
  H  H15  1  0.085000  0.205200  0.798400  1.0  0.1233
  H  H16  1  0.032300  0.222800  0.841200  1.0  0.1184
  H  H17  1  0.672500  0.200700  0.973800  1.0  0.1191
  H  H18  1  0.807800  0.184400  0.898800  1.0  0.1394
  H  H19  1  0.909600  0.218700  0.925800  1.0  0.1254
  H  H20  1  0.854700  0.232400  0.970400  1.0  0.127
  H  H21  1  0.742500  0.163000  0.910200  1.0  0.1407
  H  H22  1  0.662500  0.207800  0.925800  1.0  0.1231
  H  H23  1  0.887300  0.175700  0.866400  1.0  0.1357
  H  H24  1  0.956000  0.218400  0.880400  1.0  0.1462
  H  H25  1  0.398800  0.985500  0.888000  1.0  0.1241
  H  H26  1  0.457300  0.045300  0.851400  1.0  0.1191
  H  H27  1  0.550800  0.955300  0.852400  1.0  0.1189
  H  H28  1  0.492400  0.895500  0.888800  1.0  0.1193
  H  H29  1  0.235400  0.013500  0.835400  1.0  0.129
  H  H30  1  0.225500  0.073800  0.792600  1.0  0.1217
  H  H31  1  0.116600  0.996400  0.798400  1.0  0.1232
  H  H32  1  0.126500  0.936000  0.841200  1.0  0.1183
  H  H33  1  0.353700  0.825500  0.973800  1.0  0.1181
  H  H34  1  0.293400  0.916800  0.898800  1.0  0.1408
  H  H35  1  0.164600  0.855500  0.925800  1.0  0.1246
  H  H36  1  0.174900  0.797200  0.970400  1.0  0.1258
  H  H37  1  0.347300  0.926800  0.910200  1.0  0.1417
  H  H38  1  0.411700  0.866400  0.925800  1.0  0.1232
  H  H39  1  0.246300  0.957900  0.866400  1.0  0.1354
  H  H40  1  0.163600  0.901200  0.880400  1.0  0.1449
  H  H41  1  0.876500  0.648800  0.388000  1.0  0.1237
  H  H42  1  0.853300  0.707300  0.351400  1.0  0.1193
  H  H43  1  0.942300  0.800800  0.352400  1.0  0.1188
  H  H44  1  0.965700  0.742400  0.388800  1.0  0.1224
  H  H45  1  0.901100  0.485400  0.335400  1.0  0.1296
  H  H46  1  0.883600  0.475500  0.292600  1.0  0.1215
  H  H47  1  0.955200  0.366600  0.298400  1.0  0.1233
  H  H48  1  0.972800  0.376500  0.341200  1.0  0.1187
  H  H49  1  0.950700  0.603700  0.473800  1.0  0.117
  H  H50  1  0.934400  0.543400  0.398800  1.0  0.1381
  H  H51  1  0.968700  0.414600  0.425800  1.0  0.1267
  H  H52  1  0.982400  0.424900  0.470400  1.0  0.1276
  H  H53  1  0.913000  0.597300  0.410200  1.0  0.1399
  H  H54  1  0.957800  0.661700  0.425800  1.0  0.1243
  H  H55  1  0.925700  0.496300  0.366400  1.0  0.1356
  H  H56  1  0.968400  0.413600  0.380400  1.0  0.1447
  H  H57  1  0.735500  0.963200  0.388000  1.0  0.1237
  H  H58  1  0.795300  0.941300  0.351400  1.0  0.1214
  H  H59  1  0.705300  0.846800  0.352400  1.0  0.1181
  H  H60  1  0.645500  0.868800  0.388800  1.0  0.1225
  H  H61  1  0.763500  0.179200  0.335400  1.0  0.1296
  H  H62  1  0.823800  0.231900  0.292600  1.0  0.1213
  H  H63  1  0.746400  0.335000  0.298400  1.0  0.123
  H  H64  1  0.686000  0.282300  0.341200  1.0  0.1178
  H  H65  1  0.575500  0.922500  0.473800  1.0  0.1175
  H  H66  1  0.666800  0.057800  0.398800  1.0  0.1405
  H  H67  1  0.605500  0.159600  0.425800  1.0  0.1263
  H  H68  1  0.547200  0.104700  0.470400  1.0  0.1264
  H  H69  1  0.676800  0.992500  0.410200  1.0  0.1425
  H  H70  1  0.616400  0.912500  0.425800  1.0  0.1228
  H  H71  1  0.707900  0.137300  0.366400  1.0  0.1349
  H  H72  1  0.651200  0.206000  0.380400  1.0  0.144
  H  H73  1  0.351200  0.123500  0.612000  1.0  0.1244
  H  H74  1  0.292700  0.146700  0.648600  1.0  0.12
  H  H75  1  0.199200  0.057700  0.647600  1.0  0.119
  H  H76  1  0.257600  0.034300  0.611200  1.0  0.1211
  H  H77  1  0.514600  0.098900  0.664600  1.0  0.1283
  H  H78  1  0.524500  0.116400  0.707400  1.0  0.1207
  H  H79  1  0.633400  0.044800  0.701600  1.0  0.1233
  H  H80  1  0.623500  0.027200  0.658800  1.0  0.1181
  H  H81  1  0.396300  0.049300  0.526200  1.0  0.1177
  H  H82  1  0.456600  0.065600  0.601200  1.0  0.1392
  H  H83  1  0.585400  0.031300  0.574200  1.0  0.1258
  H  H84  1  0.575100  0.017600  0.529600  1.0  0.1264
  H  H85  1  0.402700  0.087000  0.589800  1.0  0.1416
  H  H86  1  0.338300  0.042200  0.574200  1.0  0.1244
  H  H87  1  0.503700  0.074300  0.633600  1.0  0.1362
  H  H88  1  0.586400  0.031600  0.619600  1.0  0.1441
  H  H89  1  0.036800  0.264500  0.612000  1.0  0.1249
  H  H90  1  0.058700  0.204700  0.648600  1.0  0.1205
  H  H91  1  0.153200  0.294700  0.647600  1.0  0.1192
  H  H92  1  0.131200  0.354500  0.611200  1.0  0.1221
  H  H93  1  0.820800  0.236500  0.664600  1.0  0.1283
  H  H94  1  0.768100  0.176200  0.707400  1.0  0.1207
  H  H95  1  0.665000  0.253600  0.701600  1.0  0.1216
  H  H96  1  0.717700  0.314000  0.658800  1.0  0.1188
  H  H97  1  0.077500  0.424500  0.526200  1.0  0.1186
  H  H98  1  0.942200  0.333200  0.601200  1.0  0.1419
  H  H99  1  0.840400  0.394500  0.574200  1.0  0.1259
  H  H100  1  0.895300  0.452800  0.529600  1.0  0.1258
  H  H101  1  0.007500  0.323200  0.589800  1.0  0.1403
  H  H102  1  0.087500  0.383600  0.574200  1.0  0.1229
  H  H103  1  0.862700  0.292100  0.633600  1.0  0.1351
  H  H104  1  0.794000  0.348800  0.619600  1.0  0.1448
  H  H105  1  0.014500  0.601200  0.112000  1.0  0.1252
  H  H106  1  0.954700  0.542700  0.148600  1.0  0.1176
  H  H107  1  0.044700  0.449200  0.147600  1.0  0.1186
  H  H108  1  0.104500  0.507600  0.111200  1.0  0.1201
  H  H109  1  0.986500  0.764600  0.164600  1.0  0.1281
  H  H110  1  0.926200  0.774500  0.207400  1.0  0.1216
  H  H111  1  0.003600  0.883400  0.201600  1.0  0.1233
  H  H112  1  0.064000  0.873500  0.158800  1.0  0.1194
  H  H113  1  0.174500  0.646300  0.026200  1.0  0.1175
  H  H114  1  0.083200  0.706600  0.101200  1.0  0.1412
  H  H115  1  0.144500  0.835400  0.074200  1.0  0.1261
  H  H116  1  0.202800  0.825100  0.029600  1.0  0.1273
  H  H117  1  0.073200  0.652700  0.089800  1.0  0.1405
  H  H118  1  0.133600  0.588300  0.074200  1.0  0.1237
  H  H119  1  0.042100  0.753700  0.133600  1.0  0.1353
  H  H120  1  0.098800  0.836400  0.119600  1.0  0.1438
  H  H121  1  0.873500  0.286800  0.112000  1.0  0.1248
  H  H122  1  0.896700  0.308700  0.148600  1.0  0.1196
  H  H123  1  0.807700  0.403200  0.147600  1.0  0.1187
  H  H124  1  0.784300  0.381200  0.111200  1.0  0.1218
  H  H125  1  0.848900  0.070800  0.164600  1.0  0.1297
  H  H126  1  0.866400  0.018100  0.207400  1.0  0.1208
  H  H127  1  0.794800  0.915000  0.201600  1.0  0.1239
  H  H128  1  0.777200  0.967700  0.158800  1.0  0.1184
  H  H129  1  0.799300  0.327500  0.026200  1.0  0.1165
  H  H130  1  0.815600  0.192200  0.101200  1.0  0.1416
  H  H131  1  0.781300  0.090400  0.074200  1.0  0.1259
  H  H132  1  0.767600  0.145300  0.029600  1.0  0.1281
  H  H133  1  0.837000  0.257500  0.089800  1.0  0.1417
  H  H134  1  0.792200  0.337500  0.074200  1.0  0.1234
  H  H135  1  0.824300  0.112700  0.133600  1.0  0.1369
  H  H136  1  0.781600  0.044000  0.119600  1.0  0.1463
  C  C137  1  0.668160  0.173460  0.892080  1.0  0.0205
  C  C138  1  0.689900  0.139800  0.880800  1.0  -0.1065
  C  C139  1  0.676700  0.125700  0.859000  1.0  -0.061
  C  C140  1  0.641860  0.145460  0.848280  1.0  -0.0996
  C  C141  1  0.620200  0.179200  0.859400  1.0  -0.0577
  C  C142  1  0.633300  0.193100  0.881400  1.0  -0.078
  C  C143  1  0.641900  0.228200  0.018400  1.0  0.035
  C  C144  1  0.644700  0.263600  0.984600  1.0  -0.0489
  C  C145  1  0.975530  0.188730  0.842540  1.0  -0.001
  C  C146  1  0.960400  0.162000  0.828000  1.0  -0.1469
  C  C147  1  0.992000  0.151400  0.802400  1.0  -0.066
  C  C148  1  0.038680  0.167680  0.791240  1.0  -0.1091
  C  C149  1  0.053800  0.194400  0.805800  1.0  -0.0737
  C  C150  1  0.022200  0.204900  0.831400  1.0  -0.1111
  C  C151  1  0.628900  0.130200  0.825600  1.0  0.6914
  C  C152  1  0.074300  0.156700  0.765800  1.0  0.6572
  C  C153  1  0.764400  0.225200  0.987200  1.0  0.0359
  C  C154  1  0.717660  0.219460  0.991880  1.0  0.2789
  C  C155  1  0.703800  0.204600  0.970600  1.0  -0.1631
  C  C156  1  0.736610  0.195510  0.944780  1.0  -0.0008
  C  C157  1  0.783310  0.201210  0.940180  1.0  0.0076
  C  C158  1  0.797200  0.216100  0.961400  1.0  -0.0135
  C  C159  1  0.817600  0.193700  0.913000  1.0  -0.0807
  C  C160  1  0.865300  0.199300  0.907000  1.0  -0.0199
  C  C161  1  0.878400  0.214300  0.929000  1.0  -0.1053
  C  C162  1  0.845100  0.222700  0.956200  1.0  -0.1363
  C  C163  1  0.723100  0.179900  0.921200  1.0  -0.1439
  C  C164  1  0.681700  0.190300  0.915200  1.0  -0.1453
  C  C165  1  0.897800  0.189700  0.878200  1.0  -0.1217
  C  C166  1  0.944700  0.202600  0.870000  1.0  -0.1294
  C  C167  1  0.439760  0.934460  0.892080  1.0  0.0186
  C  C168  1  0.429300  0.979400  0.880800  1.0  -0.1166
  C  C169  1  0.464300  0.015300  0.859000  1.0  -0.0612
  C  C170  1  0.509860  0.006260  0.848280  1.0  -0.0988
  C  C171  1  0.520400  0.961400  0.859400  1.0  -0.0577
  C  C172  1  0.485300  0.925500  0.881400  1.0  -0.0786
  C  C173  1  0.339700  0.753400  0.018400  1.0  0.0242
  C  C174  1  0.370700  0.751800  0.984600  1.0  -0.0474
  C  C175  1  0.181930  0.968730  0.842540  1.0  -0.0019
  C  C176  1  0.211600  0.010000  0.828000  1.0  -0.1456
  C  C177  1  0.205600  0.046200  0.802400  1.0  -0.0639
  C  C178  1  0.170080  0.041080  0.791240  1.0  -0.1081
  C  C179  1  0.140400  0.999800  0.805800  1.0  -0.0758
  C  C180  1  0.146400  0.963700  0.831400  1.0  -0.1117
  C  C181  1  0.545500  0.044200  0.825600  1.0  0.6907
  C  C182  1  0.159900  0.077500  0.765800  1.0  0.6575
  C  C183  1  0.248400  0.787600  0.987200  1.0  0.0359
  C  C184  1  0.290460  0.788660  0.991880  1.0  0.2781
  C  C185  1  0.325600  0.824800  0.970600  1.0  -0.1659
  C  C186  1  0.318610  0.859710  0.944780  1.0  -0.0006
  C  C187  1  0.276510  0.858610  0.940180  1.0  0.0078
  C  C188  1  0.241400  0.822500  0.961400  1.0  -0.0136
  C  C189  1  0.269400  0.893300  0.913000  1.0  -0.0791
  C  C190  1  0.227700  0.893700  0.907000  1.0  -0.0201
  C  C191  1  0.192600  0.856700  0.929000  1.0  -0.1098
  C  C192  1  0.198700  0.821100  0.956200  1.0  -0.136
  C  C193  1  0.355700  0.898900  0.921200  1.0  -0.1458
  C  C194  1  0.403100  0.894500  0.915200  1.0  -0.1435
  C  C195  1  0.224000  0.932100  0.878200  1.0  -0.122
  C  C196  1  0.185300  0.927400  0.870000  1.0  -0.1296
  C  C197  1  0.923460  0.689760  0.392080  1.0  0.0206
  C  C198  1  0.889800  0.679300  0.380800  1.0  -0.1085
  C  C199  1  0.875700  0.714300  0.359000  1.0  -0.0602
  C  C200  1  0.895460  0.759860  0.348280  1.0  -0.0988
  C  C201  1  0.929200  0.770400  0.359400  1.0  -0.0593
  C  C202  1  0.943100  0.735300  0.381400  1.0  -0.077
  C  C203  1  0.978200  0.589700  0.518400  1.0  0.0268
  C  C204  1  0.013600  0.620700  0.484600  1.0  -0.0464
  C  C205  1  0.938730  0.431930  0.342540  1.0  -0.0028
  C  C206  1  0.912000  0.461600  0.328000  1.0  -0.1463
  C  C207  1  0.901400  0.455600  0.302400  1.0  -0.0665
  C  C208  1  0.917680  0.420080  0.291240  1.0  -0.1086
  C  C209  1  0.944400  0.390400  0.305800  1.0  -0.075
  C  C210  1  0.954900  0.396400  0.331400  1.0  -0.1127
  C  C211  1  0.880200  0.795500  0.325600  1.0  0.6916
  C  C212  1  0.906700  0.409900  0.265800  1.0  0.6591
  C  C213  1  0.975200  0.498400  0.487200  1.0  0.035
  C  C214  1  0.969460  0.540460  0.491880  1.0  0.2796
  C  C215  1  0.954600  0.575600  0.470600  1.0  -0.1667
  C  C216  1  0.945510  0.568610  0.444780  1.0  0.0
  C  C217  1  0.951210  0.526510  0.440180  1.0  0.0083
  C  C218  1  0.966100  0.491400  0.461400  1.0  -0.0141
  C  C219  1  0.943700  0.519400  0.413000  1.0  -0.0804
  C  C220  1  0.949300  0.477700  0.407000  1.0  -0.0192
  C  C221  1  0.964300  0.442600  0.429000  1.0  -0.1075
  C  C222  1  0.972700  0.448700  0.456200  1.0  -0.133
  C  C223  1  0.929900  0.605700  0.421200  1.0  -0.1456
  C  C224  1  0.940300  0.653100  0.415200  1.0  -0.1449
  C  C225  1  0.939700  0.474000  0.378200  1.0  -0.1199
  C  C226  1  0.952600  0.435300  0.370000  1.0  -0.1297
  C  C227  1  0.684460  0.918160  0.392080  1.0  0.0212
  C  C228  1  0.729400  0.939900  0.380800  1.0  -0.1077
  C  C229  1  0.765300  0.926700  0.359000  1.0  -0.059
  C  C230  1  0.756260  0.891860  0.348280  1.0  -0.0988
  C  C231  1  0.711400  0.870200  0.359400  1.0  -0.059
  C  C232  1  0.675500  0.883300  0.381400  1.0  -0.0786
  C  C233  1  0.503400  0.891900  0.518400  1.0  0.0314
  C  C234  1  0.501800  0.894700  0.484600  1.0  -0.0556
  C  C235  1  0.718730  0.225530  0.342540  1.0  -0.002
  C  C236  1  0.760000  0.210400  0.328000  1.0  -0.1443
  C  C237  1  0.796200  0.242000  0.302400  1.0  -0.064
  C  C238  1  0.791080  0.288680  0.291240  1.0  -0.1091
  C  C239  1  0.749800  0.303800  0.305800  1.0  -0.0776
  C  C240  1  0.713700  0.272200  0.331400  1.0  -0.1118
  C  C241  1  0.794200  0.878900  0.325600  1.0  0.6906
  C  C242  1  0.827500  0.324300  0.265800  1.0  0.6589
  C  C243  1  0.537600  0.014400  0.487200  1.0  0.0348
  C  C244  1  0.538660  0.967660  0.491880  1.0  0.2783
  C  C245  1  0.574800  0.953800  0.470600  1.0  -0.1659
  C  C246  1  0.609710  0.986610  0.444780  1.0  -0.0012
  C  C247  1  0.608610  0.033310  0.440180  1.0  0.0082
  C  C248  1  0.572500  0.047200  0.461400  1.0  -0.015
  C  C249  1  0.643300  0.067600  0.413000  1.0  -0.0818
  C  C250  1  0.643700  0.115300  0.407000  1.0  -0.0207
  C  C251  1  0.606700  0.128400  0.429000  1.0  -0.1106
  C  C252  1  0.571100  0.095100  0.456200  1.0  -0.1396
  C  C253  1  0.648900  0.973100  0.421200  1.0  -0.1482
  C  C254  1  0.644500  0.931700  0.415200  1.0  -0.1456
  C  C255  1  0.682100  0.147800  0.378200  1.0  -0.1209
  C  C256  1  0.677400  0.194700  0.370000  1.0  -0.1312
  C  C257  1  0.310240  0.076540  0.607920  1.0  0.0213
  C  C258  1  0.320700  0.110200  0.619200  1.0  -0.111
  C  C259  1  0.285700  0.124300  0.641000  1.0  -0.0596
  C  C260  1  0.240140  0.104540  0.651720  1.0  -0.0996
  C  C261  1  0.229600  0.070800  0.640600  1.0  -0.0579
  C  C262  1  0.264700  0.056900  0.618600  1.0  -0.0788
  C  C263  1  0.410300  0.021800  0.481600  1.0  0.0243
  C  C264  1  0.379300  0.986400  0.515400  1.0  -0.0441
  C  C265  1  0.568070  0.061270  0.657460  1.0  -0.0031
  C  C266  1  0.538400  0.088000  0.672000  1.0  -0.1452
  C  C267  1  0.544400  0.098600  0.697600  1.0  -0.0652
  C  C268  1  0.579920  0.082320  0.708760  1.0  -0.1093
  C  C269  1  0.609600  0.055600  0.694200  1.0  -0.0726
  C  C270  1  0.603600  0.045100  0.668600  1.0  -0.1112
  C  C271  1  0.204500  0.119800  0.674400  1.0  0.6909
  C  C272  1  0.590100  0.093300  0.734200  1.0  0.6593
  C  C273  1  0.501600  0.024800  0.512800  1.0  0.0356
  C  C274  1  0.459540  0.030540  0.508120  1.0  0.2805
  C  C275  1  0.424400  0.045400  0.529400  1.0  -0.1689
  C  C276  1  0.431390  0.054490  0.555220  1.0  -0.0008
  C  C277  1  0.473490  0.048790  0.559820  1.0  0.0071
  C  C278  1  0.508600  0.033900  0.538600  1.0  -0.0141
  C  C279  1  0.480600  0.056300  0.587000  1.0  -0.0818
  C  C280  1  0.522300  0.050700  0.593000  1.0  -0.0196
  C  C281  1  0.557400  0.035700  0.571000  1.0  -0.1054
  C  C282  1  0.551300  0.027300  0.543800  1.0  -0.1342
  C  C283  1  0.394300  0.070100  0.578800  1.0  -0.1441
  C  C284  1  0.346900  0.059700  0.584800  1.0  -0.146
  C  C285  1  0.526000  0.060300  0.621800  1.0  -0.1217
  C  C286  1  0.564700  0.047400  0.630000  1.0  -0.1293
  C  C287  1  0.081840  0.315540  0.607920  1.0  0.0203
  C  C288  1  0.060100  0.270600  0.619200  1.0  -0.1082
  C  C289  1  0.073300  0.234700  0.641000  1.0  -0.0613
  C  C290  1  0.108140  0.243740  0.651720  1.0  -0.0987
  C  C291  1  0.129800  0.288600  0.640600  1.0  -0.0587
  C  C292  1  0.116700  0.324500  0.618600  1.0  -0.0787
  C  C293  1  0.108100  0.496600  0.481600  1.0  0.0262
  C  C294  1  0.105300  0.498200  0.515400  1.0  -0.0563
  C  C295  1  0.774470  0.281270  0.657460  1.0  -0.0004
  C  C296  1  0.789600  0.240000  0.672000  1.0  -0.1426
  C  C297  1  0.758000  0.203800  0.697600  1.0  -0.0639
  C  C298  1  0.711320  0.208920  0.708760  1.0  -0.109
  C  C299  1  0.696200  0.250200  0.694200  1.0  -0.0747
  C  C300  1  0.727800  0.286300  0.668600  1.0  -0.1119
  C  C301  1  0.121100  0.205800  0.674400  1.0  0.6912
  C  C302  1  0.675700  0.172500  0.734200  1.0  0.6574
  C  C303  1  0.985600  0.462400  0.512800  1.0  0.0359
  C  C304  1  0.032340  0.461340  0.508120  1.0  0.2775
  C  C305  1  0.046200  0.425200  0.529400  1.0  -0.1659
  C  C306  1  0.013390  0.390290  0.555220  1.0  -0.0012
  C  C307  1  0.966690  0.391390  0.559820  1.0  0.0069
  C  C308  1  0.952800  0.427500  0.538600  1.0  -0.014
  C  C309  1  0.932400  0.356700  0.587000  1.0  -0.0798
  C  C310  1  0.884700  0.356300  0.593000  1.0  -0.0208
  C  C311  1  0.871600  0.393300  0.571000  1.0  -0.1086
  C  C312  1  0.904900  0.428900  0.543800  1.0  -0.1348
  C  C313  1  0.026900  0.351100  0.578800  1.0  -0.1437
  C  C314  1  0.068300  0.355500  0.584800  1.0  -0.1446
  C  C315  1  0.852200  0.317900  0.621800  1.0  -0.1205
  C  C316  1  0.805300  0.322600  0.630000  1.0  -0.1292
  C  C317  1  0.065540  0.560240  0.107920  1.0  0.018
  C  C318  1  0.020600  0.570700  0.119200  1.0  -0.1138
  C  C319  1  0.984700  0.535700  0.141000  1.0  -0.0601
  C  C320  1  0.993740  0.490140  0.151720  1.0  -0.0991
  C  C321  1  0.038600  0.479600  0.140600  1.0  -0.0579
  C  C322  1  0.074500  0.514700  0.118600  1.0  -0.0775
  C  C323  1  0.246600  0.660300  0.981600  1.0  0.0241
  C  C324  1  0.248200  0.629300  0.015400  1.0  -0.0492
  C  C325  1  0.031270  0.818070  0.157460  1.0  -0.0036
  C  C326  1  0.990000  0.788400  0.172000  1.0  -0.1454
  C  C327  1  0.953800  0.794400  0.197600  1.0  -0.0654
  C  C328  1  0.958920  0.829920  0.208760  1.0  -0.1101
  C  C329  1  0.000200  0.859600  0.194200  1.0  -0.0758
  C  C330  1  0.036300  0.853600  0.168600  1.0  -0.1119
  C  C331  1  0.955800  0.454500  0.174400  1.0  0.6909
  C  C332  1  0.922500  0.840100  0.234200  1.0  0.6583
  C  C333  1  0.212400  0.751600  0.012800  1.0  0.0354
  C  C334  1  0.211340  0.709540  0.008120  1.0  0.2777
  C  C335  1  0.175200  0.674400  0.029400  1.0  -0.1655
  C  C336  1  0.140290  0.681390  0.055220  1.0  -0.0011
  C  C337  1  0.141390  0.723490  0.059820  1.0  0.0072
  C  C338  1  0.177500  0.758600  0.038600  1.0  -0.0132
  C  C339  1  0.106700  0.730600  0.087000  1.0  -0.0802
  C  C340  1  0.106300  0.772300  0.093000  1.0  -0.0219
  C  C341  1  0.143300  0.807400  0.071000  1.0  -0.1066
  C  C342  1  0.178900  0.801300  0.043800  1.0  -0.1382
  C  C343  1  0.101100  0.644300  0.078800  1.0  -0.1488
  C  C344  1  0.105500  0.596900  0.084800  1.0  -0.1451
  C  C345  1  0.067900  0.776000  0.121800  1.0  -0.1211
  C  C346  1  0.072600  0.814700  0.130000  1.0  -0.1304
  C  C347  1  0.826540  0.331840  0.107920  1.0  0.0212
  C  C348  1  0.860200  0.310100  0.119200  1.0  -0.1056
  C  C349  1  0.874300  0.323300  0.141000  1.0  -0.06
  C  C350  1  0.854540  0.358140  0.151720  1.0  -0.0998
  C  C351  1  0.820800  0.379800  0.140600  1.0  -0.0568
  C  C352  1  0.806900  0.366700  0.118600  1.0  -0.0775
  C  C353  1  0.771800  0.358100  0.981600  1.0  0.0364
  C  C354  1  0.736400  0.355300  0.015400  1.0  -0.0479
  C  C355  1  0.811270  0.024470  0.157460  1.0  -0.0016
  C  C356  1  0.838000  0.039600  0.172000  1.0  -0.1456
  C  C357  1  0.848600  0.008000  0.197600  1.0  -0.0655
  C  C358  1  0.832320  0.961320  0.208760  1.0  -0.1102
  C  C359  1  0.805600  0.946200  0.194200  1.0  -0.0787
  C  C360  1  0.795100  0.977800  0.168600  1.0  -0.1126
  C  C361  1  0.869800  0.371100  0.174400  1.0  0.6908
  C  C362  1  0.843300  0.925700  0.234200  1.0  0.6591
  C  C363  1  0.774800  0.235600  0.012800  1.0  0.0362
  C  C364  1  0.780540  0.282340  0.008120  1.0  0.2833
  C  C365  1  0.795400  0.296200  0.029400  1.0  -0.1651
  C  C366  1  0.804490  0.263390  0.055220  1.0  0.0006
  C  C367  1  0.798790  0.216690  0.059820  1.0  0.0079
  C  C368  1  0.783900  0.202800  0.038600  1.0  -0.0139
  C  C369  1  0.806300  0.182400  0.087000  1.0  -0.0777
  C  C370  1  0.800700  0.134700  0.093000  1.0  -0.0198
  C  C371  1  0.785700  0.121600  0.071000  1.0  -0.1071
  C  C372  1  0.777300  0.154900  0.043800  1.0  -0.1383
  C  C373  1  0.820100  0.276900  0.078800  1.0  -0.1454
  C  C374  1  0.809700  0.318300  0.084800  1.0  -0.1462
  C  C375  1  0.810300  0.102200  0.121800  1.0  -0.1207
  C  C376  1  0.797400  0.055300  0.130000  1.0  -0.1302
  O  O377  1  0.648000  0.097300  0.816600  1.0  -0.5842
  O  O378  1  0.598300  0.148700  0.813800  1.0  -0.5961
  O  O379  1  0.117100  0.174400  0.757000  1.0  -0.5902
  O  O380  1  0.066000  0.130600  0.751200  1.0  -0.5623
  O  O381  1  0.687900  0.226200  0.018200  1.0  -0.3224
  O  O382  1  0.535400  0.086100  0.816600  1.0  -0.5833
  O  O383  1  0.587900  0.037500  0.813800  1.0  -0.5949
  O  O384  1  0.125900  0.068600  0.757000  1.0  -0.5926
  O  O385  1  0.182800  0.118200  0.751200  1.0  -0.562
  O  O386  1  0.293900  0.755600  0.018200  1.0  -0.3197
  O  O387  1  0.847300  0.785400  0.316600  1.0  -0.5835
  O  O388  1  0.898700  0.837900  0.313800  1.0  -0.5937
  O  O389  1  0.924400  0.375900  0.257000  1.0  -0.5914
  O  O390  1  0.880600  0.432800  0.251200  1.0  -0.5637
  O  O391  1  0.976200  0.543900  0.518200  1.0  -0.3196
  O  O392  1  0.836100  0.898000  0.316600  1.0  -0.5844
  O  O393  1  0.787500  0.848300  0.313800  1.0  -0.5944
  O  O394  1  0.818600  0.367100  0.257000  1.0  -0.5915
  O  O395  1  0.868200  0.316000  0.251200  1.0  -0.564
  O  O396  1  0.505600  0.937900  0.518200  1.0  -0.3236
  O  O397  1  0.214600  0.152700  0.683400  1.0  -0.5845
  O  O398  1  0.162100  0.101300  0.686200  1.0  -0.5945
  O  O399  1  0.624100  0.075600  0.743000  1.0  -0.5918
  O  O400  1  0.567200  0.119400  0.748800  1.0  -0.5627
  O  O401  1  0.456100  0.023800  0.481800  1.0  -0.3231
  O  O402  1  0.102000  0.163900  0.683400  1.0  -0.5816
  O  O403  1  0.151700  0.212500  0.686200  1.0  -0.5956
  O  O404  1  0.632900  0.181400  0.743000  1.0  -0.5913
  O  O405  1  0.684000  0.131800  0.748800  1.0  -0.5622
  O  O406  1  0.062100  0.494400  0.481800  1.0  -0.3238
  O  O407  1  0.913900  0.464600  0.183400  1.0  -0.5846
  O  O408  1  0.962500  0.412100  0.186200  1.0  -0.5938
  O  O409  1  0.931400  0.874100  0.243000  1.0  -0.5908
  O  O410  1  0.881800  0.817200  0.248800  1.0  -0.5617
  O  O411  1  0.244400  0.706100  0.981800  1.0  -0.3233
  O  O412  1  0.902700  0.352000  0.183400  1.0  -0.5841
  O  O413  1  0.851300  0.401700  0.186200  1.0  -0.5962
  O  O414  1  0.825600  0.882900  0.243000  1.0  -0.5907
  O  O415  1  0.869400  0.934000  0.248800  1.0  -0.5624
  O  O416  1  0.773800  0.312100  0.981800  1.0  -0.3248
