# generated using pymatgen
data_CuH4C14O5
_symmetry_space_group_name_H-M   'P 1'
_cell_length_a   15.71250000
_cell_length_b   15.71250000
_cell_length_c   26.13590000
_cell_angle_alpha   107.49300000
_cell_angle_beta   107.49300000
_cell_angle_gamma   90.00000000
_symmetry_Int_Tables_number   1
_chemical_formula_structural   CuH4C14O5
_chemical_formula_sum   'Cu8 H32 C112 O40'
_cell_volume   5840.46524088
_cell_formula_units_Z   8
loop_
 _symmetry_equiv_pos_site_id
 _symmetry_equiv_pos_as_xyz
  1  'x, y, z'
loop_
 _atom_site_type_symbol
 _atom_site_label
 _atom_site_symmetry_multiplicity
 _atom_site_fract_x
 _atom_site_fract_y
 _atom_site_fract_z
 _atom_site_occupancy
 _atom_site_charge
  Cu  Cu1  1  0.303300  0.296460  0.718260  1.0  0.9223
  Cu  Cu2  1  0.414960  0.421800  0.718260  1.0  0.9242
  Cu  Cu3  1  0.546460  0.164960  0.218260  1.0  0.9214
  Cu  Cu4  1  0.671800  0.053300  0.218260  1.0  0.9209
  Cu  Cu5  1  0.835040  0.453540  0.781740  1.0  0.9235
  Cu  Cu6  1  0.946700  0.328200  0.781740  1.0  0.9221
  Cu  Cu7  1  0.578200  0.585040  0.281740  1.0  0.9217
  Cu  Cu8  1  0.703540  0.696700  0.281740  1.0  0.9239
  H  H9  1  0.402700  0.606900  0.878600  1.0  0.1198
  H  H10  1  0.007500  0.641800  0.937600  1.0  0.1234
  H  H11  1  0.157400  0.472700  0.820000  1.0  0.1144
  H  H12  1  0.369100  0.700700  0.952800  1.0  0.1201
  H  H13  1  0.475900  0.271700  0.878600  1.0  0.1201
  H  H14  1  0.930100  0.295800  0.937600  1.0  0.1225
  H  H15  1  0.662600  0.347300  0.820000  1.0  0.1149
  H  H16  1  0.583700  0.252100  0.952800  1.0  0.121
  H  H17  1  0.856900  0.225900  0.378600  1.0  0.1194
  H  H18  1  0.891800  0.680100  0.437600  1.0  0.1207
  H  H19  1  0.722700  0.412600  0.320000  1.0  0.1132
  H  H20  1  0.950700  0.333700  0.452800  1.0  0.1186
  H  H21  1  0.521700  0.152700  0.378600  1.0  0.1204
  H  H22  1  0.545800  0.757500  0.437600  1.0  0.1222
  H  H23  1  0.597300  0.907400  0.320000  1.0  0.1138
  H  H24  1  0.502100  0.119100  0.452800  1.0  0.1185
  H  H25  1  0.774100  0.143100  0.621400  1.0  0.12
  H  H26  1  0.319900  0.108200  0.562400  1.0  0.1223
  H  H27  1  0.587400  0.277300  0.680000  1.0  0.1141
  H  H28  1  0.666300  0.049300  0.547200  1.0  0.1187
  H  H29  1  0.847300  0.478300  0.621400  1.0  0.12
  H  H30  1  0.242500  0.454200  0.562400  1.0  0.1229
  H  H31  1  0.092600  0.402700  0.680000  1.0  0.1139
  H  H32  1  0.880900  0.497900  0.547200  1.0  0.1196
  H  H33  1  0.728300  0.524100  0.121400  1.0  0.1208
  H  H34  1  0.704200  0.069900  0.062400  1.0  0.1216
  H  H35  1  0.652700  0.337400  0.180000  1.0  0.116
  H  H36  1  0.747900  0.416300  0.047200  1.0  0.12
  H  H37  1  0.393100  0.597300  0.121400  1.0  0.1201
  H  H38  1  0.358200  0.992500  0.062400  1.0  0.1221
  H  H39  1  0.527300  0.842600  0.180000  1.0  0.1133
  H  H40  1  0.299300  0.630900  0.047200  1.0  0.1204
  C  C41  1  0.346300  0.599800  0.882200  1.0  -0.0432
  C  C42  1  0.282740  0.529740  0.841880  1.0  -0.1336
  C  C43  1  0.087570  0.577470  0.895740  1.0  -0.0981
  C  C44  1  0.217570  0.712070  0.976940  1.0  -0.0377
  C  C45  1  0.174460  0.580260  0.890920  1.0  0.0534
  C  C46  1  0.239830  0.651230  0.932260  1.0  0.018
  C  C47  1  0.130630  0.707730  0.978260  1.0  0.2705
  C  C48  1  0.066450  0.642050  0.937100  1.0  -0.069
  C  C49  1  0.013220  0.507120  0.854640  1.0  0.7261
  C  C50  1  0.198700  0.519600  0.846400  1.0  -0.0351
  C  C51  1  0.325360  0.656560  0.925920  1.0  -0.1352
  C  C52  1  0.308640  0.466340  0.794680  1.0  0.7088
  C  C53  1  0.022300  0.803000  0.012800  1.0  0.0155
  C  C54  1  0.023000  0.888500  0.057800  1.0  -0.0132
  C  C55  1  0.535900  0.282400  0.882200  1.0  -0.0446
  C  C56  1  0.559140  0.312140  0.841880  1.0  -0.1334
  C  C57  1  0.808170  0.318270  0.895740  1.0  -0.0966
  C  C58  1  0.759370  0.264870  0.976940  1.0  -0.0372
  C  C59  1  0.716460  0.310660  0.890920  1.0  0.0526
  C  C60  1  0.692430  0.281030  0.932260  1.0  0.0178
  C  C61  1  0.847630  0.270530  0.978260  1.0  0.2682
  C  C62  1  0.870650  0.295050  0.937100  1.0  -0.069
  C  C63  1  0.841420  0.347520  0.854640  1.0  0.7291
  C  C64  1  0.647700  0.326800  0.846400  1.0  -0.0362
  C  C65  1  0.600560  0.269360  0.925920  1.0  -0.1336
  C  C66  1  0.486040  0.328340  0.794680  1.0  0.7077
  C  C67  1  0.990500  0.209800  0.012800  1.0  0.0108
  C  C68  1  0.034800  0.169300  0.057800  1.0  -0.0122
  C  C69  1  0.849800  0.285900  0.382200  1.0  -0.0455
  C  C70  1  0.779740  0.309140  0.341880  1.0  -0.1343
  C  C71  1  0.827470  0.558170  0.395740  1.0  -0.0967
  C  C72  1  0.962070  0.509370  0.476940  1.0  -0.0367
  C  C73  1  0.830260  0.466460  0.390920  1.0  0.053
  C  C74  1  0.901230  0.442430  0.432260  1.0  0.0168
  C  C75  1  0.957730  0.597630  0.478260  1.0  0.2641
  C  C76  1  0.892050  0.620650  0.437100  1.0  -0.0664
  C  C77  1  0.757120  0.591420  0.354640  1.0  0.7271
  C  C78  1  0.769600  0.397700  0.346400  1.0  -0.0377
  C  C79  1  0.906560  0.350560  0.425920  1.0  -0.1398
  C  C80  1  0.716340  0.236040  0.294680  1.0  0.7081
  C  C81  1  0.053000  0.740500  0.512800  1.0  0.0091
  C  C82  1  0.138500  0.784800  0.557800  1.0  -0.0095
  C  C83  1  0.532400  0.096300  0.382200  1.0  -0.0452
  C  C84  1  0.562140  0.032740  0.341880  1.0  -0.1329
  C  C85  1  0.568270  0.837570  0.395740  1.0  -0.097
  C  C86  1  0.514870  0.967570  0.476940  1.0  -0.0379
  C  C87  1  0.560660  0.924460  0.390920  1.0  0.0528
  C  C88  1  0.531030  0.989830  0.432260  1.0  0.0171
  C  C89  1  0.520530  0.880630  0.478260  1.0  0.2679
  C  C90  1  0.545050  0.816450  0.437100  1.0  -0.0677
  C  C91  1  0.597520  0.763220  0.354640  1.0  0.7305
  C  C92  1  0.576800  0.948700  0.346400  1.0  -0.036
  C  C93  1  0.519360  0.075360  0.425920  1.0  -0.1371
  C  C94  1  0.578340  0.058640  0.294680  1.0  0.7101
  C  C95  1  0.459800  0.772300  0.512800  1.0  0.0138
  C  C96  1  0.419300  0.773000  0.557800  1.0  -0.0144
  C  C97  1  0.714100  0.150200  0.617800  1.0  -0.044
  C  C98  1  0.690860  0.220260  0.658120  1.0  -0.1336
  C  C99  1  0.441830  0.172530  0.604260  1.0  -0.0971
  C  C100  1  0.490630  0.037930  0.523060  1.0  -0.0374
  C  C101  1  0.533540  0.169740  0.609080  1.0  0.0529
  C  C102  1  0.557570  0.098770  0.567740  1.0  0.0174
  C  C103  1  0.402370  0.042270  0.521740  1.0  0.2672
  C  C104  1  0.379350  0.107950  0.562900  1.0  -0.0684
  C  C105  1  0.408580  0.242880  0.645360  1.0  0.7282
  C  C106  1  0.602300  0.230400  0.653600  1.0  -0.0353
  C  C107  1  0.649440  0.093440  0.574080  1.0  -0.1381
  C  C108  1  0.763960  0.283660  0.705320  1.0  0.7095
  C  C109  1  0.259500  0.947000  0.487200  1.0  0.0152
  C  C110  1  0.215200  0.861500  0.442200  1.0  -0.0128
  C  C111  1  0.903700  0.467600  0.617800  1.0  -0.0438
  C  C112  1  0.967260  0.437860  0.658120  1.0  -0.1346
  C  C113  1  0.162430  0.431730  0.604260  1.0  -0.0969
  C  C114  1  0.032430  0.485130  0.523060  1.0  -0.0369
  C  C115  1  0.075540  0.439340  0.609080  1.0  0.0528
  C  C116  1  0.010170  0.468970  0.567740  1.0  0.0175
  C  C117  1  0.119370  0.479470  0.521740  1.0  0.2746
  C  C118  1  0.183550  0.454950  0.562900  1.0  -0.0693
  C  C119  1  0.236780  0.402480  0.645360  1.0  0.7274
  C  C120  1  0.051300  0.423200  0.653600  1.0  -0.0361
  C  C121  1  0.924640  0.480640  0.574080  1.0  -0.1334
  C  C122  1  0.941360  0.421660  0.705320  1.0  0.7093
  C  C123  1  0.227700  0.540200  0.487200  1.0  0.0144
  C  C124  1  0.227000  0.580700  0.442200  1.0  -0.014
  C  C125  1  0.717600  0.464100  0.117800  1.0  -0.0451
  C  C126  1  0.687860  0.440860  0.158120  1.0  -0.1319
  C  C127  1  0.681730  0.191830  0.104260  1.0  -0.0968
  C  C128  1  0.735130  0.240630  0.023060  1.0  -0.0368
  C  C129  1  0.689340  0.283540  0.109080  1.0  0.0528
  C  C130  1  0.718970  0.307570  0.067740  1.0  0.0158
  C  C131  1  0.729470  0.152370  0.021740  1.0  0.2689
  C  C132  1  0.704950  0.129350  0.062900  1.0  -0.0649
  C  C133  1  0.652480  0.158580  0.145360  1.0  0.7312
  C  C134  1  0.673200  0.352300  0.153600  1.0  -0.0367
  C  C135  1  0.730640  0.399440  0.074080  1.0  -0.1422
  C  C136  1  0.671660  0.513960  0.205320  1.0  0.7095
  C  C137  1  0.790200  0.009500  0.987200  1.0  0.0113
  C  C138  1  0.830700  0.965200  0.942200  1.0  -0.0128
  C  C139  1  0.400200  0.653700  0.117800  1.0  -0.045
  C  C140  1  0.470260  0.717260  0.158120  1.0  -0.1329
  C  C141  1  0.422530  0.912430  0.104260  1.0  -0.0966
  C  C142  1  0.287930  0.782430  0.023060  1.0  -0.037
  C  C143  1  0.419740  0.825540  0.109080  1.0  0.0527
  C  C144  1  0.348770  0.760170  0.067740  1.0  0.0174
  C  C145  1  0.292270  0.869370  0.021740  1.0  0.2678
  C  C146  1  0.357950  0.933550  0.062900  1.0  -0.0665
  C  C147  1  0.492880  0.986780  0.145360  1.0  0.7256
  C  C148  1  0.480400  0.801300  0.153600  1.0  -0.0365
  C  C149  1  0.343440  0.674640  0.074080  1.0  -0.1361
  C  C150  1  0.533660  0.691360  0.205320  1.0  0.7099
  C  C151  1  0.197000  0.977700  0.987200  1.0  0.0131
  C  C152  1  0.111500  0.977000  0.942200  1.0  -0.0109
  O  O153  1  0.262830  0.390900  0.770640  1.0  -0.567
  O  O154  1  0.373870  0.490380  0.782600  1.0  -0.5714
  O  O155  1  0.030230  0.427230  0.844440  1.0  -0.5838
  O  O156  1  0.939580  0.534700  0.834580  1.0  -0.5735
  O  O157  1  0.113530  0.770830  0.022460  1.0  -0.3301
  O  O158  1  0.507810  0.379740  0.770640  1.0  -0.5682
  O  O159  1  0.408730  0.292220  0.782600  1.0  -0.5697
  O  O160  1  0.814210  0.417210  0.844440  1.0  -0.5849
  O  O161  1  0.895000  0.299880  0.834580  1.0  -0.5737
  O  O162  1  0.908930  0.251630  0.022460  1.0  -0.3255
  O  O163  1  0.640900  0.257810  0.270640  1.0  -0.5669
  O  O164  1  0.740380  0.158730  0.282600  1.0  -0.5711
  O  O165  1  0.677230  0.564210  0.344440  1.0  -0.5815
  O  O166  1  0.784700  0.645000  0.334580  1.0  -0.5738
  O  O167  1  0.020830  0.658930  0.522460  1.0  -0.3264
  O  O168  1  0.629740  0.012830  0.270640  1.0  -0.5677
  O  O169  1  0.542220  0.123870  0.282600  1.0  -0.57
  O  O170  1  0.667210  0.780230  0.344440  1.0  -0.5826
  O  O171  1  0.549880  0.689580  0.334580  1.0  -0.5711
  O  O172  1  0.501630  0.863530  0.522460  1.0  -0.3297
  O  O173  1  0.742190  0.359100  0.729360  1.0  -0.5669
  O  O174  1  0.841270  0.259620  0.717400  1.0  -0.5723
  O  O175  1  0.435790  0.322770  0.655560  1.0  -0.584
  O  O176  1  0.355000  0.215300  0.665420  1.0  -0.5745
  O  O177  1  0.341070  0.979170  0.477540  1.0  -0.3247
  O  O178  1  0.987170  0.370260  0.729360  1.0  -0.5673
  O  O179  1  0.876130  0.457780  0.717400  1.0  -0.5708
  O  O180  1  0.219770  0.332790  0.655560  1.0  -0.583
  O  O181  1  0.310420  0.450120  0.665420  1.0  -0.5736
  O  O182  1  0.136470  0.498370  0.477540  1.0  -0.3296
  O  O183  1  0.620260  0.492190  0.229360  1.0  -0.5673
  O  O184  1  0.707780  0.591270  0.217400  1.0  -0.5718
  O  O185  1  0.582790  0.185790  0.155560  1.0  -0.5815
  O  O186  1  0.700120  0.105000  0.165420  1.0  -0.5726
  O  O187  1  0.748370  0.091070  0.977540  1.0  -0.3259
  O  O188  1  0.609100  0.737170  0.229360  1.0  -0.5673
  O  O189  1  0.509620  0.626130  0.217400  1.0  -0.5713
  O  O190  1  0.572770  0.969770  0.155560  1.0  -0.5834
  O  O191  1  0.465300  0.060420  0.165420  1.0  -0.5724
  O  O192  1  0.229170  0.886470  0.977540  1.0  -0.328
