# generated using pymatgen
data_K3Au5(CN)10
_symmetry_space_group_name_H-M   'P 1'
_cell_length_a   9.88790000
_cell_length_b   15.98260000
_cell_length_c   11.28870000
_cell_angle_alpha   90.00000000
_cell_angle_beta   111.17800000
_cell_angle_gamma   90.00000000
_symmetry_Int_Tables_number   1
_chemical_formula_structural   K3Au5(CN)10
_chemical_formula_sum   'K6 Au10 C20 N20'
_cell_volume   1663.51546673
_cell_formula_units_Z   2
loop_
 _symmetry_equiv_pos_site_id
 _symmetry_equiv_pos_as_xyz
  1  'x, y, z'
loop_
 _atom_site_type_symbol
 _atom_site_label
 _atom_site_symmetry_multiplicity
 _atom_site_fract_x
 _atom_site_fract_y
 _atom_site_fract_z
 _atom_site_occupancy
 _atom_site_charge
  K  K1  1  0.970860  0.452980  0.157840  1.0  0.957
  K  K2  1  0.529140  0.952980  0.342160  1.0  0.9565
  K  K3  1  0.029140  0.547020  0.842160  1.0  0.9569
  K  K4  1  0.470860  0.047020  0.657840  1.0  0.9573
  K  K5  1  0.000000  0.500000  0.500000  1.0  0.9549
  K  K6  1  0.500000  0.000000  0.000000  1.0  0.9549
  Au  Au7  1  0.149080  0.777340  0.361360  1.0  0.1994
  Au  Au8  1  0.914270  0.817270  0.088470  1.0  0.1386
  Au  Au9  1  0.350920  0.277340  0.138640  1.0  0.1999
  Au  Au10  1  0.585730  0.317270  0.411530  1.0  0.1394
  Au  Au11  1  0.850920  0.222660  0.638640  1.0  0.1996
  Au  Au12  1  0.085730  0.182730  0.911530  1.0  0.1379
  Au  Au13  1  0.649080  0.722660  0.861360  1.0  0.199
  Au  Au14  1  0.414270  0.682730  0.588470  1.0  0.1371
  Au  Au15  1  0.500000  0.500000  0.500000  1.0  0.2195
  Au  Au16  1  0.000000  0.000000  0.000000  1.0  0.2195
  C  C17  1  0.302300  0.449900  0.436200  1.0  0.1228
  C  C18  1  0.243000  0.889100  0.411000  1.0  0.0975
  C  C19  1  0.051200  0.666000  0.319200  1.0  0.0865
  C  C20  1  0.028600  0.749700  0.007300  1.0  0.1219
  C  C21  1  0.794000  0.879800  0.166500  1.0  0.149
  C  C22  1  0.197700  0.949900  0.063800  1.0  0.1239
  C  C23  1  0.257000  0.389100  0.089000  1.0  0.0961
  C  C24  1  0.448800  0.166000  0.180800  1.0  0.0873
  C  C25  1  0.471400  0.249700  0.492700  1.0  0.121
  C  C26  1  0.706000  0.379800  0.333500  1.0  0.149
  C  C27  1  0.697700  0.550100  0.563800  1.0  0.1244
  C  C28  1  0.757000  0.110900  0.589000  1.0  0.0958
  C  C29  1  0.948800  0.334000  0.680800  1.0  0.0882
  C  C30  1  0.971400  0.250300  0.992700  1.0  0.1217
  C  C31  1  0.206000  0.120200  0.833500  1.0  0.1493
  C  C32  1  0.802300  0.050100  0.936200  1.0  0.123
  C  C33  1  0.743000  0.610900  0.911000  1.0  0.0976
  C  C34  1  0.551200  0.834000  0.819200  1.0  0.0879
  C  C35  1  0.528600  0.750300  0.507300  1.0  0.1224
  C  C36  1  0.294000  0.620200  0.666500  1.0  0.1489
  N  N37  1  0.188000  0.422000  0.400100  1.0  -0.4653
  N  N38  1  0.299000  0.952300  0.443800  1.0  -0.5032
  N  N39  1  0.992700  0.603400  0.295900  1.0  -0.4713
  N  N40  1  0.087500  0.709000  0.958800  1.0  -0.4774
  N  N41  1  0.721700  0.915200  0.211100  1.0  -0.5444
  N  N42  1  0.312000  0.922000  0.099900  1.0  -0.4659
  N  N43  1  0.201000  0.452300  0.056200  1.0  -0.5014
  N  N44  1  0.507300  0.103400  0.204100  1.0  -0.4727
  N  N45  1  0.412500  0.209000  0.541200  1.0  -0.4754
  N  N46  1  0.778300  0.415200  0.288900  1.0  -0.5463
  N  N47  1  0.812000  0.578000  0.599900  1.0  -0.4648
  N  N48  1  0.701000  0.047700  0.556200  1.0  -0.4992
  N  N49  1  0.007300  0.396600  0.704100  1.0  -0.4737
  N  N50  1  0.912500  0.291000  0.041200  1.0  -0.4769
  N  N51  1  0.278300  0.084800  0.788900  1.0  -0.5436
  N  N52  1  0.688000  0.078000  0.900100  1.0  -0.4661
  N  N53  1  0.799000  0.547700  0.943800  1.0  -0.5014
  N  N54  1  0.492700  0.896600  0.795900  1.0  -0.4722
  N  N55  1  0.587500  0.791000  0.458800  1.0  -0.4787
  N  N56  1  0.221700  0.584800  0.711100  1.0  -0.5414
