# generated using pymatgen
data_CuH13C18O5
_symmetry_space_group_name_H-M   'P 1'
_cell_length_a   21.41690000
_cell_length_b   21.41690000
_cell_length_c   32.57290000
_cell_angle_alpha   109.19300000
_cell_angle_beta   109.19300000
_cell_angle_gamma   90.00010000
_symmetry_Int_Tables_number   1
_chemical_formula_structural   CuH13C18O5
_chemical_formula_sum   'Cu8 H104 C144 O40'
_cell_volume   13227.71086169
_cell_formula_units_Z   8
loop_
 _symmetry_equiv_pos_site_id
 _symmetry_equiv_pos_as_xyz
  1  'x, y, z'
loop_
 _atom_site_type_symbol
 _atom_site_label
 _atom_site_symmetry_multiplicity
 _atom_site_fract_x
 _atom_site_fract_y
 _atom_site_fract_z
 _atom_site_occupancy
 _atom_site_charge
  Cu  Cu1  1  0.841690  0.426980  0.782420  1.0  0.914
  Cu  Cu2  1  0.940730  0.355440  0.782420  1.0  0.9099
  Cu  Cu3  1  0.676980  0.690730  0.282420  1.0  0.9114
  Cu  Cu4  1  0.605440  0.591690  0.282420  1.0  0.9131
  Cu  Cu5  1  0.309270  0.323020  0.717580  1.0  0.9127
  Cu  Cu6  1  0.408310  0.394560  0.717580  1.0  0.9119
  Cu  Cu7  1  0.644560  0.059270  0.217580  1.0  0.9096
  Cu  Cu8  1  0.573020  0.158310  0.217580  1.0  0.9146
  H  H9  1  0.080100  0.654100  0.956600  1.0  0.1075
  H  H10  1  0.342100  0.696700  0.961800  1.0  0.0956
  H  H11  1  0.365900  0.620500  0.902000  1.0  0.1296
  H  H12  1  0.178600  0.525200  0.856800  1.0  0.1161
  H  H13  1  0.095500  0.510100  0.873600  1.0  0.1111
  H  H14  1  0.002100  0.592700  0.889600  1.0  0.1128
  H  H15  1  0.251100  0.477100  0.816800  1.0  0.1118
  H  H16  1  0.367700  0.548100  0.834200  1.0  0.0989
  H  H17  1  0.066300  0.770400  0.990800  1.0  0.0736
  H  H18  1  0.074200  0.730300  0.025200  1.0  0.076
  H  H19  1  0.143400  0.850800  0.072800  1.0  0.1122
  H  H20  1  0.083100  0.820000  0.080800  1.0  0.0988
  H  H21  1  0.069400  0.859000  0.045600  1.0  0.109
  H  H22  1  0.876500  0.302500  0.956600  1.0  0.1076
  H  H23  1  0.619700  0.265100  0.961800  1.0  0.0962
  H  H24  1  0.536100  0.281500  0.902000  1.0  0.1293
  H  H25  1  0.678200  0.331600  0.856800  1.0  0.1143
  H  H26  1  0.778100  0.363500  0.873600  1.0  0.1121
  H  H27  1  0.887500  0.296900  0.889600  1.0  0.1129
  H  H28  1  0.565700  0.339700  0.816800  1.0  0.1125
  H  H29  1  0.466500  0.286100  0.834200  1.0  0.0995
  H  H30  1  0.924500  0.220400  0.990800  1.0  0.0729
  H  H31  1  0.951000  0.294900  0.025200  1.0  0.0705
  H  H32  1  0.929400  0.222000  0.072800  1.0  0.1164
  H  H33  1  0.997700  0.260800  0.080800  1.0  0.0957
  H  H34  1  0.976200  0.186600  0.045600  1.0  0.1107
  H  H35  1  0.904100  0.626500  0.456600  1.0  0.1062
  H  H36  1  0.946700  0.369700  0.461800  1.0  0.0927
  H  H37  1  0.870500  0.286100  0.402000  1.0  0.1278
  H  H38  1  0.775200  0.428200  0.356800  1.0  0.1161
  H  H39  1  0.760100  0.528100  0.373600  1.0  0.1125
  H  H40  1  0.842700  0.637500  0.389600  1.0  0.1135
  H  H41  1  0.727100  0.315700  0.316800  1.0  0.1119
  H  H42  1  0.798100  0.216500  0.334200  1.0  0.0989
  H  H43  1  0.020400  0.674500  0.490800  1.0  0.0744
  H  H44  1  0.980300  0.701000  0.525200  1.0  0.066
  H  H45  1  0.100800  0.679400  0.572800  1.0  0.1153
  H  H46  1  0.070000  0.747700  0.580800  1.0  0.1008
  H  H47  1  0.109000  0.726200  0.545600  1.0  0.112
  H  H48  1  0.552500  0.830100  0.456600  1.0  0.1054
  H  H49  1  0.515100  0.092100  0.461800  1.0  0.0931
  H  H50  1  0.531500  0.115900  0.402000  1.0  0.1309
  H  H51  1  0.581600  0.928600  0.356800  1.0  0.1166
  H  H52  1  0.613500  0.845500  0.373600  1.0  0.1122
  H  H53  1  0.546900  0.752100  0.389600  1.0  0.1126
  H  H54  1  0.589700  0.001100  0.316800  1.0  0.1112
  H  H55  1  0.536100  0.117700  0.334200  1.0  0.098
  H  H56  1  0.470400  0.816300  0.490800  1.0  0.0741
  H  H57  1  0.544900  0.824200  0.525200  1.0  0.069
  H  H58  1  0.472000  0.893400  0.572800  1.0  0.1179
  H  H59  1  0.510800  0.833100  0.580800  1.0  0.0994
  H  H60  1  0.436600  0.819400  0.545600  1.0  0.1079
  H  H61  1  0.373500  0.095900  0.543400  1.0  0.1078
  H  H62  1  0.630300  0.053300  0.538200  1.0  0.0928
  H  H63  1  0.713900  0.129500  0.598000  1.0  0.1273
  H  H64  1  0.571800  0.224800  0.643200  1.0  0.117
  H  H65  1  0.471900  0.239900  0.626400  1.0  0.1109
  H  H66  1  0.362500  0.157300  0.610400  1.0  0.113
  H  H67  1  0.684300  0.272900  0.683200  1.0  0.1121
  H  H68  1  0.783500  0.201900  0.665800  1.0  0.0985
  H  H69  1  0.325500  0.979600  0.509200  1.0  0.0756
  H  H70  1  0.299000  0.019700  0.474800  1.0  0.0744
  H  H71  1  0.320600  0.899200  0.427200  1.0  0.1145
  H  H72  1  0.252300  0.930000  0.419200  1.0  0.0954
  H  H73  1  0.273800  0.891000  0.454400  1.0  0.1106
  H  H74  1  0.169900  0.447500  0.543400  1.0  0.1072
  H  H75  1  0.907900  0.484900  0.538200  1.0  0.0952
  H  H76  1  0.884100  0.468500  0.598000  1.0  0.1296
  H  H77  1  0.071400  0.418400  0.643200  1.0  0.1161
  H  H78  1  0.154500  0.386500  0.626400  1.0  0.1116
  H  H79  1  0.247900  0.453100  0.610400  1.0  0.1123
  H  H80  1  0.998900  0.410300  0.683200  1.0  0.1125
  H  H81  1  0.882300  0.463900  0.665800  1.0  0.0986
  H  H82  1  0.183700  0.529600  0.509200  1.0  0.0751
  H  H83  1  0.175800  0.455100  0.474800  1.0  0.0719
  H  H84  1  0.106600  0.528000  0.427200  1.0  0.1171
  H  H85  1  0.166900  0.489200  0.419200  1.0  0.0975
  H  H86  1  0.180600  0.563400  0.454400  1.0  0.1108
  H  H87  1  0.697500  0.123500  0.043400  1.0  0.1067
  H  H88  1  0.734900  0.380300  0.038200  1.0  0.0946
  H  H89  1  0.718500  0.463900  0.098000  1.0  0.1301
  H  H90  1  0.668400  0.321800  0.143200  1.0  0.1164
  H  H91  1  0.636500  0.221900  0.126400  1.0  0.1125
  H  H92  1  0.703100  0.112500  0.110400  1.0  0.1122
  H  H93  1  0.660300  0.434300  0.183200  1.0  0.1112
  H  H94  1  0.713900  0.533500  0.165800  1.0  0.0995
  H  H95  1  0.779600  0.075500  0.009200  1.0  0.0732
  H  H96  1  0.705100  0.049000  0.974800  1.0  0.068
  H  H97  1  0.778000  0.070600  0.927200  1.0  0.1159
  H  H98  1  0.739200  0.002300  0.919200  1.0  0.0898
  H  H99  1  0.813400  0.023800  0.954400  1.0  0.1133
  H  H100  1  0.345900  0.919900  0.043400  1.0  0.1067
  H  H101  1  0.303300  0.657900  0.038200  1.0  0.0953
  H  H102  1  0.379500  0.634100  0.098000  1.0  0.1302
  H  H103  1  0.474800  0.821400  0.143200  1.0  0.1158
  H  H104  1  0.489900  0.904500  0.126400  1.0  0.1125
  H  H105  1  0.407300  0.997900  0.110400  1.0  0.113
  H  H106  1  0.522900  0.748900  0.183200  1.0  0.1113
  H  H107  1  0.451900  0.632300  0.165800  1.0  0.0974
  H  H108  1  0.229600  0.933700  0.009200  1.0  0.0732
  H  H109  1  0.269700  0.925800  0.974800  1.0  0.0749
  H  H110  1  0.149200  0.856600  0.927200  1.0  0.1159
  H  H111  1  0.180000  0.916900  0.919200  1.0  0.0961
  H  H112  1  0.141000  0.930600  0.954400  1.0  0.108
  C  C113  1  0.233600  0.711210  0.980480  1.0  -0.0193
  C  C114  1  0.171330  0.708170  0.984800  1.0  0.2219
  C  C115  1  0.122220  0.656150  0.953640  1.0  -0.1729
  C  C116  1  0.135380  0.607180  0.918160  1.0  -0.057
  C  C117  1  0.197650  0.610220  0.913840  1.0  0.0388
  C  C118  1  0.246760  0.662240  0.945000  1.0  0.0596
  C  C119  1  0.308360  0.662760  0.939720  1.0  -0.0864
  C  C120  1  0.323700  0.617400  0.904600  1.0  -0.1502
  C  C121  1  0.272570  0.565570  0.872540  1.0  -0.0472
  C  C122  1  0.211270  0.561070  0.877540  1.0  -0.1354
  C  C123  1  0.081880  0.551280  0.887160  1.0  -0.1215
  C  C124  1  0.018960  0.553360  0.876920  1.0  -0.1613
  C  C125  1  0.971380  0.489680  0.843160  1.0  0.675
  C  C126  1  0.284500  0.513700  0.833400  1.0  -0.0807
  C  C127  1  0.334160  0.511660  0.818920  1.0  -0.1071
  C  C128  1  0.341850  0.457750  0.781100  1.0  0.7215
  C  C129  1  0.094060  0.767660  0.020720  1.0  0.1265
  C  C130  1  0.097700  0.829500  0.058000  1.0  -0.35
  C  C131  1  0.746880  0.269270  0.980480  1.0  -0.0207
  C  C132  1  0.813470  0.276630  0.984800  1.0  0.2245
  C  C133  1  0.831420  0.297490  0.953640  1.0  -0.1719
  C  C134  1  0.782780  0.310980  0.918160  1.0  -0.0547
  C  C135  1  0.716190  0.303620  0.913840  1.0  0.0395
  C  C136  1  0.698240  0.282760  0.945000  1.0  0.0589
  C  C137  1  0.631360  0.276960  0.939720  1.0  -0.0896
  C  C138  1  0.580900  0.287200  0.904600  1.0  -0.1546
  C  C139  1  0.599970  0.306970  0.872540  1.0  -0.0483
  C  C140  1  0.666270  0.316470  0.877540  1.0  -0.1349
  C  C141  1  0.805280  0.335880  0.887160  1.0  -0.1223
  C  C142  1  0.857960  0.323560  0.876920  1.0  -0.1631
  C  C143  1  0.871780  0.353480  0.843160  1.0  0.6751
  C  C144  1  0.548900  0.319700  0.833400  1.0  -0.0826
  C  C145  1  0.484760  0.307260  0.818920  1.0  -0.1069
  C  C146  1  0.439250  0.323350  0.781100  1.0  0.7221
  C  C147  1  0.926660  0.253060  0.020720  1.0  0.1241
  C  C148  1  0.960300  0.228500  0.058000  1.0  -0.3515
  C  C149  1  0.961210  0.496880  0.480480  1.0  -0.0207
  C  C150  1  0.958170  0.563470  0.484800  1.0  0.2202
  C  C151  1  0.906150  0.581420  0.453640  1.0  -0.1702
  C  C152  1  0.857180  0.532780  0.418160  1.0  -0.0563
  C  C153  1  0.860220  0.466190  0.413840  1.0  0.0386
  C  C154  1  0.912240  0.448240  0.445000  1.0  0.0585
  C  C155  1  0.912760  0.381360  0.439720  1.0  -0.0916
  C  C156  1  0.867400  0.330900  0.404600  1.0  -0.1563
  C  C157  1  0.815570  0.349970  0.372540  1.0  -0.0491
  C  C158  1  0.811070  0.416270  0.377540  1.0  -0.1359
  C  C159  1  0.801280  0.555280  0.387160  1.0  -0.1234
  C  C160  1  0.803360  0.607960  0.376920  1.0  -0.1639
  C  C161  1  0.739680  0.621780  0.343160  1.0  0.6722
  C  C162  1  0.763700  0.298900  0.333400  1.0  -0.0816
  C  C163  1  0.761660  0.234760  0.318920  1.0  -0.1046
  C  C164  1  0.707750  0.189250  0.281100  1.0  0.7211
  C  C165  1  0.017660  0.676660  0.520720  1.0  0.1236
  C  C166  1  0.079500  0.710300  0.558000  1.0  -0.3497
  C  C167  1  0.519270  0.983600  0.480480  1.0  -0.022
  C  C168  1  0.526630  0.921330  0.484800  1.0  0.2216
  C  C169  1  0.547490  0.872220  0.453640  1.0  -0.1736
  C  C170  1  0.560980  0.885380  0.418160  1.0  -0.0565
  C  C171  1  0.553620  0.947650  0.413840  1.0  0.0405
  C  C172  1  0.532760  0.996760  0.445000  1.0  0.0578
  C  C173  1  0.526960  0.058360  0.439720  1.0  -0.0891
  C  C174  1  0.537200  0.073700  0.404600  1.0  -0.1553
  C  C175  1  0.556970  0.022570  0.372540  1.0  -0.046
  C  C176  1  0.566470  0.961270  0.377540  1.0  -0.1353
  C  C177  1  0.585880  0.831880  0.387160  1.0  -0.1223
  C  C178  1  0.573560  0.768960  0.376920  1.0  -0.1624
  C  C179  1  0.603480  0.721380  0.343160  1.0  0.6755
  C  C180  1  0.569700  0.034500  0.333400  1.0  -0.0824
  C  C181  1  0.557260  0.084160  0.318920  1.0  -0.1081
  C  C182  1  0.573350  0.091850  0.281100  1.0  0.7257
  C  C183  1  0.503060  0.844060  0.520720  1.0  0.1255
  C  C184  1  0.478500  0.847700  0.558000  1.0  -0.355
  C  C185  1  0.503120  0.038790  0.519520  1.0  -0.0187
  C  C186  1  0.436530  0.041830  0.515200  1.0  0.2212
  C  C187  1  0.418580  0.093850  0.546360  1.0  -0.1759
  C  C188  1  0.467220  0.142820  0.581840  1.0  -0.0568
  C  C189  1  0.533810  0.139780  0.586160  1.0  0.0395
  C  C190  1  0.551760  0.087760  0.555000  1.0  0.0588
  C  C191  1  0.618640  0.087240  0.560280  1.0  -0.0902
  C  C192  1  0.669100  0.132600  0.595400  1.0  -0.1514
  C  C193  1  0.650030  0.184430  0.627460  1.0  -0.0487
  C  C194  1  0.583730  0.188930  0.622460  1.0  -0.1342
  C  C195  1  0.444720  0.198720  0.612840  1.0  -0.1213
  C  C196  1  0.392040  0.196640  0.623080  1.0  -0.163
  C  C197  1  0.378220  0.260320  0.656840  1.0  0.6751
  C  C198  1  0.701100  0.236300  0.666667  1.0  -0.0809
  C  C199  1  0.765240  0.238340  0.681080  1.0  -0.1027
  C  C200  1  0.810750  0.292250  0.718900  1.0  0.721
  C  C201  1  0.323340  0.982340  0.479280  1.0  0.1256
  C  C202  1  0.289700  0.920500  0.442000  1.0  -0.3526
  C  C203  1  0.016400  0.480730  0.519520  1.0  -0.0196
  C  C204  1  0.078670  0.473370  0.515200  1.0  0.2224
  C  C205  1  0.127780  0.452510  0.546360  1.0  -0.1715
  C  C206  1  0.114620  0.439020  0.581840  1.0  -0.0581
  C  C207  1  0.052350  0.446380  0.586160  1.0  0.0396
  C  C208  1  0.003240  0.467240  0.555000  1.0  0.0585
  C  C209  1  0.941640  0.473040  0.560280  1.0  -0.0843
  C  C210  1  0.926300  0.462800  0.595400  1.0  -0.1528
  C  C211  1  0.977430  0.443030  0.627460  1.0  -0.047
  C  C212  1  0.038730  0.433530  0.622460  1.0  -0.1369
  C  C213  1  0.168120  0.414120  0.612840  1.0  -0.122
  C  C214  1  0.231040  0.426440  0.623080  1.0  -0.1609
  C  C215  1  0.278620  0.396520  0.656840  1.0  0.6748
  C  C216  1  0.965500  0.430300  0.666667  1.0  -0.0859
  C  C217  1  0.915840  0.442740  0.681080  1.0  -0.1083
  C  C218  1  0.908150  0.426650  0.718900  1.0  0.7267
  C  C219  1  0.155940  0.496940  0.479280  1.0  0.1278
  C  C220  1  0.152300  0.521500  0.442000  1.0  -0.3524
  C  C221  1  0.730730  0.253120  0.019520  1.0  -0.0192
  C  C222  1  0.723370  0.186530  0.015200  1.0  0.224
  C  C223  1  0.702510  0.168580  0.046360  1.0  -0.1715
  C  C224  1  0.689020  0.217220  0.081840  1.0  -0.0567
  C  C225  1  0.696380  0.283810  0.086160  1.0  0.0397
  C  C226  1  0.717240  0.301760  0.055000  1.0  0.0592
  C  C227  1  0.723040  0.368640  0.060280  1.0  -0.0937
  C  C228  1  0.712800  0.419100  0.095400  1.0  -0.1564
  C  C229  1  0.693030  0.400030  0.127460  1.0  -0.0478
  C  C230  1  0.683530  0.333730  0.122460  1.0  -0.1367
  C  C231  1  0.664120  0.194720  0.112840  1.0  -0.1229
  C  C232  1  0.676440  0.142040  0.123080  1.0  -0.1652
  C  C233  1  0.646520  0.128220  0.156840  1.0  0.6745
  C  C234  1  0.680300  0.451100  0.166600  1.0  -0.0821
  C  C235  1  0.692740  0.515240  0.181080  1.0  -0.1042
  C  C236  1  0.676650  0.560750  0.218900  1.0  0.7213
  C  C237  1  0.746940  0.073340  0.979280  1.0  0.1242
  C  C238  1  0.771500  0.039700  0.942000  1.0  -0.3528
  C  C239  1  0.288790  0.766400  0.019520  1.0  -0.0185
  C  C240  1  0.291830  0.828670  0.015200  1.0  0.2216
  C  C241  1  0.343850  0.877780  0.046360  1.0  -0.171
  C  C242  1  0.392820  0.864620  0.081840  1.0  -0.0564
  C  C243  1  0.389780  0.802350  0.086160  1.0  0.0393
  C  C244  1  0.337760  0.753240  0.055000  1.0  0.0594
  C  C245  1  0.337240  0.691640  0.060280  1.0  -0.0882
  C  C246  1  0.382600  0.676300  0.095400  1.0  -0.1541
  C  C247  1  0.434430  0.727430  0.127460  1.0  -0.048
  C  C248  1  0.438930  0.788730  0.122460  1.0  -0.1358
  C  C249  1  0.448720  0.918120  0.112840  1.0  -0.1219
  C  C250  1  0.446640  0.981040  0.123080  1.0  -0.1642
  C  C251  1  0.510320  0.028620  0.156840  1.0  0.6737
  C  C252  1  0.486300  0.715500  0.166600  1.0  -0.0821
  C  C253  1  0.488340  0.665840  0.181080  1.0  -0.1072
  C  C254  1  0.542250  0.658150  0.218900  1.0  0.7212
  C  C255  1  0.232340  0.905940  0.979280  1.0  0.1259
  C  C256  1  0.170500  0.902300  0.942000  1.0  -0.3513
  O  O257  1  0.910920  0.500030  0.827300  1.0  -0.5752
  O  O258  1  0.992810  0.435410  0.832480  1.0  -0.57
  O  O259  1  0.391470  0.462900  0.768720  1.0  -0.5708
  O  O260  1  0.298850  0.406020  0.762840  1.0  -0.5936
  O  O261  1  0.161690  0.757800  0.021360  1.0  -0.2949
  O  O262  1  0.916380  0.327270  0.827300  1.0  -0.5733
  O  O263  1  0.839670  0.397070  0.832480  1.0  -0.5692
  O  O264  1  0.377250  0.305820  0.768720  1.0  -0.5689
  O  O265  1  0.463990  0.356820  0.762840  1.0  -0.5935
  O  O266  1  0.859670  0.263560  0.021360  1.0  -0.2931
  O  O267  1  0.750030  0.666380  0.327300  1.0  -0.5773
  O  O268  1  0.685410  0.589670  0.332480  1.0  -0.5691
  O  O269  1  0.712900  0.127250  0.268720  1.0  -0.57
  O  O270  1  0.656020  0.213990  0.262840  1.0  -0.5941
  O  O271  1  0.007800  0.609670  0.521360  1.0  -0.295
  O  O272  1  0.577270  0.660920  0.327300  1.0  -0.5743
  O  O273  1  0.647070  0.742810  0.332480  1.0  -0.5699
  O  O274  1  0.555820  0.141470  0.268720  1.0  -0.5673
  O  O275  1  0.606820  0.048850  0.262840  1.0  -0.5949
  O  O276  1  0.513560  0.911690  0.521360  1.0  -0.2965
  O  O277  1  0.333620  0.249970  0.672700  1.0  -0.5776
  O  O278  1  0.410330  0.314590  0.667520  1.0  -0.5692
  O  O279  1  0.872750  0.287100  0.731280  1.0  -0.5713
  O  O280  1  0.786010  0.343980  0.737160  1.0  -0.5933
  O  O281  1  0.390330  0.992200  0.478640  1.0  -0.2982
  O  O282  1  0.339080  0.422730  0.672700  1.0  -0.5776
  O  O283  1  0.257190  0.352930  0.667520  1.0  -0.5683
  O  O284  1  0.858530  0.444180  0.731280  1.0  -0.5662
  O  O285  1  0.951150  0.393180  0.737160  1.0  -0.595
  O  O286  1  0.088310  0.486440  0.478640  1.0  -0.2962
  O  O287  1  0.672730  0.083620  0.172700  1.0  -0.5743
  O  O288  1  0.602930  0.160330  0.167520  1.0  -0.5697
  O  O289  1  0.694180  0.622750  0.231280  1.0  -0.5708
  O  O290  1  0.643180  0.536010  0.237160  1.0  -0.5953
  O  O291  1  0.736440  0.140330  0.978640  1.0  -0.2972
  O  O292  1  0.499970  0.089080  0.172700  1.0  -0.5749
  O  O293  1  0.564590  0.007190  0.167520  1.0  -0.57
  O  O294  1  0.537100  0.608530  0.231280  1.0  -0.5695
  O  O295  1  0.593980  0.701150  0.237160  1.0  -0.5939
  O  O296  1  0.242200  0.838310  0.978640  1.0  -0.2941
