# generated using pymatgen
data_CuH16C28O5
_symmetry_space_group_name_H-M   'P 1'
_cell_length_a   30.78160000
_cell_length_b   30.78160000
_cell_length_c   46.24410000
_cell_angle_alpha   109.44000000
_cell_angle_beta   109.44000000
_cell_angle_gamma   90.00020000
_symmetry_Int_Tables_number   1
_chemical_formula_structural   CuH16C28O5
_chemical_formula_sum   'Cu8 H128 C224 O40'
_cell_volume   38659.59406666
_cell_formula_units_Z   8
loop_
 _symmetry_equiv_pos_site_id
 _symmetry_equiv_pos_as_xyz
  1  'x, y, z'
loop_
 _atom_site_type_symbol
 _atom_site_label
 _atom_site_symmetry_multiplicity
 _atom_site_fract_x
 _atom_site_fract_y
 _atom_site_fract_z
 _atom_site_occupancy
 _atom_site_charge
  Cu  Cu1  1  0.417770  0.862270  0.778740  1.0  0.9141
  Cu  Cu2  1  0.360970  0.916470  0.778740  1.0  0.9159
  Cu  Cu3  1  0.112270  0.110970  0.278740  1.0  0.9157
  Cu  Cu4  1  0.166470  0.167770  0.278740  1.0  0.9171
  Cu  Cu5  1  0.889030  0.887730  0.721260  1.0  0.9184
  Cu  Cu6  1  0.832230  0.833530  0.721260  1.0  0.9152
  Cu  Cu7  1  0.083530  0.639030  0.221260  1.0  0.9141
  Cu  Cu8  1  0.137730  0.582230  0.221260  1.0  0.9143
  H  H9  1  0.605700  0.010700  0.888400  1.0  0.126
  H  H10  1  0.547300  0.951700  0.850400  1.0  0.121
  H  H11  1  0.453500  0.042400  0.853200  1.0  0.1199
  H  H12  1  0.512000  0.101400  0.891200  1.0  0.1257
  H  H13  1  0.764000  0.987300  0.834200  1.0  0.1279
  H  H14  1  0.773100  0.926800  0.791400  1.0  0.1267
  H  H15  1  0.883800  0.002900  0.797200  1.0  0.1268
  H  H16  1  0.874700  0.063300  0.840000  1.0  0.1221
  H  H17  1  0.648300  0.168200  0.971800  1.0  0.128
  H  H18  1  0.708300  0.080900  0.897000  1.0  0.1188
  H  H19  1  0.836900  0.141800  0.922800  1.0  0.1311
  H  H20  1  0.826600  0.199100  0.968000  1.0  0.1209
  H  H21  1  0.654900  0.069400  0.906600  1.0  0.1267
  H  H22  1  0.592900  0.128600  0.928600  1.0  0.1378
  H  H23  1  0.753600  0.041100  0.864800  1.0  0.1322
  H  H24  1  0.837900  0.098400  0.880600  1.0  0.159
  H  H25  1  0.282700  0.877700  0.888400  1.0  0.1263
  H  H26  1  0.303100  0.898700  0.850400  1.0  0.1205
  H  H27  1  0.399700  0.810800  0.853200  1.0  0.1186
  H  H28  1  0.379200  0.789800  0.891200  1.0  0.1216
  H  H29  1  0.070200  0.846900  0.834200  1.0  0.1288
  H  H30  1  0.018300  0.864600  0.791400  1.0  0.1251
  H  H31  1  0.913400  0.794300  0.797200  1.0  0.1265
  H  H32  1  0.965300  0.776700  0.840000  1.0  0.1207
  H  H33  1  0.323500  0.803600  0.971800  1.0  0.1289
  H  H34  1  0.188700  0.816100  0.897000  1.0  0.1186
  H  H35  1  0.085900  0.781000  0.922800  1.0  0.1322
  H  H36  1  0.141400  0.768900  0.968000  1.0  0.122
  H  H37  1  0.251700  0.837200  0.906600  1.0  0.1283
  H  H38  1  0.335700  0.800000  0.928600  1.0  0.1379
  H  H39  1  0.111200  0.823700  0.864800  1.0  0.1318
  H  H40  1  0.042700  0.782200  0.880600  1.0  0.1601
  H  H41  1  0.260700  0.032700  0.388400  1.0  0.1257
  H  H42  1  0.201700  0.053100  0.350400  1.0  0.1219
  H  H43  1  0.292400  0.149700  0.353200  1.0  0.1191
  H  H44  1  0.351400  0.129200  0.391200  1.0  0.1267
  H  H45  1  0.237300  0.820200  0.334200  1.0  0.1298
  H  H46  1  0.176800  0.768300  0.291400  1.0  0.1261
  H  H47  1  0.252900  0.663400  0.297200  1.0  0.1273
  H  H48  1  0.313300  0.715300  0.340000  1.0  0.1208
  H  H49  1  0.418200  0.073500  0.471800  1.0  0.1287
  H  H50  1  0.330900  0.938700  0.397000  1.0  0.1168
  H  H51  1  0.391800  0.835900  0.422800  1.0  0.133
  H  H52  1  0.449100  0.891400  0.468000  1.0  0.1203
  H  H53  1  0.319400  0.001700  0.406600  1.0  0.1283
  H  H54  1  0.378600  0.085700  0.428600  1.0  0.1391
  H  H55  1  0.291100  0.861200  0.364800  1.0  0.1323
  H  H56  1  0.348400  0.792700  0.380600  1.0  0.1574
  H  H57  1  0.127700  0.355700  0.388400  1.0  0.1265
  H  H58  1  0.148700  0.297300  0.350400  1.0  0.1219
  H  H59  1  0.060800  0.203500  0.353200  1.0  0.1198
  H  H60  1  0.039800  0.262000  0.391200  1.0  0.1125
  H  H61  1  0.096900  0.514000  0.334200  1.0  0.1293
  H  H62  1  0.114600  0.523100  0.291400  1.0  0.1257
  H  H63  1  0.044300  0.633800  0.297200  1.0  0.1272
  H  H64  1  0.026700  0.624700  0.340000  1.0  0.1214
  H  H65  1  0.053600  0.398300  0.471800  1.0  0.1292
  H  H66  1  0.066100  0.458300  0.397000  1.0  0.1184
  H  H67  1  0.031000  0.586900  0.422800  1.0  0.135
  H  H68  1  0.018900  0.576600  0.468000  1.0  0.1207
  H  H69  1  0.087200  0.404900  0.406600  1.0  0.1283
  H  H70  1  0.050000  0.342900  0.428600  1.0  0.1364
  H  H71  1  0.073700  0.503600  0.364800  1.0  0.1321
  H  H72  1  0.032200  0.587900  0.380600  1.0  0.1579
  H  H73  1  0.967300  0.739300  0.611600  1.0  0.1261
  H  H74  1  0.946900  0.798300  0.649600  1.0  0.122
  H  H75  1  0.850300  0.707600  0.646800  1.0  0.1192
  H  H76  1  0.870800  0.648600  0.608800  1.0  0.1257
  H  H77  1  0.179800  0.762700  0.665800  1.0  0.1294
  H  H78  1  0.231700  0.823200  0.708600  1.0  0.1254
  H  H79  1  0.336600  0.747100  0.702800  1.0  0.1261
  H  H80  1  0.284700  0.686700  0.660000  1.0  0.121
  H  H81  1  0.926500  0.581800  0.528200  1.0  0.1304
  H  H82  1  0.061300  0.669100  0.603000  1.0  0.1177
  H  H83  1  0.164100  0.608200  0.577200  1.0  0.1312
  H  H84  1  0.108600  0.550900  0.532000  1.0  0.1208
  H  H85  1  0.998300  0.680600  0.593400  1.0  0.129
  H  H86  1  0.914300  0.621400  0.571400  1.0  0.1352
  H  H87  1  0.138800  0.708900  0.635200  1.0  0.1331
  H  H88  1  0.207300  0.651600  0.619400  1.0  0.1581
  H  H89  1  0.644300  0.872300  0.611600  1.0  0.1266
  H  H90  1  0.702700  0.851300  0.649600  1.0  0.1217
  H  H91  1  0.796500  0.939200  0.646800  1.0  0.1201
  H  H92  1  0.738000  0.960200  0.608800  1.0  0.1097
  H  H93  1  0.486000  0.903100  0.665800  1.0  0.1286
  H  H94  1  0.476900  0.885400  0.708600  1.0  0.1253
  H  H95  1  0.366200  0.955700  0.702800  1.0  0.126
  H  H96  1  0.375300  0.973300  0.660000  1.0  0.121
  H  H97  1  0.601700  0.946400  0.528200  1.0  0.1293
  H  H98  1  0.541700  0.933900  0.603000  1.0  0.1183
  H  H99  1  0.413100  0.969000  0.577200  1.0  0.1326
  H  H100  1  0.423400  0.981100  0.532000  1.0  0.1205
  H  H101  1  0.595100  0.912800  0.593400  1.0  0.1293
  H  H102  1  0.657100  0.950000  0.571400  1.0  0.1386
  H  H103  1  0.496400  0.926300  0.635200  1.0  0.1328
  H  H104  1  0.412100  0.967800  0.619400  1.0  0.1591
  H  H105  1  0.122300  0.717300  0.111600  1.0  0.125
  H  H106  1  0.101300  0.696900  0.149600  1.0  0.1198
  H  H107  1  0.189200  0.600300  0.146800  1.0  0.118
  H  H108  1  0.210200  0.620800  0.108800  1.0  0.1221
  H  H109  1  0.153100  0.929800  0.165800  1.0  0.1292
  H  H110  1  0.135400  0.981700  0.208600  1.0  0.1259
  H  H111  1  0.205700  0.086600  0.202800  1.0  0.1272
  H  H112  1  0.223300  0.034700  0.160000  1.0  0.121
  H  H113  1  0.196400  0.676500  0.028200  1.0  0.1288
  H  H114  1  0.183900  0.811300  0.103000  1.0  0.1179
  H  H115  1  0.219000  0.914100  0.077200  1.0  0.134
  H  H116  1  0.231100  0.858600  0.032000  1.0  0.1219
  H  H117  1  0.162800  0.748300  0.093400  1.0  0.1281
  H  H118  1  0.200000  0.664300  0.071400  1.0  0.1359
  H  H119  1  0.176300  0.888800  0.135200  1.0  0.1346
  H  H120  1  0.217800  0.957300  0.119400  1.0  0.1597
  H  H121  1  0.989300  0.394300  0.111600  1.0  0.1267
  H  H122  1  0.048300  0.452700  0.149600  1.0  0.1203
  H  H123  1  0.957600  0.546500  0.146800  1.0  0.1205
  H  H124  1  0.898600  0.488000  0.108800  1.0  0.1247
  H  H125  1  0.012700  0.236000  0.165800  1.0  0.1281
  H  H126  1  0.073200  0.226900  0.208600  1.0  0.1269
  H  H127  1  0.997100  0.116200  0.202800  1.0  0.1257
  H  H128  1  0.936700  0.125300  0.160000  1.0  0.1228
  H  H129  1  0.831800  0.351700  0.028200  1.0  0.127
  H  H130  1  0.919100  0.291700  0.103000  1.0  0.1177
  H  H131  1  0.858200  0.163100  0.077200  1.0  0.1339
  H  H132  1  0.800900  0.173400  0.032000  1.0  0.122
  H  H133  1  0.930600  0.345100  0.093400  1.0  0.1297
  H  H134  1  0.871400  0.407100  0.071400  1.0  0.1378
  H  H135  1  0.958900  0.246400  0.135200  1.0  0.1331
  H  H136  1  0.901600  0.162100  0.119400  1.0  0.1571
  C  C137  1  0.564640  0.061840  0.893480  1.0  0.1383
  C  C138  1  0.575200  0.017100  0.881400  1.0  -0.1269
  C  C139  1  0.540200  0.981700  0.858600  1.0  -0.0404
  C  C140  1  0.494630  0.991230  0.848060  1.0  -0.1067
  C  C141  1  0.484000  0.036000  0.860200  1.0  -0.0447
  C  C142  1  0.519000  0.071400  0.883000  1.0  -0.1014
  C  C143  1  0.454900  0.951400  0.822800  1.0  0.6864
  C  C144  1  0.818390  0.031290  0.841380  1.0  0.0035
  C  C145  1  0.788000  0.990400  0.826800  1.0  -0.1831
  C  C146  1  0.793500  0.954200  0.801200  1.0  -0.0654
  C  C147  1  0.829340  0.958840  0.790080  1.0  -0.1242
  C  C148  1  0.859800  0.999700  0.804600  1.0  -0.0711
  C  C149  1  0.854300  0.035900  0.830200  1.0  -0.104
  C  C150  1  0.838600  0.923400  0.763400  1.0  0.6689
  C  C151  1  0.753790  0.208190  0.985980  1.0  -0.0032
  C  C152  1  0.711530  0.205830  0.990460  1.0  0.1976
  C  C153  1  0.676500  0.169800  0.968800  1.0  -0.0984
  C  C154  1  0.683980  0.136080  0.942760  1.0  -0.0006
  C  C155  1  0.726250  0.138450  0.938300  1.0  0.0746
  C  C156  1  0.761100  0.174400  0.959800  1.0  0.0619
  C  C157  1  0.732500  0.104300  0.911200  1.0  -0.1739
  C  C158  1  0.774300  0.104800  0.905200  1.0  0.0309
  C  C159  1  0.809000  0.140400  0.926400  1.0  -0.1249
  C  C160  1  0.802500  0.175300  0.953800  1.0  -0.1057
  C  C161  1  0.647100  0.096600  0.919200  1.0  -0.2052
  C  C162  1  0.600800  0.101300  0.916400  1.0  -0.1657
  C  C163  1  0.776300  0.066600  0.876800  1.0  -0.1182
  C  C164  1  0.815800  0.072300  0.869400  1.0  -0.1208
  C  C165  1  0.328840  0.831640  0.893480  1.0  0.1349
  C  C166  1  0.306200  0.864300  0.881400  1.0  -0.1296
  C  C167  1  0.318400  0.876900  0.858600  1.0  -0.0412
  C  C168  1  0.353430  0.856830  0.848060  1.0  -0.1056
  C  C169  1  0.376200  0.824200  0.860200  1.0  -0.043
  C  C170  1  0.364000  0.811600  0.883000  1.0  -0.1031
  C  C171  1  0.367900  0.871400  0.822800  1.0  0.6895
  C  C172  1  0.022990  0.810090  0.841380  1.0  0.0045
  C  C173  1  0.038800  0.836400  0.826800  1.0  -0.1823
  C  C174  1  0.007700  0.847000  0.801200  1.0  -0.0709
  C  C175  1  0.960740  0.831240  0.790080  1.0  -0.1265
  C  C176  1  0.944800  0.804900  0.804600  1.0  -0.0734
  C  C177  1  0.975900  0.794300  0.830200  1.0  -0.1061
  C  C178  1  0.924800  0.840000  0.763400  1.0  0.6694
  C  C179  1  0.232190  0.777790  0.985980  1.0  -0.0036
  C  C180  1  0.278930  0.784630  0.990460  1.0  0.1974
  C  C181  1  0.292300  0.799000  0.968800  1.0  -0.0959
  C  C182  1  0.258780  0.806680  0.942760  1.0  0.0082
  C  C183  1  0.212050  0.799850  0.938300  1.0  0.0745
  C  C184  1  0.198700  0.785400  0.959800  1.0  0.06
  C  C185  1  0.178700  0.806900  0.911200  1.0  -0.1753
  C  C186  1  0.130900  0.800400  0.905200  1.0  0.0316
  C  C187  1  0.117400  0.786000  0.926400  1.0  -0.1247
  C  C188  1  0.151300  0.778500  0.953800  1.0  -0.1044
  C  C189  1  0.272100  0.822600  0.919200  1.0  -0.2043
  C  C190  1  0.315600  0.815100  0.916400  1.0  -0.1653
  C  C191  1  0.100500  0.810200  0.876800  1.0  -0.1182
  C  C192  1  0.053600  0.797100  0.869400  1.0  -0.1237
  C  C193  1  0.311840  0.078840  0.393480  1.0  0.1359
  C  C194  1  0.267100  0.056200  0.381400  1.0  -0.1268
  C  C195  1  0.231700  0.068400  0.358600  1.0  -0.0385
  C  C196  1  0.241230  0.103430  0.348060  1.0  -0.1083
  C  C197  1  0.286000  0.126200  0.360200  1.0  -0.0468
  C  C198  1  0.321400  0.114000  0.383000  1.0  -0.1013
  C  C199  1  0.201400  0.117900  0.322800  1.0  0.6871
  C  C200  1  0.281290  0.772990  0.341380  1.0  0.0027
  C  C201  1  0.240400  0.788800  0.326800  1.0  -0.1829
  C  C202  1  0.204200  0.757700  0.301200  1.0  -0.0676
  C  C203  1  0.208840  0.710740  0.290080  1.0  -0.1252
  C  C204  1  0.249700  0.694800  0.304600  1.0  -0.0735
  C  C205  1  0.285900  0.725900  0.330200  1.0  -0.1066
  C  C206  1  0.173400  0.674800  0.263400  1.0  0.669
  C  C207  1  0.458190  0.982190  0.485980  1.0  -0.0037
  C  C208  1  0.455830  0.028930  0.490460  1.0  0.1971
  C  C209  1  0.419800  0.042300  0.468800  1.0  -0.095
  C  C210  1  0.386080  0.008780  0.442760  1.0  0.0017
  C  C211  1  0.388450  0.962050  0.438300  1.0  0.0738
  C  C212  1  0.424400  0.948700  0.459800  1.0  0.0607
  C  C213  1  0.354300  0.928700  0.411200  1.0  -0.1772
  C  C214  1  0.354800  0.880900  0.405200  1.0  0.0331
  C  C215  1  0.390400  0.867400  0.426400  1.0  -0.1284
  C  C216  1  0.425300  0.901300  0.453800  1.0  -0.1094
  C  C217  1  0.346600  0.022100  0.419200  1.0  -0.2076
  C  C218  1  0.351300  0.065600  0.416400  1.0  -0.1677
  C  C219  1  0.316600  0.850500  0.376800  1.0  -0.1197
  C  C220  1  0.322300  0.803600  0.369400  1.0  -0.1226
  C  C221  1  0.081640  0.314640  0.393480  1.0  0.1347
  C  C222  1  0.114300  0.325200  0.381400  1.0  -0.125
  C  C223  1  0.126900  0.290200  0.358600  1.0  -0.0405
  C  C224  1  0.106830  0.244630  0.348060  1.0  -0.107
  C  C225  1  0.074200  0.234000  0.360200  1.0  -0.0438
  C  C226  1  0.061600  0.269000  0.383000  1.0  -0.1046
  C  C227  1  0.121400  0.204900  0.322800  1.0  0.692
  C  C228  1  0.060090  0.568390  0.341380  1.0  0.0039
  C  C229  1  0.086400  0.538000  0.326800  1.0  -0.183
  C  C230  1  0.097000  0.543500  0.301200  1.0  -0.0677
  C  C231  1  0.081240  0.579340  0.290080  1.0  -0.1252
  C  C232  1  0.054900  0.609800  0.304600  1.0  -0.0714
  C  C233  1  0.044300  0.604300  0.330200  1.0  -0.106
  C  C234  1  0.090000  0.588600  0.263400  1.0  0.671
  C  C235  1  0.027790  0.503790  0.485980  1.0  -0.0006
  C  C236  1  0.034630  0.461530  0.490460  1.0  0.1995
  C  C237  1  0.049000  0.426500  0.468800  1.0  -0.095
  C  C238  1  0.056680  0.433980  0.442760  1.0  0.0053
  C  C239  1  0.049850  0.476250  0.438300  1.0  0.0749
  C  C240  1  0.035400  0.511100  0.459800  1.0  0.062
  C  C241  1  0.056900  0.482500  0.411200  1.0  -0.1722
  C  C242  1  0.050400  0.524300  0.405200  1.0  0.0335
  C  C243  1  0.036000  0.559000  0.426400  1.0  -0.1268
  C  C244  1  0.028500  0.552500  0.453800  1.0  -0.1076
  C  C245  1  0.072600  0.397100  0.419200  1.0  -0.207
  C  C246  1  0.065100  0.350800  0.416400  1.0  -0.1642
  C  C247  1  0.060200  0.526300  0.376800  1.0  -0.1176
  C  C248  1  0.047100  0.565800  0.369400  1.0  -0.124
  C  C249  1  0.921160  0.688160  0.606520  1.0  0.1338
  C  C250  1  0.943800  0.732900  0.618600  1.0  -0.1275
  C  C251  1  0.931600  0.768300  0.641400  1.0  -0.0409
  C  C252  1  0.896570  0.758770  0.651940  1.0  -0.1079
  C  C253  1  0.873800  0.714000  0.639800  1.0  -0.0432
  C  C254  1  0.886000  0.678600  0.617000  1.0  -0.1049
  C  C255  1  0.882100  0.798600  0.677200  1.0  0.6913
  C  C256  1  0.227010  0.718710  0.658620  1.0  0.0036
  C  C257  1  0.211200  0.759600  0.673200  1.0  -0.1864
  C  C258  1  0.242300  0.795800  0.698800  1.0  -0.0662
  C  C259  1  0.289260  0.791160  0.709920  1.0  -0.1239
  C  C260  1  0.305200  0.750300  0.695400  1.0  -0.0698
  C  C261  1  0.274100  0.714100  0.669800  1.0  -0.104
  C  C262  1  0.325200  0.826600  0.736600  1.0  0.6695
  C  C263  1  0.017810  0.541810  0.514020  1.0  -0.003
  C  C264  1  0.971070  0.544170  0.509540  1.0  0.1947
  C  C265  1  0.957700  0.580200  0.531200  1.0  -0.0962
  C  C266  1  0.991220  0.613920  0.557240  1.0  -0.0008
  C  C267  1  0.037950  0.611550  0.561700  1.0  0.0747
  C  C268  1  0.051300  0.575600  0.540200  1.0  0.0615
  C  C269  1  0.071300  0.645700  0.588800  1.0  -0.1727
  C  C270  1  0.119100  0.645200  0.594800  1.0  0.0313
  C  C271  1  0.132600  0.609600  0.573600  1.0  -0.1248
  C  C272  1  0.098700  0.574700  0.546200  1.0  -0.1063
  C  C273  1  0.977900  0.653400  0.580800  1.0  -0.2036
  C  C274  1  0.934400  0.648700  0.583600  1.0  -0.1658
  C  C275  1  0.149500  0.683400  0.623200  1.0  -0.1175
  C  C276  1  0.196400  0.677700  0.630600  1.0  -0.1202
  C  C277  1  0.685360  0.918360  0.606520  1.0  0.1304
  C  C278  1  0.674800  0.885700  0.618600  1.0  -0.1291
  C  C279  1  0.709800  0.873100  0.641400  1.0  -0.0417
  C  C280  1  0.755370  0.893170  0.651940  1.0  -0.1078
  C  C281  1  0.766000  0.925800  0.639800  1.0  -0.0413
  C  C282  1  0.731000  0.938400  0.617000  1.0  -0.1023
  C  C283  1  0.795100  0.878600  0.677200  1.0  0.6878
  C  C284  1  0.431610  0.939910  0.658620  1.0  0.0034
  C  C285  1  0.462000  0.913600  0.673200  1.0  -0.1803
  C  C286  1  0.456500  0.903000  0.698800  1.0  -0.0674
  C  C287  1  0.420660  0.918760  0.709920  1.0  -0.1249
  C  C288  1  0.390200  0.945100  0.695400  1.0  -0.0721
  C  C289  1  0.395700  0.955700  0.669800  1.0  -0.1065
  C  C290  1  0.411400  0.910000  0.736600  1.0  0.6696
  C  C291  1  0.496210  0.972210  0.514020  1.0  -0.0035
  C  C292  1  0.538470  0.965370  0.509540  1.0  0.2013
  C  C293  1  0.573500  0.951000  0.531200  1.0  -0.0993
  C  C294  1  0.566020  0.943320  0.557240  1.0  0.0069
  C  C295  1  0.523750  0.950150  0.561700  1.0  0.0746
  C  C296  1  0.488900  0.964600  0.540200  1.0  0.0598
  C  C297  1  0.517500  0.943100  0.588800  1.0  -0.1754
  C  C298  1  0.475700  0.949600  0.594800  1.0  0.0317
  C  C299  1  0.441000  0.964000  0.573600  1.0  -0.1252
  C  C300  1  0.447500  0.971500  0.546200  1.0  -0.1085
  C  C301  1  0.602900  0.927400  0.580800  1.0  -0.2052
  C  C302  1  0.649200  0.934900  0.583600  1.0  -0.1658
  C  C303  1  0.473700  0.939800  0.623200  1.0  -0.1181
  C  C304  1  0.434200  0.952900  0.630600  1.0  -0.1221
  C  C305  1  0.168360  0.671160  0.106520  1.0  0.131
  C  C306  1  0.135700  0.693800  0.118600  1.0  -0.126
  C  C307  1  0.123100  0.681600  0.141400  1.0  -0.0398
  C  C308  1  0.143170  0.646570  0.151940  1.0  -0.1074
  C  C309  1  0.175800  0.623800  0.139800  1.0  -0.0436
  C  C310  1  0.188400  0.636000  0.117000  1.0  -0.1037
  C  C311  1  0.128600  0.632100  0.177200  1.0  0.6904
  C  C312  1  0.189910  0.977010  0.158620  1.0  0.0038
  C  C313  1  0.163600  0.961200  0.173200  1.0  -0.1843
  C  C314  1  0.153000  0.992300  0.198800  1.0  -0.0677
  C  C315  1  0.168760  0.039260  0.209920  1.0  -0.1256
  C  C316  1  0.195100  0.055200  0.195400  1.0  -0.0743
  C  C317  1  0.205700  0.024100  0.169800  1.0  -0.1058
  C  C318  1  0.160000  0.075200  0.236600  1.0  0.6706
  C  C319  1  0.222210  0.767810  0.014020  1.0  -0.0059
  C  C320  1  0.215370  0.721070  0.009540  1.0  0.1999
  C  C321  1  0.201000  0.707700  0.031200  1.0  -0.0925
  C  C322  1  0.193320  0.741220  0.057240  1.0  0.0011
  C  C323  1  0.200150  0.787950  0.061700  1.0  0.0745
  C  C324  1  0.214600  0.801300  0.040200  1.0  0.0613
  C  C325  1  0.193100  0.821300  0.088800  1.0  -0.1736
  C  C326  1  0.199600  0.869100  0.094800  1.0  0.0335
  C  C327  1  0.214000  0.882600  0.073600  1.0  -0.1308
  C  C328  1  0.221500  0.848700  0.046200  1.0  -0.1085
  C  C329  1  0.177400  0.727900  0.080800  1.0  -0.2061
  C  C330  1  0.184900  0.684400  0.083600  1.0  -0.1614
  C  C331  1  0.189800  0.899500  0.123200  1.0  -0.1191
  C  C332  1  0.202900  0.946400  0.130600  1.0  -0.1222
  C  C333  1  0.938160  0.435360  0.106520  1.0  0.1278
  C  C334  1  0.982900  0.424800  0.118600  1.0  -0.127
  C  C335  1  0.018300  0.459800  0.141400  1.0  -0.0388
  C  C336  1  0.008770  0.505370  0.151940  1.0  -0.1061
  C  C337  1  0.964000  0.516000  0.139800  1.0  -0.0446
  C  C338  1  0.928600  0.481000  0.117000  1.0  -0.1046
  C  C339  1  0.048600  0.545100  0.177200  1.0  0.6906
  C  C340  1  0.968710  0.181610  0.158620  1.0  0.0043
  C  C341  1  0.009600  0.212000  0.173200  1.0  -0.1826
  C  C342  1  0.045800  0.206500  0.198800  1.0  -0.0691
  C  C343  1  0.041160  0.170660  0.209920  1.0  -0.1247
  C  C344  1  0.000300  0.140200  0.195400  1.0  -0.0763
  C  C345  1  0.964100  0.145700  0.169800  1.0  -0.1055
  C  C346  1  0.076600  0.161400  0.236600  1.0  0.6673
  C  C347  1  0.791810  0.246210  0.014020  1.0  -0.0032
  C  C348  1  0.794170  0.288470  0.009540  1.0  0.198
  C  C349  1  0.830200  0.323500  0.031200  1.0  -0.099
  C  C350  1  0.863920  0.316020  0.057240  1.0  0.0074
  C  C351  1  0.861550  0.273750  0.061700  1.0  0.0746
  C  C352  1  0.825600  0.238900  0.040200  1.0  0.0606
  C  C353  1  0.895700  0.267500  0.088800  1.0  -0.1731
  C  C354  1  0.895200  0.225700  0.094800  1.0  0.0315
  C  C355  1  0.859600  0.191000  0.073600  1.0  -0.1253
  C  C356  1  0.824700  0.197500  0.046200  1.0  -0.1066
  C  C357  1  0.903400  0.352900  0.080800  1.0  -0.2076
  C  C358  1  0.898700  0.399200  0.083600  1.0  -0.167
  C  C359  1  0.933400  0.223700  0.123200  1.0  -0.1166
  C  C360  1  0.927700  0.184200  0.130600  1.0  -0.1224
  O  O361  1  0.466000  0.910200  0.814000  1.0  -0.5704
  O  O362  1  0.414400  0.958900  0.812000  1.0  -0.5814
  O  O363  1  0.873400  0.931600  0.755400  1.0  -0.5871
  O  O364  1  0.815500  0.883800  0.747800  1.0  -0.5778
  O  O365  1  0.703400  0.239600  0.015200  1.0  -0.4201
  O  O366  1  0.348000  0.903800  0.814000  1.0  -0.5717
  O  O367  1  0.397600  0.853100  0.812000  1.0  -0.5817
  O  O368  1  0.882000  0.823800  0.755400  1.0  -0.5866
  O  O369  1  0.932300  0.864000  0.747800  1.0  -0.5803
  O  O370  1  0.311800  0.775600  0.015200  1.0  -0.417
  O  O371  1  0.160200  0.098000  0.314000  1.0  -0.5715
  O  O372  1  0.208900  0.147600  0.312000  1.0  -0.5813
  O  O373  1  0.181600  0.632000  0.255400  1.0  -0.5854
  O  O374  1  0.133800  0.682300  0.247800  1.0  -0.5793
  O  O375  1  0.489600  0.061800  0.515200  1.0  -0.4215
  O  O376  1  0.153800  0.216000  0.314000  1.0  -0.5731
  O  O377  1  0.103100  0.164400  0.312000  1.0  -0.5799
  O  O378  1  0.073800  0.623400  0.255400  1.0  -0.5871
  O  O379  1  0.114000  0.565500  0.247800  1.0  -0.5791
  O  O380  1  0.025600  0.453400  0.515200  1.0  -0.4172
  O  O381  1  0.902000  0.839800  0.686000  1.0  -0.5699
  O  O382  1  0.852400  0.791100  0.688000  1.0  -0.5824
  O  O383  1  0.368000  0.818400  0.744600  1.0  -0.587
  O  O384  1  0.317700  0.866200  0.752200  1.0  -0.5782
  O  O385  1  0.938200  0.510400  0.484800  1.0  -0.4143
  O  O386  1  0.784000  0.846200  0.686000  1.0  -0.5701
  O  O387  1  0.835600  0.896900  0.688000  1.0  -0.5807
  O  O388  1  0.376600  0.926200  0.744600  1.0  -0.5864
  O  O389  1  0.434500  0.886000  0.752200  1.0  -0.5798
  O  O390  1  0.546600  0.974400  0.484800  1.0  -0.3972
  O  O391  1  0.096200  0.652000  0.186000  1.0  -0.5714
  O  O392  1  0.146900  0.602400  0.188000  1.0  -0.5818
  O  O393  1  0.176200  0.118000  0.244600  1.0  -0.5861
  O  O394  1  0.136000  0.067700  0.252200  1.0  -0.5792
  O  O395  1  0.224400  0.688200  0.984800  1.0  -0.4188
  O  O396  1  0.089800  0.534000  0.186000  1.0  -0.5741
  O  O397  1  0.041100  0.585600  0.188000  1.0  -0.5825
  O  O398  1  0.068400  0.126600  0.244600  1.0  -0.5875
  O  O399  1  0.116200  0.184500  0.252200  1.0  -0.5787
  O  O400  1  0.760400  0.296600  0.984800  1.0  -0.4208
