# generated using pymatgen
data_Zn3(PO3)4
_symmetry_space_group_name_H-M   'P 1'
_cell_length_a   11.24200000
_cell_length_b   14.36700000
_cell_length_c   16.75100000
_cell_angle_alpha   90.00000000
_cell_angle_beta   109.51800000
_cell_angle_gamma   90.00000000
_symmetry_Int_Tables_number   1
_chemical_formula_structural   Zn3(PO3)4
_chemical_formula_sum   'Zn12 P16 O48'
_cell_volume   2550.04957634
_cell_formula_units_Z   4
loop_
 _symmetry_equiv_pos_site_id
 _symmetry_equiv_pos_as_xyz
  1  'x, y, z'
loop_
 _atom_site_type_symbol
 _atom_site_label
 _atom_site_symmetry_multiplicity
 _atom_site_fract_x
 _atom_site_fract_y
 _atom_site_fract_z
 _atom_site_occupancy
 _atom_site_charge
  Zn  Zn1  1  0.608230  0.129180  0.980160  1.0  1.1702
  Zn  Zn2  1  0.742160  0.125390  0.253300  1.0  1.1495
  Zn  Zn3  1  0.882340  0.379330  0.027510  1.0  1.1697
  Zn  Zn4  1  0.391770  0.629180  0.519840  1.0  1.1626
  Zn  Zn5  1  0.257840  0.625390  0.246700  1.0  1.1491
  Zn  Zn6  1  0.117660  0.879330  0.472490  1.0  1.1738
  Zn  Zn7  1  0.391770  0.870820  0.019840  1.0  1.1696
  Zn  Zn8  1  0.257840  0.874610  0.746700  1.0  1.1491
  Zn  Zn9  1  0.117660  0.620670  0.972490  1.0  1.1691
  Zn  Zn10  1  0.608230  0.370820  0.480160  1.0  1.1704
  Zn  Zn11  1  0.742160  0.374610  0.753300  1.0  1.1496
  Zn  Zn12  1  0.882340  0.120670  0.527510  1.0  1.169
  P  P13  1  0.866800  0.188300  0.119800  1.0  0.9922
  P  P14  1  0.488400  0.061200  0.118200  1.0  0.9969
  P  P15  1  0.620800  0.324100  0.889600  1.0  0.9986
  P  P16  1  0.004500  0.073900  0.386000  1.0  1.0173
  P  P17  1  0.133200  0.688300  0.380200  1.0  0.994
  P  P18  1  0.511600  0.561200  0.381800  1.0  0.9893
  P  P19  1  0.379200  0.824100  0.610400  1.0  0.9964
  P  P20  1  0.995500  0.573900  0.114000  1.0  1.0147
  P  P21  1  0.133200  0.811700  0.880200  1.0  0.9992
  P  P22  1  0.511600  0.938800  0.881800  1.0  0.9867
  P  P23  1  0.379200  0.675900  0.110400  1.0  0.9911
  P  P24  1  0.995500  0.926100  0.614000  1.0  1.0099
  P  P25  1  0.866800  0.311700  0.619800  1.0  0.9964
  P  P26  1  0.488400  0.438800  0.618200  1.0  0.9952
  P  P27  1  0.620800  0.175900  0.389600  1.0  0.9936
  P  P28  1  0.004500  0.426100  0.886000  1.0  1.0123
  O  O29  1  0.789100  0.139300  0.041200  1.0  -0.5869
  O  O30  1  0.799400  0.208200  0.181400  1.0  -0.6357
  O  O31  1  0.490600  0.116600  0.041700  1.0  -0.6301
  O  O32  1  0.411300  0.972100  0.098100  1.0  -0.6194
  O  O33  1  0.614100  0.044300  0.182800  1.0  -0.6165
  O  O34  1  0.685000  0.296400  0.826600  1.0  -0.6255
  O  O35  1  0.556500  0.243200  0.914500  1.0  -0.618
  O  O36  1  0.705100  0.379100  0.964600  1.0  -0.6271
  O  O37  1  0.096300  0.994600  0.405600  1.0  -0.6486
  O  O38  1  0.874500  0.045900  0.325300  1.0  -0.6388
  O  O39  1  0.997800  0.121300  0.464400  1.0  -0.6206
  O  O40  1  0.934600  0.272800  0.103600  1.0  -0.6168
  O  O41  1  0.210900  0.639300  0.458800  1.0  -0.5879
  O  O42  1  0.200600  0.708200  0.318600  1.0  -0.6361
  O  O43  1  0.509400  0.616600  0.458300  1.0  -0.631
  O  O44  1  0.588700  0.472100  0.401900  1.0  -0.6188
  O  O45  1  0.385900  0.544300  0.317200  1.0  -0.6166
  O  O46  1  0.315000  0.796400  0.673400  1.0  -0.6267
  O  O47  1  0.443500  0.743200  0.585500  1.0  -0.6172
  O  O48  1  0.294900  0.879100  0.535400  1.0  -0.627
  O  O49  1  0.903700  0.494600  0.094400  1.0  -0.6494
  O  O50  1  0.125500  0.545900  0.174700  1.0  -0.6389
  O  O51  1  0.002200  0.621300  0.035600  1.0  -0.6199
  O  O52  1  0.065400  0.772800  0.396400  1.0  -0.6174
  O  O53  1  0.210900  0.860700  0.958800  1.0  -0.5877
  O  O54  1  0.200600  0.791800  0.818600  1.0  -0.6372
  O  O55  1  0.509400  0.883400  0.958300  1.0  -0.6311
  O  O56  1  0.588700  0.027900  0.901900  1.0  -0.6183
  O  O57  1  0.385900  0.955700  0.817200  1.0  -0.6157
  O  O58  1  0.315000  0.703600  0.173400  1.0  -0.6253
  O  O59  1  0.443500  0.756800  0.085500  1.0  -0.6165
  O  O60  1  0.294900  0.620900  0.035400  1.0  -0.6269
  O  O61  1  0.903700  0.005400  0.594400  1.0  -0.649
  O  O62  1  0.125500  0.954100  0.674700  1.0  -0.6379
  O  O63  1  0.002200  0.878700  0.535600  1.0  -0.6199
  O  O64  1  0.065400  0.727200  0.896400  1.0  -0.6174
  O  O65  1  0.789100  0.360700  0.541200  1.0  -0.5863
  O  O66  1  0.799400  0.291800  0.681400  1.0  -0.6367
  O  O67  1  0.490600  0.383400  0.541700  1.0  -0.6302
  O  O68  1  0.411300  0.527900  0.598100  1.0  -0.6194
  O  O69  1  0.614100  0.455700  0.682800  1.0  -0.6159
  O  O70  1  0.685000  0.203600  0.326600  1.0  -0.6246
  O  O71  1  0.556500  0.256800  0.414500  1.0  -0.6177
  O  O72  1  0.705100  0.120900  0.464600  1.0  -0.6268
  O  O73  1  0.096300  0.505400  0.905600  1.0  -0.6476
  O  O74  1  0.874500  0.454100  0.825300  1.0  -0.6376
  O  O75  1  0.997800  0.378700  0.964400  1.0  -0.6215
  O  O76  1  0.934600  0.227200  0.603600  1.0  -0.6173
