# generated using pymatgen
data_CoH29C41(N3O2)2
_symmetry_space_group_name_H-M   'P 1'
_cell_length_a   22.28600000
_cell_length_b   22.72500000
_cell_length_c   14.05600000
_cell_angle_alpha   90.00000000
_cell_angle_beta   90.00000000
_cell_angle_gamma   90.00000000
_symmetry_Int_Tables_number   1
_chemical_formula_structural   CoH29C41(N3O2)2
_chemical_formula_sum   'Co8 H232 C328 N48 O32'
_cell_volume   7118.65206360
_cell_formula_units_Z   8
loop_
 _symmetry_equiv_pos_site_id
 _symmetry_equiv_pos_as_xyz
  1  'x, y, z'
loop_
 _atom_site_type_symbol
 _atom_site_label
 _atom_site_symmetry_multiplicity
 _atom_site_fract_x
 _atom_site_fract_y
 _atom_site_fract_z
 _atom_site_occupancy
 _atom_site_charge
  Co  Co1  1  0.174470  0.205080  0.961540  1.0  0.8995
  Co  Co2  1  0.325530  0.294920  0.461540  1.0  0.8981
  Co  Co3  1  0.825530  0.794920  0.038460  1.0  0.8978
  Co  Co4  1  0.674470  0.705080  0.538460  1.0  0.8997
  Co  Co5  1  0.825530  0.205080  0.538460  1.0  0.8984
  Co  Co6  1  0.674470  0.294920  0.038460  1.0  0.899
  Co  Co7  1  0.174470  0.794920  0.461540  1.0  0.8992
  Co  Co8  1  0.325530  0.705080  0.961540  1.0  0.8985
  H  H9  1  0.330400  0.463500  0.058800  1.0  0.0946
  H  H10  1  0.291600  0.503800  0.196900  1.0  0.0956
  H  H11  1  0.201800  0.470300  0.257200  1.0  0.0944
  H  H12  1  0.149800  0.396100  0.179600  1.0  0.1023
  H  H13  1  0.374000  0.370700  0.982700  1.0  0.0995
  H  H14  1  0.412200  0.345000  0.835600  1.0  0.1007
  H  H15  1  0.249700  0.367400  0.718700  1.0  0.0991
  H  H16  1  0.211500  0.394100  0.865000  1.0  0.0936
  H  H17  1  0.277200  0.098400  0.974400  1.0  0.093
  H  H18  1  0.298700  0.257200  0.875500  1.0  0.0884
  H  H19  1  0.392800  0.204700  0.847500  1.0  0.1338
  H  H20  1  0.462800  0.134000  0.860100  1.0  0.116
  H  H21  1  0.530400  0.057700  0.849700  1.0  0.1169
  H  H22  1  0.405300  0.945200  0.939200  1.0  0.0971
  H  H23  1  0.337200  0.021300  0.952500  1.0  0.1125
  H  H24  1  0.585400  0.990400  0.817800  1.0  0.1045
  H  H25  1  0.648800  0.913600  0.782000  1.0  0.1052
  H  H26  1  0.531600  0.800500  0.894800  1.0  0.1268
  H  H27  1  0.469100  0.877500  0.933600  1.0  0.1047
  H  H28  1  0.610400  0.807700  0.653200  1.0  0.0939
  H  H29  1  0.719300  0.697400  0.779900  1.0  0.1072
  H  H30  1  0.676400  0.761300  0.903900  1.0  0.125
  H  H31  1  0.101100  0.151800  0.787700  1.0  0.0921
  H  H32  1  0.172200  0.055900  0.987800  1.0  0.1004
  H  H33  1  0.130400  0.988400  0.870300  1.0  0.1165
  H  H34  1  0.085500  0.957700  0.730400  1.0  0.1026
  H  H35  1  0.037600  0.928800  0.593100  1.0  0.1194
  H  H36  1  0.004300  0.096700  0.529800  1.0  0.1187
  H  H37  1  0.051700  0.125800  0.665700  1.0  0.1207
  H  H38  1  0.169600  0.036500  0.558800  1.0  0.0945
  H  H39  1  0.208400  0.996200  0.696900  1.0  0.0957
  H  H40  1  0.298200  0.029700  0.757200  1.0  0.0947
  H  H41  1  0.350200  0.103900  0.679600  1.0  0.1025
  H  H42  1  0.126000  0.129300  0.482700  1.0  0.0991
  H  H43  1  0.087800  0.155000  0.335600  1.0  0.1003
  H  H44  1  0.250300  0.132600  0.218700  1.0  0.0997
  H  H45  1  0.288500  0.105900  0.365000  1.0  0.0941
  H  H46  1  0.222800  0.401600  0.474400  1.0  0.093
  H  H47  1  0.201300  0.242800  0.375500  1.0  0.0877
  H  H48  1  0.107200  0.295300  0.347500  1.0  0.1345
  H  H49  1  0.037200  0.366000  0.360100  1.0  0.1158
  H  H50  1  0.969600  0.442300  0.349700  1.0  0.1169
  H  H51  1  0.094700  0.554800  0.439200  1.0  0.0983
  H  H52  1  0.162800  0.478700  0.452500  1.0  0.1131
  H  H53  1  0.914600  0.509600  0.317800  1.0  0.1038
  H  H54  1  0.851200  0.586400  0.282000  1.0  0.1053
  H  H55  1  0.968400  0.699500  0.394800  1.0  0.1262
  H  H56  1  0.030900  0.622500  0.433600  1.0  0.1053
  H  H57  1  0.889600  0.692300  0.153200  1.0  0.0938
  H  H58  1  0.780700  0.802600  0.279900  1.0  0.1075
  H  H59  1  0.823600  0.738700  0.403900  1.0  0.1254
  H  H60  1  0.398900  0.348200  0.287700  1.0  0.0913
  H  H61  1  0.327800  0.444100  0.487800  1.0  0.0998
  H  H62  1  0.369600  0.511600  0.370300  1.0  0.1174
  H  H63  1  0.414500  0.542300  0.230400  1.0  0.1027
  H  H64  1  0.462400  0.571200  0.093100  1.0  0.1196
  H  H65  1  0.495700  0.403300  0.029800  1.0  0.1188
  H  H66  1  0.448300  0.374200  0.165700  1.0  0.1201
  H  H67  1  0.669600  0.536500  0.941200  1.0  0.094
  H  H68  1  0.708400  0.496200  0.803100  1.0  0.0954
  H  H69  1  0.798200  0.529700  0.742800  1.0  0.0942
  H  H70  1  0.850200  0.603900  0.820400  1.0  0.1026
  H  H71  1  0.626000  0.629300  0.017300  1.0  0.0995
  H  H72  1  0.587800  0.655000  0.164400  1.0  0.1004
  H  H73  1  0.750300  0.632600  0.281300  1.0  0.0997
  H  H74  1  0.788500  0.605900  0.135000  1.0  0.0942
  H  H75  1  0.722800  0.901600  0.025600  1.0  0.0929
  H  H76  1  0.701300  0.742800  0.124500  1.0  0.0877
  H  H77  1  0.607200  0.795300  0.152500  1.0  0.135
  H  H78  1  0.537200  0.866000  0.139900  1.0  0.1157
  H  H79  1  0.469600  0.942300  0.150300  1.0  0.117
  H  H80  1  0.594700  0.054800  0.060800  1.0  0.0988
  H  H81  1  0.662800  0.978700  0.047500  1.0  0.1133
  H  H82  1  0.414600  0.009600  0.182200  1.0  0.1041
  H  H83  1  0.351200  0.086400  0.218000  1.0  0.1053
  H  H84  1  0.468400  0.199500  0.105200  1.0  0.1263
  H  H85  1  0.530900  0.122500  0.066400  1.0  0.1052
  H  H86  1  0.389600  0.192300  0.346800  1.0  0.0954
  H  H87  1  0.280700  0.302600  0.220100  1.0  0.1075
  H  H88  1  0.323600  0.238700  0.096100  1.0  0.1256
  H  H89  1  0.898900  0.848200  0.212300  1.0  0.0916
  H  H90  1  0.827800  0.944100  0.012200  1.0  0.0998
  H  H91  1  0.869600  0.011600  0.129700  1.0  0.1174
  H  H92  1  0.914500  0.042300  0.269600  1.0  0.1026
  H  H93  1  0.962400  0.071200  0.406900  1.0  0.1203
  H  H94  1  0.995700  0.903300  0.470200  1.0  0.1188
  H  H95  1  0.948300  0.874200  0.334300  1.0  0.1202
  H  H96  1  0.830400  0.963500  0.441200  1.0  0.0942
  H  H97  1  0.791600  0.003800  0.303100  1.0  0.0957
  H  H98  1  0.701800  0.970300  0.242800  1.0  0.0942
  H  H99  1  0.649800  0.896100  0.320400  1.0  0.1021
  H  H100  1  0.874000  0.870700  0.517300  1.0  0.0995
  H  H101  1  0.912200  0.845000  0.664400  1.0  0.1006
  H  H102  1  0.749700  0.867400  0.781300  1.0  0.099
  H  H103  1  0.711500  0.894100  0.635000  1.0  0.0937
  H  H104  1  0.777200  0.598400  0.525600  1.0  0.0923
  H  H105  1  0.798700  0.757200  0.624500  1.0  0.0882
  H  H106  1  0.892800  0.704700  0.652500  1.0  0.1341
  H  H107  1  0.962800  0.634000  0.639900  1.0  0.1159
  H  H108  1  0.030400  0.557700  0.650300  1.0  0.1168
  H  H109  1  0.905300  0.445200  0.560800  1.0  0.0972
  H  H110  1  0.837200  0.521300  0.547500  1.0  0.1129
  H  H111  1  0.085400  0.490400  0.682200  1.0  0.1045
  H  H112  1  0.148800  0.413600  0.718000  1.0  0.1053
  H  H113  1  0.031600  0.300500  0.605200  1.0  0.1263
  H  H114  1  0.969100  0.377500  0.566400  1.0  0.1046
  H  H115  1  0.110400  0.307700  0.846800  1.0  0.0958
  H  H116  1  0.219300  0.197400  0.720100  1.0  0.1071
  H  H117  1  0.176400  0.261300  0.596100  1.0  0.1249
  H  H118  1  0.601100  0.651800  0.712300  1.0  0.0921
  H  H119  1  0.672200  0.555900  0.512200  1.0  0.1007
  H  H120  1  0.630400  0.488400  0.629700  1.0  0.1165
  H  H121  1  0.585500  0.457700  0.769600  1.0  0.1027
  H  H122  1  0.537600  0.428800  0.906900  1.0  0.1199
  H  H123  1  0.504300  0.596700  0.970200  1.0  0.1189
  H  H124  1  0.551700  0.625800  0.834300  1.0  0.1202
  H  H125  1  0.669600  0.463500  0.441200  1.0  0.0943
  H  H126  1  0.708400  0.503800  0.303100  1.0  0.0959
  H  H127  1  0.798200  0.470300  0.242800  1.0  0.0942
  H  H128  1  0.850200  0.396100  0.320400  1.0  0.1023
  H  H129  1  0.626000  0.370700  0.517300  1.0  0.0993
  H  H130  1  0.587800  0.345000  0.664400  1.0  0.1005
  H  H131  1  0.750300  0.367400  0.781300  1.0  0.0995
  H  H132  1  0.788500  0.394100  0.635000  1.0  0.0942
  H  H133  1  0.722800  0.098400  0.525600  1.0  0.0926
  H  H134  1  0.701300  0.257200  0.624500  1.0  0.0878
  H  H135  1  0.607200  0.204700  0.652500  1.0  0.1344
  H  H136  1  0.537200  0.134000  0.639900  1.0  0.1156
  H  H137  1  0.469600  0.057700  0.650300  1.0  0.1171
  H  H138  1  0.594700  0.945200  0.560800  1.0  0.0975
  H  H139  1  0.662800  0.021300  0.547500  1.0  0.1133
  H  H140  1  0.414600  0.990400  0.682200  1.0  0.1042
  H  H141  1  0.351200  0.913600  0.718000  1.0  0.1055
  H  H142  1  0.468400  0.800500  0.605200  1.0  0.1267
  H  H143  1  0.530900  0.877500  0.566400  1.0  0.1051
  H  H144  1  0.389600  0.807700  0.846800  1.0  0.0945
  H  H145  1  0.280700  0.697400  0.720100  1.0  0.1074
  H  H146  1  0.323600  0.761300  0.596100  1.0  0.1253
  H  H147  1  0.898900  0.151800  0.712300  1.0  0.0919
  H  H148  1  0.827800  0.055900  0.512200  1.0  0.1005
  H  H149  1  0.869600  0.988400  0.629700  1.0  0.1167
  H  H150  1  0.914500  0.957700  0.769600  1.0  0.1029
  H  H151  1  0.962400  0.928800  0.906900  1.0  0.1193
  H  H152  1  0.995700  0.096700  0.970200  1.0  0.1191
  H  H153  1  0.948300  0.125800  0.834300  1.0  0.1206
  H  H154  1  0.830400  0.036500  0.941200  1.0  0.0939
  H  H155  1  0.791600  0.996200  0.803100  1.0  0.0952
  H  H156  1  0.701800  0.029700  0.742800  1.0  0.0941
  H  H157  1  0.649800  0.103900  0.820400  1.0  0.1026
  H  H158  1  0.874000  0.129300  0.017300  1.0  0.0995
  H  H159  1  0.912200  0.155000  0.164400  1.0  0.1005
  H  H160  1  0.749700  0.132600  0.281300  1.0  0.0991
  H  H161  1  0.711500  0.105900  0.135000  1.0  0.0933
  H  H162  1  0.777200  0.401600  0.025600  1.0  0.0927
  H  H163  1  0.798700  0.242800  0.124500  1.0  0.0877
  H  H164  1  0.892800  0.295300  0.152500  1.0  0.1342
  H  H165  1  0.962800  0.366000  0.139900  1.0  0.1163
  H  H166  1  0.030400  0.442300  0.150300  1.0  0.1176
  H  H167  1  0.905300  0.554800  0.060800  1.0  0.0987
  H  H168  1  0.837200  0.478700  0.047500  1.0  0.113
  H  H169  1  0.085400  0.509600  0.182200  1.0  0.1045
  H  H170  1  0.148800  0.586400  0.218000  1.0  0.1057
  H  H171  1  0.031600  0.699500  0.105200  1.0  0.1266
  H  H172  1  0.969100  0.622500  0.066400  1.0  0.1054
  H  H173  1  0.110400  0.692300  0.346800  1.0  0.0947
  H  H174  1  0.219300  0.802600  0.220100  1.0  0.1072
  H  H175  1  0.176400  0.738700  0.096100  1.0  0.1251
  H  H176  1  0.601100  0.348200  0.212300  1.0  0.0917
  H  H177  1  0.672200  0.444100  0.012200  1.0  0.1005
  H  H178  1  0.630400  0.511600  0.129700  1.0  0.1174
  H  H179  1  0.585500  0.542300  0.269600  1.0  0.1024
  H  H180  1  0.537600  0.571200  0.406900  1.0  0.1196
  H  H181  1  0.504300  0.403300  0.470200  1.0  0.1182
  H  H182  1  0.551700  0.374200  0.334300  1.0  0.1195
  H  H183  1  0.330400  0.536500  0.558800  1.0  0.0943
  H  H184  1  0.291600  0.496200  0.696900  1.0  0.0956
  H  H185  1  0.201800  0.529700  0.757200  1.0  0.0943
  H  H186  1  0.149800  0.603900  0.679600  1.0  0.1023
  H  H187  1  0.374000  0.629300  0.482700  1.0  0.0991
  H  H188  1  0.412200  0.655000  0.335600  1.0  0.1006
  H  H189  1  0.249700  0.632600  0.218700  1.0  0.0993
  H  H190  1  0.211500  0.605900  0.365000  1.0  0.0933
  H  H191  1  0.277200  0.901600  0.474400  1.0  0.0927
  H  H192  1  0.298700  0.742800  0.375500  1.0  0.0877
  H  H193  1  0.392800  0.795300  0.347500  1.0  0.1336
  H  H194  1  0.462800  0.866000  0.360100  1.0  0.1165
  H  H195  1  0.530400  0.942300  0.349700  1.0  0.1175
  H  H196  1  0.405300  0.054800  0.439200  1.0  0.0981
  H  H197  1  0.337200  0.978700  0.452500  1.0  0.1127
  H  H198  1  0.585400  0.009600  0.317800  1.0  0.1044
  H  H199  1  0.648800  0.086400  0.282000  1.0  0.1056
  H  H200  1  0.531600  0.199500  0.394800  1.0  0.1267
  H  H201  1  0.469100  0.122500  0.433600  1.0  0.1051
  H  H202  1  0.610400  0.192300  0.153200  1.0  0.0948
  H  H203  1  0.719300  0.302600  0.279900  1.0  0.1072
  H  H204  1  0.676400  0.238700  0.403900  1.0  0.125
  H  H205  1  0.101100  0.848200  0.287700  1.0  0.0914
  H  H206  1  0.172200  0.944100  0.487800  1.0  0.1005
  H  H207  1  0.130400  0.011600  0.370300  1.0  0.1173
  H  H208  1  0.085500  0.042300  0.230400  1.0  0.1026
  H  H209  1  0.037600  0.071200  0.093100  1.0  0.12
  H  H210  1  0.004300  0.903300  0.029800  1.0  0.1183
  H  H211  1  0.051700  0.874200  0.165700  1.0  0.1198
  H  H212  1  0.169600  0.963500  0.058800  1.0  0.0949
  H  H213  1  0.208400  0.003800  0.196900  1.0  0.0958
  H  H214  1  0.298200  0.970300  0.257200  1.0  0.0947
  H  H215  1  0.350200  0.896100  0.179600  1.0  0.1025
  H  H216  1  0.126000  0.870700  0.982700  1.0  0.0993
  H  H217  1  0.087800  0.845000  0.835600  1.0  0.1004
  H  H218  1  0.250300  0.867400  0.718700  1.0  0.0995
  H  H219  1  0.288500  0.894100  0.865000  1.0  0.0941
  H  H220  1  0.222800  0.598400  0.974400  1.0  0.0932
  H  H221  1  0.201300  0.757200  0.875500  1.0  0.0881
  H  H222  1  0.107200  0.704700  0.847500  1.0  0.1342
  H  H223  1  0.037200  0.634000  0.860100  1.0  0.1158
  H  H224  1  0.969600  0.557700  0.849700  1.0  0.1171
  H  H225  1  0.094700  0.445200  0.939200  1.0  0.0974
  H  H226  1  0.162800  0.521300  0.952500  1.0  0.1131
  H  H227  1  0.914600  0.490400  0.817800  1.0  0.104
  H  H228  1  0.851200  0.413600  0.782000  1.0  0.1055
  H  H229  1  0.968400  0.300500  0.894800  1.0  0.1269
  H  H230  1  0.030900  0.377500  0.933600  1.0  0.1055
  H  H231  1  0.889600  0.307700  0.653200  1.0  0.0948
  H  H232  1  0.780700  0.197400  0.779900  1.0  0.1075
  H  H233  1  0.823600  0.261300  0.903900  1.0  0.1254
  H  H234  1  0.398900  0.651800  0.787700  1.0  0.0918
  H  H235  1  0.327800  0.555900  0.987800  1.0  0.1001
  H  H236  1  0.369600  0.488400  0.870300  1.0  0.1168
  H  H237  1  0.414500  0.457700  0.730400  1.0  0.1027
  H  H238  1  0.462400  0.428800  0.593100  1.0  0.1201
  H  H239  1  0.495700  0.596700  0.529800  1.0  0.1188
  H  H240  1  0.448300  0.625800  0.665700  1.0  0.1207
  C  C241  1  0.174630  0.332680  0.030200  1.0  0.7137
  C  C242  1  0.209370  0.383820  0.072400  1.0  -0.1158
  C  C243  1  0.263710  0.405090  0.034300  1.0  0.0165
  C  C244  1  0.294040  0.449730  0.082600  1.0  -0.1256
  C  C245  1  0.270820  0.473980  0.165700  1.0  -0.0679
  C  C246  1  0.217320  0.454000  0.201800  1.0  -0.0886
  C  C247  1  0.186240  0.409210  0.155300  1.0  -0.046
  C  C248  1  0.288200  0.384950  0.940500  1.0  0.0477
  C  C249  1  0.348830  0.370210  0.929900  1.0  -0.0945
  C  C250  1  0.371860  0.354790  0.841200  1.0  -0.0479
  C  C251  1  0.335280  0.353770  0.760800  1.0  -0.1165
  C  C252  1  0.274890  0.368290  0.771400  1.0  -0.0398
  C  C253  1  0.251820  0.384010  0.859700  1.0  -0.0964
  C  C254  1  0.358920  0.335210  0.664100  1.0  0.6893
  C  C255  1  0.294070  0.131470  0.946200  1.0  0.1556
  C  C256  1  0.306110  0.218300  0.892100  1.0  0.0207
  C  C257  1  0.358460  0.189550  0.876100  1.0  -0.1452
  C  C258  1  0.392510  0.085780  0.905600  1.0  0.1023
  C  C259  1  0.450800  0.096040  0.875700  1.0  -0.1618
  C  C260  1  0.491340  0.049840  0.869000  1.0  -0.1153
  C  C261  1  0.475490  0.992450  0.890100  1.0  -0.0514
  C  C262  1  0.417020  0.983070  0.922500  1.0  -0.1122
  C  C263  1  0.375810  0.028780  0.930500  1.0  -0.1473
  C  C264  1  0.518440  0.942880  0.875700  1.0  0.023
  C  C265  1  0.573740  0.952140  0.832400  1.0  -0.1005
  C  C266  1  0.611930  0.906140  0.810500  1.0  -0.1848
  C  C267  1  0.595140  0.849160  0.831100  1.0  0.1583
  C  C268  1  0.542180  0.838710  0.878200  1.0  -0.1313
  C  C269  1  0.504560  0.885060  0.900800  1.0  -0.121
  C  C270  1  0.632240  0.787780  0.699500  1.0  0.1722
  C  C271  1  0.691790  0.727510  0.769700  1.0  0.0354
  C  C272  1  0.668390  0.762910  0.839000  1.0  -0.0986
  C  C273  1  0.113820  0.119530  0.823000  1.0  0.1448
  C  C274  1  0.152680  0.066920  0.932200  1.0  0.009
  C  C275  1  0.129500  0.029270  0.867700  1.0  -0.1615
  C  C276  1  0.074160  0.044830  0.712200  1.0  0.1254
  C  C277  1  0.069360  0.985940  0.689900  1.0  -0.1784
  C  C278  1  0.040390  0.968740  0.607100  1.0  -0.103
  C  C279  1  0.015320  0.009200  0.544200  1.0  0.016
  C  C280  1  0.020650  0.068240  0.569700  1.0  -0.1343
  C  C281  1  0.049130  0.085990  0.651200  1.0  -0.1933
  C  C282  1  0.325370  0.167320  0.530200  1.0  0.7112
  C  C283  1  0.290630  0.116180  0.572400  1.0  -0.1147
  C  C284  1  0.236290  0.094910  0.534300  1.0  0.0165
  C  C285  1  0.205960  0.050270  0.582600  1.0  -0.1254
  C  C286  1  0.229180  0.026020  0.665700  1.0  -0.0674
  C  C287  1  0.282680  0.046000  0.701800  1.0  -0.0879
  C  C288  1  0.313760  0.090790  0.655300  1.0  -0.0489
  C  C289  1  0.211800  0.115050  0.440500  1.0  0.0471
  C  C290  1  0.151170  0.129790  0.429900  1.0  -0.0923
  C  C291  1  0.128140  0.145210  0.341200  1.0  -0.0482
  C  C292  1  0.164720  0.146230  0.260800  1.0  -0.1179
  C  C293  1  0.225110  0.131710  0.271400  1.0  -0.0401
  C  C294  1  0.248180  0.115990  0.359700  1.0  -0.098
  C  C295  1  0.141080  0.164790  0.164100  1.0  0.6936
  C  C296  1  0.205930  0.368530  0.446200  1.0  0.1555
  C  C297  1  0.193890  0.281700  0.392100  1.0  0.0202
  C  C298  1  0.141540  0.310450  0.376100  1.0  -0.1468
  C  C299  1  0.107490  0.414220  0.405600  1.0  0.1023
  C  C300  1  0.049200  0.403960  0.375700  1.0  -0.1582
  C  C301  1  0.008660  0.450160  0.369000  1.0  -0.113
  C  C302  1  0.024510  0.507550  0.390100  1.0  -0.0507
  C  C303  1  0.082980  0.516930  0.422500  1.0  -0.1128
  C  C304  1  0.124190  0.471220  0.430500  1.0  -0.1497
  C  C305  1  0.981560  0.557120  0.375700  1.0  0.0227
  C  C306  1  0.926260  0.547860  0.332400  1.0  -0.1006
  C  C307  1  0.888070  0.593860  0.310500  1.0  -0.1848
  C  C308  1  0.904860  0.650840  0.331100  1.0  0.1576
  C  C309  1  0.957820  0.661290  0.378200  1.0  -0.1317
  C  C310  1  0.995440  0.614940  0.400800  1.0  -0.1226
  C  C311  1  0.867760  0.712220  0.199500  1.0  0.1715
  C  C312  1  0.808210  0.772490  0.269700  1.0  0.0336
  C  C313  1  0.831610  0.737090  0.339000  1.0  -0.0993
  C  C314  1  0.386180  0.380470  0.323000  1.0  0.1456
  C  C315  1  0.347320  0.433080  0.432200  1.0  0.0078
  C  C316  1  0.370500  0.470730  0.367700  1.0  -0.1613
  C  C317  1  0.425840  0.455170  0.212200  1.0  0.125
  C  C318  1  0.430640  0.514060  0.189900  1.0  -0.1802
  C  C319  1  0.459610  0.531260  0.107100  1.0  -0.1049
  C  C320  1  0.484680  0.490800  0.044200  1.0  0.0165
  C  C321  1  0.479350  0.431760  0.069700  1.0  -0.1337
  C  C322  1  0.450870  0.414010  0.151200  1.0  -0.1896
  C  C323  1  0.825370  0.667320  0.969800  1.0  0.7119
  C  C324  1  0.790630  0.616180  0.927600  1.0  -0.1147
  C  C325  1  0.736290  0.594910  0.965700  1.0  0.0167
  C  C326  1  0.705960  0.550270  0.917400  1.0  -0.1258
  C  C327  1  0.729180  0.526020  0.834300  1.0  -0.0675
  C  C328  1  0.782680  0.546000  0.798200  1.0  -0.0892
  C  C329  1  0.813760  0.590790  0.844700  1.0  -0.049
  C  C330  1  0.711800  0.615050  0.059500  1.0  0.0464
  C  C331  1  0.651170  0.629790  0.070100  1.0  -0.0923
  C  C332  1  0.628140  0.645210  0.158800  1.0  -0.0478
  C  C333  1  0.664720  0.646230  0.239200  1.0  -0.117
  C  C334  1  0.725110  0.631710  0.228600  1.0  -0.0421
  C  C335  1  0.748180  0.615990  0.140300  1.0  -0.0979
  C  C336  1  0.641080  0.664790  0.335900  1.0  0.6927
  C  C337  1  0.705930  0.868530  0.053800  1.0  0.1548
  C  C338  1  0.693890  0.781700  0.107900  1.0  0.0203
  C  C339  1  0.641540  0.810450  0.123900  1.0  -0.146
  C  C340  1  0.607490  0.914220  0.094400  1.0  0.1024
  C  C341  1  0.549200  0.903960  0.124300  1.0  -0.158
  C  C342  1  0.508660  0.950160  0.131000  1.0  -0.113
  C  C343  1  0.524510  0.007550  0.109900  1.0  -0.0508
  C  C344  1  0.582980  0.016930  0.077500  1.0  -0.1126
  C  C345  1  0.624190  0.971220  0.069500  1.0  -0.15
  C  C346  1  0.481560  0.057120  0.124300  1.0  0.0229
  C  C347  1  0.426260  0.047860  0.167600  1.0  -0.1009
  C  C348  1  0.388070  0.093860  0.189500  1.0  -0.185
  C  C349  1  0.404860  0.150840  0.168900  1.0  0.1576
  C  C350  1  0.457820  0.161290  0.121800  1.0  -0.1318
  C  C351  1  0.495440  0.114940  0.099200  1.0  -0.1222
  C  C352  1  0.367760  0.212220  0.300500  1.0  0.1712
  C  C353  1  0.308210  0.272490  0.230300  1.0  0.0337
  C  C354  1  0.331610  0.237090  0.161000  1.0  -0.0979
  C  C355  1  0.886180  0.880470  0.177000  1.0  0.1461
  C  C356  1  0.847320  0.933080  0.067800  1.0  0.0078
  C  C357  1  0.870500  0.970730  0.132300  1.0  -0.1612
  C  C358  1  0.925840  0.955170  0.287800  1.0  0.125
  C  C359  1  0.930640  0.014060  0.310100  1.0  -0.1804
  C  C360  1  0.959610  0.031260  0.392900  1.0  -0.1061
  C  C361  1  0.984680  0.990800  0.455800  1.0  0.0161
  C  C362  1  0.979350  0.931760  0.430300  1.0  -0.1279
  C  C363  1  0.950870  0.914010  0.348800  1.0  -0.1893
  C  C364  1  0.674630  0.832680  0.469800  1.0  0.7141
  C  C365  1  0.709370  0.883820  0.427600  1.0  -0.1155
  C  C366  1  0.763710  0.905090  0.465700  1.0  0.0168
  C  C367  1  0.794040  0.949730  0.417400  1.0  -0.1259
  C  C368  1  0.770820  0.973980  0.334300  1.0  -0.0679
  C  C369  1  0.717320  0.954000  0.298200  1.0  -0.0895
  C  C370  1  0.686240  0.909210  0.344700  1.0  -0.0463
  C  C371  1  0.788200  0.884950  0.559500  1.0  0.0467
  C  C372  1  0.848830  0.870210  0.570100  1.0  -0.0947
  C  C373  1  0.871860  0.854790  0.658800  1.0  -0.0476
  C  C374  1  0.835280  0.853770  0.739200  1.0  -0.1164
  C  C375  1  0.774890  0.868290  0.728600  1.0  -0.0412
  C  C376  1  0.751820  0.884010  0.640300  1.0  -0.0967
  C  C377  1  0.858920  0.835210  0.835900  1.0  0.6915
  C  C378  1  0.794070  0.631470  0.553800  1.0  0.1554
  C  C379  1  0.806110  0.718300  0.607900  1.0  0.0203
  C  C380  1  0.858460  0.689550  0.623900  1.0  -0.1458
  C  C381  1  0.892510  0.585780  0.594400  1.0  0.1023
  C  C382  1  0.950800  0.596040  0.624300  1.0  -0.1624
  C  C383  1  0.991340  0.549840  0.631000  1.0  -0.1152
  C  C384  1  0.975490  0.492450  0.609900  1.0  -0.0515
  C  C385  1  0.917020  0.483070  0.577500  1.0  -0.1121
  C  C386  1  0.875810  0.528780  0.569500  1.0  -0.1475
  C  C387  1  0.018440  0.442880  0.624300  1.0  0.0232
  C  C388  1  0.073740  0.452140  0.667600  1.0  -0.1007
  C  C389  1  0.111930  0.406140  0.689500  1.0  -0.185
  C  C390  1  0.095140  0.349160  0.668900  1.0  0.1583
  C  C391  1  0.042180  0.338710  0.621800  1.0  -0.131
  C  C392  1  0.004560  0.385060  0.599200  1.0  -0.121
  C  C393  1  0.132240  0.287780  0.800500  1.0  0.1722
  C  C394  1  0.191790  0.227510  0.730300  1.0  0.0349
  C  C395  1  0.168390  0.262910  0.661000  1.0  -0.0975
  C  C396  1  0.613820  0.619530  0.677000  1.0  0.1447
  C  C397  1  0.652680  0.566920  0.567800  1.0  0.0098
  C  C398  1  0.629500  0.529270  0.632300  1.0  -0.1614
  C  C399  1  0.574160  0.544830  0.787800  1.0  0.1255
  C  C400  1  0.569360  0.485940  0.810100  1.0  -0.1788
  C  C401  1  0.540390  0.468740  0.892900  1.0  -0.1041
  C  C402  1  0.515320  0.509200  0.955800  1.0  0.0157
  C  C403  1  0.520650  0.568240  0.930300  1.0  -0.1296
  C  C404  1  0.549130  0.585990  0.848800  1.0  -0.1926
  C  C405  1  0.825370  0.332680  0.469800  1.0  0.7141
  C  C406  1  0.790630  0.383820  0.427600  1.0  -0.1146
  C  C407  1  0.736290  0.405090  0.465700  1.0  0.0164
  C  C408  1  0.705960  0.449730  0.417400  1.0  -0.1256
  C  C409  1  0.729180  0.473980  0.334300  1.0  -0.0675
  C  C410  1  0.782680  0.454000  0.298200  1.0  -0.0896
  C  C411  1  0.813760  0.409210  0.344700  1.0  -0.0491
  C  C412  1  0.711800  0.384950  0.559500  1.0  0.0466
  C  C413  1  0.651170  0.370210  0.570100  1.0  -0.0932
  C  C414  1  0.628140  0.354790  0.658800  1.0  -0.048
  C  C415  1  0.664720  0.353770  0.739200  1.0  -0.1172
  C  C416  1  0.725110  0.368290  0.728600  1.0  -0.0423
  C  C417  1  0.748180  0.384010  0.640300  1.0  -0.0974
  C  C418  1  0.641080  0.335210  0.835900  1.0  0.6911
  C  C419  1  0.705930  0.131470  0.553800  1.0  0.1547
  C  C420  1  0.693890  0.218300  0.607900  1.0  0.0208
  C  C421  1  0.641540  0.189550  0.623900  1.0  -0.1476
  C  C422  1  0.607490  0.085780  0.594400  1.0  0.1024
  C  C423  1  0.549200  0.096040  0.624300  1.0  -0.1627
  C  C424  1  0.508660  0.049840  0.631000  1.0  -0.1146
  C  C425  1  0.524510  0.992450  0.609900  1.0  -0.051
  C  C426  1  0.582980  0.983070  0.577500  1.0  -0.1138
  C  C427  1  0.624190  0.028780  0.569500  1.0  -0.1495
  C  C428  1  0.481560  0.942880  0.624300  1.0  0.0229
  C  C429  1  0.426260  0.952140  0.667600  1.0  -0.1005
  C  C430  1  0.388070  0.906140  0.689500  1.0  -0.1849
  C  C431  1  0.404860  0.849160  0.668900  1.0  0.1583
  C  C432  1  0.457820  0.838710  0.621800  1.0  -0.131
  C  C433  1  0.495440  0.885060  0.599200  1.0  -0.1215
  C  C434  1  0.367760  0.787780  0.800500  1.0  0.1711
  C  C435  1  0.308210  0.727510  0.730300  1.0  0.0345
  C  C436  1  0.331610  0.762910  0.661000  1.0  -0.0978
  C  C437  1  0.886180  0.119530  0.677000  1.0  0.146
  C  C438  1  0.847320  0.066920  0.567800  1.0  0.0083
  C  C439  1  0.870500  0.029270  0.632300  1.0  -0.1616
  C  C440  1  0.925840  0.044830  0.787800  1.0  0.1251
  C  C441  1  0.930640  0.985940  0.810100  1.0  -0.1788
  C  C442  1  0.959610  0.968740  0.892900  1.0  -0.1035
  C  C443  1  0.984680  0.009200  0.955800  1.0  0.0159
  C  C444  1  0.979350  0.068240  0.930300  1.0  -0.1344
  C  C445  1  0.950870  0.085990  0.848800  1.0  -0.1931
  C  C446  1  0.674630  0.167320  0.969800  1.0  0.7131
  C  C447  1  0.709370  0.116180  0.927600  1.0  -0.1152
  C  C448  1  0.763710  0.094910  0.965700  1.0  0.017
  C  C449  1  0.794040  0.050270  0.917400  1.0  -0.1261
  C  C450  1  0.770820  0.026020  0.834300  1.0  -0.068
  C  C451  1  0.717320  0.046000  0.798200  1.0  -0.0892
  C  C452  1  0.686240  0.090790  0.844700  1.0  -0.0466
  C  C453  1  0.788200  0.115050  0.059500  1.0  0.0465
  C  C454  1  0.848830  0.129790  0.070100  1.0  -0.094
  C  C455  1  0.871860  0.145210  0.158800  1.0  -0.0478
  C  C456  1  0.835280  0.146230  0.239200  1.0  -0.1163
  C  C457  1  0.774890  0.131710  0.228600  1.0  -0.0411
  C  C458  1  0.751820  0.115990  0.140300  1.0  -0.0969
  C  C459  1  0.858920  0.164790  0.335900  1.0  0.6912
  C  C460  1  0.794070  0.368530  0.053800  1.0  0.1555
  C  C461  1  0.806110  0.281700  0.107900  1.0  0.0201
  C  C462  1  0.858460  0.310450  0.123900  1.0  -0.1441
  C  C463  1  0.892510  0.414220  0.094400  1.0  0.1023
  C  C464  1  0.950800  0.403960  0.124300  1.0  -0.1595
  C  C465  1  0.991340  0.450160  0.131000  1.0  -0.1137
  C  C466  1  0.975490  0.507550  0.109900  1.0  -0.0515
  C  C467  1  0.917020  0.516930  0.077500  1.0  -0.1117
  C  C468  1  0.875810  0.471220  0.069500  1.0  -0.1481
  C  C469  1  0.018440  0.557120  0.124300  1.0  0.0232
  C  C470  1  0.073740  0.547860  0.167600  1.0  -0.1021
  C  C471  1  0.111930  0.593860  0.189500  1.0  -0.185
  C  C472  1  0.095140  0.650840  0.168900  1.0  0.1577
  C  C473  1  0.042180  0.661290  0.121800  1.0  -0.1328
  C  C474  1  0.004560  0.614940  0.099200  1.0  -0.1221
  C  C475  1  0.132240  0.712220  0.300500  1.0  0.1721
  C  C476  1  0.191790  0.772490  0.230300  1.0  0.0346
  C  C477  1  0.168390  0.737090  0.161000  1.0  -0.0976
  C  C478  1  0.613820  0.380470  0.177000  1.0  0.1454
  C  C479  1  0.652680  0.433080  0.067800  1.0  0.0087
  C  C480  1  0.629500  0.470730  0.132300  1.0  -0.1612
  C  C481  1  0.574160  0.455170  0.287800  1.0  0.1253
  C  C482  1  0.569360  0.514060  0.310100  1.0  -0.1801
  C  C483  1  0.540390  0.531260  0.392900  1.0  -0.1056
  C  C484  1  0.515320  0.490800  0.455800  1.0  0.0159
  C  C485  1  0.520650  0.431760  0.430300  1.0  -0.1335
  C  C486  1  0.549130  0.414010  0.348800  1.0  -0.1879
  C  C487  1  0.174630  0.667320  0.530200  1.0  0.7122
  C  C488  1  0.209370  0.616180  0.572400  1.0  -0.1152
  C  C489  1  0.263710  0.594910  0.534300  1.0  0.0168
  C  C490  1  0.294040  0.550270  0.582600  1.0  -0.1258
  C  C491  1  0.270820  0.526020  0.665700  1.0  -0.068
  C  C492  1  0.217320  0.546000  0.701800  1.0  -0.0884
  C  C493  1  0.186240  0.590790  0.655300  1.0  -0.0465
  C  C494  1  0.288200  0.615050  0.440500  1.0  0.0475
  C  C495  1  0.348830  0.629790  0.429900  1.0  -0.0943
  C  C496  1  0.371860  0.645210  0.341200  1.0  -0.0482
  C  C497  1  0.335280  0.646230  0.260800  1.0  -0.1156
  C  C498  1  0.274890  0.631710  0.271400  1.0  -0.0395
  C  C499  1  0.251820  0.615990  0.359700  1.0  -0.0965
  C  C500  1  0.358920  0.664790  0.164100  1.0  0.691
  C  C501  1  0.294070  0.868530  0.446200  1.0  0.156
  C  C502  1  0.306110  0.781700  0.392100  1.0  0.02
  C  C503  1  0.358460  0.810450  0.376100  1.0  -0.1449
  C  C504  1  0.392510  0.914220  0.405600  1.0  0.1022
  C  C505  1  0.450800  0.903960  0.375700  1.0  -0.1593
  C  C506  1  0.491340  0.950160  0.369000  1.0  -0.1136
  C  C507  1  0.475490  0.007550  0.390100  1.0  -0.0514
  C  C508  1  0.417020  0.016930  0.422500  1.0  -0.1117
  C  C509  1  0.375810  0.971220  0.430500  1.0  -0.1479
  C  C510  1  0.518440  0.057120  0.375700  1.0  0.023
  C  C511  1  0.573740  0.047860  0.332400  1.0  -0.1016
  C  C512  1  0.611930  0.093860  0.310500  1.0  -0.1847
  C  C513  1  0.595140  0.150840  0.331100  1.0  0.1576
  C  C514  1  0.542180  0.161290  0.378200  1.0  -0.1325
  C  C515  1  0.504560  0.114940  0.400800  1.0  -0.1225
  C  C516  1  0.632240  0.212220  0.199500  1.0  0.1726
  C  C517  1  0.691790  0.272490  0.269700  1.0  0.0345
  C  C518  1  0.668390  0.237090  0.339000  1.0  -0.0989
  C  C519  1  0.113820  0.880470  0.323000  1.0  0.1451
  C  C520  1  0.152680  0.933080  0.432200  1.0  0.0086
  C  C521  1  0.129500  0.970730  0.367700  1.0  -0.1613
  C  C522  1  0.074160  0.955170  0.212200  1.0  0.1253
  C  C523  1  0.069360  0.014060  0.189900  1.0  -0.1799
  C  C524  1  0.040390  0.031260  0.107100  1.0  -0.1055
  C  C525  1  0.015320  0.990800  0.044200  1.0  0.0163
  C  C526  1  0.020650  0.931760  0.069700  1.0  -0.1282
  C  C527  1  0.049130  0.914010  0.151200  1.0  -0.1885
  C  C528  1  0.325370  0.832680  0.030200  1.0  0.7138
  C  C529  1  0.290630  0.883820  0.072400  1.0  -0.1149
  C  C530  1  0.236290  0.905090  0.034300  1.0  0.0162
  C  C531  1  0.205960  0.949730  0.082600  1.0  -0.1252
  C  C532  1  0.229180  0.973980  0.165700  1.0  -0.0675
  C  C533  1  0.282680  0.954000  0.201800  1.0  -0.0882
  C  C534  1  0.313760  0.909210  0.155300  1.0  -0.0489
  C  C535  1  0.211800  0.884950  0.940500  1.0  0.0473
  C  C536  1  0.151170  0.870210  0.929900  1.0  -0.0925
  C  C537  1  0.128140  0.854790  0.841200  1.0  -0.0481
  C  C538  1  0.164720  0.853770  0.760800  1.0  -0.1189
  C  C539  1  0.225110  0.868290  0.771400  1.0  -0.0405
  C  C540  1  0.248180  0.884010  0.859700  1.0  -0.0974
  C  C541  1  0.141080  0.835210  0.664100  1.0  0.6904
  C  C542  1  0.205930  0.631470  0.946200  1.0  0.1551
  C  C543  1  0.193890  0.718300  0.892100  1.0  0.0212
  C  C544  1  0.141540  0.689550  0.876100  1.0  -0.1471
  C  C545  1  0.107490  0.585780  0.905600  1.0  0.1024
  C  C546  1  0.049200  0.596040  0.875700  1.0  -0.1624
  C  C547  1  0.008660  0.549840  0.869000  1.0  -0.1146
  C  C548  1  0.024510  0.492450  0.890100  1.0  -0.0508
  C  C549  1  0.082980  0.483070  0.922500  1.0  -0.114
  C  C550  1  0.124190  0.528780  0.930500  1.0  -0.1493
  C  C551  1  0.981560  0.442880  0.875700  1.0  0.0227
  C  C552  1  0.926260  0.452140  0.832400  1.0  -0.1004
  C  C553  1  0.888070  0.406140  0.810500  1.0  -0.1849
  C  C554  1  0.904860  0.349160  0.831100  1.0  0.1584
  C  C555  1  0.957820  0.338710  0.878200  1.0  -0.1317
  C  C556  1  0.995440  0.385060  0.900800  1.0  -0.1215
  C  C557  1  0.867760  0.287780  0.699500  1.0  0.1713
  C  C558  1  0.808210  0.227510  0.769700  1.0  0.0348
  C  C559  1  0.831610  0.262910  0.839000  1.0  -0.0992
  C  C560  1  0.386180  0.619530  0.823000  1.0  0.1458
  C  C561  1  0.347320  0.566920  0.932200  1.0  0.0076
  C  C562  1  0.370500  0.529270  0.867700  1.0  -0.1616
  C  C563  1  0.425840  0.544830  0.712200  1.0  0.125
  C  C564  1  0.430640  0.485940  0.689900  1.0  -0.1784
  C  C565  1  0.459610  0.468740  0.607100  1.0  -0.1036
  C  C566  1  0.484680  0.509200  0.544200  1.0  0.0163
  C  C567  1  0.479350  0.568240  0.569700  1.0  -0.1284
  C  C568  1  0.450870  0.585990  0.651200  1.0  -0.1936
  N  N569  1  0.265740  0.181970  0.936200  1.0  -0.3728
  N  N570  1  0.350600  0.133180  0.910850  1.0  0.0429
  N  N571  1  0.630930  0.801050  0.793490  1.0  0.0183
  N  N572  1  0.668310  0.743290  0.681880  1.0  -0.4019
  N  N573  1  0.143230  0.123660  0.903790  1.0  -0.3936
  N  N574  1  0.104220  0.063160  0.797120  1.0  0.0354
  N  N575  1  0.234260  0.318030  0.436200  1.0  -0.3715
  N  N576  1  0.149400  0.366820  0.410850  1.0  0.042
  N  N577  1  0.869070  0.698950  0.293490  1.0  0.0185
  N  N578  1  0.831690  0.756710  0.181880  1.0  -0.4007
  N  N579  1  0.356770  0.376340  0.403790  1.0  -0.3915
  N  N580  1  0.395780  0.436840  0.297120  1.0  0.036
  N  N581  1  0.734260  0.818030  0.063800  1.0  -0.3715
  N  N582  1  0.649400  0.866820  0.089150  1.0  0.042
  N  N583  1  0.369070  0.198950  0.206510  1.0  0.0185
  N  N584  1  0.331690  0.256710  0.318120  1.0  -0.4018
  N  N585  1  0.856770  0.876340  0.096210  1.0  -0.3927
  N  N586  1  0.895780  0.936840  0.202880  1.0  0.0359
  N  N587  1  0.765740  0.681970  0.563800  1.0  -0.3724
  N  N588  1  0.850600  0.633180  0.589150  1.0  0.0428
  N  N589  1  0.130930  0.301050  0.706510  1.0  0.0178
  N  N590  1  0.168310  0.243290  0.818120  1.0  -0.4013
  N  N591  1  0.643230  0.623660  0.596210  1.0  -0.3938
  N  N592  1  0.604220  0.563160  0.702880  1.0  0.0352
  N  N593  1  0.734260  0.181970  0.563800  1.0  -0.3714
  N  N594  1  0.649400  0.133180  0.589150  1.0  0.0429
  N  N595  1  0.369070  0.801050  0.706510  1.0  0.0185
  N  N596  1  0.331690  0.743290  0.818120  1.0  -0.4011
  N  N597  1  0.856770  0.123660  0.596210  1.0  -0.3925
  N  N598  1  0.895780  0.063160  0.702880  1.0  0.0354
  N  N599  1  0.765740  0.318030  0.063800  1.0  -0.3729
  N  N600  1  0.850600  0.366820  0.089150  1.0  0.0424
  N  N601  1  0.130930  0.698950  0.206510  1.0  0.0178
  N  N602  1  0.168310  0.756710  0.318120  1.0  -0.4023
  N  N603  1  0.643230  0.376340  0.096210  1.0  -0.3928
  N  N604  1  0.604220  0.436840  0.202880  1.0  0.0356
  N  N605  1  0.265740  0.818030  0.436200  1.0  -0.3729
  N  N606  1  0.350600  0.866820  0.410850  1.0  0.0425
  N  N607  1  0.630930  0.198950  0.293490  1.0  0.0186
  N  N608  1  0.668310  0.256710  0.181880  1.0  -0.4013
  N  N609  1  0.143230  0.876340  0.403790  1.0  -0.3918
  N  N610  1  0.104220  0.936840  0.297120  1.0  0.0356
  N  N611  1  0.234260  0.681970  0.936200  1.0  -0.3717
  N  N612  1  0.149400  0.633180  0.910850  1.0  0.0428
  N  N613  1  0.869070  0.301050  0.793490  1.0  0.0184
  N  N614  1  0.831690  0.243290  0.681880  1.0  -0.4015
  N  N615  1  0.356770  0.623660  0.903790  1.0  -0.3926
  N  N616  1  0.395780  0.563160  0.797120  1.0  0.0356
  O  O617  1  0.203860  0.286490  0.013520  1.0  -0.6039
  O  O618  1  0.119240  0.340160  0.017500  1.0  -0.5728
  O  O619  1  0.321990  0.334830  0.596650  1.0  -0.609
  O  O620  1  0.413860  0.322020  0.657860  1.0  -0.5691
  O  O621  1  0.296140  0.213510  0.513520  1.0  -0.602
  O  O622  1  0.380760  0.159840  0.517500  1.0  -0.5742
  O  O623  1  0.178010  0.165170  0.096650  1.0  -0.6092
  O  O624  1  0.086140  0.177980  0.157860  1.0  -0.5687
  O  O625  1  0.796140  0.713510  0.986480  1.0  -0.602
  O  O626  1  0.880760  0.659840  0.982500  1.0  -0.5747
  O  O627  1  0.678010  0.665170  0.403350  1.0  -0.6088
  O  O628  1  0.586140  0.677980  0.342140  1.0  -0.5695
  O  O629  1  0.703860  0.786490  0.486480  1.0  -0.604
  O  O630  1  0.619240  0.840160  0.482500  1.0  -0.5736
  O  O631  1  0.821990  0.834830  0.903350  1.0  -0.6086
  O  O632  1  0.913860  0.822020  0.842140  1.0  -0.5699
  O  O633  1  0.796140  0.286490  0.486480  1.0  -0.6036
  O  O634  1  0.880760  0.340160  0.482500  1.0  -0.5755
  O  O635  1  0.678010  0.334830  0.903350  1.0  -0.609
  O  O636  1  0.586140  0.322020  0.842140  1.0  -0.5675
  O  O637  1  0.703860  0.213510  0.986480  1.0  -0.6026
  O  O638  1  0.619240  0.159840  0.982500  1.0  -0.5738
  O  O639  1  0.821990  0.165170  0.403350  1.0  -0.6085
  O  O640  1  0.913860  0.177980  0.342140  1.0  -0.5719
  O  O641  1  0.203860  0.713510  0.513520  1.0  -0.6028
  O  O642  1  0.119240  0.659840  0.517500  1.0  -0.5732
  O  O643  1  0.321990  0.665170  0.096650  1.0  -0.6086
  O  O644  1  0.413860  0.677980  0.157860  1.0  -0.5705
  O  O645  1  0.296140  0.786490  0.013520  1.0  -0.603
  O  O646  1  0.380760  0.840160  0.017500  1.0  -0.5752
  O  O647  1  0.178010  0.834830  0.596650  1.0  -0.6096
  O  O648  1  0.086140  0.822020  0.657860  1.0  -0.5677
