# generated using pymatgen
data_InH12C22O5
_symmetry_space_group_name_H-M   'P 1'
_cell_length_a   15.63230000
_cell_length_b   16.18540000
_cell_length_c   14.32530000
_cell_angle_alpha   90.00000000
_cell_angle_beta   103.23700000
_cell_angle_gamma   90.00000000
_symmetry_Int_Tables_number   1
_chemical_formula_structural   InH12C22O5
_chemical_formula_sum   'In4 H48 C88 O20'
_cell_volume   3528.21727625
_cell_formula_units_Z   4
loop_
 _symmetry_equiv_pos_site_id
 _symmetry_equiv_pos_as_xyz
  1  'x, y, z'
loop_
 _atom_site_type_symbol
 _atom_site_label
 _atom_site_symmetry_multiplicity
 _atom_site_fract_x
 _atom_site_fract_y
 _atom_site_fract_z
 _atom_site_occupancy
 _atom_site_charge
  In  In1  1  0.500000  0.000000  0.500000  1.0  1.7715
  In  In2  1  0.500000  0.000000  0.000000  1.0  1.7715
  In  In3  1  0.500000  0.008200  0.750000  1.0  1.6725
  In  In4  1  0.500000  0.991800  0.250000  1.0  1.6724
  H  H5  1  0.699700  0.503500  0.651600  1.0  0.1293
  H  H6  1  0.910900  0.719400  0.717400  1.0  0.11
  H  H7  1  0.910900  0.287800  0.715300  1.0  0.117
  H  H8  1  0.676800  0.801800  0.823700  1.0  0.0971
  H  H9  1  0.728100  0.656200  0.825900  1.0  0.1025
  H  H10  1  0.808200  0.706500  0.570700  1.0  0.1013
  H  H11  1  0.717400  0.833700  0.550200  1.0  0.1056
  H  H12  1  0.673400  0.207500  0.825400  1.0  0.1039
  H  H13  1  0.731400  0.350800  0.829000  1.0  0.0989
  H  H14  1  0.800000  0.301400  0.567000  1.0  0.1018
  H  H15  1  0.702500  0.178500  0.545900  1.0  0.1034
  H  H16  1  0.381230  0.998600  0.113000  1.0  0.2453
  H  H17  1  0.300300  0.503500  0.848400  1.0  0.1277
  H  H18  1  0.089100  0.719400  0.782600  1.0  0.1085
  H  H19  1  0.089100  0.287800  0.784700  1.0  0.1161
  H  H20  1  0.323200  0.801800  0.676300  1.0  0.0969
  H  H21  1  0.271900  0.656200  0.674100  1.0  0.1017
  H  H22  1  0.191800  0.706500  0.929300  1.0  0.1014
  H  H23  1  0.282600  0.833700  0.949800  1.0  0.1049
  H  H24  1  0.326600  0.207500  0.674600  1.0  0.1026
  H  H25  1  0.268600  0.350800  0.671000  1.0  0.0994
  H  H26  1  0.200000  0.301400  0.933000  1.0  0.1014
  H  H27  1  0.297500  0.178500  0.954100  1.0  0.1049
  H  H28  1  0.618770  0.998600  0.387000  1.0  0.2459
  H  H29  1  0.300300  0.496500  0.348400  1.0  0.1276
  H  H30  1  0.089100  0.280600  0.282600  1.0  0.1091
  H  H31  1  0.089100  0.712200  0.284700  1.0  0.1163
  H  H32  1  0.323200  0.198200  0.176300  1.0  0.0971
  H  H33  1  0.271900  0.343800  0.174100  1.0  0.1018
  H  H34  1  0.191800  0.293500  0.429300  1.0  0.1013
  H  H35  1  0.282600  0.166300  0.449800  1.0  0.1055
  H  H36  1  0.326600  0.792500  0.174600  1.0  0.1023
  H  H37  1  0.268600  0.649200  0.171000  1.0  0.0994
  H  H38  1  0.200000  0.698600  0.433000  1.0  0.102
  H  H39  1  0.297500  0.821500  0.454100  1.0  0.1049
  H  H40  1  0.618770  0.001400  0.887000  1.0  0.2459
  H  H41  1  0.699700  0.496500  0.151600  1.0  0.1293
  H  H42  1  0.910900  0.280600  0.217400  1.0  0.1099
  H  H43  1  0.910900  0.712200  0.215300  1.0  0.1173
  H  H44  1  0.676800  0.198200  0.323700  1.0  0.0973
  H  H45  1  0.728100  0.343800  0.325900  1.0  0.1019
  H  H46  1  0.808200  0.293500  0.070700  1.0  0.1013
  H  H47  1  0.717400  0.166300  0.050200  1.0  0.1046
  H  H48  1  0.673400  0.792500  0.325400  1.0  0.104
  H  H49  1  0.731400  0.649200  0.329000  1.0  0.0995
  H  H50  1  0.800000  0.698600  0.067000  1.0  0.102
  H  H51  1  0.702500  0.821500  0.045900  1.0  0.1037
  H  H52  1  0.381230  0.001400  0.613000  1.0  0.2453
  C  C53  1  0.610400  0.881300  0.658700  1.0  0.6867
  C  C54  1  0.610300  0.122500  0.665200  1.0  0.6982
  C  C55  1  0.680600  0.819500  0.680200  1.0  -0.0177
  C  C56  1  0.675900  0.188900  0.681700  1.0  -0.0698
  C  C57  1  0.694100  0.775700  0.760300  1.0  -0.0545
  C  C58  1  0.691300  0.232700  0.762000  1.0  -0.0596
  C  C59  1  0.730500  0.695500  0.764800  1.0  -0.168
  C  C60  1  0.730800  0.311800  0.766700  1.0  -0.1696
  C  C61  1  0.768700  0.665600  0.694500  1.0  0.076
  C  C62  1  0.768200  0.341100  0.695400  1.0  0.069
  C  C63  1  0.769300  0.720600  0.622800  1.0  -0.1796
  C  C64  1  0.763300  0.287600  0.621200  1.0  -0.1685
  C  C65  1  0.721200  0.795300  0.613600  1.0  -0.087
  C  C66  1  0.712200  0.214400  0.611900  1.0  -0.0766
  C  C67  1  0.818600  0.581300  0.703100  1.0  0.0312
  C  C68  1  0.818500  0.425600  0.702400  1.0  0.0409
  C  C69  1  0.910500  0.582400  0.726100  1.0  0.0055
  C  C70  1  0.910400  0.424500  0.726400  1.0  -0.0054
  C  C71  1  0.951700  0.664100  0.731200  1.0  -0.112
  C  C72  1  0.951600  0.343000  0.730600  1.0  -0.1167
  C  C73  1  0.770300  0.503500  0.682000  1.0  -0.1781
  C  C74  1  0.955500  0.503400  0.734300  1.0  -0.0015
  C  C75  1  0.389600  0.881300  0.841300  1.0  0.6862
  C  C76  1  0.389700  0.122500  0.834800  1.0  0.6971
  C  C77  1  0.319400  0.819500  0.819800  1.0  -0.0176
  C  C78  1  0.324100  0.188900  0.818300  1.0  -0.0681
  C  C79  1  0.305900  0.775700  0.739700  1.0  -0.0546
  C  C80  1  0.308700  0.232700  0.738000  1.0  -0.0583
  C  C81  1  0.269500  0.695500  0.735200  1.0  -0.1672
  C  C82  1  0.269200  0.311800  0.733300  1.0  -0.1696
  C  C83  1  0.231300  0.665600  0.805500  1.0  0.0754
  C  C84  1  0.231800  0.341100  0.804600  1.0  0.0692
  C  C85  1  0.230700  0.720600  0.877200  1.0  -0.1813
  C  C86  1  0.236700  0.287600  0.878800  1.0  -0.1701
  C  C87  1  0.278800  0.795300  0.886400  1.0  -0.0867
  C  C88  1  0.287800  0.214400  0.888100  1.0  -0.0786
  C  C89  1  0.181400  0.581300  0.796900  1.0  0.0319
  C  C90  1  0.181500  0.425600  0.797600  1.0  0.0411
  C  C91  1  0.089500  0.582400  0.773900  1.0  0.0054
  C  C92  1  0.089600  0.424500  0.773600  1.0  -0.0059
  C  C93  1  0.048300  0.664100  0.768800  1.0  -0.1114
  C  C94  1  0.048400  0.343000  0.769400  1.0  -0.1163
  C  C95  1  0.229700  0.503500  0.818000  1.0  -0.1758
  C  C96  1  0.044500  0.503400  0.765700  1.0  -0.001
  C  C97  1  0.389600  0.118700  0.341300  1.0  0.6853
  C  C98  1  0.389700  0.877500  0.334800  1.0  0.6979
  C  C99  1  0.319400  0.180500  0.319800  1.0  -0.0183
  C  C100  1  0.324100  0.811100  0.318300  1.0  -0.0685
  C  C101  1  0.305900  0.224300  0.239700  1.0  -0.054
  C  C102  1  0.308700  0.767300  0.238000  1.0  -0.0591
  C  C103  1  0.269500  0.304500  0.235200  1.0  -0.1683
  C  C104  1  0.269200  0.688200  0.233300  1.0  -0.168
  C  C105  1  0.231300  0.334400  0.305500  1.0  0.0761
  C  C106  1  0.231800  0.658900  0.304600  1.0  0.0688
  C  C107  1  0.230700  0.279400  0.377200  1.0  -0.1811
  C  C108  1  0.236700  0.712400  0.378800  1.0  -0.1699
  C  C109  1  0.278800  0.204700  0.386400  1.0  -0.0869
  C  C110  1  0.287800  0.785600  0.388100  1.0  -0.0787
  C  C111  1  0.181400  0.418700  0.296900  1.0  0.0319
  C  C112  1  0.181500  0.574400  0.297600  1.0  0.0413
  C  C113  1  0.089500  0.417600  0.273900  1.0  0.0049
  C  C114  1  0.089600  0.575500  0.273600  1.0  -0.0052
  C  C115  1  0.048300  0.335900  0.268800  1.0  -0.1131
  C  C116  1  0.048400  0.657000  0.269400  1.0  -0.1137
  C  C117  1  0.229700  0.496500  0.318000  1.0  -0.1759
  C  C118  1  0.044500  0.496600  0.265700  1.0  -0.001
  C  C119  1  0.610400  0.118700  0.158700  1.0  0.6859
  C  C120  1  0.610300  0.877500  0.165200  1.0  0.6989
  C  C121  1  0.680600  0.180500  0.180200  1.0  -0.0183
  C  C122  1  0.675900  0.811100  0.181700  1.0  -0.0701
  C  C123  1  0.694100  0.224300  0.260300  1.0  -0.0539
  C  C124  1  0.691300  0.767300  0.262000  1.0  -0.0603
  C  C125  1  0.730500  0.304500  0.264800  1.0  -0.1693
  C  C126  1  0.730800  0.688200  0.266700  1.0  -0.1679
  C  C127  1  0.768700  0.334400  0.194500  1.0  0.0766
  C  C128  1  0.768200  0.658900  0.195400  1.0  0.0686
  C  C129  1  0.769300  0.279400  0.122800  1.0  -0.1788
  C  C130  1  0.763300  0.712400  0.121200  1.0  -0.1683
  C  C131  1  0.721200  0.204700  0.113600  1.0  -0.0869
  C  C132  1  0.712200  0.785600  0.111900  1.0  -0.0769
  C  C133  1  0.818600  0.418700  0.203100  1.0  0.0316
  C  C134  1  0.818500  0.574400  0.202400  1.0  0.0407
  C  C135  1  0.910500  0.417600  0.226100  1.0  0.0052
  C  C136  1  0.910400  0.575500  0.226400  1.0  -0.0048
  C  C137  1  0.951700  0.335900  0.231200  1.0  -0.1132
  C  C138  1  0.951600  0.657000  0.230600  1.0  -0.1145
  C  C139  1  0.770300  0.496500  0.182000  1.0  -0.1781
  C  C140  1  0.955500  0.496600  0.234300  1.0  -0.0015
  O  O141  1  0.554800  0.998600  0.387000  1.0  -0.8026
  O  O142  1  0.578700  0.900400  0.574400  1.0  -0.6083
  O  O143  1  0.582700  0.105200  0.735800  1.0  -0.5763
  O  O144  1  0.573700  0.899500  0.731600  1.0  -0.6215
  O  O145  1  0.578100  0.098700  0.577700  1.0  -0.6701
  O  O146  1  0.445200  0.998600  0.113000  1.0  -0.8012
  O  O147  1  0.421300  0.900400  0.925600  1.0  -0.6074
  O  O148  1  0.417300  0.105200  0.764200  1.0  -0.5764
  O  O149  1  0.426300  0.899500  0.768400  1.0  -0.623
  O  O150  1  0.421900  0.098700  0.922300  1.0  -0.6737
  O  O151  1  0.445200  0.001400  0.613000  1.0  -0.8011
  O  O152  1  0.421300  0.099600  0.425600  1.0  -0.6075
  O  O153  1  0.417300  0.894800  0.264200  1.0  -0.5766
  O  O154  1  0.426300  0.100500  0.268400  1.0  -0.6233
  O  O155  1  0.421900  0.901300  0.422300  1.0  -0.674
  O  O156  1  0.554800  0.001400  0.887000  1.0  -0.8026
  O  O157  1  0.578700  0.099600  0.074400  1.0  -0.6077
  O  O158  1  0.582700  0.894800  0.235800  1.0  -0.5756
  O  O159  1  0.573700  0.100500  0.231600  1.0  -0.6216
  O  O160  1  0.578100  0.901300  0.077700  1.0  -0.6704
