# generated using pymatgen
data_InH9C22NO8
_symmetry_space_group_name_H-M   'P 1'
_cell_length_a   12.75800000
_cell_length_b   17.52030000
_cell_length_c   21.81290000
_cell_angle_alpha   90.00000000
_cell_angle_beta   90.00000000
_cell_angle_gamma   90.00000000
_symmetry_Int_Tables_number   1
_chemical_formula_structural   InH9C22NO8
_chemical_formula_sum   'In4 H36 C88 N4 O32'
_cell_volume   4875.70638476
_cell_formula_units_Z   4
loop_
 _symmetry_equiv_pos_site_id
 _symmetry_equiv_pos_as_xyz
  1  'x, y, z'
loop_
 _atom_site_type_symbol
 _atom_site_label
 _atom_site_symmetry_multiplicity
 _atom_site_fract_x
 _atom_site_fract_y
 _atom_site_fract_z
 _atom_site_occupancy
 _atom_site_charge
  In  In1  1  0.919130  0.989580  0.826810  1.0  1.4809
  In  In2  1  0.580870  0.010420  0.326810  1.0  1.4797
  In  In3  1  0.080870  0.489580  0.673190  1.0  1.481
  In  In4  1  0.419130  0.510420  0.173190  1.0  1.4798
  H  H5  1  0.967000  0.739000  0.741900  1.0  0.1174
  H  H6  1  0.768700  0.562900  0.773400  1.0  0.1241
  H  H7  1  0.707800  0.767100  0.845200  1.0  0.1232
  H  H8  1  0.578700  0.648700  0.712300  1.0  0.1287
  H  H9  1  0.415800  0.607000  0.670800  1.0  0.1047
  H  H10  1  0.315400  0.537700  0.836100  1.0  0.1185
  H  H11  1  0.408600  0.528900  0.957300  1.0  0.1161
  H  H12  1  0.679800  0.594500  0.034300  1.0  0.1089
  H  H13  1  0.739900  0.637200  0.940600  1.0  0.1275
  H  H14  1  0.533000  0.261000  0.241900  1.0  0.1182
  H  H15  1  0.731300  0.437100  0.273400  1.0  0.124
  H  H16  1  0.792200  0.232900  0.345200  1.0  0.1228
  H  H17  1  0.921300  0.351300  0.212300  1.0  0.1287
  H  H18  1  0.084200  0.393000  0.170800  1.0  0.1042
  H  H19  1  0.184600  0.462300  0.336100  1.0  0.1178
  H  H20  1  0.091400  0.471100  0.457300  1.0  0.116
  H  H21  1  0.820200  0.405500  0.534300  1.0  0.1086
  H  H22  1  0.760100  0.362800  0.440600  1.0  0.1286
  H  H23  1  0.033000  0.239000  0.758100  1.0  0.1183
  H  H24  1  0.231300  0.062900  0.726600  1.0  0.1241
  H  H25  1  0.292200  0.267100  0.654800  1.0  0.1232
  H  H26  1  0.421300  0.148700  0.787700  1.0  0.1304
  H  H27  1  0.584200  0.107000  0.829200  1.0  0.1046
  H  H28  1  0.684600  0.037700  0.663900  1.0  0.1176
  H  H29  1  0.591400  0.028900  0.542700  1.0  0.1162
  H  H30  1  0.320200  0.094500  0.465700  1.0  0.1082
  H  H31  1  0.260100  0.137200  0.559400  1.0  0.1277
  H  H32  1  0.467000  0.761000  0.258100  1.0  0.1178
  H  H33  1  0.268700  0.937100  0.226600  1.0  0.1238
  H  H34  1  0.207800  0.732900  0.154800  1.0  0.1228
  H  H35  1  0.078700  0.851300  0.287700  1.0  0.1307
  H  H36  1  0.915800  0.893000  0.329200  1.0  0.105
  H  H37  1  0.815400  0.962300  0.163900  1.0  0.1181
  H  H38  1  0.908600  0.971100  0.042700  1.0  0.1156
  H  H39  1  0.179800  0.905500  0.965700  1.0  0.1099
  H  H40  1  0.239900  0.862800  0.059400  1.0  0.1276
  C  C41  1  0.840000  0.764800  0.793700  1.0  -0.1424
  C  C42  1  0.906200  0.719200  0.759200  1.0  0.0166
  C  C43  1  0.879500  0.643200  0.751300  1.0  -0.1313
  C  C44  1  0.785800  0.614200  0.777400  1.0  -0.0906
  C  C45  1  0.720700  0.663200  0.808700  1.0  0.2713
  C  C46  1  0.748800  0.736300  0.820100  1.0  -0.1531
  C  C47  1  0.539400  0.613200  0.799500  1.0  0.2099
  C  C48  1  0.527300  0.626000  0.736400  1.0  -0.1193
  C  C49  1  0.428900  0.600900  0.712500  1.0  -0.0297
  C  C50  1  0.352600  0.568200  0.748700  1.0  -0.1139
  C  C51  1  0.368000  0.558300  0.811600  1.0  -0.0861
  C  C52  1  0.465700  0.580500  0.837400  1.0  -0.0193
  C  C53  1  0.508500  0.578300  0.897300  1.0  0.0337
  C  C54  1  0.474100  0.551800  0.953600  1.0  -0.093
  C  C55  1  0.538300  0.559600  0.004500  1.0  -0.1553
  C  C56  1  0.637400  0.590700  0.999700  1.0  -0.0309
  C  C57  1  0.673400  0.615900  0.944300  1.0  -0.0798
  C  C58  1  0.609400  0.609100  0.894500  1.0  0.1137
  C  C59  1  0.871000  0.846300  0.804800  1.0  0.6497
  C  C60  1  0.951700  0.590400  0.719800  1.0  0.6773
  C  C61  1  0.251000  0.544500  0.722400  1.0  0.645
  C  C62  1  0.497100  0.535700  0.065000  1.0  0.6187
  C  C63  1  0.660000  0.235200  0.293700  1.0  -0.1415
  C  C64  1  0.593800  0.280800  0.259200  1.0  0.0172
  C  C65  1  0.620500  0.356800  0.251300  1.0  -0.1302
  C  C66  1  0.714200  0.385800  0.277400  1.0  -0.0919
  C  C67  1  0.779300  0.336800  0.308700  1.0  0.2713
  C  C68  1  0.751200  0.263700  0.320100  1.0  -0.1514
  C  C69  1  0.960600  0.386800  0.299500  1.0  0.21
  C  C70  1  0.972700  0.374000  0.236400  1.0  -0.1197
  C  C71  1  0.071100  0.399100  0.212500  1.0  -0.0285
  C  C72  1  0.147400  0.431800  0.248700  1.0  -0.1131
  C  C73  1  0.132000  0.441700  0.311600  1.0  -0.0857
  C  C74  1  0.034300  0.419500  0.337400  1.0  -0.0196
  C  C75  1  0.991500  0.421700  0.397300  1.0  0.033
  C  C76  1  0.025900  0.448200  0.453600  1.0  -0.0969
  C  C77  1  0.961700  0.440400  0.504500  1.0  -0.1555
  C  C78  1  0.862600  0.409300  0.499700  1.0  -0.0317
  C  C79  1  0.826600  0.384100  0.444300  1.0  -0.0793
  C  C80  1  0.890600  0.390900  0.394500  1.0  0.114
  C  C81  1  0.629000  0.153700  0.304800  1.0  0.6499
  C  C82  1  0.548300  0.409600  0.219800  1.0  0.6774
  C  C83  1  0.249000  0.455500  0.222400  1.0  0.6461
  C  C84  1  0.002900  0.464300  0.565000  1.0  0.6186
  C  C85  1  0.160000  0.264800  0.706300  1.0  -0.1422
  C  C86  1  0.093800  0.219200  0.740800  1.0  0.0176
  C  C87  1  0.120500  0.143200  0.748700  1.0  -0.1303
  C  C88  1  0.214200  0.114200  0.722600  1.0  -0.0912
  C  C89  1  0.279300  0.163200  0.691300  1.0  0.2713
  C  C90  1  0.251200  0.236300  0.679900  1.0  -0.1513
  C  C91  1  0.460600  0.113200  0.700500  1.0  0.2088
  C  C92  1  0.472700  0.126000  0.763600  1.0  -0.1187
  C  C93  1  0.571100  0.100900  0.787500  1.0  -0.0246
  C  C94  1  0.647400  0.068200  0.751300  1.0  -0.113
  C  C95  1  0.632000  0.058300  0.688400  1.0  -0.0851
  C  C96  1  0.534300  0.080500  0.662600  1.0  -0.0183
  C  C97  1  0.491500  0.078300  0.602700  1.0  0.0346
  C  C98  1  0.525900  0.051800  0.546400  1.0  -0.0958
  C  C99  1  0.461700  0.059600  0.495500  1.0  -0.1547
  C  C100  1  0.362600  0.090700  0.500300  1.0  -0.0307
  C  C101  1  0.326600  0.115900  0.555700  1.0  -0.079
  C  C102  1  0.390600  0.109100  0.605500  1.0  0.1137
  C  C103  1  0.129000  0.346300  0.695200  1.0  0.6491
  C  C104  1  0.048300  0.090400  0.780200  1.0  0.6778
  C  C105  1  0.749000  0.044500  0.777600  1.0  0.6458
  C  C106  1  0.502900  0.035700  0.435000  1.0  0.619
  C  C107  1  0.340000  0.735200  0.206300  1.0  -0.142
  C  C108  1  0.406200  0.780800  0.240800  1.0  0.0185
  C  C109  1  0.379500  0.856800  0.248700  1.0  -0.1314
  C  C110  1  0.285800  0.885800  0.222600  1.0  -0.0923
  C  C111  1  0.220700  0.836800  0.191300  1.0  0.2715
  C  C112  1  0.248800  0.763700  0.179900  1.0  -0.1516
  C  C113  1  0.039400  0.886800  0.200500  1.0  0.2092
  C  C114  1  0.027300  0.874000  0.263600  1.0  -0.1175
  C  C115  1  0.928900  0.899100  0.287500  1.0  -0.0257
  C  C116  1  0.852600  0.931800  0.251300  1.0  -0.1133
  C  C117  1  0.868000  0.941700  0.188400  1.0  -0.0862
  C  C118  1  0.965700  0.919500  0.162600  1.0  -0.0194
  C  C119  1  0.008500  0.921700  0.102700  1.0  0.0339
  C  C120  1  0.974100  0.948200  0.046400  1.0  -0.0941
  C  C121  1  0.038300  0.940400  0.995500  1.0  -0.1541
  C  C122  1  0.137400  0.909300  0.000300  1.0  -0.0304
  C  C123  1  0.173400  0.884100  0.055700  1.0  -0.078
  C  C124  1  0.109400  0.890900  0.105500  1.0  0.1132
  C  C125  1  0.371000  0.653700  0.195200  1.0  0.6503
  C  C126  1  0.451700  0.909600  0.280200  1.0  0.6785
  C  C127  1  0.751000  0.955500  0.277600  1.0  0.6459
  C  C128  1  0.997100  0.964300  0.935000  1.0  0.6183
  N  N129  1  0.627100  0.631800  0.833100  1.0  -0.1584
  N  N130  1  0.872900  0.368200  0.333100  1.0  -0.1576
  N  N131  1  0.372900  0.131800  0.666900  1.0  -0.1581
  N  N132  1  0.127100  0.868200  0.166900  1.0  -0.1579
  O  O133  1  0.948100  0.873900  0.776500  1.0  -0.5566
  O  O134  1  0.822500  0.885400  0.843200  1.0  -0.5402
  O  O135  1  0.017600  0.612400  0.682300  1.0  -0.5738
  O  O136  1  0.947200  0.518800  0.734600  1.0  -0.5601
  O  O137  1  0.237900  0.550300  0.665500  1.0  -0.5086
  O  O138  1  0.180900  0.515200  0.754600  1.0  -0.5373
  O  O139  1  0.415000  0.497300  0.070400  1.0  -0.5509
  O  O140  1  0.546500  0.555300  0.113300  1.0  -0.565
  O  O141  1  0.551900  0.126100  0.276500  1.0  -0.5556
  O  O142  1  0.677500  0.114600  0.343200  1.0  -0.5414
  O  O143  1  0.482400  0.387600  0.182300  1.0  -0.5732
  O  O144  1  0.552800  0.481200  0.234600  1.0  -0.5604
  O  O145  1  0.262100  0.449700  0.165500  1.0  -0.5092
  O  O146  1  0.319100  0.484800  0.254600  1.0  -0.5373
  O  O147  1  0.085000  0.502700  0.570400  1.0  -0.5509
  O  O148  1  0.953500  0.444700  0.613300  1.0  -0.5639
  O  O149  1  0.051900  0.373900  0.723500  1.0  -0.5546
  O  O150  1  0.177500  0.385400  0.656800  1.0  -0.5399
  O  O151  1  0.982400  0.112400  0.817700  1.0  -0.572
  O  O152  1  0.052800  0.018800  0.765400  1.0  -0.5592
  O  O153  1  0.762100  0.050300  0.834500  1.0  -0.5091
  O  O154  1  0.819100  0.015200  0.745400  1.0  -0.5363
  O  O155  1  0.585000  0.997300  0.429600  1.0  -0.551
  O  O156  1  0.453500  0.055300  0.386700  1.0  -0.5643
  O  O157  1  0.448100  0.626100  0.223500  1.0  -0.5567
  O  O158  1  0.322500  0.614600  0.156800  1.0  -0.5391
  O  O159  1  0.517600  0.887600  0.317700  1.0  -0.5731
  O  O160  1  0.447200  0.981200  0.265400  1.0  -0.5603
  O  O161  1  0.737900  0.949700  0.334500  1.0  -0.5085
  O  O162  1  0.680900  0.984800  0.245400  1.0  -0.5357
  O  O163  1  0.915000  0.002700  0.929600  1.0  -0.5501
  O  O164  1  0.046500  0.944700  0.886700  1.0  -0.5651
