# generated using pymatgen
data_Al3P3HO13
_symmetry_space_group_name_H-M   'P 1'
_cell_length_a   13.16300000
_cell_length_b   14.79300000
_cell_length_c   13.21500000
_cell_angle_alpha   90.00000000
_cell_angle_beta   119.74000000
_cell_angle_gamma   90.00000000
_symmetry_Int_Tables_number   1
_chemical_formula_structural   Al3P3HO13
_chemical_formula_sum   'Al18 P18 H6 O78'
_cell_volume   2234.29651562
_cell_formula_units_Z   6
loop_
 _symmetry_equiv_pos_site_id
 _symmetry_equiv_pos_as_xyz
  1  'x, y, z'
loop_
 _atom_site_type_symbol
 _atom_site_label
 _atom_site_symmetry_multiplicity
 _atom_site_fract_x
 _atom_site_fract_y
 _atom_site_fract_z
 _atom_site_occupancy
 _atom_site_charge
  Al  Al1  1  0.176100  0.165400  0.601000  1.0  1.9989
  Al  Al2  1  0.913500  0.169800  0.820700  1.0  1.8621
  Al  Al3  1  0.397200  0.172800  0.078100  1.0  1.9847
  Al  Al4  1  0.493600  0.309400  0.731900  1.0  1.92
  Al  Al5  1  0.727900  0.306000  0.502400  1.0  1.8982
  Al  Al6  1  0.274300  0.292800  0.274600  1.0  1.9109
  Al  Al7  1  0.497400  0.036700  0.727900  1.0  1.8441
  Al  Al8  1  0.273800  0.044600  0.271700  1.0  1.845
  Al  Al9  1  0.728300  0.034100  0.498500  1.0  1.9205
  Al  Al10  1  0.823900  0.665400  0.399000  1.0  2.0008
  Al  Al11  1  0.086500  0.669800  0.179300  1.0  1.8609
  Al  Al12  1  0.602800  0.672800  0.921900  1.0  1.9856
  Al  Al13  1  0.506400  0.809400  0.268100  1.0  1.9181
  Al  Al14  1  0.272100  0.806000  0.497600  1.0  1.899
  Al  Al15  1  0.725700  0.792800  0.725400  1.0  1.9109
  Al  Al16  1  0.502600  0.536700  0.272100  1.0  1.8452
  Al  Al17  1  0.726200  0.544600  0.728300  1.0  1.8446
  Al  Al18  1  0.271700  0.534100  0.501500  1.0  1.9207
  P  P19  1  0.406700  0.170600  0.840800  1.0  1.9272
  P  P20  1  0.928800  0.168900  0.592900  1.0  2.0127
  P  P21  1  0.153600  0.171100  0.064600  1.0  1.8574
  P  P22  1  0.733900  0.330800  0.738700  1.0  1.9271
  P  P23  1  0.504800  0.327300  0.266600  1.0  1.7687
  P  P24  1  0.262200  0.320800  0.502400  1.0  1.9667
  P  P25  1  0.738700  0.009000  0.739100  1.0  1.9208
  P  P26  1  0.262800  0.013200  0.502100  1.0  1.8556
  P  P27  1  0.503900  0.015700  0.262000  1.0  1.8654
  P  P28  1  0.593300  0.670600  0.159200  1.0  1.9281
  P  P29  1  0.071200  0.668900  0.407100  1.0  2.0017
  P  P30  1  0.846400  0.671100  0.935400  1.0  1.8625
  P  P31  1  0.266100  0.830800  0.261300  1.0  1.9251
  P  P32  1  0.495200  0.827300  0.733400  1.0  1.7712
  P  P33  1  0.737800  0.820800  0.497600  1.0  1.9708
  P  P34  1  0.261300  0.509000  0.260900  1.0  1.9075
  P  P35  1  0.737200  0.513200  0.497900  1.0  1.865
  P  P36  1  0.496100  0.515700  0.738000  1.0  1.8703
  H  H37  1  0.408100  0.166400  0.358700  1.0  0.3407
  H  H38  1  0.503000  0.165600  0.613700  1.0  0.308
  H  H39  1  0.618300  0.172600  0.540400  1.0  0.3428
  H  H40  1  0.591900  0.666400  0.641300  1.0  0.3414
  H  H41  1  0.497000  0.665600  0.386300  1.0  0.308
  H  H42  1  0.381700  0.672600  0.459600  1.0  0.345
  O  O43  1  0.327900  0.166800  0.307500  1.0  -0.9563
  O  O44  1  0.460700  0.085400  0.826600  1.0  -0.9022
  O  O45  1  0.499000  0.166000  0.682000  1.0  -0.8114
  O  O46  1  0.278200  0.179000  0.751400  1.0  -0.9873
  O  O47  1  0.463300  0.255800  0.828400  1.0  -0.9212
  O  O48  1  0.676000  0.173000  0.519000  1.0  -0.8857
  O  O49  1  0.413300  0.174900  0.959200  1.0  -0.9725
  O  O50  1  0.039100  0.171000  0.586000  1.0  -0.9643
  O  O51  1  0.858500  0.084800  0.530500  1.0  -0.891
  O  O52  1  0.862400  0.254700  0.535200  1.0  -0.9089
  O  O53  1  0.960500  0.170000  0.719300  1.0  -0.9741
  O  O54  1  0.164700  0.082200  0.131800  1.0  -0.8746
  O  O55  1  0.250900  0.177200  0.031200  1.0  -0.964
  O  O56  1  0.161000  0.249300  0.132000  1.0  -0.6408
  O  O57  1  0.036300  0.172300  0.955100  1.0  -0.9349
  O  O58  1  0.686400  0.314700  0.609500  1.0  -0.9589
  O  O59  1  0.840200  0.265400  0.808000  1.0  -0.9413
  O  O60  1  0.775900  0.423800  0.773400  1.0  -0.7942
  O  O61  1  0.638300  0.309000  0.757300  1.0  -0.8038
  O  O62  1  0.618200  0.292700  0.361100  1.0  -0.8939
  O  O63  1  0.462200  0.271000  0.151200  1.0  -0.9733
  O  O64  1  0.421300  0.327600  0.312200  1.0  -0.8773
  O  O65  1  0.514000  0.413900  0.227000  1.0  -0.649
  O  O66  1  0.188500  0.264600  0.533100  1.0  -0.9843
  O  O67  1  0.226200  0.295300  0.381300  1.0  -0.8996
  O  O68  1  0.229500  0.418000  0.504500  1.0  -0.9616
  O  O69  1  0.394300  0.310600  0.582900  1.0  -0.951
  O  O70  1  0.837100  0.068800  0.806700  1.0  -0.7918
  O  O71  1  0.694600  0.019900  0.609100  1.0  -0.997
  O  O72  1  0.640700  0.034500  0.769100  1.0  -0.9714
  O  O73  1  0.777400  0.910300  0.774700  1.0  -0.908
  O  O74  1  0.383000  0.033100  0.586000  1.0  -0.759
  O  O75  1  0.239100  0.044000  0.381000  1.0  -0.9954
  O  O76  1  0.190200  0.068900  0.544100  1.0  -0.963
  O  O77  1  0.232000  0.914300  0.510000  1.0  -0.9285
  O  O78  1  0.621200  0.053600  0.358500  1.0  -0.9294
  O  O79  1  0.462900  0.075500  0.156500  1.0  -0.9541
  O  O80  1  0.417500  0.019700  0.302100  1.0  -0.9079
  O  O81  1  0.522500  0.917700  0.229200  1.0  -0.9026
  O  O82  1  0.672100  0.666800  0.692500  1.0  -0.9548
  O  O83  1  0.539300  0.585400  0.173400  1.0  -0.8993
  O  O84  1  0.501000  0.666000  0.318000  1.0  -0.8151
  O  O85  1  0.721800  0.679000  0.248600  1.0  -0.9875
  O  O86  1  0.536700  0.755800  0.171600  1.0  -0.9195
  O  O87  1  0.324000  0.673000  0.481000  1.0  -0.8835
  O  O88  1  0.586700  0.674900  0.040800  1.0  -0.973
  O  O89  1  0.960900  0.671000  0.414000  1.0  -0.9639
  O  O90  1  0.141500  0.584800  0.469500  1.0  -0.892
  O  O91  1  0.137600  0.754700  0.464800  1.0  -0.9124
  O  O92  1  0.039500  0.670000  0.280700  1.0  -0.9745
  O  O93  1  0.835300  0.582200  0.868200  1.0  -0.8749
  O  O94  1  0.749100  0.677200  0.968800  1.0  -0.9634
  O  O95  1  0.839000  0.749300  0.868000  1.0  -0.6414
  O  O96  1  0.963700  0.672300  0.044900  1.0  -0.9344
  O  O97  1  0.313600  0.814700  0.390500  1.0  -0.9586
  O  O98  1  0.159800  0.765400  0.192000  1.0  -0.9391
  O  O99  1  0.224100  0.923800  0.226600  1.0  -0.7929
  O  O100  1  0.361700  0.809000  0.242700  1.0  -0.8049
  O  O101  1  0.381800  0.792700  0.638900  1.0  -0.8943
  O  O102  1  0.537800  0.771000  0.848800  1.0  -0.9754
  O  O103  1  0.578700  0.827600  0.687800  1.0  -0.8766
  O  O104  1  0.486000  0.913900  0.773000  1.0  -0.6502
  O  O105  1  0.811500  0.764600  0.466900  1.0  -0.9824
  O  O106  1  0.773800  0.795300  0.618700  1.0  -0.8988
  O  O107  1  0.770500  0.918000  0.495500  1.0  -0.9597
  O  O108  1  0.605700  0.810600  0.417100  1.0  -0.9483
  O  O109  1  0.162900  0.568800  0.193300  1.0  -0.7917
  O  O110  1  0.305400  0.519900  0.390900  1.0  -0.998
  O  O111  1  0.359300  0.534500  0.230900  1.0  -0.9693
  O  O112  1  0.222600  0.410300  0.225300  1.0  -0.9109
  O  O113  1  0.617000  0.533100  0.414000  1.0  -0.757
  O  O114  1  0.760900  0.544000  0.619000  1.0  -0.9944
  O  O115  1  0.809800  0.568900  0.455900  1.0  -0.9606
  O  O116  1  0.768000  0.414300  0.490000  1.0  -0.9275
  O  O117  1  0.378800  0.553600  0.641500  1.0  -0.9292
  O  O118  1  0.537100  0.575500  0.843500  1.0  -0.9549
  O  O119  1  0.582500  0.519700  0.697900  1.0  -0.9087
  O  O120  1  0.477500  0.417700  0.770800  1.0  -0.9012
