# generated using pymatgen
data_Cu2H32C39(N2O5)2
_symmetry_space_group_name_H-M   'P 1'
_cell_length_a   12.88290000
_cell_length_b   14.15650000
_cell_length_c   18.68190000
_cell_angle_alpha   104.82200000
_cell_angle_beta   98.40900000
_cell_angle_gamma   113.36700000
_symmetry_Int_Tables_number   1
_chemical_formula_structural   Cu2H32C39(N2O5)2
_chemical_formula_sum   'Cu4 H64 C78 N8 O20'
_cell_volume   2903.45887646
_cell_formula_units_Z   2
loop_
 _symmetry_equiv_pos_site_id
 _symmetry_equiv_pos_as_xyz
  1  'x, y, z'
loop_
 _atom_site_type_symbol
 _atom_site_label
 _atom_site_symmetry_multiplicity
 _atom_site_fract_x
 _atom_site_fract_y
 _atom_site_fract_z
 _atom_site_occupancy
 _atom_site_charge
  Cu  Cu1  1  0.942600  0.889900  0.967950  1.0  0.8106
  Cu  Cu2  1  0.429870  0.523070  0.454450  1.0  0.8382
  Cu  Cu3  1  0.057400  0.110100  0.032050  1.0  0.8118
  Cu  Cu4  1  0.570130  0.476930  0.545550  1.0  0.8382
  H  H5  1  0.764900  0.688800  0.005200  1.0  0.2853
  H  H6  1  0.764600  0.389400  0.572900  1.0  0.2886
  H  H7  1  0.708800  0.363500  0.825700  1.0  0.1002
  H  H8  1  0.845400  0.415900  0.829400  1.0  0.0995
  H  H9  1  0.971000  0.750200  0.833600  1.0  0.1438
  H  H10  1  0.983200  0.638900  0.814300  1.0  0.1283
  H  H11  1  0.874100  0.642900  0.764200  1.0  0.131
  H  H12  1  0.598200  0.484600  0.971300  1.0  0.1303
  H  H13  1  0.638200  0.395000  0.932300  1.0  0.1334
  H  H14  1  0.710600  0.480900  0.017500  1.0  0.1377
  H  H15  1  0.503900  0.452900  0.691100  1.0  0.1419
  H  H16  1  0.544600  0.428300  0.766500  1.0  0.1323
  H  H17  1  0.610600  0.548400  0.762300  1.0  0.1386
  H  H18  1  0.937600  0.381600  0.648500  1.0  0.1353
  H  H19  1  0.939000  0.380900  0.734100  1.0  0.1257
  H  H20  1  0.853300  0.272700  0.661600  1.0  0.1349
  H  H21  1  0.430300  0.798300  0.622900  1.0  0.1071
  H  H22  1  0.697900  0.766100  0.404100  1.0  0.1055
  H  H23  1  0.449600  0.939200  0.730200  1.0  0.1328
  H  H24  1  0.857000  0.897600  0.383500  1.0  0.1345
  H  H25  1  0.678000  0.878700  0.862600  1.0  0.1232
  H  H26  1  0.075200  0.807900  0.493900  1.0  0.1309
  H  H27  1  0.660200  0.740400  0.754700  1.0  0.1037
  H  H28  1  0.915800  0.678700  0.517500  1.0  0.1095
  H  H29  1  0.216100  0.835700  0.888300  1.0  0.0982
  H  H30  1  0.145500  0.142900  0.276800  1.0  0.1011
  H  H31  1  0.373900  0.834800  0.842900  1.0  0.1226
  H  H32  1  0.151900  0.120200  0.396900  1.0  0.119
  H  H33  1  0.561900  0.162300  0.957800  1.0  0.126
  H  H34  1  0.986700  0.790200  0.290700  1.0  0.1298
  H  H35  1  0.403900  0.162800  0.004200  1.0  0.1051
  H  H36  1  0.978900  0.813600  0.171800  1.0  0.1021
  H  H37  1  0.235100  0.311200  0.994800  1.0  0.2849
  H  H38  1  0.235400  0.610600  0.427100  1.0  0.2885
  H  H39  1  0.291200  0.636500  0.174300  1.0  0.1007
  H  H40  1  0.154600  0.584100  0.170600  1.0  0.0987
  H  H41  1  0.029000  0.249800  0.166400  1.0  0.1456
  H  H42  1  0.016800  0.361100  0.185700  1.0  0.1281
  H  H43  1  0.125900  0.357100  0.235800  1.0  0.1323
  H  H44  1  0.401800  0.515400  0.028700  1.0  0.1278
  H  H45  1  0.361800  0.605000  0.067700  1.0  0.1329
  H  H46  1  0.289400  0.519100  0.982500  1.0  0.137
  H  H47  1  0.496100  0.547100  0.308900  1.0  0.141
  H  H48  1  0.455400  0.571700  0.233500  1.0  0.1325
  H  H49  1  0.389400  0.451600  0.237700  1.0  0.1405
  H  H50  1  0.062400  0.618400  0.351500  1.0  0.1354
  H  H51  1  0.061000  0.619100  0.265900  1.0  0.1252
  H  H52  1  0.146700  0.727300  0.338400  1.0  0.1339
  H  H53  1  0.569700  0.201700  0.377100  1.0  0.1073
  H  H54  1  0.302100  0.233900  0.595900  1.0  0.1054
  H  H55  1  0.550400  0.060800  0.269800  1.0  0.1323
  H  H56  1  0.143000  0.102400  0.616500  1.0  0.1345
  H  H57  1  0.322000  0.121300  0.137400  1.0  0.1235
  H  H58  1  0.924800  0.192100  0.506100  1.0  0.1319
  H  H59  1  0.339800  0.259600  0.245300  1.0  0.1038
  H  H60  1  0.084200  0.321300  0.482500  1.0  0.1096
  H  H61  1  0.783900  0.164300  0.111700  1.0  0.0987
  H  H62  1  0.854500  0.857100  0.723200  1.0  0.1025
  H  H63  1  0.626100  0.165200  0.157100  1.0  0.1235
  H  H64  1  0.848100  0.879800  0.603100  1.0  0.1201
  H  H65  1  0.438100  0.837700  0.042200  1.0  0.1262
  H  H66  1  0.013300  0.209800  0.709300  1.0  0.1299
  H  H67  1  0.596100  0.837200  0.995800  1.0  0.1054
  H  H68  1  0.021100  0.186400  0.828200  1.0  0.1018
  C  C69  1  0.857800  0.636800  0.870400  1.0  0.2523
  C  C70  1  0.791500  0.532400  0.873200  1.0  -0.2318
  C  C71  1  0.743800  0.548700  0.933700  1.0  0.1455
  C  C72  1  0.656200  0.438600  0.698500  1.0  0.2564
  C  C73  1  0.741500  0.414400  0.734600  1.0  -0.2057
  C  C74  1  0.795000  0.389100  0.679800  1.0  0.1581
  C  C75  1  0.772700  0.424100  0.817600  1.0  -0.0687
  C  C76  1  0.927500  0.670100  0.815900  1.0  -0.3932
  C  C77  1  0.665900  0.470500  0.966600  1.0  -0.3624
  C  C78  1  0.571600  0.469700  0.732500  1.0  -0.392
  C  C79  1  0.889300  0.353000  0.681100  1.0  -0.3627
  C  C80  1  0.542200  0.755000  0.679000  1.0  -0.1522
  C  C81  1  0.790000  0.707500  0.461800  1.0  -0.1853
  C  C82  1  0.480500  0.814700  0.671700  1.0  -0.0192
  C  C83  1  0.774800  0.774300  0.422600  1.0  -0.0139
  C  C84  1  0.491700  0.898200  0.735300  1.0  -0.2194
  C  C85  1  0.868600  0.852100  0.410100  1.0  -0.2389
  C  C86  1  0.564400  0.921100  0.805700  1.0  0.2773
  C  C87  1  0.979600  0.863100  0.436500  1.0  0.2954
  C  C88  1  0.627800  0.862400  0.813800  1.0  -0.203
  C  C89  1  0.998000  0.799300  0.475900  1.0  -0.2125
  C  C90  1  0.616600  0.780100  0.749900  1.0  0.0008
  C  C91  1  0.903100  0.722100  0.489300  1.0  -0.022
  C  C92  1  0.291900  0.999400  0.949500  1.0  -0.1706
  C  C93  1  0.059700  0.980000  0.212000  1.0  -0.1605
  C  C94  1  0.286100  0.902400  0.902100  1.0  -0.0163
  C  C95  1  0.112300  0.071300  0.279600  1.0  -0.0144
  C  C96  1  0.379400  0.901500  0.875000  1.0  -0.2346
  C  C97  1  0.116500  0.058000  0.350800  1.0  -0.1946
  C  C98  1  0.481400  0.998500  0.894700  1.0  0.3103
  C  C99  1  0.068400  0.953400  0.353800  1.0  0.2805
  C  C100  1  0.491100  0.096200  0.943500  1.0  -0.2506
  C  C101  1  0.017900  0.861700  0.287700  1.0  -0.2356
  C  C102  1  0.397200  0.096400  0.970700  1.0  -0.0025
  C  C103  1  0.013900  0.876100  0.217600  1.0  -0.0256
  C  C104  1  0.524800  0.661700  0.610900  1.0  0.6779
  C  C105  1  0.686800  0.625200  0.477100  1.0  0.6725
  C  C106  1  0.047400  0.992000  0.134400  1.0  0.6609
  C  C107  1  0.187500  0.000600  0.974000  1.0  0.6789
  C  C108  1  0.142200  0.363200  0.129600  1.0  0.2507
  C  C109  1  0.208500  0.467600  0.126800  1.0  -0.2333
  C  C110  1  0.256200  0.451300  0.066300  1.0  0.1453
  C  C111  1  0.343800  0.561400  0.301500  1.0  0.257
  C  C112  1  0.258500  0.585600  0.265400  1.0  -0.1957
  C  C113  1  0.205000  0.610900  0.320200  1.0  0.1572
  C  C114  1  0.227300  0.575900  0.182400  1.0  -0.0699
  C  C115  1  0.072500  0.329900  0.184100  1.0  -0.3924
  C  C116  1  0.334100  0.529500  0.033400  1.0  -0.3614
  C  C117  1  0.428400  0.530300  0.267500  1.0  -0.3926
  C  C118  1  0.110700  0.647000  0.318900  1.0  -0.3623
  C  C119  1  0.457800  0.245000  0.321000  1.0  -0.1528
  C  C120  1  0.210000  0.292500  0.538200  1.0  -0.1819
  C  C121  1  0.519500  0.185300  0.328300  1.0  -0.0174
  C  C122  1  0.225200  0.225700  0.577400  1.0  -0.0139
  C  C123  1  0.508300  0.101800  0.264700  1.0  -0.2155
  C  C124  1  0.131400  0.147900  0.589900  1.0  -0.2376
  C  C125  1  0.435600  0.078900  0.194300  1.0  0.2786
  C  C126  1  0.020400  0.136900  0.563500  1.0  0.2957
  C  C127  1  0.372200  0.137600  0.186200  1.0  -0.2029
  C  C128  1  0.002000  0.200700  0.524100  1.0  -0.214
  C  C129  1  0.383400  0.219900  0.250100  1.0  0.0013
  C  C130  1  0.096900  0.277900  0.510700  1.0  -0.0231
  C  C131  1  0.708100  0.000600  0.050500  1.0  -0.1698
  C  C132  1  0.940300  0.020000  0.788000  1.0  -0.1598
  C  C133  1  0.713900  0.097600  0.097900  1.0  -0.0116
  C  C134  1  0.887700  0.928700  0.720400  1.0  -0.0129
  C  C135  1  0.620600  0.098500  0.125000  1.0  -0.2365
  C  C136  1  0.883500  0.942000  0.649200  1.0  -0.1945
  C  C137  1  0.518600  0.001500  0.105300  1.0  0.3105
  C  C138  1  0.931600  0.046600  0.646200  1.0  0.281
  C  C139  1  0.508900  0.903800  0.056500  1.0  -0.2507
  C  C140  1  0.982100  0.138300  0.712300  1.0  -0.2399
  C  C141  1  0.602800  0.903600  0.029300  1.0  -0.0023
  C  C142  1  0.986100  0.123900  0.782400  1.0  -0.0192
  C  C143  1  0.475200  0.338300  0.389100  1.0  0.6794
  C  C144  1  0.313200  0.374800  0.522900  1.0  0.6727
  C  C145  1  0.952600  0.008000  0.865600  1.0  0.6618
  C  C146  1  0.812500  0.999400  0.026000  1.0  0.6766
  N  N147  1  0.851800  0.713100  0.926700  1.0  -0.3202
  N  N148  1  0.782400  0.657400  0.964800  1.0  -0.121
  N  N149  1  0.658400  0.430800  0.626300  1.0  -0.302
  N  N150  1  0.744300  0.400500  0.616100  1.0  -0.1312
  N  N151  1  0.148200  0.286900  0.073300  1.0  -0.3213
  N  N152  1  0.217600  0.342600  0.035200  1.0  -0.1201
  N  N153  1  0.341600  0.569200  0.373700  1.0  -0.3015
  N  N154  1  0.255700  0.599500  0.383900  1.0  -0.1332
  O  O155  1  0.457100  0.642200  0.547550  1.0  -0.5638
  O  O156  1  0.587100  0.614600  0.445960  1.0  -0.5828
  O  O157  1  0.706400  0.575100  0.520130  1.0  -0.5526
  O  O158  1  0.580400  0.607600  0.622170  1.0  -0.5663
  O  O159  1  0.098400  0.909500  0.955960  1.0  -0.5637
  O  O160  1  0.992700  0.903600  0.076590  1.0  -0.5915
  O  O161  1  0.195600  0.093300  0.010660  1.0  -0.5712
  O  O162  1  0.089600  0.087900  0.131620  1.0  -0.5628
  O  O163  1  0.579200  0.005100  0.870770  1.0  -0.269
  O  O164  1  0.078300  0.942900  0.426770  1.0  -0.2826
  O  O165  1  0.542900  0.357800  0.452450  1.0  -0.5645
  O  O166  1  0.412900  0.385400  0.554040  1.0  -0.5847
  O  O167  1  0.293600  0.424900  0.479870  1.0  -0.553
  O  O168  1  0.419600  0.392400  0.377830  1.0  -0.5661
  O  O169  1  0.901600  0.090500  0.044040  1.0  -0.5619
  O  O170  1  0.007300  0.096400  0.923410  1.0  -0.5893
  O  O171  1  0.804400  0.906700  0.989340  1.0  -0.5718
  O  O172  1  0.910400  0.912100  0.868380  1.0  -0.5627
  O  O173  1  0.420800  0.994900  0.129230  1.0  -0.2676
  O  O174  1  0.921700  0.057100  0.573230  1.0  -0.2824
