# generated using pymatgen
data_Ga5(P2O9)2
_symmetry_space_group_name_H-M   'P 1'
_cell_length_a   10.16040000
_cell_length_b   12.00850000
_cell_length_c   7.18920000
_cell_angle_alpha   90.00000000
_cell_angle_beta   90.79700000
_cell_angle_gamma   90.00000000
_symmetry_Int_Tables_number   1
_chemical_formula_structural   Ga5(P2O9)2
_chemical_formula_sum   'Ga10 P8 O36'
_cell_volume   877.07779367
_cell_formula_units_Z   2
loop_
 _symmetry_equiv_pos_site_id
 _symmetry_equiv_pos_as_xyz
  1  'x, y, z'
loop_
 _atom_site_type_symbol
 _atom_site_label
 _atom_site_symmetry_multiplicity
 _atom_site_fract_x
 _atom_site_fract_y
 _atom_site_fract_z
 _atom_site_occupancy
 _atom_site_charge
  Ga  Ga1  1  0.833940  0.131530  0.324260  1.0  1.707
  Ga  Ga2  1  0.333940  0.631530  0.324260  1.0  1.707
  Ga  Ga3  1  0.166060  0.131530  0.675740  1.0  1.7064
  Ga  Ga4  1  0.666060  0.631530  0.675740  1.0  1.7064
  Ga  Ga5  1  0.166060  0.868470  0.675740  1.0  1.7068
  Ga  Ga6  1  0.666060  0.368470  0.675740  1.0  1.7068
  Ga  Ga7  1  0.833940  0.868470  0.324260  1.0  1.7073
  Ga  Ga8  1  0.333940  0.368470  0.324260  1.0  1.7073
  Ga  Ga9  1  0.000000  0.000000  0.000000  1.0  1.5753
  Ga  Ga10  1  0.500000  0.500000  0.000000  1.0  1.5753
  P  P11  1  0.117820  0.194120  0.251330  1.0  1.8319
  P  P12  1  0.617820  0.694120  0.251330  1.0  1.8319
  P  P13  1  0.882180  0.194120  0.748670  1.0  1.8311
  P  P14  1  0.382180  0.694120  0.748670  1.0  1.8311
  P  P15  1  0.882180  0.805880  0.748670  1.0  1.8314
  P  P16  1  0.382180  0.305880  0.748670  1.0  1.8314
  P  P17  1  0.117820  0.805880  0.251330  1.0  1.8321
  P  P18  1  0.617820  0.305880  0.251330  1.0  1.8321
  O  O19  1  0.974800  0.230730  0.290100  1.0  -0.8233
  O  O20  1  0.193900  0.301700  0.209000  1.0  -0.8518
  O  O21  1  0.182900  0.136900  0.421800  1.0  -0.9211
  O  O22  1  0.876900  0.884400  0.913200  1.0  -0.8025
  O  O23  1  0.474800  0.730730  0.290100  1.0  -0.8233
  O  O24  1  0.693900  0.801700  0.209000  1.0  -0.8518
  O  O25  1  0.682900  0.636900  0.421800  1.0  -0.9211
  O  O26  1  0.376900  0.384400  0.913200  1.0  -0.8025
  O  O27  1  0.025200  0.230730  0.709900  1.0  -0.8235
  O  O28  1  0.806100  0.301700  0.791000  1.0  -0.8516
  O  O29  1  0.817100  0.136900  0.578200  1.0  -0.9191
  O  O30  1  0.123100  0.884400  0.086800  1.0  -0.8023
  O  O31  1  0.525200  0.730730  0.709900  1.0  -0.8235
  O  O32  1  0.306100  0.801700  0.791000  1.0  -0.8516
  O  O33  1  0.317100  0.636900  0.578200  1.0  -0.9191
  O  O34  1  0.623100  0.384400  0.086800  1.0  -0.8023
  O  O35  1  0.025200  0.769270  0.709900  1.0  -0.8255
  O  O36  1  0.806100  0.698300  0.791000  1.0  -0.8519
  O  O37  1  0.817100  0.863100  0.578200  1.0  -0.9195
  O  O38  1  0.123100  0.115600  0.086800  1.0  -0.8022
  O  O39  1  0.525200  0.269270  0.709900  1.0  -0.8255
  O  O40  1  0.306100  0.198300  0.791000  1.0  -0.8519
  O  O41  1  0.317100  0.363100  0.578200  1.0  -0.9195
  O  O42  1  0.623100  0.615600  0.086800  1.0  -0.8022
  O  O43  1  0.974800  0.769270  0.290100  1.0  -0.8254
  O  O44  1  0.193900  0.698300  0.209000  1.0  -0.852
  O  O45  1  0.182900  0.863100  0.421800  1.0  -0.9212
  O  O46  1  0.876900  0.115600  0.913200  1.0  -0.8023
  O  O47  1  0.474800  0.269270  0.290100  1.0  -0.8254
  O  O48  1  0.693900  0.198300  0.209000  1.0  -0.852
  O  O49  1  0.682900  0.363100  0.421800  1.0  -0.9212
  O  O50  1  0.376900  0.615600  0.913200  1.0  -0.8023
  O  O51  1  0.899400  0.000000  0.237200  1.0  -1.0673
  O  O52  1  0.399400  0.500000  0.237200  1.0  -1.0673
  O  O53  1  0.100600  0.000000  0.762800  1.0  -1.0666
  O  O54  1  0.600600  0.500000  0.762800  1.0  -1.0666
