# generated using pymatgen
data_Ce2H3C7O13
_symmetry_space_group_name_H-M   'P 1'
_cell_length_a   10.38700000
_cell_length_b   13.00900000
_cell_length_c   22.10200000
_cell_angle_alpha   90.00000000
_cell_angle_beta   90.00000000
_cell_angle_gamma   90.00000000
_symmetry_Int_Tables_number   1
_chemical_formula_structural   Ce2H3C7O13
_chemical_formula_sum   'Ce16 H24 C56 O104'
_cell_volume   2986.52132327
_cell_formula_units_Z   8
loop_
 _symmetry_equiv_pos_site_id
 _symmetry_equiv_pos_as_xyz
  1  'x, y, z'
loop_
 _atom_site_type_symbol
 _atom_site_label
 _atom_site_symmetry_multiplicity
 _atom_site_fract_x
 _atom_site_fract_y
 _atom_site_fract_z
 _atom_site_occupancy
 _atom_site_charge
  Ce  Ce1  1  0.696910  0.451590  0.520790  1.0  2.2381
  Ce  Ce2  1  0.285830  0.538890  0.745090  1.0  2.2565
  Ce  Ce3  1  0.303090  0.048410  0.020790  1.0  2.2372
  Ce  Ce4  1  0.714170  0.961110  0.245090  1.0  2.2564
  Ce  Ce5  1  0.196910  0.548410  0.979210  1.0  2.2377
  Ce  Ce6  1  0.785830  0.461110  0.754910  1.0  2.2564
  Ce  Ce7  1  0.803090  0.951590  0.479210  1.0  2.2379
  Ce  Ce8  1  0.214170  0.038890  0.254910  1.0  2.2563
  Ce  Ce9  1  0.303090  0.548410  0.479210  1.0  2.2375
  Ce  Ce10  1  0.714170  0.461110  0.254910  1.0  2.2564
  Ce  Ce11  1  0.696910  0.951590  0.979210  1.0  2.2381
  Ce  Ce12  1  0.285830  0.038890  0.754910  1.0  2.2563
  Ce  Ce13  1  0.803090  0.451590  0.020790  1.0  2.2378
  Ce  Ce14  1  0.214170  0.538890  0.245090  1.0  2.2564
  Ce  Ce15  1  0.196910  0.048410  0.520790  1.0  2.2375
  Ce  Ce16  1  0.785830  0.961110  0.745090  1.0  2.2565
  H  H17  1  0.473900  0.326500  0.467000  1.0  0.3966
  H  H18  1  0.575000  0.175100  0.462500  1.0  0.0803
  H  H19  1  0.598800  0.220900  0.403800  1.0  0.1158
  H  H20  1  0.526100  0.173500  0.967000  1.0  0.397
  H  H21  1  0.425000  0.324900  0.962500  1.0  0.0803
  H  H22  1  0.401200  0.279100  0.903800  1.0  0.1153
  H  H23  1  0.973900  0.673500  0.033000  1.0  0.3965
  H  H24  1  0.075000  0.824900  0.037500  1.0  0.0813
  H  H25  1  0.098800  0.779100  0.096200  1.0  0.1168
  H  H26  1  0.026100  0.826500  0.533000  1.0  0.3969
  H  H27  1  0.925000  0.675100  0.537500  1.0  0.0805
  H  H28  1  0.901200  0.720900  0.596200  1.0  0.1174
  H  H29  1  0.526100  0.673500  0.533000  1.0  0.3968
  H  H30  1  0.425000  0.824900  0.537500  1.0  0.0812
  H  H31  1  0.401200  0.779100  0.596200  1.0  0.1164
  H  H32  1  0.473900  0.826500  0.033000  1.0  0.3967
  H  H33  1  0.575000  0.675100  0.037500  1.0  0.0809
  H  H34  1  0.598800  0.720900  0.096200  1.0  0.1161
  H  H35  1  0.026100  0.326500  0.967000  1.0  0.3967
  H  H36  1  0.925000  0.175100  0.962500  1.0  0.08
  H  H37  1  0.901200  0.220900  0.903800  1.0  0.1149
  H  H38  1  0.973900  0.173500  0.467000  1.0  0.3968
  H  H39  1  0.075000  0.324900  0.462500  1.0  0.0804
  H  H40  1  0.098800  0.279100  0.403800  1.0  0.1151
  C  C41  1  0.014800  0.478200  0.531810  1.0  0.5665
  C  C42  1  0.446400  0.488900  0.613660  1.0  0.6082
  C  C43  1  0.561200  0.488200  0.657630  1.0  0.5906
  C  C44  1  0.335400  0.288100  0.778260  1.0  0.5712
  C  C45  1  0.227500  0.286000  0.729700  1.0  0.5553
  C  C46  1  0.618300  0.228300  0.443200  1.0  0.0208
  C  C47  1  0.760000  0.226100  0.457220  1.0  0.7123
  C  C48  1  0.985200  0.021800  0.031810  1.0  0.5659
  C  C49  1  0.553600  0.011100  0.113660  1.0  0.6089
  C  C50  1  0.438800  0.011800  0.157630  1.0  0.5904
  C  C51  1  0.664600  0.211900  0.278260  1.0  0.5713
  C  C52  1  0.772500  0.214000  0.229700  1.0  0.5555
  C  C53  1  0.381700  0.271700  0.943200  1.0  0.0204
  C  C54  1  0.240000  0.273900  0.957220  1.0  0.712
  C  C55  1  0.514800  0.521800  0.968190  1.0  0.5665
  C  C56  1  0.946400  0.511100  0.886340  1.0  0.6079
  C  C57  1  0.061200  0.511800  0.842370  1.0  0.5912
  C  C58  1  0.835400  0.711900  0.721740  1.0  0.5713
  C  C59  1  0.727500  0.714000  0.770300  1.0  0.5548
  C  C60  1  0.118300  0.771700  0.056800  1.0  0.0194
  C  C61  1  0.260000  0.773900  0.042780  1.0  0.7114
  C  C62  1  0.485200  0.978200  0.468190  1.0  0.5671
  C  C63  1  0.053600  0.988900  0.386340  1.0  0.6097
  C  C64  1  0.938800  0.988200  0.342370  1.0  0.5902
  C  C65  1  0.164600  0.788100  0.221740  1.0  0.5714
  C  C66  1  0.272500  0.786000  0.270300  1.0  0.5557
  C  C67  1  0.881700  0.728300  0.556800  1.0  0.0199
  C  C68  1  0.740000  0.726100  0.542780  1.0  0.7119
  C  C69  1  0.985200  0.521800  0.468190  1.0  0.5673
  C  C70  1  0.553600  0.511100  0.386340  1.0  0.6094
  C  C71  1  0.438800  0.511800  0.342370  1.0  0.5909
  C  C72  1  0.664600  0.711900  0.221740  1.0  0.5714
  C  C73  1  0.772500  0.714000  0.270300  1.0  0.5555
  C  C74  1  0.381700  0.771700  0.556800  1.0  0.02
  C  C75  1  0.240000  0.773900  0.542780  1.0  0.7116
  C  C76  1  0.014800  0.978200  0.968190  1.0  0.5665
  C  C77  1  0.446400  0.988900  0.886340  1.0  0.6085
  C  C78  1  0.561200  0.988200  0.842370  1.0  0.5904
  C  C79  1  0.335400  0.788100  0.721740  1.0  0.5711
  C  C80  1  0.227500  0.786000  0.770300  1.0  0.555
  C  C81  1  0.618300  0.728300  0.056800  1.0  0.0199
  C  C82  1  0.760000  0.726100  0.042780  1.0  0.7118
  C  C83  1  0.485200  0.478200  0.031810  1.0  0.5666
  C  C84  1  0.053600  0.488900  0.113660  1.0  0.6096
  C  C85  1  0.938800  0.488200  0.157630  1.0  0.5901
  C  C86  1  0.164600  0.288100  0.278260  1.0  0.5712
  C  C87  1  0.272500  0.286000  0.229700  1.0  0.5555
  C  C88  1  0.881700  0.228300  0.943200  1.0  0.02
  C  C89  1  0.740000  0.226100  0.957220  1.0  0.7123
  C  C90  1  0.514800  0.021800  0.531810  1.0  0.5656
  C  C91  1  0.946400  0.011100  0.613660  1.0  0.6075
  C  C92  1  0.061200  0.011800  0.657630  1.0  0.5909
  C  C93  1  0.835400  0.211900  0.778260  1.0  0.571
  C  C94  1  0.727500  0.214000  0.729700  1.0  0.5553
  C  C95  1  0.118300  0.271700  0.443200  1.0  0.0194
  C  C96  1  0.260000  0.273900  0.457220  1.0  0.7119
  O  O97  1  0.917900  0.456700  0.563380  1.0  -0.6828
  O  O98  1  0.870800  0.532600  0.453870  1.0  -0.6188
  O  O99  1  0.469600  0.470900  0.557860  1.0  -0.7591
  O  O100  1  0.339500  0.508800  0.634220  1.0  -0.6123
  O  O101  1  0.672700  0.477200  0.636190  1.0  -0.7001
  O  O102  1  0.535800  0.497900  0.712930  1.0  -0.6965
  O  O103  1  0.369400  0.376000  0.795440  1.0  -0.6475
  O  O104  1  0.378300  0.704200  0.703970  1.0  -0.6514
  O  O105  1  0.191700  0.371500  0.709050  1.0  -0.6393
  O  O106  1  0.186000  0.700200  0.787310  1.0  -0.6642
  O  O107  1  0.569000  0.323300  0.462790  1.0  -0.6693
  O  O108  1  0.815700  0.309600  0.468300  1.0  -0.6703
  O  O109  1  0.682700  0.640200  0.544000  1.0  -0.6989
  O  O110  1  0.082100  0.043300  0.063380  1.0  -0.6846
  O  O111  1  0.129200  0.967400  0.953870  1.0  -0.6204
  O  O112  1  0.530400  0.029100  0.057860  1.0  -0.7583
  O  O113  1  0.660500  0.991200  0.134220  1.0  -0.6107
  O  O114  1  0.327300  0.022800  0.136190  1.0  -0.7004
  O  O115  1  0.464200  0.002100  0.212930  1.0  -0.6966
  O  O116  1  0.630600  0.124000  0.295440  1.0  -0.6468
  O  O117  1  0.621700  0.795800  0.203970  1.0  -0.6509
  O  O118  1  0.808300  0.128500  0.209050  1.0  -0.64
  O  O119  1  0.814000  0.799800  0.287310  1.0  -0.6645
  O  O120  1  0.431000  0.176700  0.962790  1.0  -0.6693
  O  O121  1  0.184300  0.190400  0.968300  1.0  -0.6693
  O  O122  1  0.317300  0.859800  0.044000  1.0  -0.6989
  O  O123  1  0.417900  0.543300  0.936620  1.0  -0.6836
  O  O124  1  0.370800  0.467400  0.046130  1.0  -0.6189
  O  O125  1  0.969600  0.529100  0.942140  1.0  -0.7591
  O  O126  1  0.839500  0.491200  0.865780  1.0  -0.6134
  O  O127  1  0.172700  0.522800  0.863810  1.0  -0.701
  O  O128  1  0.035800  0.502100  0.787070  1.0  -0.6977
  O  O129  1  0.869400  0.624000  0.704560  1.0  -0.6468
  O  O130  1  0.878300  0.295800  0.796030  1.0  -0.6514
  O  O131  1  0.691700  0.628500  0.790950  1.0  -0.6403
  O  O132  1  0.686000  0.299800  0.712690  1.0  -0.6654
  O  O133  1  0.069000  0.676700  0.037210  1.0  -0.6699
  O  O134  1  0.315700  0.690400  0.031700  1.0  -0.6693
  O  O135  1  0.182700  0.359800  0.956000  1.0  -0.6982
  O  O136  1  0.582100  0.956700  0.436620  1.0  -0.6848
  O  O137  1  0.629200  0.032600  0.546130  1.0  -0.6205
  O  O138  1  0.030400  0.970900  0.442140  1.0  -0.7588
  O  O139  1  0.160500  0.008800  0.365780  1.0  -0.6119
  O  O140  1  0.827300  0.977200  0.363810  1.0  -0.7007
  O  O141  1  0.964200  0.997900  0.287070  1.0  -0.6968
  O  O142  1  0.130600  0.876000  0.204560  1.0  -0.6477
  O  O143  1  0.121700  0.204200  0.296030  1.0  -0.6493
  O  O144  1  0.308300  0.871500  0.290950  1.0  -0.6386
  O  O145  1  0.314000  0.200200  0.212690  1.0  -0.6655
  O  O146  1  0.931000  0.823300  0.537210  1.0  -0.6678
  O  O147  1  0.684300  0.809600  0.531700  1.0  -0.6693
  O  O148  1  0.817300  0.140200  0.456000  1.0  -0.6991
  O  O149  1  0.082100  0.543300  0.436620  1.0  -0.6845
  O  O150  1  0.129200  0.467400  0.546130  1.0  -0.6199
  O  O151  1  0.530400  0.529100  0.442140  1.0  -0.7591
  O  O152  1  0.660500  0.491200  0.365780  1.0  -0.6112
  O  O153  1  0.327300  0.522800  0.363810  1.0  -0.7007
  O  O154  1  0.464200  0.502100  0.287070  1.0  -0.6973
  O  O155  1  0.630600  0.624000  0.204560  1.0  -0.648
  O  O156  1  0.621700  0.295800  0.296030  1.0  -0.6499
  O  O157  1  0.808300  0.628500  0.290950  1.0  -0.6395
  O  O158  1  0.814000  0.299800  0.212690  1.0  -0.6645
  O  O159  1  0.431000  0.676700  0.537210  1.0  -0.6694
  O  O160  1  0.184300  0.690400  0.531700  1.0  -0.6689
  O  O161  1  0.317300  0.359800  0.456000  1.0  -0.6988
  O  O162  1  0.917900  0.956700  0.936620  1.0  -0.6831
  O  O163  1  0.870800  0.032600  0.046130  1.0  -0.6193
  O  O164  1  0.469600  0.970900  0.942140  1.0  -0.7588
  O  O165  1  0.339500  0.008800  0.865780  1.0  -0.6134
  O  O166  1  0.672700  0.977200  0.863810  1.0  -0.7012
  O  O167  1  0.535800  0.997900  0.787070  1.0  -0.6972
  O  O168  1  0.369400  0.876000  0.704560  1.0  -0.6479
  O  O169  1  0.378300  0.204200  0.796030  1.0  -0.6501
  O  O170  1  0.191700  0.871500  0.790950  1.0  -0.6396
  O  O171  1  0.186000  0.200200  0.712690  1.0  -0.6645
  O  O172  1  0.569000  0.823300  0.037210  1.0  -0.669
  O  O173  1  0.815700  0.809600  0.031700  1.0  -0.6698
  O  O174  1  0.682700  0.140200  0.956000  1.0  -0.6987
  O  O175  1  0.582100  0.456700  0.063380  1.0  -0.6835
  O  O176  1  0.629200  0.532600  0.953870  1.0  -0.6202
  O  O177  1  0.030400  0.470900  0.057860  1.0  -0.7589
  O  O178  1  0.160500  0.508800  0.134220  1.0  -0.6113
  O  O179  1  0.827300  0.477200  0.136190  1.0  -0.7001
  O  O180  1  0.964200  0.497900  0.212930  1.0  -0.6963
  O  O181  1  0.130600  0.376000  0.295440  1.0  -0.6487
  O  O182  1  0.121700  0.704200  0.203970  1.0  -0.6506
  O  O183  1  0.308300  0.371500  0.209050  1.0  -0.6387
  O  O184  1  0.314000  0.700200  0.287310  1.0  -0.664
  O  O185  1  0.931000  0.323300  0.962790  1.0  -0.6681
  O  O186  1  0.684300  0.309600  0.968300  1.0  -0.6695
  O  O187  1  0.817300  0.640200  0.044000  1.0  -0.6993
  O  O188  1  0.417900  0.043300  0.563380  1.0  -0.6831
  O  O189  1  0.370800  0.967400  0.453870  1.0  -0.6193
  O  O190  1  0.969600  0.029100  0.557860  1.0  -0.7585
  O  O191  1  0.839500  0.991200  0.634220  1.0  -0.6134
  O  O192  1  0.172700  0.022800  0.636190  1.0  -0.7002
  O  O193  1  0.035800  0.002100  0.712930  1.0  -0.6969
  O  O194  1  0.869400  0.124000  0.795440  1.0  -0.6473
  O  O195  1  0.878300  0.795800  0.703970  1.0  -0.652
  O  O196  1  0.691700  0.128500  0.709050  1.0  -0.6401
  O  O197  1  0.686000  0.799800  0.787310  1.0  -0.6644
  O  O198  1  0.069000  0.176700  0.462790  1.0  -0.6697
  O  O199  1  0.315700  0.190400  0.468300  1.0  -0.6697
  O  O200  1  0.182700  0.859800  0.544000  1.0  -0.6983
