# generated using pymatgen
data_Zn4H24C42O13
_symmetry_space_group_name_H-M   'P 1'
_cell_length_a   24.64930000
_cell_length_b   24.00290000
_cell_length_c   17.22670000
_cell_angle_alpha   90.00000000
_cell_angle_beta   91.31100000
_cell_angle_gamma   90.00000000
_symmetry_Int_Tables_number   1
_chemical_formula_structural   Zn4H24C42O13
_chemical_formula_sum   'Zn16 H96 C168 O52'
_cell_volume   10189.58975325
_cell_formula_units_Z   4
loop_
 _symmetry_equiv_pos_site_id
 _symmetry_equiv_pos_as_xyz
  1  'x, y, z'
loop_
 _atom_site_type_symbol
 _atom_site_label
 _atom_site_symmetry_multiplicity
 _atom_site_fract_x
 _atom_site_fract_y
 _atom_site_fract_z
 _atom_site_occupancy
 _atom_site_charge
  Zn  Zn1  1  0.353000  0.434120  0.189900  1.0  1.0804
  Zn  Zn2  1  0.853000  0.934120  0.189900  1.0  1.0804
  Zn  Zn3  1  0.353000  0.565880  0.189900  1.0  1.0808
  Zn  Zn4  1  0.853000  0.065880  0.189900  1.0  1.0808
  Zn  Zn5  1  0.417700  0.500000  0.319800  1.0  1.0139
  Zn  Zn6  1  0.286900  0.500000  0.319600  1.0  1.1101
  Zn  Zn7  1  0.917700  0.000000  0.319800  1.0  1.0139
  Zn  Zn8  1  0.786900  0.000000  0.319600  1.0  1.1101
  Zn  Zn9  1  0.647000  0.434120  0.810100  1.0  1.0799
  Zn  Zn10  1  0.147000  0.934120  0.810100  1.0  1.0799
  Zn  Zn11  1  0.647000  0.565880  0.810100  1.0  1.0807
  Zn  Zn12  1  0.147000  0.065880  0.810100  1.0  1.0807
  Zn  Zn13  1  0.582300  0.500000  0.680200  1.0  1.0127
  Zn  Zn14  1  0.713100  0.500000  0.680400  1.0  1.1066
  Zn  Zn15  1  0.082300  0.000000  0.680200  1.0  1.0127
  Zn  Zn16  1  0.213100  0.000000  0.680400  1.0  1.1066
  H  H17  1  0.360100  0.417400  0.817800  1.0  0.1157
  H  H18  1  0.345000  0.420700  0.950000  1.0  0.1041
  H  H19  1  0.097000  0.319400  0.326000  1.0  0.1123
  H  H20  1  0.168700  0.381900  0.333500  1.0  0.1096
  H  H21  1  0.245500  0.296300  0.168400  1.0  0.1108
  H  H22  1  0.173800  0.233800  0.160800  1.0  0.109
  H  H23  1  0.977000  0.189900  0.154500  1.0  0.1049
  H  H24  1  0.050000  0.111200  0.334300  1.0  0.0952
  H  H25  1  0.117700  0.178300  0.337400  1.0  0.1095
  H  H26  1  0.044800  0.257000  0.157600  1.0  0.114
  H  H27  1  0.860100  0.917400  0.817800  1.0  0.1157
  H  H28  1  0.845000  0.920700  0.950000  1.0  0.1041
  H  H29  1  0.597000  0.819400  0.326000  1.0  0.1135
  H  H30  1  0.668700  0.881900  0.333500  1.0  0.1096
  H  H31  1  0.745500  0.796300  0.168400  1.0  0.1108
  H  H32  1  0.673800  0.733800  0.160800  1.0  0.109
  H  H33  1  0.477000  0.689900  0.154500  1.0  0.1049
  H  H34  1  0.550000  0.611200  0.334300  1.0  0.0952
  H  H35  1  0.617700  0.678300  0.337400  1.0  0.1095
  H  H36  1  0.544800  0.757000  0.157600  1.0  0.1135
  H  H37  1  0.360100  0.582600  0.817800  1.0  0.1164
  H  H38  1  0.345000  0.579300  0.950000  1.0  0.1046
  H  H39  1  0.097000  0.680600  0.326000  1.0  0.1125
  H  H40  1  0.168700  0.618100  0.333500  1.0  0.1089
  H  H41  1  0.245500  0.703700  0.168400  1.0  0.1108
  H  H42  1  0.173800  0.766200  0.160800  1.0  0.1098
  H  H43  1  0.977000  0.810100  0.154500  1.0  0.1047
  H  H44  1  0.050000  0.888800  0.334300  1.0  0.0946
  H  H45  1  0.117700  0.821700  0.337400  1.0  0.1093
  H  H46  1  0.044800  0.743000  0.157600  1.0  0.1135
  H  H47  1  0.860100  0.082600  0.817800  1.0  0.1164
  H  H48  1  0.845000  0.079300  0.950000  1.0  0.1046
  H  H49  1  0.597000  0.180600  0.326000  1.0  0.1136
  H  H50  1  0.668700  0.118100  0.333500  1.0  0.1089
  H  H51  1  0.745500  0.203700  0.168400  1.0  0.1108
  H  H52  1  0.673800  0.266200  0.160800  1.0  0.1098
  H  H53  1  0.477000  0.310100  0.154500  1.0  0.1047
  H  H54  1  0.550000  0.388800  0.334300  1.0  0.0946
  H  H55  1  0.617700  0.321700  0.337400  1.0  0.1093
  H  H56  1  0.544800  0.243000  0.157600  1.0  0.1127
  H  H57  1  0.282500  0.500000  0.551300  1.0  0.1204
  H  H58  1  0.276600  0.500000  0.687000  1.0  0.1205
  H  H59  1  0.439500  0.500000  0.705800  1.0  0.0904
  H  H60  1  0.446800  0.500000  0.570800  1.0  0.1247
  H  H61  1  0.782500  0.000000  0.551300  1.0  0.1204
  H  H62  1  0.776600  0.000000  0.687000  1.0  0.1208
  H  H63  1  0.939500  0.000000  0.705800  1.0  0.0904
  H  H64  1  0.946800  0.000000  0.570800  1.0  0.1247
  H  H65  1  0.639900  0.417400  0.182200  1.0  0.1159
  H  H66  1  0.655000  0.420700  0.050000  1.0  0.1039
  H  H67  1  0.903000  0.319400  0.674000  1.0  0.1126
  H  H68  1  0.831300  0.381900  0.666500  1.0  0.1097
  H  H69  1  0.754500  0.296300  0.831600  1.0  0.1108
  H  H70  1  0.826200  0.233800  0.839200  1.0  0.1098
  H  H71  1  0.023000  0.189900  0.845500  1.0  0.1051
  H  H72  1  0.950000  0.111200  0.665700  1.0  0.0948
  H  H73  1  0.882300  0.178300  0.662600  1.0  0.1093
  H  H74  1  0.955200  0.257000  0.842400  1.0  0.114
  H  H75  1  0.139900  0.917400  0.182200  1.0  0.1159
  H  H76  1  0.155000  0.920700  0.050000  1.0  0.1039
  H  H77  1  0.403000  0.819400  0.674000  1.0  0.1136
  H  H78  1  0.331300  0.881900  0.666500  1.0  0.1097
  H  H79  1  0.254500  0.796300  0.831600  1.0  0.1108
  H  H80  1  0.326200  0.733800  0.839200  1.0  0.1098
  H  H81  1  0.523000  0.689900  0.845500  1.0  0.1051
  H  H82  1  0.450000  0.611200  0.665700  1.0  0.0948
  H  H83  1  0.382300  0.678300  0.662600  1.0  0.1093
  H  H84  1  0.455200  0.757000  0.842400  1.0  0.1136
  H  H85  1  0.639900  0.582600  0.182200  1.0  0.1163
  H  H86  1  0.655000  0.579300  0.050000  1.0  0.105
  H  H87  1  0.903000  0.680600  0.674000  1.0  0.1125
  H  H88  1  0.831300  0.618100  0.666500  1.0  0.109
  H  H89  1  0.754500  0.703700  0.831600  1.0  0.1104
  H  H90  1  0.826200  0.766200  0.839200  1.0  0.1094
  H  H91  1  0.023000  0.810100  0.845500  1.0  0.105
  H  H92  1  0.950000  0.888800  0.665700  1.0  0.0948
  H  H93  1  0.882300  0.821700  0.662600  1.0  0.1092
  H  H94  1  0.955200  0.743000  0.842400  1.0  0.114
  H  H95  1  0.139900  0.082600  0.182200  1.0  0.1163
  H  H96  1  0.155000  0.079300  0.050000  1.0  0.105
  H  H97  1  0.403000  0.180600  0.674000  1.0  0.1135
  H  H98  1  0.331300  0.118100  0.666500  1.0  0.109
  H  H99  1  0.254500  0.203700  0.831600  1.0  0.1104
  H  H100  1  0.326200  0.266200  0.839200  1.0  0.1094
  H  H101  1  0.523000  0.310100  0.845500  1.0  0.105
  H  H102  1  0.450000  0.388800  0.665700  1.0  0.0948
  H  H103  1  0.382300  0.321700  0.662600  1.0  0.1092
  H  H104  1  0.455200  0.243000  0.842400  1.0  0.1132
  H  H105  1  0.717500  0.500000  0.448700  1.0  0.1203
  H  H106  1  0.723400  0.500000  0.313000  1.0  0.1199
  H  H107  1  0.560500  0.500000  0.294200  1.0  0.0915
  H  H108  1  0.553200  0.500000  0.429200  1.0  0.1238
  H  H109  1  0.217500  0.000000  0.448700  1.0  0.1203
  H  H110  1  0.223400  0.000000  0.313000  1.0  0.1202
  H  H111  1  0.060500  0.000000  0.294200  1.0  0.0915
  H  H112  1  0.053200  0.000000  0.429200  1.0  0.1238
  C  C113  1  0.353900  0.451100  0.843000  1.0  -0.1291
  C  C114  1  0.349700  0.453400  0.922000  1.0  -0.101
  C  C115  1  0.262000  0.392000  0.252000  1.0  0.6332
  C  C116  1  0.126800  0.315000  0.294000  1.0  -0.1064
  C  C117  1  0.170000  0.352200  0.299000  1.0  -0.0553
  C  C118  1  0.214200  0.345300  0.252000  1.0  -0.1107
  C  C119  1  0.215700  0.301000  0.200000  1.0  -0.0599
  C  C120  1  0.173000  0.263500  0.195500  1.0  -0.123
  C  C121  1  0.128300  0.270400  0.243000  1.0  0.0414
  C  C122  1  0.005200  0.187600  0.191200  1.0  -0.0498
  C  C123  1  0.006800  0.143900  0.244000  1.0  -0.1177
  C  C124  1  0.048900  0.140400  0.298900  1.0  -0.0163
  C  C125  1  0.089500  0.180600  0.300700  1.0  -0.104
  C  C126  1  0.088000  0.224300  0.248000  1.0  0.0543
  C  C127  1  0.045800  0.227800  0.193000  1.0  -0.1578
  C  C128  1  0.956000  0.102000  0.252000  1.0  0.662
  C  C129  1  0.853900  0.951100  0.843000  1.0  -0.1291
  C  C130  1  0.849700  0.953400  0.922000  1.0  -0.101
  C  C131  1  0.762000  0.892000  0.252000  1.0  0.6332
  C  C132  1  0.626800  0.815000  0.294000  1.0  -0.1064
  C  C133  1  0.670000  0.852200  0.299000  1.0  -0.0553
  C  C134  1  0.714200  0.845300  0.252000  1.0  -0.1107
  C  C135  1  0.715700  0.801000  0.200000  1.0  -0.0599
  C  C136  1  0.673000  0.763500  0.195500  1.0  -0.123
  C  C137  1  0.628300  0.770400  0.243000  1.0  0.0414
  C  C138  1  0.505200  0.687600  0.191200  1.0  -0.0498
  C  C139  1  0.506800  0.643900  0.244000  1.0  -0.1177
  C  C140  1  0.548900  0.640400  0.298900  1.0  -0.0163
  C  C141  1  0.589500  0.680600  0.300700  1.0  -0.104
  C  C142  1  0.588000  0.724300  0.248000  1.0  0.0543
  C  C143  1  0.545800  0.727800  0.193000  1.0  -0.1578
  C  C144  1  0.456000  0.602000  0.252000  1.0  0.662
  C  C145  1  0.353900  0.548900  0.843000  1.0  -0.1281
  C  C146  1  0.349700  0.546600  0.922000  1.0  -0.102
  C  C147  1  0.262000  0.608000  0.252000  1.0  0.6327
  C  C148  1  0.126800  0.685000  0.294000  1.0  -0.1065
  C  C149  1  0.170000  0.647800  0.299000  1.0  -0.0551
  C  C150  1  0.214200  0.654700  0.252000  1.0  -0.1099
  C  C151  1  0.215700  0.699000  0.200000  1.0  -0.0604
  C  C152  1  0.173000  0.736500  0.195500  1.0  -0.1218
  C  C153  1  0.128300  0.729600  0.243000  1.0  0.0412
  C  C154  1  0.005200  0.812400  0.191200  1.0  -0.0488
  C  C155  1  0.006800  0.856100  0.244000  1.0  -0.1182
  C  C156  1  0.048900  0.859600  0.298900  1.0  -0.0171
  C  C157  1  0.089500  0.819400  0.300700  1.0  -0.104
  C  C158  1  0.088000  0.775700  0.248000  1.0  0.0544
  C  C159  1  0.045800  0.772200  0.193000  1.0  -0.1574
  C  C160  1  0.956000  0.898000  0.252000  1.0  0.6623
  C  C161  1  0.853900  0.048900  0.843000  1.0  -0.1281
  C  C162  1  0.849700  0.046600  0.922000  1.0  -0.102
  C  C163  1  0.762000  0.108000  0.252000  1.0  0.6327
  C  C164  1  0.626800  0.185000  0.294000  1.0  -0.1065
  C  C165  1  0.670000  0.147800  0.299000  1.0  -0.0551
  C  C166  1  0.714200  0.154700  0.252000  1.0  -0.1099
  C  C167  1  0.715700  0.199000  0.200000  1.0  -0.0604
  C  C168  1  0.673000  0.236500  0.195500  1.0  -0.1218
  C  C169  1  0.628300  0.229600  0.243000  1.0  0.0412
  C  C170  1  0.505200  0.312400  0.191200  1.0  -0.0488
  C  C171  1  0.506800  0.356100  0.244000  1.0  -0.1182
  C  C172  1  0.548900  0.359600  0.298900  1.0  -0.0171
  C  C173  1  0.589500  0.319400  0.300700  1.0  -0.104
  C  C174  1  0.588000  0.275700  0.248000  1.0  0.0544
  C  C175  1  0.545800  0.272200  0.193000  1.0  -0.1574
  C  C176  1  0.456000  0.398000  0.252000  1.0  0.6623
  C  C177  1  0.363600  0.500000  0.458000  1.0  0.6503
  C  C178  1  0.314000  0.500000  0.583000  1.0  -0.0379
  C  C179  1  0.310000  0.500000  0.664000  1.0  -0.1027
  C  C180  1  0.358000  0.500000  0.709000  1.0  -0.035
  C  C181  1  0.408000  0.500000  0.674000  1.0  -0.0852
  C  C182  1  0.413000  0.500000  0.594000  1.0  -0.1345
  C  C183  1  0.365000  0.500000  0.551000  1.0  -0.0509
  C  C184  1  0.349000  0.500000  0.801000  1.0  -0.007
  C  C185  1  0.352000  0.500000  0.957000  1.0  0.2384
  C  C186  1  0.350000  0.500000  0.044000  1.0  0.6851
  C  C187  1  0.863600  0.000000  0.458000  1.0  0.6503
  C  C188  1  0.814000  0.000000  0.583000  1.0  -0.0379
  C  C189  1  0.810000  0.000000  0.664000  1.0  -0.1027
  C  C190  1  0.858000  0.000000  0.709000  1.0  -0.035
  C  C191  1  0.908000  0.000000  0.674000  1.0  -0.0852
  C  C192  1  0.913000  0.000000  0.594000  1.0  -0.1345
  C  C193  1  0.865000  0.000000  0.551000  1.0  -0.0509
  C  C194  1  0.849000  0.000000  0.801000  1.0  -0.007
  C  C195  1  0.852000  0.000000  0.957000  1.0  0.2333
  C  C196  1  0.850000  0.000000  0.044000  1.0  0.6851
  C  C197  1  0.646100  0.451100  0.157000  1.0  -0.1275
  C  C198  1  0.650300  0.453400  0.078000  1.0  -0.1017
  C  C199  1  0.738000  0.392000  0.748000  1.0  0.6339
  C  C200  1  0.873200  0.315000  0.706000  1.0  -0.1068
  C  C201  1  0.830000  0.352200  0.701000  1.0  -0.056
  C  C202  1  0.785800  0.345300  0.748000  1.0  -0.111
  C  C203  1  0.784300  0.301000  0.800000  1.0  -0.0593
  C  C204  1  0.827000  0.263500  0.804500  1.0  -0.121
  C  C205  1  0.871700  0.270400  0.757000  1.0  0.0411
  C  C206  1  0.994800  0.187600  0.808800  1.0  -0.0482
  C  C207  1  0.993200  0.143900  0.756000  1.0  -0.1182
  C  C208  1  0.951100  0.140400  0.701100  1.0  -0.0158
  C  C209  1  0.910500  0.180600  0.699300  1.0  -0.1044
  C  C210  1  0.912000  0.224300  0.752000  1.0  0.0548
  C  C211  1  0.954200  0.227800  0.807000  1.0  -0.1602
  C  C212  1  0.044000  0.102000  0.748000  1.0  0.6632
  C  C213  1  0.146100  0.951100  0.157000  1.0  -0.1275
  C  C214  1  0.150300  0.953400  0.078000  1.0  -0.1017
  C  C215  1  0.238000  0.892000  0.748000  1.0  0.6339
  C  C216  1  0.373200  0.815000  0.706000  1.0  -0.1068
  C  C217  1  0.330000  0.852200  0.701000  1.0  -0.056
  C  C218  1  0.285800  0.845300  0.748000  1.0  -0.111
  C  C219  1  0.284300  0.801000  0.800000  1.0  -0.0593
  C  C220  1  0.327000  0.763500  0.804500  1.0  -0.121
  C  C221  1  0.371700  0.770400  0.757000  1.0  0.0411
  C  C222  1  0.494800  0.687600  0.808800  1.0  -0.0482
  C  C223  1  0.493200  0.643900  0.756000  1.0  -0.1182
  C  C224  1  0.451100  0.640400  0.701100  1.0  -0.0158
  C  C225  1  0.410500  0.680600  0.699300  1.0  -0.1044
  C  C226  1  0.412000  0.724300  0.752000  1.0  0.0548
  C  C227  1  0.454200  0.727800  0.807000  1.0  -0.1602
  C  C228  1  0.544000  0.602000  0.748000  1.0  0.6632
  C  C229  1  0.646100  0.548900  0.157000  1.0  -0.1274
  C  C230  1  0.650300  0.546600  0.078000  1.0  -0.1018
  C  C231  1  0.738000  0.608000  0.748000  1.0  0.6333
  C  C232  1  0.873200  0.685000  0.706000  1.0  -0.1071
  C  C233  1  0.830000  0.647800  0.701000  1.0  -0.0555
  C  C234  1  0.785800  0.654700  0.748000  1.0  -0.1117
  C  C235  1  0.784300  0.699000  0.800000  1.0  -0.0599
  C  C236  1  0.827000  0.736500  0.804500  1.0  -0.1217
  C  C237  1  0.871700  0.729600  0.757000  1.0  0.0411
  C  C238  1  0.994800  0.812400  0.808800  1.0  -0.0476
  C  C239  1  0.993200  0.856100  0.756000  1.0  -0.1189
  C  C240  1  0.951100  0.859600  0.701100  1.0  -0.0172
  C  C241  1  0.910500  0.819400  0.699300  1.0  -0.1045
  C  C242  1  0.912000  0.775700  0.752000  1.0  0.055
  C  C243  1  0.954200  0.772200  0.807000  1.0  -0.1583
  C  C244  1  0.044000  0.898000  0.748000  1.0  0.6636
  C  C245  1  0.146100  0.048900  0.157000  1.0  -0.1274
  C  C246  1  0.150300  0.046600  0.078000  1.0  -0.1018
  C  C247  1  0.238000  0.108000  0.748000  1.0  0.6333
  C  C248  1  0.373200  0.185000  0.706000  1.0  -0.1071
  C  C249  1  0.330000  0.147800  0.701000  1.0  -0.0555
  C  C250  1  0.285800  0.154700  0.748000  1.0  -0.1117
  C  C251  1  0.284300  0.199000  0.800000  1.0  -0.0599
  C  C252  1  0.327000  0.236500  0.804500  1.0  -0.1217
  C  C253  1  0.371700  0.229600  0.757000  1.0  0.0411
  C  C254  1  0.494800  0.312400  0.808800  1.0  -0.0476
  C  C255  1  0.493200  0.356100  0.756000  1.0  -0.1189
  C  C256  1  0.451100  0.359600  0.701100  1.0  -0.0172
  C  C257  1  0.410500  0.319400  0.699300  1.0  -0.1045
  C  C258  1  0.412000  0.275700  0.752000  1.0  0.055
  C  C259  1  0.454200  0.272200  0.807000  1.0  -0.1583
  C  C260  1  0.544000  0.398000  0.748000  1.0  0.6636
  C  C261  1  0.636400  0.500000  0.542000  1.0  0.6511
  C  C262  1  0.686000  0.500000  0.417000  1.0  -0.0379
  C  C263  1  0.690000  0.500000  0.336000  1.0  -0.1054
  C  C264  1  0.642000  0.500000  0.291000  1.0  -0.0354
  C  C265  1  0.592000  0.500000  0.326000  1.0  -0.0853
  C  C266  1  0.587000  0.500000  0.406000  1.0  -0.1332
  C  C267  1  0.635000  0.500000  0.449000  1.0  -0.0497
  C  C268  1  0.651000  0.500000  0.199000  1.0  -0.0073
  C  C269  1  0.648000  0.500000  0.043000  1.0  0.2371
  C  C270  1  0.650000  0.500000  0.956000  1.0  0.687
  C  C271  1  0.136400  0.000000  0.542000  1.0  0.6511
  C  C272  1  0.186000  0.000000  0.417000  1.0  -0.0379
  C  C273  1  0.190000  0.000000  0.336000  1.0  -0.1054
  C  C274  1  0.142000  0.000000  0.291000  1.0  -0.0354
  C  C275  1  0.092000  0.000000  0.326000  1.0  -0.0853
  C  C276  1  0.087000  0.000000  0.406000  1.0  -0.1332
  C  C277  1  0.135000  0.000000  0.449000  1.0  -0.0497
  C  C278  1  0.151000  0.000000  0.199000  1.0  -0.0073
  C  C279  1  0.148000  0.000000  0.043000  1.0  0.2321
  C  C280  1  0.150000  0.000000  0.956000  1.0  0.687
  O  O281  1  0.353700  0.454100  0.081200  1.0  -0.6384
  O  O282  1  0.293700  0.381300  0.199700  1.0  -0.566
  O  O283  1  0.256200  0.432100  0.296000  1.0  -0.6397
  O  O284  1  0.918400  0.108400  0.207100  1.0  -0.6159
  O  O285  1  0.966800  0.063800  0.297400  1.0  -0.5724
  O  O286  1  0.853700  0.954100  0.081200  1.0  -0.6384
  O  O287  1  0.793700  0.881300  0.199700  1.0  -0.566
  O  O288  1  0.756200  0.932100  0.296000  1.0  -0.6397
  O  O289  1  0.418400  0.608400  0.207100  1.0  -0.6159
  O  O290  1  0.466800  0.563800  0.297400  1.0  -0.5724
  O  O291  1  0.353700  0.545900  0.081200  1.0  -0.6396
  O  O292  1  0.293700  0.618700  0.199700  1.0  -0.5655
  O  O293  1  0.256200  0.567900  0.296000  1.0  -0.6383
  O  O294  1  0.918400  0.891600  0.207100  1.0  -0.6164
  O  O295  1  0.966800  0.936200  0.297400  1.0  -0.572
  O  O296  1  0.853700  0.045900  0.081200  1.0  -0.6396
  O  O297  1  0.793700  0.118700  0.199700  1.0  -0.5655
  O  O298  1  0.756200  0.067900  0.296000  1.0  -0.6383
  O  O299  1  0.418400  0.391600  0.207100  1.0  -0.6164
  O  O300  1  0.466800  0.436200  0.297400  1.0  -0.572
  O  O301  1  0.353500  0.500000  0.254300  1.0  -1.289
  O  O302  1  0.410200  0.500000  0.432700  1.0  -0.583
  O  O303  1  0.319000  0.500000  0.423000  1.0  -0.6212
  O  O304  1  0.853500  0.000000  0.254300  1.0  -1.289
  O  O305  1  0.910200  0.000000  0.432700  1.0  -0.583
  O  O306  1  0.819000  0.000000  0.423000  1.0  -0.6212
  O  O307  1  0.646300  0.454100  0.918800  1.0  -0.6378
  O  O308  1  0.706300  0.381300  0.800300  1.0  -0.5645
  O  O309  1  0.743800  0.432100  0.704000  1.0  -0.6393
  O  O310  1  0.081600  0.108400  0.792900  1.0  -0.6135
  O  O311  1  0.033200  0.063800  0.702600  1.0  -0.5714
  O  O312  1  0.146300  0.954100  0.918800  1.0  -0.6378
  O  O313  1  0.206300  0.881300  0.800300  1.0  -0.5645
  O  O314  1  0.243800  0.932100  0.704000  1.0  -0.6393
  O  O315  1  0.581600  0.608400  0.792900  1.0  -0.6135
  O  O316  1  0.533200  0.563800  0.702600  1.0  -0.5714
  O  O317  1  0.646300  0.545900  0.918800  1.0  -0.6389
  O  O318  1  0.706300  0.618700  0.800300  1.0  -0.5641
  O  O319  1  0.743800  0.567900  0.704000  1.0  -0.6371
  O  O320  1  0.081600  0.891600  0.792900  1.0  -0.6138
  O  O321  1  0.033200  0.936200  0.702600  1.0  -0.5711
  O  O322  1  0.146300  0.045900  0.918800  1.0  -0.6389
  O  O323  1  0.206300  0.118700  0.800300  1.0  -0.5641
  O  O324  1  0.243800  0.067900  0.704000  1.0  -0.6371
  O  O325  1  0.581600  0.391600  0.792900  1.0  -0.6138
  O  O326  1  0.533200  0.436200  0.702600  1.0  -0.5711
  O  O327  1  0.646500  0.500000  0.745700  1.0  -1.2888
  O  O328  1  0.589800  0.500000  0.567300  1.0  -0.5834
  O  O329  1  0.681000  0.500000  0.577000  1.0  -0.6204
  O  O330  1  0.146500  0.000000  0.745700  1.0  -1.2888
  O  O331  1  0.089800  0.000000  0.567300  1.0  -0.5834
  O  O332  1  0.181000  0.000000  0.577000  1.0  -0.6204
