# generated using pymatgen
data_Co3H24C30N2O11
_symmetry_space_group_name_H-M   'P 1'
_cell_length_a   19.73000000
_cell_length_b   24.65000000
_cell_length_c   24.65000000
_cell_angle_alpha   120.00000000
_cell_angle_beta   90.00000000
_cell_angle_gamma   90.00000000
_symmetry_Int_Tables_number   1
_chemical_formula_structural   Co3H24C30N2O11
_chemical_formula_sum   'Co18 H144 C180 N12 O66'
_cell_volume   10382.25195757
_cell_formula_units_Z   6
loop_
 _symmetry_equiv_pos_site_id
 _symmetry_equiv_pos_as_xyz
  1  'x, y, z'
loop_
 _atom_site_type_symbol
 _atom_site_label
 _atom_site_symmetry_multiplicity
 _atom_site_fract_x
 _atom_site_fract_y
 _atom_site_fract_z
 _atom_site_occupancy
 _atom_site_charge
  Co  Co1  1  0.054710  0.803650  0.963710  1.0  1.0381
  Co  Co2  1  0.211440  0.786020  0.895340  1.0  1.0308
  Co  Co3  1  0.114960  0.667930  0.911360  1.0  0.9305
  Co  Co4  1  0.721370  0.160060  0.196350  1.0  1.038
  Co  Co5  1  0.878100  0.109320  0.213980  1.0  1.031
  Co  Co6  1  0.781620  0.243430  0.332070  1.0  0.9317
  Co  Co7  1  0.388040  0.036290  0.839940  1.0  1.0375
  Co  Co8  1  0.544770  0.104660  0.890680  1.0  1.0327
  Co  Co9  1  0.448290  0.088640  0.756570  1.0  0.9352
  Co  Co10  1  0.554710  0.196350  0.036290  1.0  1.0378
  Co  Co11  1  0.711440  0.213980  0.104660  1.0  1.0298
  Co  Co12  1  0.614960  0.332070  0.088640  1.0  0.932
  Co  Co13  1  0.221370  0.839940  0.803650  1.0  1.0377
  Co  Co14  1  0.378100  0.890680  0.786020  1.0  1.0307
  Co  Co15  1  0.281620  0.756570  0.667930  1.0  0.9322
  Co  Co16  1  0.888040  0.963710  0.160060  1.0  1.0368
  Co  Co17  1  0.044770  0.895340  0.109320  1.0  1.0341
  Co  Co18  1  0.948290  0.911360  0.243430  1.0  0.9299
  H  H19  1  0.109200  0.743900  0.871200  1.0  0.4083
  H  H20  1  0.186700  0.982200  0.081600  1.0  0.1533
  H  H21  1  0.249300  0.945800  0.090200  1.0  0.157
  H  H22  1  0.179500  0.952500  0.126100  1.0  0.1324
  H  H23  1  0.926100  0.907300  0.949100  1.0  0.1439
  H  H24  1  0.858900  0.874600  0.955700  1.0  0.1426
  H  H25  1  0.926200  0.834000  0.926200  1.0  0.1188
  H  H26  1  0.082000  0.715600  0.110800  1.0  0.136
  H  H27  1  0.128000  0.683100  0.049100  1.0  0.1358
  H  H28  1  0.049300  0.665800  0.045100  1.0  0.1313
  H  H29  1  0.948900  0.571000  0.789400  1.0  0.115
  H  H30  1  0.863000  0.527700  0.716300  1.0  0.1241
  H  H31  1  0.794100  0.700200  0.765800  1.0  0.1202
  H  H32  1  0.879700  0.743000  0.840300  1.0  0.1055
  H  H33  1  0.818700  0.502600  0.622100  1.0  0.1118
  H  H34  1  0.633100  0.520700  0.563500  1.0  0.1253
  H  H35  1  0.532300  0.564900  0.617200  1.0  0.1217
  H  H36  1  0.438800  0.628900  0.639600  1.0  0.1096
  H  H37  1  0.557800  0.781700  0.736300  1.0  0.1001
  H  H38  1  0.652200  0.717400  0.714600  1.0  0.116
  H  H39  1  0.842500  0.445500  0.526200  1.0  0.1164
  H  H40  1  0.859200  0.350200  0.433800  1.0  0.0945
  H  H41  1  0.662800  0.326400  0.408000  1.0  0.0874
  H  H42  1  0.640700  0.419700  0.498100  1.0  0.1244
  H  H43  1  0.775870  0.127300  0.256100  1.0  0.4077
  H  H44  1  0.853370  0.099400  0.017800  1.0  0.152
  H  H45  1  0.915970  0.144400  0.054200  1.0  0.1574
  H  H46  1  0.846170  0.173600  0.047500  1.0  0.1309
  H  H47  1  0.592770  0.041800  0.092700  1.0  0.1426
  H  H48  1  0.525570  0.081100  0.125400  1.0  0.1435
  H  H49  1  0.592870  0.092200  0.166000  1.0  0.121
  H  H50  1  0.748670  0.395200  0.284400  1.0  0.1343
  H  H51  1  0.794670  0.366000  0.316900  1.0  0.1357
  H  H52  1  0.715970  0.379300  0.334200  1.0  0.1281
  H  H53  1  0.615570  0.218400  0.429000  1.0  0.1145
  H  H54  1  0.529670  0.188600  0.472300  1.0  0.1235
  H  H55  1  0.460770  0.065600  0.299800  1.0  0.1198
  H  H56  1  0.546370  0.097300  0.257000  1.0  0.1047
  H  H57  1  0.485370  0.119500  0.497400  1.0  0.1109
  H  H58  1  0.299770  0.042800  0.479300  1.0  0.1251
  H  H59  1  0.198970  0.052300  0.435100  1.0  0.1208
  H  H60  1  0.105470  0.010700  0.371100  1.0  0.1092
  H  H61  1  0.224470  0.954600  0.218300  1.0  0.0996
  H  H62  1  0.318870  0.997200  0.282600  1.0  0.1157
  H  H63  1  0.509170  0.080700  0.554500  1.0  0.1162
  H  H64  1  0.525870  0.083600  0.649800  1.0  0.0944
  H  H65  1  0.329470  0.081600  0.673600  1.0  0.0857
  H  H66  1  0.307370  0.078400  0.580300  1.0  0.1247
  H  H67  1  0.442530  0.128800  0.872700  1.0  0.4064
  H  H68  1  0.520030  0.918400  0.900600  1.0  0.1534
  H  H69  1  0.582630  0.909800  0.855600  1.0  0.1576
  H  H70  1  0.512830  0.873900  0.826400  1.0  0.1311
  H  H71  1  0.259430  0.050900  0.958200  1.0  0.1431
  H  H72  1  0.192230  0.044300  0.918900  1.0  0.1438
  H  H73  1  0.259530  0.073800  0.907800  1.0  0.1184
  H  H74  1  0.415330  0.889200  0.604800  1.0  0.1334
  H  H75  1  0.461330  0.950900  0.634000  1.0  0.1355
  H  H76  1  0.382630  0.954900  0.620700  1.0  0.1304
  H  H77  1  0.282230  0.210600  0.781600  1.0  0.1136
  H  H78  1  0.196330  0.283700  0.811400  1.0  0.1223
  H  H79  1  0.127430  0.234200  0.934400  1.0  0.1194
  H  H80  1  0.213030  0.159700  0.902700  1.0  0.1057
  H  H81  1  0.152030  0.377900  0.880500  1.0  0.1124
  H  H82  1  0.966430  0.436500  0.957200  1.0  0.1254
  H  H83  1  0.865630  0.382800  0.947700  1.0  0.1204
  H  H84  1  0.772130  0.360400  0.989300  1.0  0.1093
  H  H85  1  0.891130  0.263700  0.045400  1.0  0.1007
  H  H86  1  0.985530  0.285400  0.002800  1.0  0.1154
  H  H87  1  0.175830  0.473800  0.919300  1.0  0.1161
  H  H88  1  0.192530  0.566200  0.916400  1.0  0.0941
  H  H89  1  0.996130  0.592000  0.918400  1.0  0.0873
  H  H90  1  0.974030  0.501900  0.921600  1.0  0.1243
  H  H91  1  0.609200  0.256100  0.128800  1.0  0.406
  H  H92  1  0.686700  0.017800  0.918400  1.0  0.1526
  H  H93  1  0.749300  0.054200  0.909800  1.0  0.1568
  H  H94  1  0.679500  0.047500  0.873900  1.0  0.1328
  H  H95  1  0.426100  0.092700  0.050900  1.0  0.1446
  H  H96  1  0.358900  0.125400  0.044300  1.0  0.1434
  H  H97  1  0.426200  0.166000  0.073800  1.0  0.1184
  H  H98  1  0.582000  0.284400  0.889200  1.0  0.1351
  H  H99  1  0.628000  0.316900  0.950900  1.0  0.1371
  H  H100  1  0.549300  0.334200  0.954900  1.0  0.131
  H  H101  1  0.448900  0.429000  0.210600  1.0  0.1147
  H  H102  1  0.363000  0.472300  0.283700  1.0  0.1243
  H  H103  1  0.294100  0.299800  0.234200  1.0  0.1198
  H  H104  1  0.379700  0.257000  0.159700  1.0  0.1055
  H  H105  1  0.318700  0.497400  0.377900  1.0  0.1122
  H  H106  1  0.133100  0.479300  0.436500  1.0  0.1255
  H  H107  1  0.032300  0.435100  0.382800  1.0  0.1213
  H  H108  1  0.938800  0.371100  0.360400  1.0  0.1093
  H  H109  1  0.057800  0.218300  0.263700  1.0  0.1001
  H  H110  1  0.152200  0.282600  0.285400  1.0  0.1161
  H  H111  1  0.342500  0.554500  0.473800  1.0  0.1162
  H  H112  1  0.359200  0.649800  0.566200  1.0  0.0945
  H  H113  1  0.162800  0.673600  0.592000  1.0  0.0871
  H  H114  1  0.140700  0.580300  0.501900  1.0  0.1243
  H  H115  1  0.275870  0.872700  0.743900  1.0  0.4086
  H  H116  1  0.353370  0.900600  0.982200  1.0  0.1545
  H  H117  1  0.415970  0.855600  0.945800  1.0  0.1573
  H  H118  1  0.346170  0.826400  0.952500  1.0  0.1303
  H  H119  1  0.092770  0.958200  0.907300  1.0  0.145
  H  H120  1  0.025570  0.918900  0.874600  1.0  0.1433
  H  H121  1  0.092870  0.907800  0.834000  1.0  0.1208
  H  H122  1  0.248670  0.604800  0.715600  1.0  0.1356
  H  H123  1  0.294670  0.634000  0.683100  1.0  0.1361
  H  H124  1  0.215970  0.620700  0.665800  1.0  0.1278
  H  H125  1  0.115570  0.781600  0.571000  1.0  0.1141
  H  H126  1  0.029670  0.811400  0.527700  1.0  0.1239
  H  H127  1  0.960770  0.934400  0.700200  1.0  0.1202
  H  H128  1  0.046370  0.902700  0.743000  1.0  0.1044
  H  H129  1  0.985370  0.880500  0.502600  1.0  0.1121
  H  H130  1  0.799770  0.957200  0.520700  1.0  0.1253
  H  H131  1  0.698970  0.947700  0.564900  1.0  0.1209
  H  H132  1  0.605470  0.989300  0.628900  1.0  0.1088
  H  H133  1  0.724470  0.045400  0.781700  1.0  0.0991
  H  H134  1  0.818870  0.002800  0.717400  1.0  0.1158
  H  H135  1  0.009170  0.919300  0.445500  1.0  0.1167
  H  H136  1  0.025870  0.916400  0.350200  1.0  0.0945
  H  H137  1  0.829470  0.918400  0.326400  1.0  0.086
  H  H138  1  0.807370  0.921600  0.419700  1.0  0.1245
  H  H139  1  0.942530  0.871200  0.127300  1.0  0.4079
  H  H140  1  0.020030  0.081600  0.099400  1.0  0.1534
  H  H141  1  0.082630  0.090200  0.144400  1.0  0.1581
  H  H142  1  0.012830  0.126100  0.173600  1.0  0.1311
  H  H143  1  0.759430  0.949100  0.041800  1.0  0.1426
  H  H144  1  0.692230  0.955700  0.081100  1.0  0.1436
  H  H145  1  0.759530  0.926200  0.092200  1.0  0.1201
  H  H146  1  0.915330  0.110800  0.395200  1.0  0.1343
  H  H147  1  0.961330  0.049100  0.366000  1.0  0.1372
  H  H148  1  0.882630  0.045100  0.379300  1.0  0.1307
  H  H149  1  0.782230  0.789400  0.218400  1.0  0.1145
  H  H150  1  0.696330  0.716300  0.188600  1.0  0.1228
  H  H151  1  0.627430  0.765800  0.065600  1.0  0.1191
  H  H152  1  0.713030  0.840300  0.097300  1.0  0.1062
  H  H153  1  0.652030  0.622100  0.119500  1.0  0.1129
  H  H154  1  0.466430  0.563500  0.042800  1.0  0.1259
  H  H155  1  0.365630  0.617200  0.052300  1.0  0.121
  H  H156  1  0.272130  0.639600  0.010700  1.0  0.1093
  H  H157  1  0.391130  0.736300  0.954600  1.0  0.1008
  H  H158  1  0.485530  0.714600  0.997200  1.0  0.1159
  H  H159  1  0.675830  0.526200  0.080700  1.0  0.1165
  H  H160  1  0.692530  0.433800  0.083600  1.0  0.094
  H  H161  1  0.496130  0.408000  0.081600  1.0  0.0871
  H  H162  1  0.474030  0.498100  0.078400  1.0  0.1242
  C  C163  1  0.175180  0.886770  0.032690  1.0  0.7452
  C  C164  1  0.199820  0.947070  0.087410  1.0  -0.4905
  C  C165  1  0.930830  0.889400  0.022060  1.0  0.7468
  C  C166  1  0.908530  0.875080  0.957610  1.0  -0.4492
  C  C167  1  0.065750  0.751920  0.052480  1.0  0.7567
  C  C168  1  0.082810  0.699480  0.065530  1.0  -0.4667
  C  C169  1  0.981340  0.689890  0.866930  1.0  0.7263
  C  C170  1  0.923800  0.661340  0.821180  1.0  -0.133
  C  C171  1  0.917720  0.597610  0.784500  1.0  -0.0613
  C  C172  1  0.867030  0.571960  0.740820  1.0  -0.1391
  C  C173  1  0.821560  0.609590  0.731780  1.0  -0.0164
  C  C174  1  0.825980  0.673540  0.769910  1.0  -0.0719
  C  C175  1  0.876960  0.698840  0.814200  1.0  -0.042
  C  C176  1  0.767810  0.582520  0.682920  1.0  0.2596
  C  C177  1  0.778030  0.525500  0.628130  1.0  -0.1675
  C  C178  1  0.727890  0.502600  0.582400  1.0  0.0101
  C  C179  1  0.669050  0.536350  0.593120  1.0  -0.1067
  C  C180  1  0.662930  0.594590  0.648780  1.0  0.188
  C  C181  1  0.601980  0.634290  0.662380  1.0  -0.0084
  C  C182  1  0.537660  0.609060  0.641280  1.0  -0.1272
  C  C183  1  0.482120  0.646940  0.654730  1.0  -0.0465
  C  C184  1  0.488850  0.712210  0.690660  1.0  -0.1185
  C  C185  1  0.552660  0.737480  0.712100  1.0  -0.0319
  C  C186  1  0.608970  0.699380  0.698900  1.0  -0.0832
  C  C187  1  0.426940  0.753820  0.706160  1.0  0.7194
  C  C188  1  0.739450  0.443030  0.523490  1.0  0.096
  C  C189  1  0.804560  0.421590  0.502750  1.0  -0.1824
  C  C190  1  0.814280  0.364640  0.447230  1.0  0.1603
  C  C191  1  0.699860  0.351030  0.432390  1.0  0.1539
  C  C192  1  0.686270  0.406480  0.486310  1.0  -0.2167
  C  C193  1  0.841850  0.145920  0.113230  1.0  0.7494
  C  C194  1  0.866490  0.140340  0.052930  1.0  -0.4952
  C  C195  1  0.597500  0.132660  0.110600  1.0  0.7473
  C  C196  1  0.575200  0.082530  0.124920  1.0  -0.4474
  C  C197  1  0.732420  0.300560  0.248080  1.0  0.7539
  C  C198  1  0.749480  0.366050  0.300520  1.0  -0.4655
  C  C199  1  0.648010  0.177040  0.310110  1.0  0.7258
  C  C200  1  0.590470  0.159840  0.338660  1.0  -0.1331
  C  C201  1  0.584390  0.186890  0.402390  1.0  -0.0601
  C  C202  1  0.533700  0.168860  0.428040  1.0  -0.139
  C  C203  1  0.488230  0.122190  0.390410  1.0  -0.0167
  C  C204  1  0.492650  0.096370  0.326460  1.0  -0.0702
  C  C205  1  0.543630  0.115360  0.301160  1.0  -0.0405
  C  C206  1  0.434480  0.100400  0.417480  1.0  0.2615
  C  C207  1  0.444700  0.102630  0.474500  1.0  -0.1688
  C  C208  1  0.394560  0.079800  0.497400  1.0  0.0102
  C  C209  1  0.335720  0.056770  0.463650  1.0  -0.106
  C  C210  1  0.329600  0.054190  0.405410  1.0  0.1892
  C  C211  1  0.268650  0.028090  0.365710  1.0  -0.008
  C  C212  1  0.204330  0.032220  0.390940  1.0  -0.1268
  C  C213  1  0.148790  0.007790  0.353060  1.0  -0.0464
  C  C214  1  0.155520  0.978450  0.287790  1.0  -0.1199
  C  C215  1  0.219330  0.974620  0.262520  1.0  -0.0328
  C  C216  1  0.275640  0.999520  0.300620  1.0  -0.0832
  C  C217  1  0.093610  0.952340  0.246180  1.0  0.7188
  C  C218  1  0.406120  0.080460  0.556970  1.0  0.096
  C  C219  1  0.471230  0.081160  0.578410  1.0  -0.1834
  C  C220  1  0.480950  0.082590  0.635360  1.0  0.1625
  C  C221  1  0.366530  0.081360  0.648970  1.0  0.1562
  C  C222  1  0.352940  0.079830  0.593520  1.0  -0.2158
  C  C223  1  0.508510  0.967310  0.854080  1.0  0.7469
  C  C224  1  0.533150  0.912590  0.859660  1.0  -0.4908
  C  C225  1  0.264160  0.977940  0.867340  1.0  0.7447
  C  C226  1  0.241860  0.042390  0.917470  1.0  -0.4464
  C  C227  1  0.399080  0.947520  0.699440  1.0  0.7548
  C  C228  1  0.416140  0.934470  0.633950  1.0  -0.4658
  C  C229  1  0.314670  0.133070  0.822960  1.0  0.7253
  C  C230  1  0.257130  0.178820  0.840160  1.0  -0.1316
  C  C231  1  0.251050  0.215500  0.813110  1.0  -0.0624
  C  C232  1  0.200360  0.259180  0.831140  1.0  -0.1361
  C  C233  1  0.154890  0.268220  0.877810  1.0  -0.0167
  C  C234  1  0.159310  0.230090  0.903630  1.0  -0.0712
  C  C235  1  0.210290  0.185800  0.884640  1.0  -0.0406
  C  C236  1  0.101140  0.317080  0.899600  1.0  0.2601
  C  C237  1  0.111360  0.371870  0.897370  1.0  -0.1683
  C  C238  1  0.061220  0.417600  0.920200  1.0  0.0104
  C  C239  1  0.002380  0.406880  0.943230  1.0  -0.1056
  C  C240  1  0.996260  0.351220  0.945810  1.0  0.1895
  C  C241  1  0.935310  0.337620  0.971910  1.0  -0.0079
  C  C242  1  0.870990  0.358720  0.967780  1.0  -0.1239
  C  C243  1  0.815450  0.345270  0.992210  1.0  -0.0463
  C  C244  1  0.822180  0.309340  0.021550  1.0  -0.1195
  C  C245  1  0.885990  0.287900  0.025380  1.0  -0.0308
  C  C246  1  0.942300  0.301100  0.000480  1.0  -0.0837
  C  C247  1  0.760270  0.293840  0.047660  1.0  0.7193
  C  C248  1  0.072780  0.476510  0.919540  1.0  0.0963
  C  C249  1  0.137890  0.497250  0.918840  1.0  -0.1821
  C  C250  1  0.147610  0.552770  0.917410  1.0  0.1597
  C  C251  1  0.033190  0.567610  0.918640  1.0  0.1544
  C  C252  1  0.019600  0.513690  0.920170  1.0  -0.2163
  C  C253  1  0.675180  0.113230  0.967310  1.0  0.7464
  C  C254  1  0.699820  0.052930  0.912590  1.0  -0.4925
  C  C255  1  0.430830  0.110600  0.977940  1.0  0.7461
  C  C256  1  0.408530  0.124920  0.042390  1.0  -0.4515
  C  C257  1  0.565750  0.248080  0.947520  1.0  0.758
  C  C258  1  0.582810  0.300520  0.934470  1.0  -0.4654
  C  C259  1  0.481340  0.310110  0.133070  1.0  0.7265
  C  C260  1  0.423800  0.338660  0.178820  1.0  -0.1339
  C  C261  1  0.417720  0.402390  0.215500  1.0  -0.0607
  C  C262  1  0.367030  0.428040  0.259180  1.0  -0.1386
  C  C263  1  0.321560  0.390410  0.268220  1.0  -0.0165
  C  C264  1  0.325980  0.326460  0.230090  1.0  -0.071
  C  C265  1  0.376960  0.301160  0.185800  1.0  -0.0408
  C  C266  1  0.267810  0.417480  0.317080  1.0  0.2599
  C  C267  1  0.278030  0.474500  0.371870  1.0  -0.1675
  C  C268  1  0.227890  0.497400  0.417600  1.0  0.0102
  C  C269  1  0.169050  0.463650  0.406880  1.0  -0.1069
  C  C270  1  0.162930  0.405410  0.351220  1.0  0.1881
  C  C271  1  0.101980  0.365710  0.337620  1.0  -0.0084
  C  C272  1  0.037660  0.390940  0.358720  1.0  -0.1274
  C  C273  1  0.982120  0.353060  0.345270  1.0  -0.0471
  C  C274  1  0.988850  0.287790  0.309340  1.0  -0.119
  C  C275  1  0.052660  0.262520  0.287900  1.0  -0.0306
  C  C276  1  0.108970  0.300620  0.301100  1.0  -0.0837
  C  C277  1  0.926940  0.246180  0.293840  1.0  0.719
  C  C278  1  0.239450  0.556970  0.476510  1.0  0.0962
  C  C279  1  0.304560  0.578410  0.497250  1.0  -0.1824
  C  C280  1  0.314280  0.635360  0.552770  1.0  0.1597
  C  C281  1  0.199860  0.648970  0.567610  1.0  0.154
  C  C282  1  0.186270  0.593520  0.513690  1.0  -0.2168
  C  C283  1  0.341850  0.854080  0.886770  1.0  0.7468
  C  C284  1  0.366490  0.859660  0.947070  1.0  -0.4948
  C  C285  1  0.097500  0.867340  0.889400  1.0  0.7462
  C  C286  1  0.075200  0.917470  0.875080  1.0  -0.4465
  C  C287  1  0.232420  0.699440  0.751920  1.0  0.7552
  C  C288  1  0.249480  0.633950  0.699480  1.0  -0.4685
  C  C289  1  0.148010  0.822960  0.689890  1.0  0.7257
  C  C290  1  0.090470  0.840160  0.661340  1.0  -0.1333
  C  C291  1  0.084390  0.813110  0.597610  1.0  -0.0606
  C  C292  1  0.033700  0.831140  0.571960  1.0  -0.1372
  C  C293  1  0.988230  0.877810  0.609590  1.0  -0.0166
  C  C294  1  0.992650  0.903630  0.673540  1.0  -0.0712
  C  C295  1  0.043630  0.884640  0.698840  1.0  -0.0409
  C  C296  1  0.934480  0.899600  0.582520  1.0  0.261
  C  C297  1  0.944700  0.897370  0.525500  1.0  -0.1679
  C  C298  1  0.894560  0.920200  0.502600  1.0  0.0102
  C  C299  1  0.835720  0.943230  0.536350  1.0  -0.1063
  C  C300  1  0.829600  0.945810  0.594590  1.0  0.1896
  C  C301  1  0.768650  0.971910  0.634290  1.0  -0.0082
  C  C302  1  0.704330  0.967780  0.609060  1.0  -0.1256
  C  C303  1  0.648790  0.992210  0.646940  1.0  -0.0453
  C  C304  1  0.655520  0.021550  0.712210  1.0  -0.1194
  C  C305  1  0.719330  0.025380  0.737480  1.0  -0.0321
  C  C306  1  0.775640  0.000480  0.699380  1.0  -0.0829
  C  C307  1  0.593610  0.047660  0.753820  1.0  0.7187
  C  C308  1  0.906120  0.919540  0.443030  1.0  0.0962
  C  C309  1  0.971230  0.918840  0.421590  1.0  -0.1835
  C  C310  1  0.980950  0.917410  0.364640  1.0  0.1622
  C  C311  1  0.866530  0.918640  0.351030  1.0  0.1558
  C  C312  1  0.852940  0.920170  0.406480  1.0  -0.2164
  C  C313  1  0.008510  0.032690  0.145920  1.0  0.7482
  C  C314  1  0.033150  0.087410  0.140340  1.0  -0.491
  C  C315  1  0.764160  0.022060  0.132660  1.0  0.7449
  C  C316  1  0.741860  0.957610  0.082530  1.0  -0.4483
  C  C317  1  0.899080  0.052480  0.300560  1.0  0.7555
  C  C318  1  0.916140  0.065530  0.366050  1.0  -0.471
  C  C319  1  0.814670  0.866930  0.177040  1.0  0.7251
  C  C320  1  0.757130  0.821180  0.159840  1.0  -0.1313
  C  C321  1  0.751050  0.784500  0.186890  1.0  -0.0617
  C  C322  1  0.700360  0.740820  0.168860  1.0  -0.1358
  C  C323  1  0.654890  0.731780  0.122190  1.0  -0.0166
  C  C324  1  0.659310  0.769910  0.096370  1.0  -0.0707
  C  C325  1  0.710290  0.814200  0.115360  1.0  -0.0417
  C  C326  1  0.601140  0.682920  0.100400  1.0  0.2598
  C  C327  1  0.611360  0.628130  0.102630  1.0  -0.1683
  C  C328  1  0.561220  0.582400  0.079800  1.0  0.0099
  C  C329  1  0.502380  0.593120  0.056770  1.0  -0.1047
  C  C330  1  0.496260  0.648780  0.054190  1.0  0.1883
  C  C331  1  0.435310  0.662380  0.028090  1.0  -0.0082
  C  C332  1  0.370990  0.641280  0.032220  1.0  -0.1252
  C  C333  1  0.315450  0.654730  0.007790  1.0  -0.0457
  C  C334  1  0.322180  0.690660  0.978450  1.0  -0.1192
  C  C335  1  0.385990  0.712100  0.974620  1.0  -0.0313
  C  C336  1  0.442300  0.698900  0.999520  1.0  -0.0843
  C  C337  1  0.260270  0.706160  0.952340  1.0  0.7193
  C  C338  1  0.572780  0.523490  0.080460  1.0  0.0963
  C  C339  1  0.637890  0.502750  0.081160  1.0  -0.1822
  C  C340  1  0.647610  0.447230  0.082590  1.0  0.1596
  C  C341  1  0.533190  0.432390  0.081360  1.0  0.1542
  C  C342  1  0.519600  0.486310  0.079830  1.0  -0.2167
  N  N343  1  0.711480  0.616330  0.693060  1.0  -0.4239
  N  N344  1  0.762530  0.330130  0.412700  1.0  -0.2875
  N  N345  1  0.378150  0.076730  0.383670  1.0  -0.4226
  N  N346  1  0.429200  0.082570  0.669870  1.0  -0.2904
  N  N347  1  0.044810  0.306940  0.923270  1.0  -0.4238
  N  N348  1  0.095860  0.587300  0.917430  1.0  -0.2907
  N  N349  1  0.211480  0.383670  0.306940  1.0  -0.4222
  N  N350  1  0.262530  0.669870  0.587300  1.0  -0.2895
  N  N351  1  0.878150  0.923270  0.616330  1.0  -0.4223
  N  N352  1  0.929200  0.917430  0.330130  1.0  -0.2885
  N  N353  1  0.544810  0.693060  0.076730  1.0  -0.4243
  N  N354  1  0.595860  0.412700  0.082570  1.0  -0.2898
  O  O355  1  0.126690  0.745660  0.903620  1.0  -0.9624
  O  O356  1  0.210060  0.862760  0.984120  1.0  -0.591
  O  O357  1  0.118920  0.865070  0.038620  1.0  -0.6426
  O  O358  1  0.983300  0.862400  0.027760  1.0  -0.6781
  O  O359  1  0.895850  0.928330  0.066580  1.0  -0.5859
  O  O360  1  0.053620  0.804700  0.098250  1.0  -0.6058
  O  O361  1  0.065700  0.739130  0.996340  1.0  -0.6617
  O  O362  1  0.024270  0.651400  0.866360  1.0  -0.5904
  O  O363  1  0.982250  0.747920  0.900810  1.0  -0.5739
  O  O364  1  0.371430  0.726850  0.684160  1.0  -0.5964
  O  O365  1  0.437660  0.811510  0.737280  1.0  -0.6301
  O  O366  1  0.793360  0.157960  0.254340  1.0  -0.9631
  O  O367  1  0.876730  0.121360  0.137240  1.0  -0.5912
  O  O368  1  0.785590  0.173550  0.134930  1.0  -0.6433
  O  O369  1  0.649970  0.165360  0.137600  1.0  -0.6779
  O  O370  1  0.562520  0.138250  0.071670  1.0  -0.5873
  O  O371  1  0.720290  0.293550  0.195300  1.0  -0.6054
  O  O372  1  0.732370  0.257210  0.260870  1.0  -0.663
  O  O373  1  0.690940  0.214960  0.348600  1.0  -0.5919
  O  O374  1  0.648920  0.152890  0.252080  1.0  -0.5744
  O  O375  1  0.038100  0.957310  0.273150  1.0  -0.5962
  O  O376  1  0.104330  0.925770  0.188490  1.0  -0.6289
  O  O377  1  0.460020  0.096380  0.842040  1.0  -0.9634
  O  O378  1  0.543390  0.015880  0.878640  1.0  -0.5918
  O  O379  1  0.452250  0.961380  0.826450  1.0  -0.6441
  O  O380  1  0.316630  0.972240  0.834640  1.0  -0.6781
  O  O381  1  0.229180  0.933420  0.861750  1.0  -0.5884
  O  O382  1  0.386950  0.901750  0.706450  1.0  -0.6051
  O  O383  1  0.399030  0.003660  0.742790  1.0  -0.6635
  O  O384  1  0.357600  0.133640  0.785040  1.0  -0.5923
  O  O385  1  0.315580  0.099190  0.847110  1.0  -0.5735
  O  O386  1  0.704760  0.315840  0.042690  1.0  -0.5959
  O  O387  1  0.770990  0.262720  0.074230  1.0  -0.6287
  O  O388  1  0.626690  0.254340  0.096380  1.0  -0.9633
  O  O389  1  0.710060  0.137240  0.015880  1.0  -0.5918
  O  O390  1  0.618920  0.134930  0.961380  1.0  -0.6433
  O  O391  1  0.483300  0.137600  0.972240  1.0  -0.6789
  O  O392  1  0.395850  0.071670  0.933420  1.0  -0.5863
  O  O393  1  0.553620  0.195300  0.901750  1.0  -0.6072
  O  O394  1  0.565700  0.260870  0.003660  1.0  -0.6633
  O  O395  1  0.524270  0.348600  0.133640  1.0  -0.5905
  O  O396  1  0.482250  0.252080  0.099190  1.0  -0.5746
  O  O397  1  0.871430  0.273150  0.315840  1.0  -0.5962
  O  O398  1  0.937660  0.188490  0.262720  1.0  -0.6304
  O  O399  1  0.293360  0.842040  0.745660  1.0  -0.9621
  O  O400  1  0.376730  0.878640  0.862760  1.0  -0.5905
  O  O401  1  0.285590  0.826450  0.865070  1.0  -0.6432
  O  O402  1  0.149970  0.834640  0.862400  1.0  -0.6785
  O  O403  1  0.062520  0.861750  0.928330  1.0  -0.5872
  O  O404  1  0.220290  0.706450  0.804700  1.0  -0.6058
  O  O405  1  0.232370  0.742790  0.739130  1.0  -0.6621
  O  O406  1  0.190940  0.785040  0.651400  1.0  -0.5925
  O  O407  1  0.148920  0.847110  0.747920  1.0  -0.5743
  O  O408  1  0.538100  0.042690  0.726850  1.0  -0.5958
  O  O409  1  0.604330  0.074230  0.811510  1.0  -0.6294
  O  O410  1  0.960020  0.903620  0.157960  1.0  -0.9639
  O  O411  1  0.043390  0.984120  0.121360  1.0  -0.5916
  O  O412  1  0.952250  0.038620  0.173550  1.0  -0.6443
  O  O413  1  0.816630  0.027760  0.165360  1.0  -0.6778
  O  O414  1  0.729180  0.066580  0.138250  1.0  -0.5874
  O  O415  1  0.886950  0.098250  0.293550  1.0  -0.6055
  O  O416  1  0.899030  0.996340  0.257210  1.0  -0.6632
  O  O417  1  0.857600  0.866360  0.214960  1.0  -0.5905
  O  O418  1  0.815580  0.900810  0.152890  1.0  -0.5742
  O  O419  1  0.204760  0.684160  0.957310  1.0  -0.5965
  O  O420  1  0.270990  0.737280  0.925770  1.0  -0.6275
