# generated using pymatgen
data_Ag3H24C28(S2N3)2
_symmetry_space_group_name_H-M   'P 1'
_cell_length_a   13.63190000
_cell_length_b   16.22110000
_cell_length_c   15.72010000
_cell_angle_alpha   90.00000000
_cell_angle_beta   96.60700000
_cell_angle_gamma   90.00000000
_symmetry_Int_Tables_number   1
_chemical_formula_structural   Ag3H24C28(S2N3)2
_chemical_formula_sum   'Ag12 H96 C112 S16 N24'
_cell_volume   3453.01213282
_cell_formula_units_Z   4
loop_
 _symmetry_equiv_pos_site_id
 _symmetry_equiv_pos_as_xyz
  1  'x, y, z'
loop_
 _atom_site_type_symbol
 _atom_site_label
 _atom_site_symmetry_multiplicity
 _atom_site_fract_x
 _atom_site_fract_y
 _atom_site_fract_z
 _atom_site_occupancy
 _atom_site_charge
  Ag  Ag1  1  0.019420  0.378080  0.919760  1.0  0.2971
  Ag  Ag2  1  0.519420  0.878080  0.919760  1.0  0.2971
  Ag  Ag3  1  0.980580  0.378080  0.580240  1.0  0.2977
  Ag  Ag4  1  0.480580  0.878080  0.580240  1.0  0.2977
  Ag  Ag5  1  0.980580  0.621920  0.080240  1.0  0.2975
  Ag  Ag6  1  0.480580  0.121920  0.080240  1.0  0.2975
  Ag  Ag7  1  0.019420  0.621920  0.419760  1.0  0.2966
  Ag  Ag8  1  0.519420  0.121920  0.419760  1.0  0.2966
  Ag  Ag9  1  0.500000  0.966750  0.250000  1.0  0.3171
  Ag  Ag10  1  0.000000  0.466750  0.250000  1.0  0.3171
  Ag  Ag11  1  0.500000  0.033250  0.750000  1.0  0.3174
  Ag  Ag12  1  0.000000  0.533250  0.750000  1.0  0.3174
  H  H13  1  0.216100  0.368900  0.163200  1.0  0.1143
  H  H14  1  0.120400  0.313600  0.149900  1.0  0.1428
  H  H15  1  0.308200  0.449700  0.086700  1.0  0.1007
  H  H16  1  0.412200  0.564500  0.091200  1.0  0.0941
  H  H17  1  0.344200  0.695600  0.081400  1.0  0.0971
  H  H18  1  0.176800  0.710200  0.067900  1.0  0.0747
  H  H19  1  0.234100  0.209900  0.203600  1.0  0.136
  H  H20  1  0.329000  0.266000  0.205300  1.0  0.1267
  H  H21  1  0.331700  0.851700  0.172200  1.0  0.0723
  H  H22  1  0.165300  0.849900  0.129600  1.0  0.1013
  H  H23  1  0.079200  0.974000  0.117400  1.0  0.0896
  H  H24  1  0.163100  0.097600  0.146600  1.0  0.1027
  H  H25  1  0.716100  0.868900  0.163200  1.0  0.1143
  H  H26  1  0.620400  0.813600  0.149900  1.0  0.1428
  H  H27  1  0.808200  0.949700  0.086700  1.0  0.1007
  H  H28  1  0.912200  0.064500  0.091200  1.0  0.0941
  H  H29  1  0.844200  0.195600  0.081400  1.0  0.0971
  H  H30  1  0.676800  0.210200  0.067900  1.0  0.0747
  H  H31  1  0.734100  0.709900  0.203600  1.0  0.136
  H  H32  1  0.829000  0.766000  0.205300  1.0  0.1267
  H  H33  1  0.831700  0.351700  0.172200  1.0  0.0723
  H  H34  1  0.665300  0.349900  0.129600  1.0  0.1013
  H  H35  1  0.579200  0.474000  0.117400  1.0  0.0894
  H  H36  1  0.663100  0.597600  0.146600  1.0  0.1027
  H  H37  1  0.783900  0.368900  0.336800  1.0  0.1145
  H  H38  1  0.879600  0.313600  0.350100  1.0  0.1404
  H  H39  1  0.691800  0.449700  0.413300  1.0  0.1004
  H  H40  1  0.587800  0.564500  0.408800  1.0  0.0939
  H  H41  1  0.655800  0.695600  0.418600  1.0  0.0979
  H  H42  1  0.823200  0.710200  0.432100  1.0  0.0743
  H  H43  1  0.765900  0.209900  0.296400  1.0  0.1353
  H  H44  1  0.671000  0.266000  0.294700  1.0  0.1279
  H  H45  1  0.668300  0.851700  0.327800  1.0  0.0714
  H  H46  1  0.834700  0.849900  0.370400  1.0  0.1013
  H  H47  1  0.920800  0.974000  0.382600  1.0  0.0889
  H  H48  1  0.836900  0.097600  0.353400  1.0  0.1037
  H  H49  1  0.283900  0.868900  0.336800  1.0  0.1145
  H  H50  1  0.379600  0.813600  0.350100  1.0  0.1404
  H  H51  1  0.191800  0.949700  0.413300  1.0  0.1004
  H  H52  1  0.087800  0.064500  0.408800  1.0  0.094
  H  H53  1  0.155800  0.195600  0.418600  1.0  0.0979
  H  H54  1  0.323200  0.210200  0.432100  1.0  0.0743
  H  H55  1  0.265900  0.709900  0.296400  1.0  0.1353
  H  H56  1  0.171000  0.766000  0.294700  1.0  0.1279
  H  H57  1  0.168300  0.351700  0.327800  1.0  0.0714
  H  H58  1  0.334700  0.349900  0.370400  1.0  0.1013
  H  H59  1  0.420800  0.474000  0.382600  1.0  0.0888
  H  H60  1  0.336900  0.597600  0.353400  1.0  0.1037
  H  H61  1  0.783900  0.631100  0.836800  1.0  0.1142
  H  H62  1  0.879600  0.686400  0.850100  1.0  0.1409
  H  H63  1  0.691800  0.550300  0.913300  1.0  0.1004
  H  H64  1  0.587800  0.435500  0.908800  1.0  0.0937
  H  H65  1  0.655800  0.304400  0.918600  1.0  0.0978
  H  H66  1  0.823200  0.289800  0.932100  1.0  0.0741
  H  H67  1  0.765900  0.790100  0.796400  1.0  0.1351
  H  H68  1  0.671000  0.734000  0.794700  1.0  0.1279
  H  H69  1  0.668300  0.148300  0.827800  1.0  0.0717
  H  H70  1  0.834700  0.150100  0.870400  1.0  0.1015
  H  H71  1  0.920800  0.026000  0.882600  1.0  0.0889
  H  H72  1  0.836900  0.902400  0.853400  1.0  0.1038
  H  H73  1  0.283900  0.131100  0.836800  1.0  0.1142
  H  H74  1  0.379600  0.186400  0.850100  1.0  0.1409
  H  H75  1  0.191800  0.050300  0.913300  1.0  0.1004
  H  H76  1  0.087800  0.935500  0.908800  1.0  0.0937
  H  H77  1  0.155800  0.804400  0.918600  1.0  0.0978
  H  H78  1  0.323200  0.789800  0.932100  1.0  0.0741
  H  H79  1  0.265900  0.290100  0.796400  1.0  0.1351
  H  H80  1  0.171000  0.234000  0.794700  1.0  0.1279
  H  H81  1  0.168300  0.648300  0.827800  1.0  0.0717
  H  H82  1  0.334700  0.650100  0.870400  1.0  0.1015
  H  H83  1  0.420800  0.526000  0.882600  1.0  0.0888
  H  H84  1  0.336900  0.402400  0.853400  1.0  0.1038
  H  H85  1  0.216100  0.631100  0.663200  1.0  0.1146
  H  H86  1  0.120400  0.686400  0.649900  1.0  0.1425
  H  H87  1  0.308200  0.550300  0.586700  1.0  0.1004
  H  H88  1  0.412200  0.435500  0.591200  1.0  0.0941
  H  H89  1  0.344200  0.304400  0.581400  1.0  0.0975
  H  H90  1  0.176800  0.289800  0.567900  1.0  0.0742
  H  H91  1  0.234100  0.790100  0.703600  1.0  0.1357
  H  H92  1  0.329000  0.734000  0.705300  1.0  0.1275
  H  H93  1  0.331700  0.148300  0.672200  1.0  0.0721
  H  H94  1  0.165300  0.150100  0.629600  1.0  0.1014
  H  H95  1  0.079200  0.026000  0.617400  1.0  0.0896
  H  H96  1  0.163100  0.902400  0.646600  1.0  0.1026
  H  H97  1  0.716100  0.131100  0.663200  1.0  0.1146
  H  H98  1  0.620400  0.186400  0.649900  1.0  0.1425
  H  H99  1  0.808200  0.050300  0.586700  1.0  0.1004
  H  H100  1  0.912200  0.935500  0.591200  1.0  0.0942
  H  H101  1  0.844200  0.804400  0.581400  1.0  0.0975
  H  H102  1  0.676800  0.789800  0.567900  1.0  0.0742
  H  H103  1  0.734100  0.290100  0.703600  1.0  0.1357
  H  H104  1  0.829000  0.234000  0.705300  1.0  0.1275
  H  H105  1  0.831700  0.648300  0.672200  1.0  0.0721
  H  H106  1  0.665300  0.650100  0.629600  1.0  0.1014
  H  H107  1  0.579200  0.526000  0.617400  1.0  0.0894
  H  H108  1  0.663100  0.402400  0.646600  1.0  0.1026
  C  C109  1  0.209300  0.298400  0.055300  1.0  0.1587
  C  C110  1  0.271500  0.234100  0.083300  1.0  0.1606
  C  C111  1  0.163100  0.349700  0.120400  1.0  -0.3764
  C  C112  1  0.181600  0.516500  0.079300  1.0  0.1402
  C  C113  1  0.282100  0.503400  0.084400  1.0  -0.1616
  C  C114  1  0.343300  0.571400  0.086100  1.0  -0.1297
  C  C115  1  0.303300  0.648800  0.080300  1.0  -0.1513
  C  C116  1  0.203900  0.656900  0.073100  1.0  0.1397
  C  C117  1  0.296200  0.217100  0.178600  1.0  -0.363
  C  C118  1  0.296800  0.901800  0.167900  1.0  0.153
  C  C119  1  0.198200  0.900200  0.142100  1.0  -0.1202
  C  C120  1  0.147600  0.973700  0.134700  1.0  -0.1307
  C  C121  1  0.196600  0.046800  0.152400  1.0  -0.1432
  C  C122  1  0.295900  0.043300  0.178900  1.0  0.0947
  C  C123  1  0.709300  0.798400  0.055300  1.0  0.1587
  C  C124  1  0.771500  0.734100  0.083300  1.0  0.1606
  C  C125  1  0.663100  0.849700  0.120400  1.0  -0.3764
  C  C126  1  0.681600  0.016500  0.079300  1.0  0.1402
  C  C127  1  0.782100  0.003400  0.084400  1.0  -0.1616
  C  C128  1  0.843300  0.071400  0.086100  1.0  -0.1297
  C  C129  1  0.803300  0.148800  0.080300  1.0  -0.1513
  C  C130  1  0.703900  0.156900  0.073100  1.0  0.1397
  C  C131  1  0.796200  0.717100  0.178600  1.0  -0.363
  C  C132  1  0.796800  0.401800  0.167900  1.0  0.153
  C  C133  1  0.698200  0.400200  0.142100  1.0  -0.1202
  C  C134  1  0.647600  0.473700  0.134700  1.0  -0.1307
  C  C135  1  0.696600  0.546800  0.152400  1.0  -0.1432
  C  C136  1  0.795900  0.543300  0.178900  1.0  0.0947
  C  C137  1  0.790700  0.298400  0.444700  1.0  0.159
  C  C138  1  0.728500  0.234100  0.416700  1.0  0.1611
  C  C139  1  0.836900  0.349700  0.379600  1.0  -0.3764
  C  C140  1  0.818400  0.516500  0.420700  1.0  0.1384
  C  C141  1  0.717900  0.503400  0.415600  1.0  -0.1612
  C  C142  1  0.656700  0.571400  0.413900  1.0  -0.1283
  C  C143  1  0.696700  0.648800  0.419700  1.0  -0.1531
  C  C144  1  0.796100  0.656900  0.426900  1.0  0.1404
  C  C145  1  0.703800  0.217100  0.321400  1.0  -0.3626
  C  C146  1  0.703200  0.901800  0.332100  1.0  0.1522
  C  C147  1  0.801800  0.900200  0.357900  1.0  -0.1211
  C  C148  1  0.852400  0.973700  0.365300  1.0  -0.1316
  C  C149  1  0.803400  0.046800  0.347600  1.0  -0.1431
  C  C150  1  0.704100  0.043300  0.321100  1.0  0.0974
  C  C151  1  0.290700  0.798400  0.444700  1.0  0.159
  C  C152  1  0.228500  0.734100  0.416700  1.0  0.1611
  C  C153  1  0.336900  0.849700  0.379600  1.0  -0.3764
  C  C154  1  0.318400  0.016500  0.420700  1.0  0.1384
  C  C155  1  0.217900  0.003400  0.415600  1.0  -0.1612
  C  C156  1  0.156700  0.071400  0.413900  1.0  -0.1283
  C  C157  1  0.196700  0.148800  0.419700  1.0  -0.1531
  C  C158  1  0.296100  0.156900  0.426900  1.0  0.1404
  C  C159  1  0.203800  0.717100  0.321400  1.0  -0.3626
  C  C160  1  0.203200  0.401800  0.332100  1.0  0.1522
  C  C161  1  0.301800  0.400200  0.357900  1.0  -0.1211
  C  C162  1  0.352400  0.473700  0.365300  1.0  -0.1316
  C  C163  1  0.303400  0.546800  0.347600  1.0  -0.1431
  C  C164  1  0.204100  0.543300  0.321100  1.0  0.0974
  C  C165  1  0.790700  0.701600  0.944700  1.0  0.159
  C  C166  1  0.728500  0.765900  0.916700  1.0  0.1607
  C  C167  1  0.836900  0.650300  0.879600  1.0  -0.3771
  C  C168  1  0.818400  0.483500  0.920700  1.0  0.1381
  C  C169  1  0.717900  0.496600  0.915600  1.0  -0.1601
  C  C170  1  0.656700  0.428600  0.913900  1.0  -0.1285
  C  C171  1  0.696700  0.351200  0.919700  1.0  -0.1534
  C  C172  1  0.796100  0.343100  0.926900  1.0  0.1409
  C  C173  1  0.703800  0.782900  0.821400  1.0  -0.3606
  C  C174  1  0.703200  0.098200  0.832100  1.0  0.1525
  C  C175  1  0.801800  0.099800  0.857900  1.0  -0.1218
  C  C176  1  0.852400  0.026300  0.865300  1.0  -0.1316
  C  C177  1  0.803400  0.953200  0.847600  1.0  -0.1445
  C  C178  1  0.704100  0.956700  0.821100  1.0  0.0968
  C  C179  1  0.290700  0.201600  0.944700  1.0  0.159
  C  C180  1  0.228500  0.265900  0.916700  1.0  0.1607
  C  C181  1  0.336900  0.150300  0.879600  1.0  -0.3771
  C  C182  1  0.318400  0.983500  0.920700  1.0  0.1381
  C  C183  1  0.217900  0.996600  0.915600  1.0  -0.1601
  C  C184  1  0.156700  0.928600  0.913900  1.0  -0.1285
  C  C185  1  0.196700  0.851200  0.919700  1.0  -0.1534
  C  C186  1  0.296100  0.843100  0.926900  1.0  0.1409
  C  C187  1  0.203800  0.282900  0.821400  1.0  -0.3606
  C  C188  1  0.203200  0.598200  0.832100  1.0  0.1525
  C  C189  1  0.301800  0.599800  0.857900  1.0  -0.1218
  C  C190  1  0.352400  0.526300  0.865300  1.0  -0.1316
  C  C191  1  0.303400  0.453200  0.847600  1.0  -0.1445
  C  C192  1  0.204100  0.456700  0.821100  1.0  0.0968
  C  C193  1  0.209300  0.701600  0.555300  1.0  0.1585
  C  C194  1  0.271500  0.765900  0.583300  1.0  0.1605
  C  C195  1  0.163100  0.650300  0.620400  1.0  -0.3768
  C  C196  1  0.181600  0.483500  0.579300  1.0  0.1402
  C  C197  1  0.282100  0.496600  0.584400  1.0  -0.1609
  C  C198  1  0.343300  0.428600  0.586100  1.0  -0.1295
  C  C199  1  0.303300  0.351200  0.580300  1.0  -0.1512
  C  C200  1  0.203900  0.343100  0.573100  1.0  0.1397
  C  C201  1  0.296200  0.782900  0.678600  1.0  -0.3621
  C  C202  1  0.296800  0.098200  0.667900  1.0  0.1527
  C  C203  1  0.198200  0.099800  0.642100  1.0  -0.1202
  C  C204  1  0.147600  0.026300  0.634700  1.0  -0.1308
  C  C205  1  0.196600  0.953200  0.652400  1.0  -0.1457
  C  C206  1  0.295900  0.956700  0.678900  1.0  0.0947
  C  C207  1  0.709300  0.201600  0.555300  1.0  0.1585
  C  C208  1  0.771500  0.265900  0.583300  1.0  0.1605
  C  C209  1  0.663100  0.150300  0.620400  1.0  -0.3768
  C  C210  1  0.681600  0.983500  0.579300  1.0  0.1402
  C  C211  1  0.782100  0.996600  0.584400  1.0  -0.1609
  C  C212  1  0.843300  0.928600  0.586100  1.0  -0.1295
  C  C213  1  0.803300  0.851200  0.580300  1.0  -0.1512
  C  C214  1  0.703900  0.843100  0.573100  1.0  0.1397
  C  C215  1  0.796200  0.282900  0.678600  1.0  -0.3621
  C  C216  1  0.796800  0.598200  0.667900  1.0  0.1527
  C  C217  1  0.698200  0.599800  0.642100  1.0  -0.1202
  C  C218  1  0.647600  0.526300  0.634700  1.0  -0.1308
  C  C219  1  0.696600  0.453200  0.652400  1.0  -0.1457
  C  C220  1  0.795900  0.456700  0.678900  1.0  0.0947
  S  S221  1  0.091500  0.438180  0.081530  1.0  0.0978
  S  S222  1  0.373240  0.129040  0.206540  1.0  0.0571
  S  S223  1  0.591500  0.938180  0.081530  1.0  0.0978
  S  S224  1  0.873240  0.629040  0.206540  1.0  0.0571
  S  S225  1  0.908500  0.438180  0.418470  1.0  0.0962
  S  S226  1  0.626760  0.129040  0.293460  1.0  0.0576
  S  S227  1  0.408500  0.938180  0.418470  1.0  0.0962
  S  S228  1  0.126760  0.629040  0.293460  1.0  0.0576
  S  S229  1  0.908500  0.561820  0.918470  1.0  0.0959
  S  S230  1  0.626760  0.870960  0.793460  1.0  0.059
  S  S231  1  0.408500  0.061820  0.918470  1.0  0.0959
  S  S232  1  0.126760  0.370960  0.793460  1.0  0.059
  S  S233  1  0.091500  0.561820  0.581530  1.0  0.0977
  S  S234  1  0.373240  0.870960  0.706540  1.0  0.058
  S  S235  1  0.591500  0.061820  0.581530  1.0  0.0977
  S  S236  1  0.873240  0.370960  0.706540  1.0  0.058
  N  N237  1  0.189000  0.314430  0.972000  1.0  -0.4069
  N  N238  1  0.141800  0.592020  0.072900  1.0  -0.3613
  N  N239  1  0.346600  0.972200  0.187500  1.0  -0.3659
  N  N240  1  0.689000  0.814430  0.972000  1.0  -0.4069
  N  N241  1  0.641800  0.092020  0.072900  1.0  -0.3613
  N  N242  1  0.846600  0.472200  0.187500  1.0  -0.3659
  N  N243  1  0.811000  0.314430  0.528000  1.0  -0.4069
  N  N244  1  0.858200  0.592020  0.427100  1.0  -0.3591
  N  N245  1  0.653400  0.972200  0.312500  1.0  -0.3639
  N  N246  1  0.311000  0.814430  0.528000  1.0  -0.4069
  N  N247  1  0.358200  0.092020  0.427100  1.0  -0.3591
  N  N248  1  0.153400  0.472200  0.312500  1.0  -0.3639
  N  N249  1  0.811000  0.685570  0.028000  1.0  -0.407
  N  N250  1  0.858200  0.407980  0.927100  1.0  -0.3585
  N  N251  1  0.653400  0.027800  0.812500  1.0  -0.3645
  N  N252  1  0.311000  0.185570  0.028000  1.0  -0.407
  N  N253  1  0.358200  0.907980  0.927100  1.0  -0.3585
  N  N254  1  0.153400  0.527800  0.812500  1.0  -0.3645
  N  N255  1  0.189000  0.685570  0.472000  1.0  -0.4074
  N  N256  1  0.141800  0.407980  0.572900  1.0  -0.3611
  N  N257  1  0.346600  0.027800  0.687500  1.0  -0.366
  N  N258  1  0.689000  0.185570  0.472000  1.0  -0.4074
  N  N259  1  0.641800  0.907980  0.572900  1.0  -0.3611
  N  N260  1  0.846600  0.527800  0.687500  1.0  -0.366
