# generated using pymatgen
data_ZnCo4H12C36N18(Cl2O3)2
_symmetry_space_group_name_H-M   'P 1'
_cell_length_a   21.91680000
_cell_length_b   21.91680000
_cell_length_c   21.91680000
_cell_angle_alpha   60.00000000
_cell_angle_beta   60.00000000
_cell_angle_gamma   60.00000000
_symmetry_Int_Tables_number   1
_chemical_formula_structural   ZnCo4H12C36N18(Cl2O3)2
_chemical_formula_sum   'Zn2 Co8 H24 C72 N36 Cl8 O12'
_cell_volume   7444.17262853
_cell_formula_units_Z   2
loop_
 _symmetry_equiv_pos_site_id
 _symmetry_equiv_pos_as_xyz
  1  'x, y, z'
loop_
 _atom_site_type_symbol
 _atom_site_label
 _atom_site_symmetry_multiplicity
 _atom_site_fract_x
 _atom_site_fract_y
 _atom_site_fract_z
 _atom_site_occupancy
 _atom_site_charge
  Zn  Zn1  1  0.250000  0.250000  0.250000  1.0  0.94
  Zn  Zn2  1  0.750000  0.750000  0.750000  1.0  0.9398
  Co  Co3  1  0.181520  0.455460  0.181510  1.0  0.8802
  Co  Co4  1  0.455470  0.181510  0.181510  1.0  0.8869
  Co  Co5  1  0.181520  0.181510  0.181510  1.0  0.8925
  Co  Co6  1  0.181520  0.181510  0.455460  1.0  0.889
  Co  Co7  1  0.544530  0.818490  0.818490  1.0  0.8873
  Co  Co8  1  0.818480  0.544540  0.818490  1.0  0.8873
  Co  Co9  1  0.818480  0.818490  0.818490  1.0  0.8896
  Co  Co10  1  0.818480  0.818490  0.544540  1.0  0.8896
  H  H11  1  0.078730  0.529010  0.313530  1.0  0.0911
  H  H12  1  0.529010  0.078730  0.078730  1.0  0.0895
  H  H13  1  0.313530  0.078730  0.078730  1.0  0.0882
  H  H14  1  0.078730  0.313530  0.529010  1.0  0.0901
  H  H15  1  0.078730  0.313530  0.078730  1.0  0.0906
  H  H16  1  0.529010  0.078730  0.313530  1.0  0.0898
  H  H17  1  0.313530  0.078730  0.529010  1.0  0.0884
  H  H18  1  0.078730  0.529010  0.078730  1.0  0.0899
  H  H19  1  0.078730  0.078730  0.529010  1.0  0.0895
  H  H20  1  0.529010  0.313530  0.078730  1.0  0.0898
  H  H21  1  0.313530  0.529010  0.078730  1.0  0.0906
  H  H22  1  0.078730  0.078730  0.313530  1.0  0.0883
  H  H23  1  0.470990  0.921270  0.686470  1.0  0.0878
  H  H24  1  0.921270  0.470990  0.921270  1.0  0.0906
  H  H25  1  0.921270  0.686470  0.921270  1.0  0.0906
  H  H26  1  0.686470  0.921270  0.470990  1.0  0.0877
  H  H27  1  0.686470  0.921270  0.921270  1.0  0.0885
  H  H28  1  0.921270  0.470990  0.686470  1.0  0.09
  H  H29  1  0.921270  0.686470  0.470990  1.0  0.0899
  H  H30  1  0.470990  0.921270  0.921270  1.0  0.0886
  H  H31  1  0.921270  0.921270  0.470990  1.0  0.0882
  H  H32  1  0.686470  0.470990  0.921270  1.0  0.0908
  H  H33  1  0.470990  0.686470  0.921270  1.0  0.0907
  H  H34  1  0.921270  0.921270  0.686470  1.0  0.0883
  C  C35  1  0.117330  0.415710  0.349630  1.0  0.0749
  C  C36  1  0.078500  0.486750  0.356250  1.0  -0.0957
  C  C37  1  0.038800  0.494960  0.427440  1.0  0.0567
  C  C38  1  0.415710  0.117330  0.117330  1.0  0.0748
  C  C39  1  0.486750  0.078500  0.078500  1.0  -0.0923
  C  C40  1  0.494960  0.038800  0.038800  1.0  0.0591
  C  C41  1  0.349630  0.117330  0.117330  1.0  0.0747
  C  C42  1  0.356250  0.078500  0.078500  1.0  -0.0938
  C  C43  1  0.427440  0.038800  0.038800  1.0  0.0603
  C  C44  1  0.117330  0.349630  0.415710  1.0  0.0734
  C  C45  1  0.078500  0.356250  0.486750  1.0  -0.0942
  C  C46  1  0.038800  0.427440  0.494960  1.0  0.0624
  C  C47  1  0.117330  0.349630  0.117330  1.0  0.0747
  C  C48  1  0.078500  0.356250  0.078500  1.0  -0.0953
  C  C49  1  0.038800  0.427440  0.038800  1.0  0.0602
  C  C50  1  0.415710  0.117330  0.349630  1.0  0.0732
  C  C51  1  0.486750  0.078500  0.356250  1.0  -0.0932
  C  C52  1  0.494960  0.038800  0.427440  1.0  0.0586
  C  C53  1  0.349630  0.117330  0.415710  1.0  0.0739
  C  C54  1  0.356250  0.078500  0.486750  1.0  -0.0936
  C  C55  1  0.427440  0.038800  0.494960  1.0  0.0621
  C  C56  1  0.117330  0.415710  0.117330  1.0  0.076
  C  C57  1  0.078500  0.486750  0.078500  1.0  -0.0937
  C  C58  1  0.038800  0.494960  0.038800  1.0  0.0569
  C  C59  1  0.117330  0.117330  0.415710  1.0  0.074
  C  C60  1  0.078500  0.078500  0.486750  1.0  -0.0914
  C  C61  1  0.038800  0.038800  0.494960  1.0  0.0598
  C  C62  1  0.415710  0.349630  0.117330  1.0  0.0743
  C  C63  1  0.486750  0.356250  0.078500  1.0  -0.0924
  C  C64  1  0.494960  0.427440  0.038800  1.0  0.0603
  C  C65  1  0.349630  0.415710  0.117330  1.0  0.0746
  C  C66  1  0.356250  0.486750  0.078500  1.0  -0.0939
  C  C67  1  0.427440  0.494960  0.038800  1.0  0.0556
  C  C68  1  0.117330  0.117330  0.349630  1.0  0.0755
  C  C69  1  0.078500  0.078500  0.356250  1.0  -0.0911
  C  C70  1  0.038800  0.038800  0.427440  1.0  0.0575
  C  C71  1  0.584290  0.882670  0.650370  1.0  0.0744
  C  C72  1  0.513250  0.921500  0.643750  1.0  -0.094
  C  C73  1  0.505040  0.961200  0.572560  1.0  0.0584
  C  C74  1  0.882670  0.584290  0.882670  1.0  0.0726
  C  C75  1  0.921500  0.513250  0.921500  1.0  -0.0958
  C  C76  1  0.961200  0.505040  0.961200  1.0  0.0564
  C  C77  1  0.882670  0.650370  0.882670  1.0  0.0722
  C  C78  1  0.921500  0.643750  0.921500  1.0  -0.0933
  C  C79  1  0.961200  0.572560  0.961200  1.0  0.0625
  C  C80  1  0.650370  0.882670  0.584290  1.0  0.0745
  C  C81  1  0.643750  0.921500  0.513250  1.0  -0.0918
  C  C82  1  0.572560  0.961200  0.505040  1.0  0.0605
  C  C83  1  0.650370  0.882670  0.882670  1.0  0.074
  C  C84  1  0.643750  0.921500  0.921500  1.0  -0.0932
  C  C85  1  0.572560  0.961200  0.961200  1.0  0.0627
  C  C86  1  0.882670  0.584290  0.650370  1.0  0.074
  C  C87  1  0.921500  0.513250  0.643750  1.0  -0.0949
  C  C88  1  0.961200  0.505040  0.572560  1.0  0.0565
  C  C89  1  0.882670  0.650370  0.584290  1.0  0.0728
  C  C90  1  0.921500  0.643750  0.513250  1.0  -0.0935
  C  C91  1  0.961200  0.572560  0.505040  1.0  0.0598
  C  C92  1  0.584290  0.882670  0.882670  1.0  0.0726
  C  C93  1  0.513250  0.921500  0.921500  1.0  -0.0929
  C  C94  1  0.505040  0.961200  0.961200  1.0  0.0575
  C  C95  1  0.882670  0.882670  0.584290  1.0  0.0755
  C  C96  1  0.921500  0.921500  0.513250  1.0  -0.0926
  C  C97  1  0.961200  0.961200  0.505040  1.0  0.0597
  C  C98  1  0.650370  0.584290  0.882670  1.0  0.074
  C  C99  1  0.643750  0.513250  0.921500  1.0  -0.0943
  C  C100  1  0.572560  0.505040  0.961200  1.0  0.0565
  C  C101  1  0.584290  0.650370  0.882670  1.0  0.0736
  C  C102  1  0.513250  0.643750  0.921500  1.0  -0.0927
  C  C103  1  0.505040  0.572560  0.961200  1.0  0.0581
  C  C104  1  0.882670  0.882670  0.650370  1.0  0.0732
  C  C105  1  0.921500  0.921500  0.643750  1.0  -0.0901
  C  C106  1  0.961200  0.961200  0.572560  1.0  0.0612
  N  N107  1  0.160100  0.390290  0.289510  1.0  -0.1884
  N  N108  1  0.390290  0.160100  0.160100  1.0  -0.1888
  N  N109  1  0.289510  0.160100  0.160100  1.0  -0.1885
  N  N110  1  0.160100  0.289510  0.390290  1.0  -0.1885
  N  N111  1  0.160100  0.289510  0.160100  1.0  -0.1892
  N  N112  1  0.390290  0.160100  0.289510  1.0  -0.1879
  N  N113  1  0.289510  0.160100  0.390290  1.0  -0.1881
  N  N114  1  0.160100  0.390290  0.160100  1.0  -0.1886
  N  N115  1  0.160100  0.160100  0.390290  1.0  -0.186
  N  N116  1  0.390290  0.289510  0.160100  1.0  -0.187
  N  N117  1  0.289510  0.390290  0.160100  1.0  -0.1879
  N  N118  1  0.160100  0.160100  0.289510  1.0  -0.187
  N  N119  1  0.609710  0.839900  0.710490  1.0  -0.1872
  N  N120  1  0.839900  0.609710  0.839900  1.0  -0.189
  N  N121  1  0.839900  0.710490  0.839900  1.0  -0.1888
  N  N122  1  0.710490  0.839900  0.609710  1.0  -0.1898
  N  N123  1  0.710490  0.839900  0.839900  1.0  -0.1888
  N  N124  1  0.839900  0.609710  0.710490  1.0  -0.1894
  N  N125  1  0.839900  0.710490  0.609710  1.0  -0.1888
  N  N126  1  0.609710  0.839900  0.839900  1.0  -0.1864
  N  N127  1  0.839900  0.839900  0.609710  1.0  -0.1863
  N  N128  1  0.710490  0.609710  0.839900  1.0  -0.1887
  N  N129  1  0.609710  0.710490  0.839900  1.0  -0.1879
  N  N130  1  0.839900  0.839900  0.710490  1.0  -0.1855
  N  N131  1  0.185400  0.314600  0.314600  1.0  -0.1803
  N  N132  1  0.314600  0.185400  0.185400  1.0  -0.1787
  N  N133  1  0.185400  0.314600  0.185400  1.0  -0.1792
  N  N134  1  0.314600  0.185400  0.314600  1.0  -0.1788
  N  N135  1  0.185400  0.185400  0.314600  1.0  -0.1763
  N  N136  1  0.314600  0.314600  0.185400  1.0  -0.1779
  N  N137  1  0.685400  0.814600  0.685400  1.0  -0.1792
  N  N138  1  0.814600  0.685400  0.814600  1.0  -0.1788
  N  N139  1  0.685400  0.814600  0.814600  1.0  -0.1803
  N  N140  1  0.814600  0.685400  0.685400  1.0  -0.1787
  N  N141  1  0.814600  0.814600  0.685400  1.0  -0.1779
  N  N142  1  0.685400  0.685400  0.814600  1.0  -0.1763
  Cl  Cl143  1  0.144120  0.567640  0.144120  1.0  -0.3252
  Cl  Cl144  1  0.567640  0.144120  0.144120  1.0  -0.3251
  Cl  Cl145  1  0.144120  0.144120  0.144120  1.0  -0.3262
  Cl  Cl146  1  0.144120  0.144120  0.567640  1.0  -0.3256
  Cl  Cl147  1  0.432360  0.855880  0.855880  1.0  -0.3254
  Cl  Cl148  1  0.855880  0.432360  0.855880  1.0  -0.3271
  Cl  Cl149  1  0.855880  0.855880  0.855880  1.0  -0.3265
  Cl  Cl150  1  0.855880  0.855880  0.432360  1.0  -0.326
  O  O151  1  0.000000  0.566810  0.433190  1.0  -0.2365
  O  O152  1  0.566810  0.000000  0.000000  1.0  -0.2357
  O  O153  1  0.433190  0.000000  0.000000  1.0  -0.2359
  O  O154  1  0.000000  0.433190  0.566810  1.0  -0.2365
  O  O155  1  0.000000  0.433190  0.000000  1.0  -0.2376
  O  O156  1  0.566810  0.000000  0.433190  1.0  -0.237
  O  O157  1  0.433190  0.000000  0.566810  1.0  -0.2341
  O  O158  1  0.000000  0.566810  0.000000  1.0  -0.2349
  O  O159  1  0.000000  0.000000  0.566810  1.0  -0.2328
  O  O160  1  0.566810  0.433190  0.000000  1.0  -0.2345
  O  O161  1  0.433190  0.566810  0.000000  1.0  -0.2352
  O  O162  1  0.000000  0.000000  0.433190  1.0  -0.2337
