# generated using pymatgen
data_Cu2H12AuC6(N2O)2
_symmetry_space_group_name_H-M   'P 1'
_cell_length_a   8.73880000
_cell_length_b   11.74170000
_cell_length_c   15.12380000
_cell_angle_alpha   90.00000000
_cell_angle_beta   92.60500000
_cell_angle_gamma   90.00000000
_symmetry_Int_Tables_number   1
_chemical_formula_structural   Cu2H12AuC6(N2O)2
_chemical_formula_sum   'Cu8 H48 Au4 C24 N16 O8'
_cell_volume   1550.22478721
_cell_formula_units_Z   4
loop_
 _symmetry_equiv_pos_site_id
 _symmetry_equiv_pos_as_xyz
  1  'x, y, z'
loop_
 _atom_site_type_symbol
 _atom_site_label
 _atom_site_symmetry_multiplicity
 _atom_site_fract_x
 _atom_site_fract_y
 _atom_site_fract_z
 _atom_site_occupancy
 _atom_site_charge
  Cu  Cu1  1  0.310410  0.155420  0.751670  1.0  0.7039
  Cu  Cu2  1  0.501360  0.341540  0.864070  1.0  0.6147
  Cu  Cu3  1  0.689590  0.155420  0.748330  1.0  0.7088
  Cu  Cu4  1  0.498640  0.341540  0.635930  1.0  0.6125
  Cu  Cu5  1  0.689590  0.844580  0.248330  1.0  0.7086
  Cu  Cu6  1  0.498640  0.658460  0.135930  1.0  0.6132
  Cu  Cu7  1  0.310410  0.844580  0.251670  1.0  0.705
  Cu  Cu8  1  0.501360  0.658460  0.364070  1.0  0.6148
  H  H9  1  0.325000  0.129000  0.550400  1.0  0.0483
  H  H10  1  0.500300  0.099500  0.545800  1.0  0.0576
  H  H11  1  0.480300  0.956000  0.650800  1.0  0.0667
  H  H12  1  0.346500  0.934900  0.579400  1.0  0.0399
  H  H13  1  0.480100  0.552900  0.851200  1.0  0.3076
  H  H14  1  0.386300  0.518500  0.923900  1.0  0.2859
  H  H15  1  0.130900  0.385300  0.748100  1.0  0.059
  H  H16  1  0.159200  0.363300  0.850300  1.0  0.0578
  H  H17  1  0.195800  0.556100  0.832900  1.0  0.0382
  H  H18  1  0.297500  0.536900  0.751000  1.0  0.0656
  H  H19  1  0.176400  0.002100  0.668400  1.0  0.2781
  H  H20  1  0.280400  0.948000  0.733900  1.0  0.3031
  H  H21  1  0.675000  0.129000  0.949600  1.0  0.0469
  H  H22  1  0.499700  0.099500  0.954200  1.0  0.0607
  H  H23  1  0.519700  0.956000  0.849200  1.0  0.0645
  H  H24  1  0.653500  0.934900  0.920600  1.0  0.0427
  H  H25  1  0.519900  0.552900  0.648800  1.0  0.3061
  H  H26  1  0.613700  0.518500  0.576100  1.0  0.2878
  H  H27  1  0.869100  0.385300  0.751900  1.0  0.0637
  H  H28  1  0.840800  0.363300  0.649700  1.0  0.0569
  H  H29  1  0.804200  0.556100  0.667100  1.0  0.0379
  H  H30  1  0.702500  0.536900  0.749000  1.0  0.0649
  H  H31  1  0.823600  0.002100  0.831600  1.0  0.2786
  H  H32  1  0.719600  0.948000  0.766100  1.0  0.3025
  H  H33  1  0.675000  0.871000  0.449600  1.0  0.0466
  H  H34  1  0.499700  0.900500  0.454200  1.0  0.0617
  H  H35  1  0.519700  0.044000  0.349200  1.0  0.0637
  H  H36  1  0.653500  0.065100  0.420600  1.0  0.0387
  H  H37  1  0.519900  0.447100  0.148800  1.0  0.307
  H  H38  1  0.613700  0.481500  0.076100  1.0  0.2873
  H  H39  1  0.869100  0.614700  0.251900  1.0  0.0635
  H  H40  1  0.840800  0.636700  0.149700  1.0  0.0599
  H  H41  1  0.804200  0.443900  0.167100  1.0  0.0388
  H  H42  1  0.702500  0.463100  0.249000  1.0  0.0663
  H  H43  1  0.823600  0.997900  0.331600  1.0  0.2791
  H  H44  1  0.719600  0.052000  0.266100  1.0  0.3033
  H  H45  1  0.325000  0.871000  0.050400  1.0  0.0484
  H  H46  1  0.500300  0.900500  0.045800  1.0  0.0577
  H  H47  1  0.480300  0.044000  0.150800  1.0  0.0658
  H  H48  1  0.346500  0.065100  0.079400  1.0  0.0376
  H  H49  1  0.480100  0.447100  0.351200  1.0  0.3072
  H  H50  1  0.386300  0.481500  0.423900  1.0  0.2858
  H  H51  1  0.130900  0.614700  0.248100  1.0  0.0586
  H  H52  1  0.159200  0.636700  0.350300  1.0  0.0607
  H  H53  1  0.195800  0.443900  0.332900  1.0  0.0388
  H  H54  1  0.297500  0.463100  0.251000  1.0  0.0693
  H  H55  1  0.176400  0.997900  0.168400  1.0  0.2785
  H  H56  1  0.280400  0.052000  0.233900  1.0  0.3036
  Au  Au57  1  0.000000  0.000000  0.000000  1.0  -0.0123
  Au  Au58  1  0.000000  0.000000  0.500000  1.0  -0.0123
  Au  Au59  1  0.000000  0.500000  0.000000  1.0  -0.0065
  Au  Au60  1  0.000000  0.500000  0.500000  1.0  -0.0065
  C  C61  1  0.106800  0.074800  0.902300  1.0  0.0336
  C  C62  1  0.812300  0.424500  0.950050  1.0  0.0397
  C  C63  1  0.415000  0.103200  0.584600  1.0  0.1016
  C  C64  1  0.386000  0.987100  0.624500  1.0  0.0281
  C  C65  1  0.207000  0.387400  0.796800  1.0  0.0964
  C  C66  1  0.271600  0.506500  0.808100  1.0  0.0408
  C  C67  1  0.893200  0.074800  0.597700  1.0  0.0317
  C  C68  1  0.187700  0.424500  0.549950  1.0  0.0403
  C  C69  1  0.585000  0.103200  0.915400  1.0  0.1037
  C  C70  1  0.614000  0.987100  0.875500  1.0  0.0285
  C  C71  1  0.793000  0.387400  0.703200  1.0  0.0973
  C  C72  1  0.728400  0.506500  0.691900  1.0  0.0386
  C  C73  1  0.893200  0.925200  0.097700  1.0  0.0328
  C  C74  1  0.187700  0.575500  0.049950  1.0  0.0405
  C  C75  1  0.585000  0.896800  0.415400  1.0  0.1028
  C  C76  1  0.614000  0.012900  0.375500  1.0  0.0281
  C  C77  1  0.793000  0.612600  0.203200  1.0  0.0977
  C  C78  1  0.728400  0.493500  0.191900  1.0  0.0385
  C  C79  1  0.106800  0.925200  0.402300  1.0  0.0439
  C  C80  1  0.812300  0.575500  0.450050  1.0  0.0397
  C  C81  1  0.415000  0.896800  0.084600  1.0  0.1025
  C  C82  1  0.386000  0.012900  0.124500  1.0  0.0282
  C  C83  1  0.207000  0.612600  0.296800  1.0  0.0963
  C  C84  1  0.271600  0.493500  0.308100  1.0  0.0412
  N  N85  1  0.171600  0.116200  0.845940  1.0  -0.3734
  N  N86  1  0.699600  0.385000  0.922290  1.0  -0.3699
  N  N87  1  0.410900  0.501640  0.868260  1.0  -0.6358
  N  N88  1  0.271800  0.004000  0.693350  1.0  -0.6427
  N  N89  1  0.828400  0.116200  0.654060  1.0  -0.3743
  N  N90  1  0.300400  0.385000  0.577710  1.0  -0.3695
  N  N91  1  0.589100  0.501640  0.631740  1.0  -0.6351
  N  N92  1  0.728200  0.004000  0.806650  1.0  -0.6415
  N  N93  1  0.828400  0.883800  0.154060  1.0  -0.375
  N  N94  1  0.300400  0.615000  0.077710  1.0  -0.3695
  N  N95  1  0.589100  0.498360  0.131740  1.0  -0.6344
  N  N96  1  0.728200  0.996000  0.306650  1.0  -0.6433
  N  N97  1  0.171600  0.883800  0.345940  1.0  -0.3739
  N  N98  1  0.699600  0.615000  0.422290  1.0  -0.3707
  N  N99  1  0.410900  0.498360  0.368260  1.0  -0.635
  N  N100  1  0.271800  0.996000  0.193350  1.0  -0.6419
  O  O101  1  0.332200  0.315040  0.778940  1.0  -0.612
  O  O102  1  0.449200  0.179010  0.656230  1.0  -0.6359
  O  O103  1  0.667800  0.315040  0.721060  1.0  -0.6124
  O  O104  1  0.550800  0.179010  0.843770  1.0  -0.6313
  O  O105  1  0.667800  0.684960  0.221060  1.0  -0.613
  O  O106  1  0.550800  0.820990  0.343770  1.0  -0.629
  O  O107  1  0.332200  0.684960  0.278940  1.0  -0.6129
  O  O108  1  0.449200  0.820990  0.156230  1.0  -0.6328
