# generated using pymatgen
data_Co2H3C9N9Cl2
_symmetry_space_group_name_H-M   'P 1'
_cell_length_a   15.36610000
_cell_length_b   15.36610000
_cell_length_c   15.36610000
_cell_angle_alpha   60.00000000
_cell_angle_beta   60.00000000
_cell_angle_gamma   60.00000000
_symmetry_Int_Tables_number   1
_chemical_formula_structural   Co2H3C9N9Cl2
_chemical_formula_sum   'Co8 H12 C36 N36 Cl8'
_cell_volume   2565.52332623
_cell_formula_units_Z   4
loop_
 _symmetry_equiv_pos_site_id
 _symmetry_equiv_pos_as_xyz
  1  'x, y, z'
loop_
 _atom_site_type_symbol
 _atom_site_label
 _atom_site_symmetry_multiplicity
 _atom_site_fract_x
 _atom_site_fract_y
 _atom_site_fract_z
 _atom_site_occupancy
 _atom_site_charge
  Co  Co1  1  0.023300  0.658900  0.658900  1.0  0.7604
  Co  Co2  1  0.658900  0.023300  0.658900  1.0  0.7608
  Co  Co3  1  0.658900  0.658900  0.023300  1.0  0.7629
  Co  Co4  1  0.658900  0.658900  0.658900  1.0  0.7632
  Co  Co5  1  0.341100  0.976700  0.341100  1.0  0.7606
  Co  Co6  1  0.976700  0.341100  0.341100  1.0  0.7611
  Co  Co7  1  0.341100  0.341100  0.976700  1.0  0.7625
  Co  Co8  1  0.341100  0.341100  0.341100  1.0  0.7629
  H  H9  1  0.160400  0.839600  0.500000  1.0  0.1415
  H  H10  1  0.839600  0.160400  0.500000  1.0  0.1415
  H  H11  1  0.500000  0.500000  0.160400  1.0  0.139
  H  H12  1  0.500000  0.500000  0.839600  1.0  0.1387
  H  H13  1  0.160400  0.500000  0.500000  1.0  0.1409
  H  H14  1  0.839600  0.500000  0.500000  1.0  0.1406
  H  H15  1  0.500000  0.160400  0.839600  1.0  0.1421
  H  H16  1  0.500000  0.839600  0.160400  1.0  0.1428
  H  H17  1  0.160400  0.500000  0.839600  1.0  0.1405
  H  H18  1  0.839600  0.500000  0.160400  1.0  0.1411
  H  H19  1  0.500000  0.839600  0.500000  1.0  0.1422
  H  H20  1  0.500000  0.160400  0.500000  1.0  0.1426
  C  C21  1  0.995600  0.899200  0.552600  1.0  0.1269
  C  C22  1  0.899200  0.995600  0.552600  1.0  0.1271
  C  C23  1  0.552600  0.552600  0.995600  1.0  0.1279
  C  C24  1  0.552600  0.552600  0.899200  1.0  0.1295
  C  C25  1  0.995600  0.552600  0.552600  1.0  0.1278
  C  C26  1  0.899200  0.552600  0.552600  1.0  0.1264
  C  C27  1  0.552600  0.995600  0.899200  1.0  0.128
  C  C28  1  0.552600  0.899200  0.995600  1.0  0.1266
  C  C29  1  0.995600  0.552600  0.899200  1.0  0.1278
  C  C30  1  0.899200  0.552600  0.995600  1.0  0.1264
  C  C31  1  0.552600  0.899200  0.552600  1.0  0.1266
  C  C32  1  0.552600  0.995600  0.552600  1.0  0.1275
  C  C33  1  0.100800  0.004400  0.447400  1.0  0.1263
  C  C34  1  0.004400  0.100800  0.447400  1.0  0.127
  C  C35  1  0.447400  0.447400  0.004400  1.0  0.1293
  C  C36  1  0.447400  0.447400  0.100800  1.0  0.128
  C  C37  1  0.447400  0.004400  0.447400  1.0  0.1278
  C  C38  1  0.447400  0.100800  0.447400  1.0  0.1269
  C  C39  1  0.004400  0.447400  0.100800  1.0  0.1275
  C  C40  1  0.100800  0.447400  0.004400  1.0  0.1261
  C  C41  1  0.447400  0.004400  0.100800  1.0  0.1276
  C  C42  1  0.447400  0.100800  0.004400  1.0  0.1265
  C  C43  1  0.100800  0.447400  0.447400  1.0  0.1264
  C  C44  1  0.004400  0.447400  0.447400  1.0  0.1277
  C  C45  1  0.099800  0.900200  0.500000  1.0  -0.163
  C  C46  1  0.900200  0.099800  0.500000  1.0  -0.1633
  C  C47  1  0.500000  0.500000  0.099800  1.0  -0.1622
  C  C48  1  0.500000  0.500000  0.900200  1.0  -0.1608
  C  C49  1  0.099800  0.500000  0.500000  1.0  -0.1628
  C  C50  1  0.900200  0.500000  0.500000  1.0  -0.1648
  C  C51  1  0.500000  0.099800  0.900200  1.0  -0.1644
  C  C52  1  0.500000  0.900200  0.099800  1.0  -0.1663
  C  C53  1  0.099800  0.500000  0.900200  1.0  -0.1636
  C  C54  1  0.900200  0.500000  0.099800  1.0  -0.1646
  C  C55  1  0.500000  0.900200  0.500000  1.0  -0.1671
  C  C56  1  0.500000  0.099800  0.500000  1.0  -0.1645
  N  N57  1  0.960300  0.815100  0.612300  1.0  -0.183
  N  N58  1  0.815100  0.960300  0.612300  1.0  -0.1826
  N  N59  1  0.612300  0.612300  0.960300  1.0  -0.1808
  N  N60  1  0.612300  0.612300  0.815100  1.0  -0.1804
  N  N61  1  0.960300  0.612300  0.612300  1.0  -0.1821
  N  N62  1  0.815100  0.612300  0.612300  1.0  -0.1817
  N  N63  1  0.612300  0.960300  0.815100  1.0  -0.1815
  N  N64  1  0.612300  0.815100  0.960300  1.0  -0.1842
  N  N65  1  0.960300  0.612300  0.815100  1.0  -0.1819
  N  N66  1  0.815100  0.612300  0.960300  1.0  -0.1827
  N  N67  1  0.612300  0.815100  0.612300  1.0  -0.1833
  N  N68  1  0.612300  0.960300  0.612300  1.0  -0.1815
  N  N69  1  0.184900  0.039700  0.387700  1.0  -0.1819
  N  N70  1  0.039700  0.184900  0.387700  1.0  -0.1843
  N  N71  1  0.387700  0.387700  0.039700  1.0  -0.1811
  N  N72  1  0.387700  0.387700  0.184900  1.0  -0.1815
  N  N73  1  0.387700  0.039700  0.387700  1.0  -0.1808
  N  N74  1  0.387700  0.184900  0.387700  1.0  -0.1842
  N  N75  1  0.039700  0.387700  0.184900  1.0  -0.1825
  N  N76  1  0.184900  0.387700  0.039700  1.0  -0.1835
  N  N77  1  0.387700  0.039700  0.184900  1.0  -0.181
  N  N78  1  0.387700  0.184900  0.039700  1.0  -0.1837
  N  N79  1  0.184900  0.387700  0.387700  1.0  -0.1842
  N  N80  1  0.039700  0.387700  0.387700  1.0  -0.1822
  N  N81  1  0.855360  0.855360  0.644640  1.0  -0.1352
  N  N82  1  0.644640  0.644640  0.855360  1.0  -0.1342
  N  N83  1  0.855360  0.644640  0.644640  1.0  -0.1351
  N  N84  1  0.644640  0.855360  0.855360  1.0  -0.133
  N  N85  1  0.855360  0.644640  0.855360  1.0  -0.1341
  N  N86  1  0.644640  0.855360  0.644640  1.0  -0.1344
  N  N87  1  0.144640  0.144640  0.355360  1.0  -0.1342
  N  N88  1  0.355360  0.355360  0.144640  1.0  -0.1352
  N  N89  1  0.355360  0.144640  0.355360  1.0  -0.1341
  N  N90  1  0.144640  0.355360  0.144640  1.0  -0.1344
  N  N91  1  0.355360  0.144640  0.144640  1.0  -0.1351
  N  N92  1  0.144640  0.355360  0.355360  1.0  -0.133
  Cl  Cl93  1  0.183800  0.605400  0.605400  1.0  -0.3593
  Cl  Cl94  1  0.605400  0.183800  0.605400  1.0  -0.3629
  Cl  Cl95  1  0.605400  0.605400  0.183800  1.0  -0.3614
  Cl  Cl96  1  0.605400  0.605400  0.605400  1.0  -0.3597
  Cl  Cl97  1  0.394600  0.816200  0.394600  1.0  -0.3604
  Cl  Cl98  1  0.816200  0.394600  0.394600  1.0  -0.3609
  Cl  Cl99  1  0.394600  0.394600  0.816200  1.0  -0.3604
  Cl  Cl100  1  0.394600  0.394600  0.394600  1.0  -0.3624
