# generated using pymatgen
data_CuH12C20N6(OF)4
_symmetry_space_group_name_H-M   'P 1'
_cell_length_a   9.63600000
_cell_length_b   9.88500000
_cell_length_c   24.55500000
_cell_angle_alpha   90.00000000
_cell_angle_beta   111.47900000
_cell_angle_gamma   90.00000000
_symmetry_Int_Tables_number   1
_chemical_formula_structural   CuH12C20N6(OF)4
_chemical_formula_sum   'Cu4 H48 C80 N24 O16 F16'
_cell_volume   2176.47645529
_cell_formula_units_Z   4
loop_
 _symmetry_equiv_pos_site_id
 _symmetry_equiv_pos_as_xyz
  1  'x, y, z'
loop_
 _atom_site_type_symbol
 _atom_site_label
 _atom_site_symmetry_multiplicity
 _atom_site_fract_x
 _atom_site_fract_y
 _atom_site_fract_z
 _atom_site_occupancy
 _atom_site_charge
  Cu  Cu1  1  0.202610  0.457910  0.758540  1.0  0.9034
  Cu  Cu2  1  0.797390  0.957910  0.741460  1.0  0.9017
  Cu  Cu3  1  0.797390  0.542090  0.241460  1.0  0.9017
  Cu  Cu4  1  0.202610  0.042090  0.258540  1.0  0.9034
  H  H5  1  0.442900  0.503300  0.887100  1.0  0.0707
  H  H6  1  0.197400  0.774800  0.782600  1.0  0.0937
  H  H7  1  0.267100  0.977500  0.860300  1.0  0.1036
  H  H8  1  0.425000  0.978700  0.855600  1.0  0.1102
  H  H9  1  0.318600  0.383800  0.659700  1.0  0.078
  H  H10  1  0.077600  0.153200  0.718000  1.0  0.1019
  H  H11  1  0.029000  0.957000  0.640200  1.0  0.1079
  H  H12  1  0.191500  0.928100  0.642800  1.0  0.119
  H  H13  1  0.645800  0.806400  0.536700  1.0  0.1044
  H  H14  1  0.730700  0.753900  0.462200  1.0  0.0929
  H  H15  1  0.959700  0.650300  0.484400  1.0  0.0854
  H  H16  1  0.097600  0.588700  0.579100  1.0  0.0914
  H  H17  1  0.557100  0.003300  0.612900  1.0  0.0707
  H  H18  1  0.802600  0.274800  0.717400  1.0  0.0935
  H  H19  1  0.732900  0.477500  0.639700  1.0  0.1029
  H  H20  1  0.575000  0.478700  0.644400  1.0  0.1115
  H  H21  1  0.681400  0.883800  0.840300  1.0  0.0769
  H  H22  1  0.922400  0.653200  0.782000  1.0  0.1023
  H  H23  1  0.971000  0.457000  0.859800  1.0  0.1102
  H  H24  1  0.808500  0.428100  0.857200  1.0  0.1195
  H  H25  1  0.354200  0.306400  0.963300  1.0  0.105
  H  H26  1  0.269300  0.253900  0.037800  1.0  0.093
  H  H27  1  0.040300  0.150300  0.015600  1.0  0.0852
  H  H28  1  0.902400  0.088700  0.920900  1.0  0.0917
  H  H29  1  0.557100  0.496700  0.112900  1.0  0.0697
  H  H30  1  0.802600  0.225200  0.217400  1.0  0.0939
  H  H31  1  0.732900  0.022500  0.139700  1.0  0.103
  H  H32  1  0.575000  0.021300  0.144400  1.0  0.1119
  H  H33  1  0.681400  0.616200  0.340300  1.0  0.0765
  H  H34  1  0.922400  0.846800  0.282000  1.0  0.1027
  H  H35  1  0.971000  0.043000  0.359800  1.0  0.1103
  H  H36  1  0.808500  0.071900  0.357200  1.0  0.1198
  H  H37  1  0.354200  0.193600  0.463300  1.0  0.105
  H  H38  1  0.269300  0.246100  0.537800  1.0  0.0934
  H  H39  1  0.040300  0.349700  0.515600  1.0  0.0853
  H  H40  1  0.902400  0.411300  0.420900  1.0  0.0915
  H  H41  1  0.442900  0.996700  0.387100  1.0  0.0675
  H  H42  1  0.197400  0.725200  0.282600  1.0  0.0937
  H  H43  1  0.267100  0.522500  0.360300  1.0  0.1038
  H  H44  1  0.425000  0.521300  0.355600  1.0  0.1103
  H  H45  1  0.318600  0.116200  0.159700  1.0  0.0775
  H  H46  1  0.077600  0.346800  0.218000  1.0  0.1018
  H  H47  1  0.029000  0.543000  0.140200  1.0  0.1079
  H  H48  1  0.191500  0.571900  0.142800  1.0  0.1192
  H  H49  1  0.645800  0.693600  0.036700  1.0  0.1047
  H  H50  1  0.730700  0.746100  0.962200  1.0  0.0927
  H  H51  1  0.959700  0.849700  0.984400  1.0  0.0853
  H  H52  1  0.097600  0.911300  0.079100  1.0  0.0911
  C  C53  1  0.401200  0.586300  0.871910  1.0  0.2443
  C  C54  1  0.267000  0.731400  0.814590  1.0  0.1374
  C  C55  1  0.365700  0.937200  0.875500  1.0  -0.0663
  C  C56  1  0.435500  0.966200  0.939370  1.0  0.0361
  C  C57  1  0.570000  0.033100  0.962950  1.0  0.245
  C  C58  1  0.632000  0.065900  0.021120  1.0  0.225
  C  C59  1  0.263400  0.310600  0.664360  1.0  0.2716
  C  C60  1  0.131800  0.187600  0.696560  1.0  0.1478
  C  C61  1  0.108000  0.990300  0.628210  1.0  -0.095
  C  C62  1  0.053100  0.995600  0.561860  1.0  0.0151
  C  C63  1  0.914200  0.044700  0.529330  1.0  0.2186
  C  C64  1  0.138700  0.950900  0.531020  1.0  0.2239
  C  C65  1  0.037300  0.601700  0.675090  1.0  0.6362
  C  C66  1  0.955700  0.661300  0.615860  1.0  -0.109
  C  C67  1  0.820900  0.729900  0.603180  1.0  -0.0971
  C  C68  1  0.737100  0.763000  0.545500  1.0  -0.0599
  C  C69  1  0.787900  0.732000  0.500790  1.0  -0.1157
  C  C70  1  0.923900  0.668700  0.513980  1.0  -0.0964
  C  C71  1  0.006700  0.632600  0.570700  1.0  -0.0421
  C  C72  1  0.765400  0.779900  0.649420  1.0  0.6681
  C  C73  1  0.598800  0.086300  0.628090  1.0  0.2438
  C  C74  1  0.733000  0.231400  0.685410  1.0  0.1379
  C  C75  1  0.634300  0.437200  0.624500  1.0  -0.065
  C  C76  1  0.564500  0.466200  0.560630  1.0  0.0366
  C  C77  1  0.430000  0.533100  0.537050  1.0  0.2424
  C  C78  1  0.368000  0.565900  0.478880  1.0  0.2235
  C  C79  1  0.736600  0.810600  0.835640  1.0  0.2705
  C  C80  1  0.868200  0.687600  0.803440  1.0  0.1478
  C  C81  1  0.892000  0.490300  0.871790  1.0  -0.0955
  C  C82  1  0.946900  0.495600  0.938140  1.0  0.0148
  C  C83  1  0.085800  0.544700  0.970670  1.0  0.2177
  C  C84  1  0.861300  0.450900  0.968980  1.0  0.2239
  C  C85  1  0.962700  0.101700  0.824910  1.0  0.6357
  C  C86  1  0.044300  0.161300  0.884140  1.0  -0.1065
  C  C87  1  0.179100  0.229900  0.896820  1.0  -0.0969
  C  C88  1  0.262900  0.263000  0.954500  1.0  -0.0607
  C  C89  1  0.212100  0.232000  0.999210  1.0  -0.1188
  C  C90  1  0.076100  0.168700  0.986020  1.0  -0.0961
  C  C91  1  0.993300  0.132600  0.929300  1.0  -0.0402
  C  C92  1  0.234600  0.279900  0.850580  1.0  0.6695
  C  C93  1  0.598800  0.413700  0.128090  1.0  0.2441
  C  C94  1  0.733000  0.268600  0.185410  1.0  0.1385
  C  C95  1  0.634300  0.062800  0.124500  1.0  -0.0646
  C  C96  1  0.564500  0.033800  0.060630  1.0  0.0368
  C  C97  1  0.430000  0.966900  0.037050  1.0  0.249
  C  C98  1  0.368000  0.934100  0.978880  1.0  0.2231
  C  C99  1  0.736600  0.689400  0.335640  1.0  0.2722
  C  C100  1  0.868200  0.812400  0.303440  1.0  0.1476
  C  C101  1  0.892000  0.009700  0.371790  1.0  -0.0943
  C  C102  1  0.946900  0.004400  0.438140  1.0  0.0148
  C  C103  1  0.085800  0.955300  0.470670  1.0  0.2171
  C  C104  1  0.861300  0.049100  0.468980  1.0  0.2249
  C  C105  1  0.962700  0.398300  0.324910  1.0  0.6359
  C  C106  1  0.044300  0.338700  0.384140  1.0  -0.1065
  C  C107  1  0.179100  0.270100  0.396820  1.0  -0.0963
  C  C108  1  0.262900  0.237000  0.454500  1.0  -0.0596
  C  C109  1  0.212100  0.268000  0.499210  1.0  -0.1144
  C  C110  1  0.076100  0.331300  0.486020  1.0  -0.0965
  C  C111  1  0.993300  0.367400  0.429300  1.0  -0.0409
  C  C112  1  0.234600  0.220100  0.350580  1.0  0.6696
  C  C113  1  0.401200  0.913700  0.371910  1.0  0.2439
  C  C114  1  0.267000  0.768600  0.314590  1.0  0.1379
  C  C115  1  0.365700  0.562800  0.375500  1.0  -0.0659
  C  C116  1  0.435500  0.533800  0.439370  1.0  0.0362
  C  C117  1  0.570000  0.466900  0.462950  1.0  0.2452
  C  C118  1  0.632000  0.434100  0.521120  1.0  0.2243
  C  C119  1  0.263400  0.189400  0.164360  1.0  0.2743
  C  C120  1  0.131800  0.312400  0.196560  1.0  0.1478
  C  C121  1  0.108000  0.509700  0.128210  1.0  -0.0946
  C  C122  1  0.053100  0.504400  0.061860  1.0  0.0152
  C  C123  1  0.914200  0.455300  0.029330  1.0  0.2177
  C  C124  1  0.138700  0.549100  0.031020  1.0  0.2249
  C  C125  1  0.037300  0.898300  0.175090  1.0  0.6364
  C  C126  1  0.955700  0.838700  0.115860  1.0  -0.109
  C  C127  1  0.820900  0.770100  0.103180  1.0  -0.0964
  C  C128  1  0.737100  0.737000  0.045500  1.0  -0.0678
  C  C129  1  0.787900  0.768000  0.000790  1.0  -0.1156
  C  C130  1  0.923900  0.831300  0.013980  1.0  -0.0965
  C  C131  1  0.006700  0.867400  0.070700  1.0  -0.0422
  C  C132  1  0.765400  0.720100  0.149420  1.0  0.668
  N  N133  1  0.294100  0.600200  0.818250  1.0  -0.4162
  N  N134  1  0.440900  0.699800  0.900420  1.0  -0.38
  N  N135  1  0.353100  0.792100  0.862960  1.0  0.1606
  N  N136  1  0.197500  0.306900  0.704840  1.0  -0.4423
  N  N137  1  0.241000  0.200800  0.632740  1.0  -0.3753
  N  N138  1  0.154600  0.124400  0.653190  1.0  0.1704
  N  N139  1  0.705900  0.100200  0.681750  1.0  -0.4154
  N  N140  1  0.559100  0.199800  0.599580  1.0  -0.3808
  N  N141  1  0.646900  0.292100  0.637040  1.0  0.1496
  N  N142  1  0.802500  0.806900  0.795160  1.0  -0.4432
  N  N143  1  0.759000  0.700800  0.867260  1.0  -0.3754
  N  N144  1  0.845400  0.624400  0.846810  1.0  0.1715
  N  N145  1  0.705900  0.399800  0.181750  1.0  -0.4158
  N  N146  1  0.559100  0.300200  0.099580  1.0  -0.3789
  N  N147  1  0.646900  0.207900  0.137040  1.0  0.1503
  N  N148  1  0.802500  0.693100  0.295160  1.0  -0.4449
  N  N149  1  0.759000  0.799200  0.367260  1.0  -0.3753
  N  N150  1  0.845400  0.875600  0.346810  1.0  0.1709
  N  N151  1  0.294100  0.899800  0.318250  1.0  -0.4157
  N  N152  1  0.440900  0.800200  0.400420  1.0  -0.3703
  N  N153  1  0.353100  0.707900  0.362960  1.0  0.1605
  N  N154  1  0.197500  0.193100  0.204840  1.0  -0.4439
  N  N155  1  0.241000  0.299200  0.132740  1.0  -0.3753
  N  N156  1  0.154600  0.375600  0.153190  1.0  0.1703
  O  O157  1  0.965400  0.559000  0.704480  1.0  -0.6082
  O  O158  1  0.179100  0.587200  0.692340  1.0  -0.5932
  O  O159  1  0.861400  0.850300  0.689460  1.0  -0.6147
  O  O160  1  0.635800  0.761100  0.644290  1.0  -0.5805
  O  O161  1  0.034600  0.059000  0.795520  1.0  -0.608
  O  O162  1  0.820900  0.087200  0.807660  1.0  -0.5945
  O  O163  1  0.138600  0.350300  0.810540  1.0  -0.6152
  O  O164  1  0.364200  0.261100  0.855710  1.0  -0.58
  O  O165  1  0.034600  0.441000  0.295520  1.0  -0.6076
  O  O166  1  0.820900  0.412800  0.307660  1.0  -0.5949
  O  O167  1  0.138600  0.149700  0.310540  1.0  -0.6152
  O  O168  1  0.364200  0.238900  0.355710  1.0  -0.5801
  O  O169  1  0.965400  0.941000  0.204480  1.0  -0.608
  O  O170  1  0.179100  0.912800  0.192340  1.0  -0.5938
  O  O171  1  0.861400  0.649700  0.189460  1.0  -0.6136
  O  O172  1  0.635800  0.738900  0.144290  1.0  -0.5808
  F  F173  1  0.645000  0.065700  0.927810  1.0  -0.1936
  F  F174  1  0.766100  0.128500  0.041400  1.0  -0.2058
  F  F175  1  0.824300  0.088100  0.556980  1.0  -0.1612
  F  F176  1  0.276300  0.902600  0.559870  1.0  -0.2044
  F  F177  1  0.355000  0.565700  0.572190  1.0  -0.1952
  F  F178  1  0.233900  0.628500  0.458600  1.0  -0.2106
  F  F179  1  0.175700  0.588100  0.943020  1.0  -0.1609
  F  F180  1  0.723700  0.402600  0.940130  1.0  -0.2051
  F  F181  1  0.355000  0.934300  0.072190  1.0  -0.194
  F  F182  1  0.233900  0.871500  0.958600  1.0  -0.212
  F  F183  1  0.175700  0.911900  0.443020  1.0  -0.1615
  F  F184  1  0.723700  0.097400  0.440130  1.0  -0.2044
  F  F185  1  0.645000  0.434300  0.427810  1.0  -0.1934
  F  F186  1  0.766100  0.371500  0.541400  1.0  -0.2068
  F  F187  1  0.824300  0.411900  0.056980  1.0  -0.1607
  F  F188  1  0.276300  0.597400  0.059870  1.0  -0.2035
