# generated using pymatgen
data_CuH4C9(NO2)2
_symmetry_space_group_name_H-M   'P 1'
_cell_length_a   26.77780000
_cell_length_b   26.77780000
_cell_length_c   26.77780000
_cell_angle_alpha   60.20310000
_cell_angle_beta   89.64790000
_cell_angle_gamma   119.79700000
_symmetry_Int_Tables_number   1
_chemical_formula_structural   CuH4C9(NO2)2
_chemical_formula_sum   'Cu24 H96 C216 N48 O96'
_cell_volume   13618.56917405
_cell_formula_units_Z   24
loop_
 _symmetry_equiv_pos_site_id
 _symmetry_equiv_pos_as_xyz
  1  'x, y, z'
loop_
 _atom_site_type_symbol
 _atom_site_label
 _atom_site_symmetry_multiplicity
 _atom_site_fract_x
 _atom_site_fract_y
 _atom_site_fract_z
 _atom_site_occupancy
 _atom_site_charge
  Cu  Cu1  1  0.768410  0.295300  0.181550  1.0  0.9233
  Cu  Cu2  1  0.858740  0.390500  0.076040  1.0  0.9103
  Cu  Cu3  1  0.523150  0.704700  0.526890  1.0  0.9254
  Cu  Cu4  1  0.533460  0.609500  0.531760  1.0  0.9091
  Cu  Cu5  1  0.473110  0.949960  0.231590  1.0  0.9197
  Cu  Cu6  1  0.468240  0.934780  0.141260  1.0  0.9059
  Cu  Cu7  1  0.818450  0.050040  0.476850  1.0  0.9169
  Cu  Cu8  1  0.923960  0.065220  0.466540  1.0  0.9104
  Cu  Cu9  1  0.231590  0.704700  0.818450  1.0  0.9226
  Cu  Cu10  1  0.141260  0.609500  0.923960  1.0  0.9099
  Cu  Cu11  1  0.476850  0.295300  0.473110  1.0  0.9235
  Cu  Cu12  1  0.466540  0.390500  0.468240  1.0  0.911
  Cu  Cu13  1  0.526890  0.050040  0.768410  1.0  0.9177
  Cu  Cu14  1  0.531760  0.065220  0.858740  1.0  0.906
  Cu  Cu15  1  0.181550  0.949960  0.523150  1.0  0.9168
  Cu  Cu16  1  0.076040  0.934780  0.533460  1.0  0.9091
  Cu  Cu17  1  0.794720  0.342180  0.452540  1.0  0.9098
  Cu  Cu18  1  0.891660  0.453730  0.437930  1.0  0.9135
  Cu  Cu19  1  0.205280  0.657820  0.547460  1.0  0.909
  Cu  Cu20  1  0.108340  0.546270  0.562070  1.0  0.9137
  Cu  Cu21  1  0.452540  0.247260  0.205280  1.0  0.9076
  Cu  Cu22  1  0.437930  0.329590  0.108340  1.0  0.9203
  Cu  Cu23  1  0.547460  0.752740  0.794720  1.0  0.9086
  Cu  Cu24  1  0.562070  0.670410  0.891660  1.0  0.9189
  H  H25  1  0.059700  0.635000  0.097500  1.0  0.3086
  H  H26  1  0.288100  0.808700  0.074200  1.0  0.2736
  H  H27  1  0.114800  0.627200  0.292200  1.0  0.2665
  H  H28  1  0.992300  0.563000  0.249100  1.0  0.1137
  H  H29  1  0.835100  0.401500  0.270200  1.0  0.1147
  H  H30  1  0.976000  0.537000  0.113400  1.0  0.1186
  H  H31  1  0.206400  0.718900  0.012100  1.0  0.1103
  H  H32  1  0.340900  0.860500  0.849600  1.0  0.1053
  H  H33  1  0.354800  0.895600  0.978800  1.0  0.1175
  H  H34  1  0.269500  0.769900  0.209800  1.0  0.102
  H  H35  1  0.300600  0.769100  0.357700  1.0  0.118
  H  H36  1  0.135600  0.624800  0.372800  1.0  0.1101
  H  H37  1  0.267500  0.365000  0.575300  1.0  0.3103
  H  H38  1  0.117100  0.191300  0.520600  1.0  0.2729
  H  H39  1  0.080600  0.372800  0.512400  1.0  0.2643
  H  H40  1  0.187900  0.437000  0.570700  1.0  0.112
  H  H41  1  0.328300  0.598500  0.566400  1.0  0.115
  H  H42  1  0.349600  0.463000  0.561000  1.0  0.1176
  H  H43  1  0.269000  0.281100  0.512500  1.0  0.1099
  H  H44  1  0.289900  0.139500  0.519600  1.0  0.105
  H  H45  1  0.125600  0.104400  0.540800  1.0  0.1155
  H  H46  1  0.020300  0.230100  0.500400  1.0  0.1013
  H  H47  1  0.873200  0.230900  0.468500  1.0  0.1172
  H  H48  1  0.002400  0.375200  0.489200  1.0  0.112
  H  H49  1  0.424700  0.157200  0.940300  1.0  0.3098
  H  H50  1  0.479400  0.362300  0.711900  1.0  0.2726
  H  H51  1  0.487600  0.407000  0.885200  1.0  0.2661
  H  H52  1  0.429300  0.241400  0.007700  1.0  0.1112
  H  H53  1  0.433600  0.105300  0.164900  1.0  0.1146
  H  H54  1  0.439000  0.089400  0.024000  1.0  0.1196
  H  H55  1  0.487500  0.218500  0.793600  1.0  0.1104
  H  H56  1  0.480400  0.190500  0.659100  1.0  0.106
  H  H57  1  0.459200  0.333600  0.645200  1.0  0.1158
  H  H58  1  0.499600  0.479300  0.730500  1.0  0.1026
  H  H59  1  0.531500  0.658300  0.699400  1.0  0.1173
  H  H60  1  0.510800  0.508400  0.864400  1.0  0.1105
  H  H61  1  0.902500  0.842800  0.732500  1.0  0.3097
  H  H62  1  0.925800  0.637700  0.882900  1.0  0.2717
  H  H63  1  0.707800  0.593000  0.919400  1.0  0.265
  H  H64  1  0.750900  0.758600  0.812100  1.0  0.1119
  H  H65  1  0.729800  0.894700  0.671700  1.0  0.115
  H  H66  1  0.886600  0.910600  0.650400  1.0  0.1186
  H  H67  1  0.987900  0.781500  0.731000  1.0  0.1098
  H  H68  1  0.150400  0.809500  0.710100  1.0  0.1044
  H  H69  1  0.021200  0.666400  0.874400  1.0  0.1172
  H  H70  1  0.790200  0.520700  0.979700  1.0  0.1017
  H  H71  1  0.642300  0.341700  0.126800  1.0  0.1179
  H  H72  1  0.627200  0.491600  0.997600  1.0  0.1109
  H  H73  1  0.940300  0.365000  0.902500  1.0  0.307
  H  H74  1  0.711900  0.191300  0.925800  1.0  0.2728
  H  H75  1  0.885200  0.372800  0.707800  1.0  0.2645
  H  H76  1  0.007700  0.437000  0.750900  1.0  0.1136
  H  H77  1  0.164900  0.598500  0.729800  1.0  0.1147
  H  H78  1  0.024000  0.463000  0.886600  1.0  0.1184
  H  H79  1  0.793600  0.281100  0.987900  1.0  0.1103
  H  H80  1  0.659100  0.139500  0.150400  1.0  0.1054
  H  H81  1  0.645200  0.104400  0.021200  1.0  0.1173
  H  H82  1  0.730500  0.230100  0.790200  1.0  0.1026
  H  H83  1  0.699400  0.230900  0.642300  1.0  0.1173
  H  H84  1  0.864400  0.375200  0.627200  1.0  0.1096
  H  H85  1  0.732500  0.635000  0.424700  1.0  0.3125
  H  H86  1  0.882900  0.808700  0.479400  1.0  0.2725
  H  H87  1  0.919400  0.627200  0.487600  1.0  0.2657
  H  H88  1  0.812100  0.563000  0.429300  1.0  0.1126
  H  H89  1  0.671700  0.401500  0.433600  1.0  0.1144
  H  H90  1  0.650400  0.537000  0.439000  1.0  0.1172
  H  H91  1  0.731000  0.718900  0.487500  1.0  0.1099
  H  H92  1  0.710100  0.860500  0.480400  1.0  0.1052
  H  H93  1  0.874400  0.895600  0.459200  1.0  0.1156
  H  H94  1  0.979700  0.769900  0.499600  1.0  0.1006
  H  H95  1  0.126800  0.769100  0.531500  1.0  0.1178
  H  H96  1  0.997600  0.624800  0.510800  1.0  0.1124
  H  H97  1  0.575300  0.842800  0.059700  1.0  0.3111
  H  H98  1  0.520600  0.637700  0.288100  1.0  0.2717
  H  H99  1  0.512400  0.593000  0.114800  1.0  0.2655
  H  H100  1  0.570700  0.758600  0.992300  1.0  0.1107
  H  H101  1  0.566400  0.894700  0.835100  1.0  0.1145
  H  H102  1  0.561000  0.910600  0.976000  1.0  0.1191
  H  H103  1  0.512500  0.781500  0.206400  1.0  0.1107
  H  H104  1  0.519600  0.809500  0.340900  1.0  0.1063
  H  H105  1  0.540800  0.666400  0.354800  1.0  0.1157
  H  H106  1  0.500400  0.520700  0.269500  1.0  0.1025
  H  H107  1  0.468500  0.341700  0.300600  1.0  0.1179
  H  H108  1  0.489200  0.491600  0.135600  1.0  0.1103
  H  H109  1  0.097500  0.157200  0.267500  1.0  0.3092
  H  H110  1  0.074200  0.362300  0.117100  1.0  0.2721
  H  H111  1  0.292200  0.407000  0.080600  1.0  0.2628
  H  H112  1  0.249100  0.241400  0.187900  1.0  0.1113
  H  H113  1  0.270200  0.105300  0.328300  1.0  0.1148
  H  H114  1  0.113400  0.089400  0.349600  1.0  0.1179
  H  H115  1  0.012100  0.218500  0.269000  1.0  0.1098
  H  H116  1  0.849600  0.190500  0.289900  1.0  0.1046
  H  H117  1  0.978800  0.333600  0.125600  1.0  0.1173
  H  H118  1  0.209800  0.479300  0.020300  1.0  0.1016
  H  H119  1  0.357700  0.658300  0.873200  1.0  0.1173
  H  H120  1  0.372800  0.508400  0.002400  1.0  0.1111
  C  C121  1  0.104600  0.653600  0.147000  1.0  0.5989
  C  C122  1  0.204260  0.736200  0.108940  1.0  0.511
  C  C123  1  0.153340  0.676500  0.207960  1.0  0.5883
  C  C124  1  0.994710  0.558920  0.175610  1.0  0.2142
  C  C125  1  0.969440  0.537710  0.233870  1.0  -0.0183
  C  C126  1  0.910060  0.478720  0.269080  1.0  -0.1487
  C  C127  1  0.875060  0.441010  0.246430  1.0  0.041
  C  C128  1  0.900310  0.462900  0.188250  1.0  -0.1651
  C  C129  1  0.959590  0.522010  0.152820  1.0  -0.1032
  C  C130  1  0.883610  0.452260  0.333790  1.0  0.682
  C  C131  1  0.865760  0.421140  0.164500  1.0  0.6914
  C  C132  1  0.277010  0.803400  0.005390  1.0  0.2228
  C  C133  1  0.244290  0.761190  0.986100  1.0  -0.0131
  C  C134  1  0.268730  0.782580  0.927010  1.0  -0.1569
  C  C135  1  0.324780  0.845850  0.888930  1.0  0.0179
  C  C136  1  0.357200  0.887520  0.908240  1.0  -0.1667
  C  C137  1  0.333150  0.866820  0.966070  1.0  -0.1303
  C  C138  1  0.235670  0.735300  0.907170  1.0  0.6855
  C  C139  1  0.419770  0.953760  0.869210  1.0  0.6711
  C  C140  1  0.195720  0.692740  0.286820  1.0  0.1866
  C  C141  1  0.255590  0.750590  0.251200  1.0  -0.0239
  C  C142  1  0.294760  0.779650  0.277250  1.0  -0.1454
  C  C143  1  0.274530  0.749830  0.340060  1.0  0.0182
  C  C144  1  0.214710  0.690920  0.375290  1.0  -0.1558
  C  C145  1  0.175800  0.663470  0.348870  1.0  -0.0972
  C  C146  1  0.359430  0.840190  0.241240  1.0  0.6899
  C  C147  1  0.194000  0.658700  0.441760  1.0  0.6776
  C  C148  1  0.199400  0.346400  0.549000  1.0  0.5837
  C  C149  1  0.154860  0.263800  0.531940  1.0  0.513
  C  C150  1  0.115540  0.323500  0.523160  1.0  0.5887
  C  C151  1  0.265470  0.441080  0.564210  1.0  0.2133
  C  C152  1  0.228420  0.462290  0.568270  1.0  -0.0141
  C  C153  1  0.252200  0.521280  0.568660  1.0  -0.147
  C  C154  1  0.312560  0.558990  0.565950  1.0  0.0497
  C  C155  1  0.348850  0.537100  0.562590  1.0  -0.164
  C  C156  1  0.325170  0.477990  0.562420  1.0  -0.105
  C  C157  1  0.213950  0.547740  0.568650  1.0  0.682
  C  C158  1  0.414360  0.578860  0.555380  1.0  0.6901
  C  C159  1  0.191210  0.196600  0.526390  1.0  0.2266
  C  C160  1  0.252710  0.238810  0.516900  1.0  -0.0128
  C  C161  1  0.290410  0.217420  0.513850  1.0  -0.1564
  C  C162  1  0.265220  0.154150  0.521070  1.0  0.018
  C  C163  1  0.204240  0.112480  0.530320  1.0  -0.1678
  C  C164  1  0.167110  0.133180  0.533670  1.0  -0.1331
  C  C165  1  0.357530  0.264700  0.499630  1.0  0.6857
  C  C166  1  0.177030  0.046240  0.533990  1.0  0.6707
  C  C167  1  0.020440  0.307260  0.497020  1.0  0.1776
  C  C168  1  0.998210  0.249410  0.495000  1.0  -0.0263
  C  C169  1  0.943100  0.220350  0.484890  1.0  -0.1438
  C  C170  1  0.910110  0.250170  0.475300  1.0  0.0193
  C  C171  1  0.933790  0.309080  0.476210  1.0  -0.1515
  C  C172  1  0.987660  0.336530  0.487670  1.0  -0.0962
  C  C173  1  0.918570  0.159810  0.480760  1.0  0.6897
  C  C174  1  0.899540  0.341300  0.464700  1.0  0.6746
  C  C175  1  0.451000  0.251600  0.895400  1.0  0.6011
  C  C176  1  0.468060  0.313200  0.795740  1.0  0.5115
  C  C177  1  0.476840  0.361300  0.846660  1.0  0.5866
  C  C178  1  0.435790  0.170320  0.005290  1.0  0.2141
  C  C179  1  0.431730  0.203310  0.030560  1.0  -0.0136
  C  C180  1  0.431340  0.179140  0.089940  1.0  -0.1463
  C  C181  1  0.434050  0.121490  0.124940  1.0  0.0403
  C  C182  1  0.437410  0.088560  0.099690  1.0  -0.1638
  C  C183  1  0.437580  0.112410  0.040410  1.0  -0.1043
  C  C184  1  0.431350  0.217400  0.116390  1.0  0.6823
  C  C185  1  0.444620  0.030260  0.134240  1.0  0.6901
  C  C186  1  0.473610  0.282400  0.722990  1.0  0.2361
  C  C187  1  0.483100  0.230390  0.755710  1.0  -0.0139
  C  C188  1  0.486150  0.195740  0.731270  1.0  -0.1554
  C  C189  1  0.478930  0.213710  0.675220  1.0  0.0337
  C  C190  1  0.469680  0.265440  0.642800  1.0  -0.1717
  C  C191  1  0.466330  0.299220  0.666850  1.0  -0.1174
  C  C192  1  0.500370  0.142840  0.764330  1.0  0.6832
  C  C193  1  0.466010  0.288980  0.580230  1.0  0.6723
  C  C194  1  0.502980  0.482540  0.804280  1.0  0.1837
  C  C195  1  0.505000  0.506790  0.744410  1.0  -0.0239
  C  C196  1  0.515110  0.572010  0.705240  1.0  -0.1456
  C  C197  1  0.524700  0.614590  0.725470  1.0  0.0197
  C  C198  1  0.523790  0.590000  0.785290  1.0  -0.1557
  C  C199  1  0.512330  0.524670  0.824200  1.0  -0.0947
  C  C200  1  0.519240  0.600670  0.640570  1.0  0.6908
  C  C201  1  0.535300  0.635760  0.806000  1.0  0.6815
  C  C202  1  0.853000  0.748400  0.800600  1.0  0.5958
  C  C203  1  0.891060  0.686800  0.845140  1.0  0.5102
  C  C204  1  0.792040  0.638700  0.884460  1.0  0.587
  C  C205  1  0.824390  0.829680  0.734530  1.0  0.2128
  C  C206  1  0.766130  0.796690  0.771580  1.0  -0.0132
  C  C207  1  0.730920  0.820860  0.747800  1.0  -0.1457
  C  C208  1  0.753570  0.878510  0.687440  1.0  0.0396
  C  C209  1  0.811750  0.911440  0.651150  1.0  -0.1636
  C  C210  1  0.847180  0.887590  0.674830  1.0  -0.1046
  C  C211  1  0.666210  0.782600  0.786050  1.0  0.6797
  C  C212  1  0.835500  0.969740  0.585640  1.0  0.6905
  C  C213  1  0.994610  0.717600  0.808790  1.0  0.2345
  C  C214  1  0.013900  0.769610  0.747290  1.0  -0.0175
  C  C215  1  0.072990  0.804260  0.709590  1.0  -0.1548
  C  C216  1  0.111070  0.786290  0.734780  1.0  0.0318
  C  C217  1  0.091760  0.734560  0.795760  1.0  -0.1684
  C  C218  1  0.033930  0.700780  0.832890  1.0  -0.1162
  C  C219  1  0.092830  0.857160  0.642470  1.0  0.6857
  C  C220  1  0.130790  0.711020  0.822970  1.0  0.6702
  C  C221  1  0.713180  0.517460  0.979560  1.0  0.1783
  C  C222  1  0.748800  0.493210  0.001790  1.0  -0.024
  C  C223  1  0.722750  0.427990  0.056900  1.0  -0.1488
  C  C224  1  0.659940  0.385410  0.089890  1.0  0.0104
  C  C225  1  0.624710  0.410000  0.066210  1.0  -0.1555
  C  C226  1  0.651130  0.475330  0.012340  1.0  -0.0947
  C  C227  1  0.758760  0.399330  0.081430  1.0  0.6891
  C  C228  1  0.558240  0.364240  0.100460  1.0  0.6773
  C  C229  1  0.895400  0.346400  0.853000  1.0  0.5979
  C  C230  1  0.795740  0.263800  0.891060  1.0  0.5126
  C  C231  1  0.846660  0.323500  0.792040  1.0  0.5888
  C  C232  1  0.005290  0.441080  0.824390  1.0  0.2138
  C  C233  1  0.030560  0.462290  0.766130  1.0  -0.0176
  C  C234  1  0.089940  0.521280  0.730920  1.0  -0.1483
  C  C235  1  0.124940  0.558990  0.753570  1.0  0.0414
  C  C236  1  0.099690  0.537100  0.811750  1.0  -0.1657
  C  C237  1  0.040410  0.477990  0.847180  1.0  -0.1031
  C  C238  1  0.116390  0.547740  0.666210  1.0  0.6822
  C  C239  1  0.134240  0.578860  0.835500  1.0  0.6921
  C  C240  1  0.722990  0.196600  0.994610  1.0  0.2229
  C  C241  1  0.755710  0.238810  0.013900  1.0  -0.0133
  C  C242  1  0.731270  0.217420  0.072990  1.0  -0.1583
  C  C243  1  0.675220  0.154150  0.111070  1.0  0.0186
  C  C244  1  0.642800  0.112480  0.091760  1.0  -0.1671
  C  C245  1  0.666850  0.133180  0.033930  1.0  -0.1327
  C  C246  1  0.764330  0.264700  0.092830  1.0  0.6864
  C  C247  1  0.580230  0.046240  0.130790  1.0  0.6709
  C  C248  1  0.804280  0.307260  0.713180  1.0  0.1848
  C  C249  1  0.744410  0.249410  0.748800  1.0  -0.0232
  C  C250  1  0.705240  0.220350  0.722750  1.0  -0.1457
  C  C251  1  0.725470  0.250170  0.659940  1.0  0.0157
  C  C252  1  0.785290  0.309080  0.624710  1.0  -0.1556
  C  C253  1  0.824200  0.336530  0.651130  1.0  -0.0998
  C  C254  1  0.640570  0.159810  0.758760  1.0  0.6899
  C  C255  1  0.806000  0.341300  0.558240  1.0  0.6782
  C  C256  1  0.800600  0.653600  0.451000  1.0  0.5867
  C  C257  1  0.845140  0.736200  0.468060  1.0  0.5121
  C  C258  1  0.884460  0.676500  0.476840  1.0  0.5878
  C  C259  1  0.734530  0.558920  0.435790  1.0  0.2123
  C  C260  1  0.771580  0.537710  0.431730  1.0  -0.0158
  C  C261  1  0.747800  0.478720  0.431340  1.0  -0.1456
  C  C262  1  0.687440  0.441010  0.434050  1.0  0.0505
  C  C263  1  0.651150  0.462900  0.437410  1.0  -0.1643
  C  C264  1  0.674830  0.522010  0.437580  1.0  -0.1059
  C  C265  1  0.786050  0.452260  0.431350  1.0  0.683
  C  C266  1  0.585640  0.421140  0.444620  1.0  0.6897
  C  C267  1  0.808790  0.803400  0.473610  1.0  0.2265
  C  C268  1  0.747290  0.761190  0.483100  1.0  -0.0125
  C  C269  1  0.709590  0.782580  0.486150  1.0  -0.156
  C  C270  1  0.734780  0.845850  0.478930  1.0  0.0179
  C  C271  1  0.795760  0.887520  0.469680  1.0  -0.1678
  C  C272  1  0.832890  0.866820  0.466330  1.0  -0.1314
  C  C273  1  0.642470  0.735300  0.500370  1.0  0.6854
  C  C274  1  0.822970  0.953760  0.466010  1.0  0.6707
  C  C275  1  0.979560  0.692740  0.502980  1.0  0.1775
  C  C276  1  0.001790  0.750590  0.505000  1.0  -0.0269
  C  C277  1  0.056900  0.779650  0.515110  1.0  -0.1439
  C  C278  1  0.089890  0.749830  0.524700  1.0  0.0186
  C  C279  1  0.066210  0.690920  0.523790  1.0  -0.1512
  C  C280  1  0.012340  0.663470  0.512330  1.0  -0.0946
  C  C281  1  0.081430  0.840190  0.519240  1.0  0.6907
  C  C282  1  0.100460  0.658700  0.535300  1.0  0.6737
  C  C283  1  0.549000  0.748400  0.104600  1.0  0.6012
  C  C284  1  0.531940  0.686800  0.204260  1.0  0.511
  C  C285  1  0.523160  0.638700  0.153340  1.0  0.5865
  C  C286  1  0.564210  0.829680  0.994710  1.0  0.2137
  C  C287  1  0.568270  0.796690  0.969440  1.0  -0.0132
  C  C288  1  0.568660  0.820860  0.910060  1.0  -0.1466
  C  C289  1  0.565950  0.878510  0.875060  1.0  0.0389
  C  C290  1  0.562590  0.911440  0.900310  1.0  -0.1649
  C  C291  1  0.562420  0.887590  0.959590  1.0  -0.1046
  C  C292  1  0.568650  0.782600  0.883610  1.0  0.6821
  C  C293  1  0.555380  0.969740  0.865760  1.0  0.6909
  C  C294  1  0.526390  0.717600  0.277010  1.0  0.2369
  C  C295  1  0.516900  0.769610  0.244290  1.0  -0.0148
  C  C296  1  0.513850  0.804260  0.268730  1.0  -0.155
  C  C297  1  0.521070  0.786290  0.324780  1.0  0.0344
  C  C298  1  0.530320  0.734560  0.357200  1.0  -0.1722
  C  C299  1  0.533670  0.700780  0.333150  1.0  -0.118
  C  C300  1  0.499630  0.857160  0.235670  1.0  0.6836
  C  C301  1  0.533990  0.711020  0.419770  1.0  0.672
  C  C302  1  0.497020  0.517460  0.195720  1.0  0.1838
  C  C303  1  0.495000  0.493210  0.255590  1.0  -0.0244
  C  C304  1  0.484890  0.427990  0.294760  1.0  -0.1464
  C  C305  1  0.475300  0.385410  0.274530  1.0  0.0214
  C  C306  1  0.476210  0.410000  0.214710  1.0  -0.1554
  C  C307  1  0.487670  0.475330  0.175800  1.0  -0.096
  C  C308  1  0.480760  0.399330  0.359430  1.0  0.6915
  C  C309  1  0.464700  0.364240  0.194000  1.0  0.6805
  C  C310  1  0.147000  0.251600  0.199400  1.0  0.596
  C  C311  1  0.108940  0.313200  0.154860  1.0  0.5114
  C  C312  1  0.207960  0.361300  0.115540  1.0  0.5852
  C  C313  1  0.175610  0.170320  0.265470  1.0  0.2131
  C  C314  1  0.233870  0.203310  0.228420  1.0  -0.0139
  C  C315  1  0.269080  0.179140  0.252200  1.0  -0.1447
  C  C316  1  0.246430  0.121490  0.312560  1.0  0.0409
  C  C317  1  0.188250  0.088560  0.348850  1.0  -0.1632
  C  C318  1  0.152820  0.112410  0.325170  1.0  -0.1039
  C  C319  1  0.333790  0.217400  0.213950  1.0  0.6797
  C  C320  1  0.164500  0.030260  0.414360  1.0  0.6903
  C  C321  1  0.005390  0.282400  0.191210  1.0  0.2333
  C  C322  1  0.986100  0.230390  0.252710  1.0  -0.0167
  C  C323  1  0.927010  0.195740  0.290410  1.0  -0.1554
  C  C324  1  0.888930  0.213710  0.265220  1.0  0.0319
  C  C325  1  0.908240  0.265440  0.204240  1.0  -0.1673
  C  C326  1  0.966070  0.299220  0.167110  1.0  -0.1152
  C  C327  1  0.907170  0.142840  0.357530  1.0  0.6847
  C  C328  1  0.869210  0.288980  0.177030  1.0  0.6705
  C  C329  1  0.286820  0.482540  0.020440  1.0  0.1776
  C  C330  1  0.251200  0.506790  0.998210  1.0  -0.0233
  C  C331  1  0.277250  0.572010  0.943100  1.0  -0.1486
  C  C332  1  0.340060  0.614590  0.910110  1.0  0.0077
  C  C333  1  0.375290  0.590000  0.933790  1.0  -0.1547
  C  C334  1  0.348870  0.524670  0.987660  1.0  -0.0946
  C  C335  1  0.241240  0.600670  0.918570  1.0  0.689
  C  C336  1  0.441760  0.635760  0.899540  1.0  0.6771
  N  N337  1  0.100690  0.638630  0.202940  1.0  -0.5746
  N  N338  1  0.155250  0.701610  0.098160  1.0  -0.4375
  N  N339  1  0.207060  0.726240  0.163780  1.0  -0.56
  N  N340  1  0.054480  0.618430  0.135550  1.0  -0.4357
  N  N341  1  0.259270  0.785000  0.064730  1.0  -0.4395
  N  N342  1  0.150290  0.661440  0.264950  1.0  -0.4402
  N  N343  1  0.158430  0.361370  0.537940  1.0  -0.5767
  N  N344  1  0.200230  0.298390  0.546360  1.0  -0.4402
  N  N345  1  0.109980  0.273760  0.519180  1.0  -0.5583
  N  N346  1  0.246020  0.381570  0.563950  1.0  -0.4365
  N  N347  1  0.150270  0.215000  0.525730  1.0  -0.4407
  N  N348  1  0.073610  0.338560  0.511150  1.0  -0.4373
  N  N349  1  0.462060  0.303630  0.899310  1.0  -0.5726
  N  N350  1  0.453640  0.253410  0.844750  1.0  -0.4373
  N  N351  1  0.480820  0.370840  0.792940  1.0  -0.5568
  N  N352  1  0.436050  0.190030  0.945520  1.0  -0.4349
  N  N353  1  0.474270  0.324000  0.740730  1.0  -0.4366
  N  N354  1  0.488850  0.415240  0.849710  1.0  -0.4363
  N  N355  1  0.797060  0.696370  0.841570  1.0  -0.5726
  N  N356  1  0.901840  0.746590  0.799770  1.0  -0.4359
  N  N357  1  0.836220  0.629160  0.890020  1.0  -0.5552
  N  N358  1  0.864450  0.809970  0.753980  1.0  -0.4361
  N  N359  1  0.935270  0.676000  0.849730  1.0  -0.437
  N  N360  1  0.735050  0.584760  0.926390  1.0  -0.4396
  N  N361  1  0.899310  0.361370  0.797060  1.0  -0.5736
  N  N362  1  0.844750  0.298390  0.901840  1.0  -0.4376
  N  N363  1  0.792940  0.273760  0.836220  1.0  -0.5588
  N  N364  1  0.945520  0.381570  0.864450  1.0  -0.4347
  N  N365  1  0.740730  0.215000  0.935270  1.0  -0.4392
  N  N366  1  0.849710  0.338560  0.735050  1.0  -0.4399
  N  N367  1  0.841570  0.638630  0.462060  1.0  -0.5753
  N  N368  1  0.799770  0.701610  0.453640  1.0  -0.4371
  N  N369  1  0.890020  0.726240  0.480820  1.0  -0.5598
  N  N370  1  0.753980  0.618430  0.436050  1.0  -0.4365
  N  N371  1  0.849730  0.785000  0.474270  1.0  -0.4388
  N  N372  1  0.926390  0.661440  0.488850  1.0  -0.437
  N  N373  1  0.537940  0.696370  0.100690  1.0  -0.5723
  N  N374  1  0.546360  0.746590  0.155250  1.0  -0.4365
  N  N375  1  0.519180  0.629160  0.207060  1.0  -0.5583
  N  N376  1  0.563950  0.809970  0.054480  1.0  -0.4363
  N  N377  1  0.525730  0.676000  0.259270  1.0  -0.4371
  N  N378  1  0.511150  0.584760  0.150290  1.0  -0.4381
  N  N379  1  0.202940  0.303630  0.158430  1.0  -0.5741
  N  N380  1  0.098160  0.253410  0.200230  1.0  -0.4362
  N  N381  1  0.163780  0.370840  0.109980  1.0  -0.557
  N  N382  1  0.135550  0.190030  0.246020  1.0  -0.4348
  N  N383  1  0.064730  0.324000  0.150270  1.0  -0.4369
  N  N384  1  0.264950  0.415240  0.073610  1.0  -0.4395
  O  O385  1  0.914930  0.488440  0.352570  1.0  -0.5704
  O  O386  1  0.832180  0.393530  0.365330  1.0  -0.5745
  O  O387  1  0.812820  0.366150  0.198550  1.0  -0.5793
  O  O388  1  0.892530  0.442310  0.112020  1.0  -0.5833
  O  O389  1  0.188190  0.674830  0.945760  1.0  -0.5645
  O  O390  1  0.259020  0.759480  0.852400  1.0  -0.5831
  O  O391  1  0.442820  0.968150  0.818650  1.0  -0.5526
  O  O392  1  0.445490  0.989080  0.890610  1.0  -0.5821
  O  O393  1  0.381180  0.860100  0.187600  1.0  -0.5665
  O  O394  1  0.389540  0.867390  0.267470  1.0  -0.6061
  O  O395  1  0.226590  0.692290  0.461620  1.0  -0.5702
  O  O396  1  0.143930  0.597700  0.474350  1.0  -0.5693
  O  O397  1  0.158990  0.511560  0.573510  1.0  -0.5703
  O  O398  1  0.241140  0.606470  0.561350  1.0  -0.5698
  O  O399  1  0.435300  0.633850  0.553330  1.0  -0.5792
  O  O400  1  0.445670  0.557690  0.549780  1.0  -0.5813
  O  O401  1  0.379410  0.325170  0.486640  1.0  -0.5653
  O  O402  1  0.388120  0.240520  0.500460  1.0  -0.5829
  O  O403  1  0.213200  0.031850  0.525330  1.0  -0.5542
  O  O404  1  0.120310  0.010920  0.543590  1.0  -0.5792
  O  O405  1  0.952300  0.139900  0.478920  1.0  -0.5685
  O  O406  1  0.865140  0.132610  0.477850  1.0  -0.6055
  O  O407  1  0.846090  0.307710  0.465700  1.0  -0.57
  O  O408  1  0.927950  0.402300  0.453770  1.0  -0.5696
  O  O409  1  0.426490  0.267500  0.085070  1.0  -0.5697
  O  O410  1  0.438650  0.197510  0.167820  1.0  -0.5707
  O  O411  1  0.446670  0.011370  0.187180  1.0  -0.5795
  O  O412  1  0.450220  0.004550  0.107470  1.0  -0.5832
  O  O413  1  0.513360  0.133950  0.811810  1.0  -0.5635
  O  O414  1  0.499540  0.111420  0.740980  1.0  -0.5847
  O  O415  1  0.474670  0.261470  0.557180  1.0  -0.5555
  O  O416  1  0.456410  0.336100  0.554510  1.0  -0.5799
  O  O417  1  0.521080  0.568780  0.618820  1.0  -0.57
  O  O418  1  0.522150  0.657010  0.610460  1.0  -0.6063
  O  O419  1  0.534300  0.688210  0.773410  1.0  -0.5696
  O  O420  1  0.546230  0.618280  0.856070  1.0  -0.5712
  O  O421  1  0.647430  0.732500  0.841010  1.0  -0.5705
  O  O422  1  0.634670  0.802490  0.758860  1.0  -0.5706
  O  O423  1  0.801450  0.988630  0.564700  1.0  -0.5783
  O  O424  1  0.887980  0.995450  0.554330  1.0  -0.5816
  O  O425  1  0.054240  0.866050  0.620590  1.0  -0.5653
  O  O426  1  0.147600  0.888580  0.611880  1.0  -0.5811
  O  O427  1  0.181350  0.738530  0.786800  1.0  -0.5541
  O  O428  1  0.109390  0.663900  0.879690  1.0  -0.5828
  O  O429  1  0.812400  0.431220  0.047700  1.0  -0.5686
  O  O430  1  0.732530  0.342990  0.134860  1.0  -0.606
  O  O431  1  0.538380  0.311790  0.153910  1.0  -0.5738
  O  O432  1  0.525650  0.381720  0.072050  1.0  -0.5712
  O  O433  1  0.085070  0.511560  0.647430  1.0  -0.5709
  O  O434  1  0.167820  0.606470  0.634670  1.0  -0.5742
  O  O435  1  0.187180  0.633850  0.801450  1.0  -0.5792
  O  O436  1  0.107470  0.557690  0.887980  1.0  -0.5821
  O  O437  1  0.811810  0.325170  0.054240  1.0  -0.5647
  O  O438  1  0.740980  0.240520  0.147600  1.0  -0.5829
  O  O439  1  0.557180  0.031850  0.181350  1.0  -0.5515
  O  O440  1  0.554510  0.010920  0.109390  1.0  -0.582
  O  O441  1  0.618820  0.139900  0.812400  1.0  -0.5656
  O  O442  1  0.610460  0.132610  0.732530  1.0  -0.606
  O  O443  1  0.773410  0.307710  0.538380  1.0  -0.5703
  O  O444  1  0.856070  0.402300  0.525650  1.0  -0.5693
  O  O445  1  0.841010  0.488440  0.426490  1.0  -0.5706
  O  O446  1  0.758860  0.393530  0.438650  1.0  -0.5704
  O  O447  1  0.564700  0.366150  0.446670  1.0  -0.5795
  O  O448  1  0.554330  0.442310  0.450220  1.0  -0.5822
  O  O449  1  0.620590  0.674830  0.513360  1.0  -0.566
  O  O450  1  0.611880  0.759480  0.499540  1.0  -0.5822
  O  O451  1  0.786800  0.968150  0.474670  1.0  -0.5527
  O  O452  1  0.879690  0.989080  0.456410  1.0  -0.5823
  O  O453  1  0.047700  0.860100  0.521080  1.0  -0.5677
  O  O454  1  0.134860  0.867390  0.522150  1.0  -0.6043
  O  O455  1  0.153910  0.692290  0.534300  1.0  -0.5698
  O  O456  1  0.072050  0.597700  0.546230  1.0  -0.5692
  O  O457  1  0.573510  0.732500  0.914930  1.0  -0.57
  O  O458  1  0.561350  0.802490  0.832180  1.0  -0.5713
  O  O459  1  0.553330  0.988630  0.812820  1.0  -0.5788
  O  O460  1  0.549780  0.995450  0.892530  1.0  -0.5826
  O  O461  1  0.486640  0.866050  0.188190  1.0  -0.5633
  O  O462  1  0.500460  0.888580  0.259020  1.0  -0.5836
  O  O463  1  0.525330  0.738530  0.442820  1.0  -0.5533
  O  O464  1  0.543590  0.663900  0.445490  1.0  -0.5802
  O  O465  1  0.478920  0.431220  0.381180  1.0  -0.5692
  O  O466  1  0.477850  0.342990  0.389540  1.0  -0.6049
  O  O467  1  0.465700  0.311790  0.226590  1.0  -0.5709
  O  O468  1  0.453770  0.381720  0.143930  1.0  -0.5716
  O  O469  1  0.352570  0.267500  0.158990  1.0  -0.5704
  O  O470  1  0.365330  0.197510  0.241140  1.0  -0.5704
  O  O471  1  0.198550  0.011370  0.435300  1.0  -0.5786
  O  O472  1  0.112020  0.004550  0.445670  1.0  -0.581
  O  O473  1  0.945760  0.133950  0.379410  1.0  -0.5659
  O  O474  1  0.852400  0.111420  0.388120  1.0  -0.5813
  O  O475  1  0.818650  0.261470  0.213200  1.0  -0.5549
  O  O476  1  0.890610  0.336100  0.120310  1.0  -0.582
  O  O477  1  0.187600  0.568780  0.952300  1.0  -0.5693
  O  O478  1  0.267470  0.657010  0.865140  1.0  -0.6048
  O  O479  1  0.461620  0.688210  0.846090  1.0  -0.5731
  O  O480  1  0.474350  0.618280  0.927950  1.0  -0.5707
