# generated using pymatgen
data_CuH4C9(NO2)2
_symmetry_space_group_name_H-M   'P 1'
_cell_length_a   26.67000000
_cell_length_b   26.67000000
_cell_length_c   26.78500000
_cell_angle_alpha   60.14190000
_cell_angle_beta   60.14190000
_cell_angle_gamma   90.00000000
_symmetry_Int_Tables_number   1
_chemical_formula_structural   CuH4C9(NO2)2
_chemical_formula_sum   'Cu24 H96 C216 N48 O96'
_cell_volume   13529.29151296
_cell_formula_units_Z   24
loop_
 _symmetry_equiv_pos_site_id
 _symmetry_equiv_pos_as_xyz
  1  'x, y, z'
loop_
 _atom_site_type_symbol
 _atom_site_label
 _atom_site_symmetry_multiplicity
 _atom_site_fract_x
 _atom_site_fract_y
 _atom_site_fract_z
 _atom_site_occupancy
 _atom_site_charge
  Cu  Cu1  1  0.965880  0.038190  0.605440  1.0  0.9035
  Cu  Cu2  1  0.973760  0.028850  0.703960  1.0  0.9195
  Cu  Cu3  1  0.428680  0.356370  0.605440  1.0  0.9099
  Cu  Cu4  1  0.322280  0.267190  0.703960  1.0  0.9259
  Cu  Cu5  1  0.038190  0.428680  0.605440  1.0  0.9065
  Cu  Cu6  1  0.028850  0.322280  0.703960  1.0  0.9244
  Cu  Cu7  1  0.356370  0.965880  0.605440  1.0  0.9073
  Cu  Cu8  1  0.267190  0.973760  0.703960  1.0  0.9213
  Cu  Cu9  1  0.034120  0.961810  0.394560  1.0  0.904
  Cu  Cu10  1  0.026240  0.971150  0.296040  1.0  0.919
  Cu  Cu11  1  0.571320  0.643630  0.394560  1.0  0.9075
  Cu  Cu12  1  0.677720  0.732810  0.296040  1.0  0.9254
  Cu  Cu13  1  0.961810  0.571320  0.394560  1.0  0.906
  Cu  Cu14  1  0.971150  0.677720  0.296040  1.0  0.9239
  Cu  Cu15  1  0.643630  0.034120  0.394560  1.0  0.907
  Cu  Cu16  1  0.732810  0.026240  0.296040  1.0  0.9207
  Cu  Cu17  1  0.391830  0.933470  0.000000  1.0  0.9005
  Cu  Cu18  1  0.705430  0.049980  0.000000  1.0  0.9032
  Cu  Cu19  1  0.608170  0.066530  0.000000  1.0  0.9016
  Cu  Cu20  1  0.294570  0.950020  0.000000  1.0  0.9033
  Cu  Cu21  1  0.933470  0.608170  0.000000  1.0  0.9071
  Cu  Cu22  1  0.049980  0.294570  0.000000  1.0  0.9074
  Cu  Cu23  1  0.066530  0.391830  0.000000  1.0  0.9086
  Cu  Cu24  1  0.950020  0.705430  0.000000  1.0  0.9066
  H  H25  1  0.669400  0.067000  0.164200  1.0  0.1249
  H  H26  1  0.512800  0.077300  0.176600  1.0  0.1129
  H  H27  1  0.527300  0.063400  0.326200  1.0  0.1247
  H  H28  1  0.201100  0.966700  0.172600  1.0  0.125
  H  H29  1  0.367800  0.989100  0.136000  1.0  0.1127
  H  H30  1  0.230200  0.997400  0.288800  1.0  0.0947
  H  H31  1  0.294400  0.016900  0.469200  1.0  0.1171
  H  H32  1  0.145700  0.050500  0.470800  1.0  0.1285
  H  H33  1  0.157100  0.021400  0.627600  1.0  0.1289
  H  H34  1  0.442100  0.075700  0.328400  1.0  0.2576
  H  H35  1  0.388900  0.012300  0.194600  1.0  0.2249
  H  H36  1  0.218700  0.046200  0.384600  1.0  0.2364
  H  H37  1  0.166400  0.768800  0.164200  1.0  0.124
  H  H38  1  0.310600  0.746100  0.176600  1.0  0.1114
  H  H39  1  0.146500  0.610400  0.326200  1.0  0.1242
  H  H40  1  0.626300  0.860700  0.172600  1.0  0.1236
  H  H41  1  0.496200  0.874900  0.136000  1.0  0.1145
  H  H42  1  0.481000  0.713800  0.288800  1.0  0.0933
  H  H43  1  0.236400  0.513900  0.469200  1.0  0.1166
  H  H44  1  0.383500  0.478700  0.470800  1.0  0.1278
  H  H45  1  0.215300  0.351000  0.627600  1.0  0.1292
  H  H46  1  0.229500  0.595900  0.328400  1.0  0.2584
  H  H47  1  0.416500  0.793100  0.194600  1.0  0.2247
  H  H48  1  0.396700  0.569200  0.384600  1.0  0.2355
  H  H49  1  0.067000  0.166400  0.164200  1.0  0.1275
  H  H50  1  0.077300  0.310600  0.176600  1.0  0.1105
  H  H51  1  0.063400  0.146500  0.326200  1.0  0.1247
  H  H52  1  0.966700  0.626300  0.172600  1.0  0.1243
  H  H53  1  0.989100  0.496200  0.136000  1.0  0.117
  H  H54  1  0.997400  0.481000  0.288800  1.0  0.0948
  H  H55  1  0.016900  0.236400  0.469200  1.0  0.118
  H  H56  1  0.050500  0.383500  0.470800  1.0  0.1287
  H  H57  1  0.021400  0.215300  0.627600  1.0  0.1289
  H  H58  1  0.075700  0.229500  0.328400  1.0  0.2628
  H  H59  1  0.012300  0.416500  0.194600  1.0  0.2287
  H  H60  1  0.046200  0.396700  0.384600  1.0  0.2318
  H  H61  1  0.768800  0.669400  0.164200  1.0  0.126
  H  H62  1  0.746100  0.512800  0.176600  1.0  0.1128
  H  H63  1  0.610400  0.527300  0.326200  1.0  0.1233
  H  H64  1  0.860700  0.201100  0.172600  1.0  0.1233
  H  H65  1  0.874900  0.367800  0.136000  1.0  0.1152
  H  H66  1  0.713800  0.230200  0.288800  1.0  0.0927
  H  H67  1  0.513900  0.294400  0.469200  1.0  0.1182
  H  H68  1  0.478700  0.145700  0.470800  1.0  0.1284
  H  H69  1  0.351000  0.157100  0.627600  1.0  0.1278
  H  H70  1  0.595900  0.442100  0.328400  1.0  0.2622
  H  H71  1  0.793100  0.388900  0.194600  1.0  0.2233
  H  H72  1  0.569200  0.218700  0.384600  1.0  0.2362
  H  H73  1  0.330600  0.933000  0.835800  1.0  0.125
  H  H74  1  0.487200  0.922700  0.823400  1.0  0.1135
  H  H75  1  0.472700  0.936600  0.673800  1.0  0.1252
  H  H76  1  0.798900  0.033300  0.827400  1.0  0.1249
  H  H77  1  0.632200  0.010900  0.864000  1.0  0.1118
  H  H78  1  0.769800  0.002600  0.711200  1.0  0.0947
  H  H79  1  0.705600  0.983100  0.530800  1.0  0.1179
  H  H80  1  0.854300  0.949500  0.529200  1.0  0.129
  H  H81  1  0.842900  0.978600  0.372400  1.0  0.1288
  H  H82  1  0.557900  0.924300  0.671600  1.0  0.2585
  H  H83  1  0.611100  0.987700  0.805400  1.0  0.2266
  H  H84  1  0.781300  0.953800  0.615400  1.0  0.2381
  H  H85  1  0.833600  0.231200  0.835800  1.0  0.1241
  H  H86  1  0.689400  0.253900  0.823400  1.0  0.1114
  H  H87  1  0.853500  0.389600  0.673800  1.0  0.1235
  H  H88  1  0.373700  0.139300  0.827400  1.0  0.124
  H  H89  1  0.503800  0.125100  0.864000  1.0  0.1154
  H  H90  1  0.519000  0.286200  0.711200  1.0  0.0934
  H  H91  1  0.763600  0.486100  0.530800  1.0  0.1168
  H  H92  1  0.616500  0.521300  0.529200  1.0  0.128
  H  H93  1  0.784700  0.649000  0.372400  1.0  0.1292
  H  H94  1  0.770500  0.404100  0.671600  1.0  0.2597
  H  H95  1  0.583500  0.206900  0.805400  1.0  0.224
  H  H96  1  0.603300  0.430800  0.615400  1.0  0.2365
  H  H97  1  0.933000  0.833600  0.835800  1.0  0.1272
  H  H98  1  0.922700  0.689400  0.823400  1.0  0.111
  H  H99  1  0.936600  0.853500  0.673800  1.0  0.1247
  H  H100  1  0.033300  0.373700  0.827400  1.0  0.1244
  H  H101  1  0.010900  0.503800  0.864000  1.0  0.117
  H  H102  1  0.002600  0.519000  0.711200  1.0  0.0944
  H  H103  1  0.983100  0.763600  0.530800  1.0  0.1181
  H  H104  1  0.949500  0.616500  0.529200  1.0  0.1285
  H  H105  1  0.978600  0.784700  0.372400  1.0  0.1293
  H  H106  1  0.924300  0.770500  0.671600  1.0  0.2609
  H  H107  1  0.987700  0.583500  0.805400  1.0  0.2278
  H  H108  1  0.953800  0.603300  0.615400  1.0  0.2328
  H  H109  1  0.231200  0.330600  0.835800  1.0  0.1263
  H  H110  1  0.253900  0.487200  0.823400  1.0  0.1124
  H  H111  1  0.389600  0.472700  0.673800  1.0  0.1236
  H  H112  1  0.139300  0.798900  0.827400  1.0  0.1235
  H  H113  1  0.125100  0.632200  0.864000  1.0  0.1153
  H  H114  1  0.286200  0.769800  0.711200  1.0  0.0922
  H  H115  1  0.486100  0.705600  0.530800  1.0  0.1177
  H  H116  1  0.521300  0.854300  0.529200  1.0  0.1291
  H  H117  1  0.649000  0.842900  0.372400  1.0  0.1277
  H  H118  1  0.404100  0.557900  0.671600  1.0  0.2626
  H  H119  1  0.206900  0.611100  0.805400  1.0  0.2263
  H  H120  1  0.430800  0.781300  0.615400  1.0  0.2375
  C  C121  1  0.618810  0.070980  0.097680  1.0  0.7113
  C  C122  1  0.637710  0.055590  0.281460  1.0  0.6937
  C  C123  1  0.628640  0.067270  0.188140  1.0  0.0202
  C  C124  1  0.593500  0.070420  0.162220  1.0  -0.1475
  C  C125  1  0.602910  0.064440  0.249720  1.0  -0.109
  C  C126  1  0.535260  0.072630  0.196280  1.0  -0.0692
  C  C127  1  0.508240  0.068240  0.258820  1.0  0.2114
  C  C128  1  0.543970  0.065090  0.284500  1.0  -0.1098
  C  C129  1  0.398230  0.053130  0.301340  1.0  0.5948
  C  C130  1  0.349180  0.028780  0.263240  1.0  0.6181
  C  C131  1  0.298800  0.042900  0.350200  1.0  0.5534
  C  C132  1  0.207850  0.981920  0.236740  1.0  -0.1231
  C  C133  1  0.287420  0.974580  0.147240  1.0  -0.1386
  C  C134  1  0.308950  0.962210  0.093120  1.0  0.6896
  C  C135  1  0.228120  0.973350  0.183680  1.0  -0.0046
  C  C136  1  0.326620  0.987800  0.161760  1.0  -0.1358
  C  C137  1  0.245760  0.993160  0.251080  1.0  -0.0757
  C  C138  1  0.308410  0.999310  0.212380  1.0  0.1674
  C  C139  1  0.143590  0.037620  0.553760  1.0  -0.1153
  C  C140  1  0.256110  0.022790  0.490300  1.0  -0.0717
  C  C141  1  0.224850  0.036950  0.458300  1.0  0.1911
  C  C142  1  0.168120  0.042870  0.490980  1.0  -0.0794
  C  C143  1  0.173980  0.025030  0.584800  1.0  0.0096
  C  C144  1  0.079130  0.039790  0.590480  1.0  0.6888
  C  C145  1  0.141960  0.977640  0.278580  1.0  0.6874
  C  C146  1  0.263940  0.000560  0.587580  1.0  0.6993
  C  C147  1  0.231690  0.017420  0.551440  1.0  -0.1342
  C  C148  1  0.283510  0.831340  0.097680  1.0  0.7078
  C  C149  1  0.080830  0.662950  0.281460  1.0  0.6904
  C  C150  1  0.183220  0.744590  0.188140  1.0  0.0217
  C  C151  1  0.244280  0.767360  0.162220  1.0  -0.144
  C  C152  1  0.147370  0.685840  0.249720  1.0  -0.1083
  C  C153  1  0.268460  0.731090  0.196280  1.0  -0.0701
  C  C154  1  0.232940  0.672940  0.258820  1.0  0.2113
  C  C155  1  0.171530  0.650410  0.284500  1.0  -0.1084
  C  C156  1  0.300430  0.645530  0.301340  1.0  0.5965
  C  C157  1  0.387580  0.707980  0.263240  1.0  0.6199
  C  C158  1  0.351000  0.606900  0.350200  1.0  0.5517
  C  C159  1  0.555410  0.781340  0.236740  1.0  -0.1244
  C  C160  1  0.565340  0.878180  0.147240  1.0  -0.1389
  C  C161  1  0.597930  0.944670  0.093120  1.0  0.6876
  C  C162  1  0.588200  0.842970  0.183680  1.0  -0.0073
  C  C163  1  0.511620  0.850440  0.161760  1.0  -0.1395
  C  C164  1  0.503160  0.755760  0.251080  1.0  -0.0732
  C  C165  1  0.479210  0.788310  0.212380  1.0  0.1672
  C  C166  1  0.302650  0.408620  0.553760  1.0  -0.1177
  C  C167  1  0.253590  0.486910  0.490300  1.0  -0.0729
  C  C168  1  0.316850  0.504750  0.458300  1.0  0.1894
  C  C169  1  0.340900  0.466150  0.490980  1.0  -0.0783
  C  C170  1  0.241220  0.390170  0.584800  1.0  0.0121
  C  C171  1  0.330390  0.369730  0.590480  1.0  0.6892
  C  C172  1  0.579460  0.743780  0.278580  1.0  0.6882
  C  C173  1  0.148480  0.411860  0.587580  1.0  0.6992
  C  C174  1  0.216870  0.431140  0.551440  1.0  -0.1321
  C  C175  1  0.070980  0.283510  0.097680  1.0  0.7116
  C  C176  1  0.055590  0.080830  0.281460  1.0  0.6933
  C  C177  1  0.067270  0.183220  0.188140  1.0  0.0233
  C  C178  1  0.070420  0.244280  0.162220  1.0  -0.1477
  C  C179  1  0.064440  0.147370  0.249720  1.0  -0.1088
  C  C180  1  0.072630  0.268460  0.196280  1.0  -0.0708
  C  C181  1  0.068240  0.232940  0.258820  1.0  0.2111
  C  C182  1  0.065090  0.171530  0.284500  1.0  -0.1078
  C  C183  1  0.053130  0.300430  0.301340  1.0  0.5958
  C  C184  1  0.028780  0.387580  0.263240  1.0  0.6212
  C  C185  1  0.042900  0.351000  0.350200  1.0  0.5542
  C  C186  1  0.981920  0.555410  0.236740  1.0  -0.1241
  C  C187  1  0.974580  0.565340  0.147240  1.0  -0.1403
  C  C188  1  0.962210  0.597930  0.093120  1.0  0.6839
  C  C189  1  0.973350  0.588200  0.183680  1.0  -0.0041
  C  C190  1  0.987800  0.511620  0.161760  1.0  -0.1358
  C  C191  1  0.993160  0.503160  0.251080  1.0  -0.0754
  C  C192  1  0.999310  0.479210  0.212380  1.0  0.167
  C  C193  1  0.037620  0.302650  0.553760  1.0  -0.115
  C  C194  1  0.022790  0.253590  0.490300  1.0  -0.0716
  C  C195  1  0.036950  0.316850  0.458300  1.0  0.1882
  C  C196  1  0.042870  0.340900  0.490980  1.0  -0.0974
  C  C197  1  0.025030  0.241220  0.584800  1.0  0.0192
  C  C198  1  0.039790  0.330390  0.590480  1.0  0.6897
  C  C199  1  0.977640  0.579460  0.278580  1.0  0.6896
  C  C200  1  0.000560  0.148480  0.587580  1.0  0.6995
  C  C201  1  0.017420  0.216870  0.551440  1.0  -0.1317
  C  C202  1  0.831340  0.618810  0.097680  1.0  0.7099
  C  C203  1  0.662950  0.637710  0.281460  1.0  0.6928
  C  C204  1  0.744590  0.628640  0.188140  1.0  0.0236
  C  C205  1  0.767360  0.593500  0.162220  1.0  -0.1449
  C  C206  1  0.685840  0.602910  0.249720  1.0  -0.1089
  C  C207  1  0.731090  0.535260  0.196280  1.0  -0.0704
  C  C208  1  0.672940  0.508240  0.258820  1.0  0.2108
  C  C209  1  0.650410  0.543970  0.284500  1.0  -0.1086
  C  C210  1  0.645530  0.398230  0.301340  1.0  0.5958
  C  C211  1  0.707980  0.349180  0.263240  1.0  0.6158
  C  C212  1  0.606900  0.298800  0.350200  1.0  0.5534
  C  C213  1  0.781340  0.207850  0.236740  1.0  -0.1229
  C  C214  1  0.878180  0.287420  0.147240  1.0  -0.1387
  C  C215  1  0.944670  0.308950  0.093120  1.0  0.6858
  C  C216  1  0.842970  0.228120  0.183680  1.0  -0.0064
  C  C217  1  0.850440  0.326620  0.161760  1.0  -0.1373
  C  C218  1  0.755760  0.245760  0.251080  1.0  -0.0756
  C  C219  1  0.788310  0.308410  0.212380  1.0  0.1687
  C  C220  1  0.408620  0.143590  0.553760  1.0  -0.1189
  C  C221  1  0.486910  0.256110  0.490300  1.0  -0.0706
  C  C222  1  0.504750  0.224850  0.458300  1.0  0.1922
  C  C223  1  0.466150  0.168120  0.490980  1.0  -0.0807
  C  C224  1  0.390170  0.173980  0.584800  1.0  0.0123
  C  C225  1  0.369730  0.079130  0.590480  1.0  0.6902
  C  C226  1  0.743780  0.141960  0.278580  1.0  0.6886
  C  C227  1  0.411860  0.263940  0.587580  1.0  0.7001
  C  C228  1  0.431140  0.231690  0.551440  1.0  -0.1325
  C  C229  1  0.381190  0.929020  0.902320  1.0  0.7116
  C  C230  1  0.362290  0.944410  0.718540  1.0  0.6941
  C  C231  1  0.371360  0.932730  0.811860  1.0  0.0203
  C  C232  1  0.406500  0.929580  0.837780  1.0  -0.1472
  C  C233  1  0.397090  0.935560  0.750280  1.0  -0.1093
  C  C234  1  0.464740  0.927370  0.803720  1.0  -0.0694
  C  C235  1  0.491760  0.931760  0.741180  1.0  0.2107
  C  C236  1  0.456030  0.934910  0.715500  1.0  -0.1084
  C  C237  1  0.601770  0.946870  0.698660  1.0  0.5955
  C  C238  1  0.650820  0.971220  0.736760  1.0  0.6189
  C  C239  1  0.701200  0.957100  0.649800  1.0  0.5522
  C  C240  1  0.792150  0.018080  0.763260  1.0  -0.1226
  C  C241  1  0.712580  0.025420  0.852760  1.0  -0.1389
  C  C242  1  0.691050  0.037790  0.906880  1.0  0.6902
  C  C243  1  0.771880  0.026650  0.816320  1.0  -0.0053
  C  C244  1  0.673380  0.012200  0.838240  1.0  -0.1391
  C  C245  1  0.754240  0.006840  0.748920  1.0  -0.0755
  C  C246  1  0.691590  0.000690  0.787620  1.0  0.1682
  C  C247  1  0.856410  0.962380  0.446240  1.0  -0.1144
  C  C248  1  0.743890  0.977210  0.509700  1.0  -0.0718
  C  C249  1  0.775150  0.963050  0.541700  1.0  0.1907
  C  C250  1  0.831880  0.957130  0.509020  1.0  -0.0796
  C  C251  1  0.826020  0.974970  0.415200  1.0  0.0107
  C  C252  1  0.920870  0.960210  0.409520  1.0  0.6889
  C  C253  1  0.858040  0.022360  0.721420  1.0  0.6871
  C  C254  1  0.736060  0.999440  0.412420  1.0  0.6998
  C  C255  1  0.768310  0.982580  0.448560  1.0  -0.1344
  C  C256  1  0.716490  0.168660  0.902320  1.0  0.7087
  C  C257  1  0.919170  0.337050  0.718540  1.0  0.6919
  C  C258  1  0.816780  0.255410  0.811860  1.0  0.0201
  C  C259  1  0.755720  0.232640  0.837780  1.0  -0.1441
  C  C260  1  0.852630  0.314160  0.750280  1.0  -0.1079
  C  C261  1  0.731540  0.268910  0.803720  1.0  -0.0689
  C  C262  1  0.767060  0.327060  0.741180  1.0  0.2123
  C  C263  1  0.828470  0.349590  0.715500  1.0  -0.1073
  C  C264  1  0.699570  0.354470  0.698660  1.0  0.5954
  C  C265  1  0.612420  0.292020  0.736760  1.0  0.6198
  C  C266  1  0.649000  0.393100  0.649800  1.0  0.5529
  C  C267  1  0.444590  0.218660  0.763260  1.0  -0.1239
  C  C268  1  0.434660  0.121820  0.852760  1.0  -0.1395
  C  C269  1  0.402070  0.055330  0.906880  1.0  0.6872
  C  C270  1  0.411800  0.157030  0.816320  1.0  -0.0082
  C  C271  1  0.488380  0.149560  0.838240  1.0  -0.1392
  C  C272  1  0.496840  0.244240  0.748920  1.0  -0.0727
  C  C273  1  0.520790  0.211690  0.787620  1.0  0.1676
  C  C274  1  0.697350  0.591380  0.446240  1.0  -0.1169
  C  C275  1  0.746410  0.513090  0.509700  1.0  -0.0739
  C  C276  1  0.683150  0.495250  0.541700  1.0  0.1895
  C  C277  1  0.659100  0.533850  0.509020  1.0  -0.0806
  C  C278  1  0.758780  0.609830  0.415200  1.0  0.013
  C  C279  1  0.669610  0.630270  0.409520  1.0  0.6905
  C  C280  1  0.420540  0.256220  0.721420  1.0  0.6885
  C  C281  1  0.851520  0.588140  0.412420  1.0  0.6991
  C  C282  1  0.783130  0.568860  0.448560  1.0  -0.1321
  C  C283  1  0.929020  0.716490  0.902320  1.0  0.7101
  C  C284  1  0.944410  0.919170  0.718540  1.0  0.6935
  C  C285  1  0.932730  0.816780  0.811860  1.0  0.0221
  C  C286  1  0.929580  0.755720  0.837780  1.0  -0.1477
  C  C287  1  0.935560  0.852630  0.750280  1.0  -0.1091
  C  C288  1  0.927370  0.731540  0.803720  1.0  -0.0697
  C  C289  1  0.931760  0.767060  0.741180  1.0  0.2103
  C  C290  1  0.934910  0.828470  0.715500  1.0  -0.1085
  C  C291  1  0.946870  0.699570  0.698660  1.0  0.5972
  C  C292  1  0.971220  0.612420  0.736760  1.0  0.6205
  C  C293  1  0.957100  0.649000  0.649800  1.0  0.5544
  C  C294  1  0.018080  0.444590  0.763260  1.0  -0.124
  C  C295  1  0.025420  0.434660  0.852760  1.0  -0.1399
  C  C296  1  0.037790  0.402070  0.906880  1.0  0.6832
  C  C297  1  0.026650  0.411800  0.816320  1.0  -0.0042
  C  C298  1  0.012200  0.488380  0.838240  1.0  -0.1356
  C  C299  1  0.006840  0.496840  0.748920  1.0  -0.0771
  C  C300  1  0.000690  0.520790  0.787620  1.0  0.1675
  C  C301  1  0.962380  0.697350  0.446240  1.0  -0.1157
  C  C302  1  0.977210  0.746410  0.509700  1.0  -0.0713
  C  C303  1  0.963050  0.683150  0.541700  1.0  0.1884
  C  C304  1  0.957130  0.659100  0.509020  1.0  -0.0963
  C  C305  1  0.974970  0.758780  0.415200  1.0  0.0189
  C  C306  1  0.960210  0.669610  0.409520  1.0  0.6899
  C  C307  1  0.022360  0.420540  0.721420  1.0  0.6894
  C  C308  1  0.999440  0.851520  0.412420  1.0  0.6996
  C  C309  1  0.982580  0.783130  0.448560  1.0  -0.1311
  C  C310  1  0.168660  0.381190  0.902320  1.0  0.7102
  C  C311  1  0.337050  0.362290  0.718540  1.0  0.6928
  C  C312  1  0.255410  0.371360  0.811860  1.0  0.0235
  C  C313  1  0.232640  0.406500  0.837780  1.0  -0.1458
  C  C314  1  0.314160  0.397090  0.750280  1.0  -0.1096
  C  C315  1  0.268910  0.464740  0.803720  1.0  -0.0697
  C  C316  1  0.327060  0.491760  0.741180  1.0  0.2101
  C  C317  1  0.349590  0.456030  0.715500  1.0  -0.1076
  C  C318  1  0.354470  0.601770  0.698660  1.0  0.5946
  C  C319  1  0.292020  0.650820  0.736760  1.0  0.6173
  C  C320  1  0.393100  0.701200  0.649800  1.0  0.5532
  C  C321  1  0.218660  0.792150  0.763260  1.0  -0.1229
  C  C322  1  0.121820  0.712580  0.852760  1.0  -0.1396
  C  C323  1  0.055330  0.691050  0.906880  1.0  0.6857
  C  C324  1  0.157030  0.771880  0.816320  1.0  -0.006
  C  C325  1  0.149560  0.673380  0.838240  1.0  -0.1384
  C  C326  1  0.244240  0.754240  0.748920  1.0  -0.0761
  C  C327  1  0.211690  0.691590  0.787620  1.0  0.1692
  C  C328  1  0.591380  0.856410  0.446240  1.0  -0.1188
  C  C329  1  0.513090  0.743890  0.509700  1.0  -0.0722
  C  C330  1  0.495250  0.775150  0.541700  1.0  0.1917
  C  C331  1  0.533850  0.831880  0.509020  1.0  -0.0818
  C  C332  1  0.609830  0.826020  0.415200  1.0  0.0129
  C  C333  1  0.630270  0.920870  0.409520  1.0  0.6902
  C  C334  1  0.256220  0.858040  0.721420  1.0  0.6889
  C  C335  1  0.588140  0.736060  0.412420  1.0  0.6995
  C  C336  1  0.568860  0.768310  0.448560  1.0  -0.1324
  N  N337  1  0.348500  0.055950  0.347860  1.0  -0.5663
  N  N338  1  0.297770  0.032160  0.306840  1.0  -0.4703
  N  N339  1  0.401490  0.037520  0.258520  1.0  -0.6155
  N  N340  1  0.448270  0.066400  0.299080  1.0  -0.4178
  N  N341  1  0.352830  0.013560  0.221100  1.0  -0.4081
  N  N342  1  0.245290  0.042490  0.395400  1.0  -0.4435
  N  N343  1  0.303640  0.596190  0.347860  1.0  -0.5707
  N  N344  1  0.395390  0.661000  0.306840  1.0  -0.4746
  N  N345  1  0.339990  0.703960  0.258520  1.0  -0.6128
  N  N346  1  0.252650  0.634520  0.299080  1.0  -0.4194
  N  N347  1  0.426070  0.765340  0.221100  1.0  -0.4034
  N  N348  1  0.359310  0.562110  0.395400  1.0  -0.4441
  N  N349  1  0.055950  0.303640  0.347860  1.0  -0.5691
  N  N350  1  0.032160  0.395390  0.306840  1.0  -0.4749
  N  N351  1  0.037520  0.339990  0.258520  1.0  -0.6164
  N  N352  1  0.066400  0.252650  0.299080  1.0  -0.4186
  N  N353  1  0.013560  0.426070  0.221100  1.0  -0.4024
  N  N354  1  0.042490  0.359310  0.395400  1.0  -0.4409
  N  N355  1  0.596190  0.348500  0.347860  1.0  -0.5664
  N  N356  1  0.661000  0.297770  0.306840  1.0  -0.4673
  N  N357  1  0.703960  0.401490  0.258520  1.0  -0.6118
  N  N358  1  0.634520  0.448270  0.299080  1.0  -0.4213
  N  N359  1  0.765340  0.352830  0.221100  1.0  -0.4079
  N  N360  1  0.562110  0.245290  0.395400  1.0  -0.4418
  N  N361  1  0.651500  0.944050  0.652140  1.0  -0.5668
  N  N362  1  0.702230  0.967840  0.693160  1.0  -0.4713
  N  N363  1  0.598510  0.962480  0.741480  1.0  -0.615
  N  N364  1  0.551730  0.933600  0.700920  1.0  -0.4189
  N  N365  1  0.647170  0.986440  0.778900  1.0  -0.41
  N  N366  1  0.754710  0.957510  0.604600  1.0  -0.4445
  N  N367  1  0.696360  0.403810  0.652140  1.0  -0.5711
  N  N368  1  0.604610  0.339000  0.693160  1.0  -0.4751
  N  N369  1  0.660010  0.296040  0.741480  1.0  -0.6104
  N  N370  1  0.747350  0.365480  0.700920  1.0  -0.4146
  N  N371  1  0.573930  0.234660  0.778900  1.0  -0.4017
  N  N372  1  0.640690  0.437890  0.604600  1.0  -0.4456
  N  N373  1  0.944050  0.696360  0.652140  1.0  -0.5712
  N  N374  1  0.967840  0.604610  0.693160  1.0  -0.4724
  N  N375  1  0.962480  0.660010  0.741480  1.0  -0.6171
  N  N376  1  0.933600  0.747350  0.700920  1.0  -0.421
  N  N377  1  0.986440  0.573930  0.778900  1.0  -0.4006
  N  N378  1  0.957510  0.640690  0.604600  1.0  -0.443
  N  N379  1  0.403810  0.651500  0.652140  1.0  -0.5691
  N  N380  1  0.339000  0.702230  0.693160  1.0  -0.4698
  N  N381  1  0.296040  0.598510  0.741480  1.0  -0.6112
  N  N382  1  0.365480  0.551730  0.700920  1.0  -0.421
  N  N383  1  0.234660  0.647170  0.778900  1.0  -0.4088
  N  N384  1  0.437890  0.754710  0.604600  1.0  -0.4419
  O  O385  1  0.357680  0.950200  0.072220  1.0  -0.5598
  O  O386  1  0.587670  0.077000  0.074300  1.0  -0.568
  O  O387  1  0.670790  0.064620  0.073160  1.0  -0.5691
  O  O388  1  0.057270  0.030380  0.650320  1.0  -0.5679
  O  O389  1  0.053090  0.049480  0.560240  1.0  -0.5531
  O  O390  1  0.309760  0.985490  0.563440  1.0  -0.5694
  O  O391  1  0.240570  0.001650  0.641620  1.0  -0.5864
  O  O392  1  0.109850  0.972420  0.257440  1.0  -0.5901
  O  O393  1  0.121500  0.975980  0.333260  1.0  -0.5565
  O  O394  1  0.274650  0.963690  0.072440  1.0  -0.5659
  O  O395  1  0.611250  0.051070  0.338380  1.0  -0.5695
  O  O396  1  0.690550  0.052840  0.249940  1.0  -0.5658
  O  O397  1  0.570100  0.977580  0.072220  1.0  -0.5594
  O  O398  1  0.338030  0.848700  0.074300  1.0  -0.567
  O  O399  1  0.256050  0.862220  0.073160  1.0  -0.5713
  O  O400  1  0.292410  0.319300  0.650320  1.0  -0.5687
  O  O401  1  0.386670  0.390280  0.560240  1.0  -0.5527
  O  O402  1  0.126800  0.451070  0.563440  1.0  -0.5691
  O  O403  1  0.117810  0.356730  0.641620  1.0  -0.5866
  O  O404  1  0.632710  0.770140  0.257440  1.0  -0.5916
  O  O405  1  0.545240  0.690760  0.333260  1.0  -0.5566
  O  O406  1  0.652910  0.963870  0.072440  1.0  -0.5741
  O  O407  1  0.050370  0.610550  0.338380  1.0  -0.5701
  O  O408  1  0.059510  0.697220  0.249940  1.0  -0.5663
  O  O409  1  0.950200  0.570100  0.072220  1.0  -0.5568
  O  O410  1  0.077000  0.338030  0.074300  1.0  -0.5663
  O  O411  1  0.064620  0.256050  0.073160  1.0  -0.5697
  O  O412  1  0.030380  0.292410  0.650320  1.0  -0.5693
  O  O413  1  0.049480  0.386670  0.560240  1.0  -0.5499
  O  O414  1  0.985490  0.126800  0.563440  1.0  -0.5669
  O  O415  1  0.001650  0.117810  0.641620  1.0  -0.5886
  O  O416  1  0.972420  0.632710  0.257440  1.0  -0.5905
  O  O417  1  0.975980  0.545240  0.333260  1.0  -0.5576
  O  O418  1  0.963690  0.652910  0.072440  1.0  -0.5673
  O  O419  1  0.051070  0.050370  0.338380  1.0  -0.5693
  O  O420  1  0.052840  0.059510  0.249940  1.0  -0.5669
  O  O421  1  0.977580  0.357680  0.072220  1.0  -0.5584
  O  O422  1  0.848700  0.587670  0.074300  1.0  -0.5664
  O  O423  1  0.862220  0.670790  0.073160  1.0  -0.5722
  O  O424  1  0.319300  0.057270  0.650320  1.0  -0.5679
  O  O425  1  0.390280  0.053090  0.560240  1.0  -0.5525
  O  O426  1  0.451070  0.309760  0.563440  1.0  -0.5696
  O  O427  1  0.356730  0.240570  0.641620  1.0  -0.5867
  O  O428  1  0.770140  0.109850  0.257440  1.0  -0.5893
  O  O429  1  0.690760  0.121500  0.333260  1.0  -0.5564
  O  O430  1  0.963870  0.274650  0.072440  1.0  -0.5657
  O  O431  1  0.610550  0.611250  0.338380  1.0  -0.5703
  O  O432  1  0.697220  0.690550  0.249940  1.0  -0.5668
  O  O433  1  0.642320  0.049800  0.927780  1.0  -0.5594
  O  O434  1  0.412330  0.923000  0.925700  1.0  -0.5686
  O  O435  1  0.329210  0.935380  0.926840  1.0  -0.5694
  O  O436  1  0.942730  0.969620  0.349680  1.0  -0.5676
  O  O437  1  0.946910  0.950520  0.439760  1.0  -0.5515
  O  O438  1  0.690240  0.014510  0.436560  1.0  -0.5683
  O  O439  1  0.759430  0.998350  0.358380  1.0  -0.5872
  O  O440  1  0.890150  0.027580  0.742560  1.0  -0.5897
  O  O441  1  0.878500  0.024020  0.666740  1.0  -0.5545
  O  O442  1  0.725350  0.036310  0.927560  1.0  -0.5665
  O  O443  1  0.388750  0.948930  0.661620  1.0  -0.5693
  O  O444  1  0.309450  0.947160  0.750060  1.0  -0.5661
  O  O445  1  0.429900  0.022420  0.927780  1.0  -0.5594
  O  O446  1  0.661970  0.151300  0.925700  1.0  -0.5662
  O  O447  1  0.743950  0.137780  0.926840  1.0  -0.5719
  O  O448  1  0.707590  0.680700  0.349680  1.0  -0.568
  O  O449  1  0.613330  0.609720  0.439760  1.0  -0.5521
  O  O450  1  0.873200  0.548930  0.436560  1.0  -0.5679
  O  O451  1  0.882190  0.643270  0.358380  1.0  -0.5859
  O  O452  1  0.367290  0.229860  0.742560  1.0  -0.5898
  O  O453  1  0.454760  0.309240  0.666740  1.0  -0.5563
  O  O454  1  0.347090  0.036130  0.927560  1.0  -0.5737
  O  O455  1  0.949630  0.389450  0.661620  1.0  -0.5698
  O  O456  1  0.940490  0.302780  0.750060  1.0  -0.5664
  O  O457  1  0.049800  0.429900  0.927780  1.0  -0.5565
  O  O458  1  0.923000  0.661970  0.925700  1.0  -0.565
  O  O459  1  0.935380  0.743950  0.926840  1.0  -0.5702
  O  O460  1  0.969620  0.707590  0.349680  1.0  -0.5687
  O  O461  1  0.950520  0.613330  0.439760  1.0  -0.5509
  O  O462  1  0.014510  0.873200  0.436560  1.0  -0.5682
  O  O463  1  0.998350  0.882190  0.358380  1.0  -0.5876
  O  O464  1  0.027580  0.367290  0.742560  1.0  -0.5892
  O  O465  1  0.024020  0.454760  0.666740  1.0  -0.5565
  O  O466  1  0.036310  0.347090  0.927560  1.0  -0.5662
  O  O467  1  0.948930  0.949630  0.661620  1.0  -0.5693
  O  O468  1  0.947160  0.940490  0.750060  1.0  -0.5659
  O  O469  1  0.022420  0.642320  0.927780  1.0  -0.5591
  O  O470  1  0.151300  0.412330  0.925700  1.0  -0.5669
  O  O471  1  0.137780  0.329210  0.926840  1.0  -0.5734
  O  O472  1  0.680700  0.942730  0.349680  1.0  -0.5672
  O  O473  1  0.609720  0.946910  0.439760  1.0  -0.5517
  O  O474  1  0.548930  0.690240  0.436560  1.0  -0.5686
  O  O475  1  0.643270  0.759430  0.358380  1.0  -0.5872
  O  O476  1  0.229860  0.890150  0.742560  1.0  -0.5886
  O  O477  1  0.309240  0.878500  0.666740  1.0  -0.5572
  O  O478  1  0.036130  0.725350  0.927560  1.0  -0.5662
  O  O479  1  0.389450  0.388750  0.661620  1.0  -0.5707
  O  O480  1  0.302780  0.309450  0.750060  1.0  -0.5662
