# generated using pymatgen
data_CuH2(C3O2)2
_symmetry_space_group_name_H-M   'P 1'
_cell_length_a   18.62290000
_cell_length_b   18.62290000
_cell_length_c   18.62290000
_cell_angle_alpha   60.00000000
_cell_angle_beta   60.00000000
_cell_angle_gamma   60.00000000
_symmetry_Int_Tables_number   1
_chemical_formula_structural   CuH2(C3O2)2
_chemical_formula_sum   'Cu12 H24 C72 O48'
_cell_volume   4566.95713995
_cell_formula_units_Z   12
loop_
 _symmetry_equiv_pos_site_id
 _symmetry_equiv_pos_as_xyz
  1  'x, y, z'
loop_
 _atom_site_type_symbol
 _atom_site_label
 _atom_site_symmetry_multiplicity
 _atom_site_fract_x
 _atom_site_fract_y
 _atom_site_fract_z
 _atom_site_occupancy
 _atom_site_charge
  Cu  Cu1  1  0.000000  0.430000  0.570000  1.0  0.9087
  Cu  Cu2  1  0.430000  0.000000  0.000000  1.0  0.9091
  Cu  Cu3  1  0.570000  0.000000  0.000000  1.0  0.9079
  Cu  Cu4  1  0.000000  0.570000  0.430000  1.0  0.9086
  Cu  Cu5  1  0.000000  0.570000  0.000000  1.0  0.908
  Cu  Cu6  1  0.430000  0.000000  0.570000  1.0  0.9091
  Cu  Cu7  1  0.570000  0.000000  0.430000  1.0  0.9082
  Cu  Cu8  1  0.000000  0.430000  0.000000  1.0  0.9082
  Cu  Cu9  1  0.000000  0.000000  0.430000  1.0  0.9065
  Cu  Cu10  1  0.430000  0.570000  0.000000  1.0  0.9087
  Cu  Cu11  1  0.570000  0.430000  0.000000  1.0  0.9076
  Cu  Cu12  1  0.000000  0.000000  0.570000  1.0  0.906
  H  H13  1  0.971800  0.270400  0.487400  1.0  0.1168
  H  H14  1  0.270400  0.971800  0.270400  1.0  0.1168
  H  H15  1  0.487400  0.270400  0.971800  1.0  0.1168
  H  H16  1  0.270400  0.487400  0.270400  1.0  0.1181
  H  H17  1  0.971800  0.487400  0.270400  1.0  0.1177
  H  H18  1  0.270400  0.270400  0.487400  1.0  0.1168
  H  H19  1  0.487400  0.971800  0.270400  1.0  0.1172
  H  H20  1  0.270400  0.270400  0.971800  1.0  0.1165
  H  H21  1  0.971800  0.270400  0.270400  1.0  0.1168
  H  H22  1  0.270400  0.487400  0.971800  1.0  0.1181
  H  H23  1  0.487400  0.270400  0.270400  1.0  0.1168
  H  H24  1  0.270400  0.971800  0.487400  1.0  0.1168
  H  H25  1  0.729600  0.028200  0.512600  1.0  0.1168
  H  H26  1  0.028200  0.729600  0.729600  1.0  0.117
  H  H27  1  0.729600  0.512600  0.028200  1.0  0.1179
  H  H28  1  0.512600  0.729600  0.729600  1.0  0.1171
  H  H29  1  0.512600  0.028200  0.729600  1.0  0.1173
  H  H30  1  0.729600  0.729600  0.512600  1.0  0.1167
  H  H31  1  0.028200  0.512600  0.729600  1.0  0.1178
  H  H32  1  0.729600  0.729600  0.028200  1.0  0.1166
  H  H33  1  0.729600  0.028200  0.729600  1.0  0.1168
  H  H34  1  0.512600  0.729600  0.028200  1.0  0.1172
  H  H35  1  0.729600  0.512600  0.729600  1.0  0.1177
  H  H36  1  0.028200  0.729600  0.512600  1.0  0.1169
  C  C37  1  0.970920  0.300100  0.428880  1.0  0.0234
  C  C38  1  0.300100  0.970920  0.300100  1.0  0.0232
  C  C39  1  0.428880  0.300100  0.970920  1.0  0.0245
  C  C40  1  0.300100  0.428880  0.300100  1.0  0.0241
  C  C41  1  0.970920  0.428880  0.300100  1.0  0.0246
  C  C42  1  0.300100  0.300100  0.428880  1.0  0.0243
  C  C43  1  0.428880  0.970920  0.300100  1.0  0.0245
  C  C44  1  0.300100  0.300100  0.970920  1.0  0.0232
  C  C45  1  0.970920  0.300100  0.300100  1.0  0.0227
  C  C46  1  0.300100  0.428880  0.970920  1.0  0.0241
  C  C47  1  0.428880  0.300100  0.300100  1.0  0.0241
  C  C48  1  0.300100  0.970920  0.428880  1.0  0.0235
  C  C49  1  0.699900  0.029080  0.571120  1.0  0.0227
  C  C50  1  0.029080  0.699900  0.699900  1.0  0.0236
  C  C51  1  0.699900  0.571120  0.029080  1.0  0.0247
  C  C52  1  0.571120  0.699900  0.699900  1.0  0.0245
  C  C53  1  0.571120  0.029080  0.699900  1.0  0.0243
  C  C54  1  0.699900  0.699900  0.571120  1.0  0.0239
  C  C55  1  0.029080  0.571120  0.699900  1.0  0.0239
  C  C56  1  0.699900  0.699900  0.029080  1.0  0.0241
  C  C57  1  0.699900  0.029080  0.699900  1.0  0.0239
  C  C58  1  0.571120  0.699900  0.029080  1.0  0.0245
  C  C59  1  0.699900  0.571120  0.699900  1.0  0.0248
  C  C60  1  0.029080  0.699900  0.571120  1.0  0.0227
  C  C61  1  0.970400  0.386300  0.386300  1.0  -0.1645
  C  C62  1  0.977220  0.430200  0.430200  1.0  0.6944
  C  C63  1  0.386300  0.970400  0.257000  1.0  -0.1635
  C  C64  1  0.430200  0.977220  0.162380  1.0  0.6936
  C  C65  1  0.386300  0.257000  0.970400  1.0  -0.1642
  C  C66  1  0.430200  0.162380  0.977220  1.0  0.6935
  C  C67  1  0.257000  0.386300  0.386300  1.0  -0.1647
  C  C68  1  0.162380  0.430200  0.430200  1.0  0.6921
  C  C69  1  0.970400  0.386300  0.257000  1.0  -0.1639
  C  C70  1  0.977220  0.430200  0.162380  1.0  0.694
  C  C71  1  0.386300  0.257000  0.386300  1.0  -0.164
  C  C72  1  0.430200  0.162380  0.430200  1.0  0.6937
  C  C73  1  0.386300  0.970400  0.386300  1.0  -0.1638
  C  C74  1  0.430200  0.977220  0.430200  1.0  0.694
  C  C75  1  0.257000  0.386300  0.970400  1.0  -0.1644
  C  C76  1  0.162380  0.430200  0.977220  1.0  0.692
  C  C77  1  0.970400  0.257000  0.386300  1.0  -0.164
  C  C78  1  0.977220  0.162380  0.430200  1.0  0.694
  C  C79  1  0.386300  0.386300  0.970400  1.0  -0.1638
  C  C80  1  0.430200  0.430200  0.977220  1.0  0.6931
  C  C81  1  0.386300  0.386300  0.257000  1.0  -0.1638
  C  C82  1  0.430200  0.430200  0.162380  1.0  0.6933
  C  C83  1  0.257000  0.970400  0.386300  1.0  -0.1638
  C  C84  1  0.162380  0.977220  0.430200  1.0  0.6926
  C  C85  1  0.613700  0.029600  0.613700  1.0  -0.1637
  C  C86  1  0.569800  0.022780  0.569800  1.0  0.6932
  C  C87  1  0.029600  0.613700  0.743000  1.0  -0.1643
  C  C88  1  0.022780  0.569800  0.837620  1.0  0.6941
  C  C89  1  0.743000  0.613700  0.029600  1.0  -0.1641
  C  C90  1  0.837620  0.569800  0.022780  1.0  0.6927
  C  C91  1  0.613700  0.743000  0.613700  1.0  -0.1636
  C  C92  1  0.569800  0.837620  0.569800  1.0  0.6932
  C  C93  1  0.613700  0.029600  0.743000  1.0  -0.1643
  C  C94  1  0.569800  0.022780  0.837620  1.0  0.6937
  C  C95  1  0.743000  0.613700  0.613700  1.0  -0.1641
  C  C96  1  0.837620  0.569800  0.569800  1.0  0.6925
  C  C97  1  0.029600  0.613700  0.613700  1.0  -0.1639
  C  C98  1  0.022780  0.569800  0.569800  1.0  0.6935
  C  C99  1  0.613700  0.743000  0.029600  1.0  -0.1637
  C  C100  1  0.569800  0.837620  0.022780  1.0  0.6935
  C  C101  1  0.743000  0.029600  0.613700  1.0  -0.1636
  C  C102  1  0.837620  0.022780  0.569800  1.0  0.6925
  C  C103  1  0.613700  0.613700  0.029600  1.0  -0.1642
  C  C104  1  0.569800  0.569800  0.022780  1.0  0.6926
  C  C105  1  0.613700  0.613700  0.743000  1.0  -0.1642
  C  C106  1  0.569800  0.569800  0.837620  1.0  0.6925
  C  C107  1  0.029600  0.743000  0.613700  1.0  -0.1633
  C  C108  1  0.022780  0.837620  0.569800  1.0  0.694
  O  O109  1  0.979960  0.387400  0.506840  1.0  -0.5619
  O  O110  1  0.387400  0.979960  0.125800  1.0  -0.5613
  O  O111  1  0.506840  0.125800  0.979960  1.0  -0.5618
  O  O112  1  0.125800  0.506840  0.387400  1.0  -0.5625
  O  O113  1  0.979960  0.506840  0.125800  1.0  -0.5623
  O  O114  1  0.387400  0.125800  0.506840  1.0  -0.5623
  O  O115  1  0.506840  0.979960  0.387400  1.0  -0.5626
  O  O116  1  0.125800  0.387400  0.979960  1.0  -0.562
  O  O117  1  0.979960  0.125800  0.387400  1.0  -0.5616
  O  O118  1  0.387400  0.506840  0.979960  1.0  -0.5634
  O  O119  1  0.506840  0.387400  0.125800  1.0  -0.5626
  O  O120  1  0.125800  0.979960  0.506840  1.0  -0.5617
  O  O121  1  0.612600  0.020040  0.493160  1.0  -0.5612
  O  O122  1  0.020040  0.612600  0.874200  1.0  -0.5623
  O  O123  1  0.874200  0.493160  0.020040  1.0  -0.5633
  O  O124  1  0.493160  0.874200  0.612600  1.0  -0.5616
  O  O125  1  0.493160  0.020040  0.874200  1.0  -0.562
  O  O126  1  0.874200  0.612600  0.493160  1.0  -0.5626
  O  O127  1  0.020040  0.493160  0.612600  1.0  -0.5623
  O  O128  1  0.612600  0.874200  0.020040  1.0  -0.5624
  O  O129  1  0.874200  0.020040  0.612600  1.0  -0.5616
  O  O130  1  0.493160  0.612600  0.020040  1.0  -0.5632
  O  O131  1  0.612600  0.493160  0.874200  1.0  -0.563
  O  O132  1  0.020040  0.874200  0.493160  1.0  -0.5613
  O  O133  1  0.020040  0.612600  0.493160  1.0  -0.5619
  O  O134  1  0.612600  0.020040  0.874200  1.0  -0.5614
  O  O135  1  0.493160  0.874200  0.020040  1.0  -0.5618
  O  O136  1  0.874200  0.493160  0.612600  1.0  -0.5631
  O  O137  1  0.020040  0.493160  0.874200  1.0  -0.562
  O  O138  1  0.612600  0.874200  0.493160  1.0  -0.5625
  O  O139  1  0.493160  0.020040  0.612600  1.0  -0.5621
  O  O140  1  0.874200  0.612600  0.020040  1.0  -0.5626
  O  O141  1  0.020040  0.874200  0.612600  1.0  -0.5612
  O  O142  1  0.612600  0.493160  0.020040  1.0  -0.5628
  O  O143  1  0.493160  0.612600  0.874200  1.0  -0.5634
  O  O144  1  0.874200  0.020040  0.493160  1.0  -0.5612
  O  O145  1  0.387400  0.979960  0.506840  1.0  -0.5611
  O  O146  1  0.979960  0.387400  0.125800  1.0  -0.5623
  O  O147  1  0.125800  0.506840  0.979960  1.0  -0.563
  O  O148  1  0.506840  0.125800  0.387400  1.0  -0.5617
  O  O149  1  0.506840  0.979960  0.125800  1.0  -0.5626
  O  O150  1  0.125800  0.387400  0.506840  1.0  -0.5621
  O  O151  1  0.979960  0.506840  0.387400  1.0  -0.5623
  O  O152  1  0.387400  0.125800  0.979960  1.0  -0.5622
  O  O153  1  0.125800  0.979960  0.387400  1.0  -0.5616
  O  O154  1  0.506840  0.387400  0.979960  1.0  -0.5626
  O  O155  1  0.387400  0.506840  0.125800  1.0  -0.5632
  O  O156  1  0.979960  0.125800  0.506840  1.0  -0.5617
