# generated using pymatgen
data_CuH2(C3O2)2
_symmetry_space_group_name_H-M   'P 1'
_cell_length_a   18.59800000
_cell_length_b   18.59800000
_cell_length_c   18.59800000
_cell_angle_alpha   60.00000000
_cell_angle_beta   60.00000000
_cell_angle_gamma   60.00000000
_symmetry_Int_Tables_number   1
_chemical_formula_structural   CuH2(C3O2)2
_chemical_formula_sum   'Cu12 H24 C72 O48'
_cell_volume   4548.66268741
_cell_formula_units_Z   12
loop_
 _symmetry_equiv_pos_site_id
 _symmetry_equiv_pos_as_xyz
  1  'x, y, z'
loop_
 _atom_site_type_symbol
 _atom_site_label
 _atom_site_symmetry_multiplicity
 _atom_site_fract_x
 _atom_site_fract_y
 _atom_site_fract_z
 _atom_site_occupancy
 _atom_site_charge
  Cu  Cu1  1  0.570520  0.429480  0.000000  1.0  0.8994
  Cu  Cu2  1  0.429480  0.570520  0.000000  1.0  0.8997
  Cu  Cu3  1  0.000000  0.000000  0.570520  1.0  0.8983
  Cu  Cu4  1  0.000000  0.000000  0.429480  1.0  0.899
  Cu  Cu5  1  0.570520  0.000000  0.000000  1.0  0.8996
  Cu  Cu6  1  0.429480  0.000000  0.000000  1.0  0.9002
  Cu  Cu7  1  0.000000  0.570520  0.429480  1.0  0.8998
  Cu  Cu8  1  0.000000  0.429480  0.570520  1.0  0.9002
  Cu  Cu9  1  0.570520  0.000000  0.429480  1.0  0.8997
  Cu  Cu10  1  0.429480  0.000000  0.570520  1.0  0.9004
  Cu  Cu11  1  0.000000  0.429480  0.000000  1.0  0.8996
  Cu  Cu12  1  0.000000  0.570520  0.000000  1.0  0.8993
  H  H13  1  0.271200  0.489400  0.968200  1.0  0.1206
  H  H14  1  0.489400  0.271200  0.271200  1.0  0.1199
  H  H15  1  0.968200  0.271200  0.271200  1.0  0.1194
  H  H16  1  0.271200  0.968200  0.489400  1.0  0.1194
  H  H17  1  0.271200  0.968200  0.271200  1.0  0.1193
  H  H18  1  0.489400  0.271200  0.968200  1.0  0.1199
  H  H19  1  0.968200  0.271200  0.489400  1.0  0.1196
  H  H20  1  0.271200  0.489400  0.271200  1.0  0.1205
  H  H21  1  0.271200  0.271200  0.489400  1.0  0.1193
  H  H22  1  0.489400  0.968200  0.271200  1.0  0.1201
  H  H23  1  0.968200  0.489400  0.271200  1.0  0.1207
  H  H24  1  0.271200  0.271200  0.968200  1.0  0.1191
  H  H25  1  0.510600  0.728800  0.031800  1.0  0.1195
  H  H26  1  0.728800  0.510600  0.728800  1.0  0.1202
  H  H27  1  0.728800  0.031800  0.728800  1.0  0.1194
  H  H28  1  0.031800  0.728800  0.510600  1.0  0.1193
  H  H29  1  0.031800  0.728800  0.728800  1.0  0.1194
  H  H30  1  0.728800  0.510600  0.031800  1.0  0.1203
  H  H31  1  0.728800  0.031800  0.510600  1.0  0.1193
  H  H32  1  0.510600  0.728800  0.728800  1.0  0.1195
  H  H33  1  0.728800  0.728800  0.510600  1.0  0.1192
  H  H34  1  0.031800  0.510600  0.728800  1.0  0.1204
  H  H35  1  0.510600  0.031800  0.728800  1.0  0.1198
  H  H36  1  0.728800  0.728800  0.031800  1.0  0.119
  C  C37  1  0.300580  0.430280  0.968560  1.0  0.0147
  C  C38  1  0.430280  0.300580  0.300580  1.0  0.0141
  C  C39  1  0.968560  0.300580  0.300580  1.0  0.0131
  C  C40  1  0.300580  0.968560  0.430280  1.0  0.0143
  C  C41  1  0.300580  0.968560  0.300580  1.0  0.0137
  C  C42  1  0.430280  0.300580  0.968560  1.0  0.0145
  C  C43  1  0.968560  0.300580  0.430280  1.0  0.0139
  C  C44  1  0.300580  0.430280  0.300580  1.0  0.0147
  C  C45  1  0.300580  0.300580  0.430280  1.0  0.0149
  C  C46  1  0.430280  0.968560  0.300580  1.0  0.0144
  C  C47  1  0.968560  0.430280  0.300580  1.0  0.0148
  C  C48  1  0.300580  0.300580  0.968560  1.0  0.014
  C  C49  1  0.569720  0.699420  0.031440  1.0  0.015
  C  C50  1  0.699420  0.569720  0.699420  1.0  0.0153
  C  C51  1  0.699420  0.031440  0.699420  1.0  0.0146
  C  C52  1  0.031440  0.699420  0.569720  1.0  0.013
  C  C53  1  0.031440  0.699420  0.699420  1.0  0.0143
  C  C54  1  0.699420  0.569720  0.031440  1.0  0.0152
  C  C55  1  0.699420  0.031440  0.569720  1.0  0.0132
  C  C56  1  0.569720  0.699420  0.699420  1.0  0.0151
  C  C57  1  0.699420  0.699420  0.569720  1.0  0.0141
  C  C58  1  0.031440  0.569720  0.699420  1.0  0.0149
  C  C59  1  0.569720  0.031440  0.699420  1.0  0.0148
  C  C60  1  0.699420  0.699420  0.031440  1.0  0.0145
  C  C61  1  0.386870  0.386870  0.968870  1.0  -0.1605
  C  C62  1  0.430990  0.430990  0.975990  1.0  0.6955
  C  C63  1  0.386870  0.386870  0.257390  1.0  -0.1605
  C  C64  1  0.430990  0.430990  0.162030  1.0  0.6954
  C  C65  1  0.968870  0.257390  0.386870  1.0  -0.1606
  C  C66  1  0.975990  0.162030  0.430990  1.0  0.6968
  C  C67  1  0.257390  0.968870  0.386870  1.0  -0.1608
  C  C68  1  0.162030  0.975990  0.430990  1.0  0.6969
  C  C69  1  0.386870  0.968870  0.257390  1.0  -0.161
  C  C70  1  0.430990  0.975990  0.162030  1.0  0.6972
  C  C71  1  0.386870  0.257390  0.968870  1.0  -0.1609
  C  C72  1  0.430990  0.162030  0.975990  1.0  0.6962
  C  C73  1  0.968870  0.386870  0.386870  1.0  -0.1613
  C  C74  1  0.975990  0.430990  0.430990  1.0  0.6972
  C  C75  1  0.257390  0.386870  0.386870  1.0  -0.1609
  C  C76  1  0.162030  0.430990  0.430990  1.0  0.696
  C  C77  1  0.386870  0.257390  0.386870  1.0  -0.1608
  C  C78  1  0.430990  0.162030  0.430990  1.0  0.6964
  C  C79  1  0.386870  0.968870  0.386870  1.0  -0.1608
  C  C80  1  0.430990  0.975990  0.430990  1.0  0.6971
  C  C81  1  0.968870  0.386870  0.257390  1.0  -0.1614
  C  C82  1  0.975990  0.430990  0.162030  1.0  0.6972
  C  C83  1  0.257390  0.386870  0.968870  1.0  -0.1608
  C  C84  1  0.162030  0.430990  0.975990  1.0  0.6961
  C  C85  1  0.613130  0.613130  0.031130  1.0  -0.1608
  C  C86  1  0.569010  0.569010  0.024010  1.0  0.6955
  C  C87  1  0.613130  0.613130  0.742610  1.0  -0.1606
  C  C88  1  0.569010  0.569010  0.837970  1.0  0.6955
  C  C89  1  0.742610  0.031130  0.613130  1.0  -0.1605
  C  C90  1  0.837970  0.024010  0.569010  1.0  0.6957
  C  C91  1  0.031130  0.742610  0.613130  1.0  -0.1605
  C  C92  1  0.024010  0.837970  0.569010  1.0  0.6969
  C  C93  1  0.031130  0.613130  0.742610  1.0  -0.1612
  C  C94  1  0.024010  0.569010  0.837970  1.0  0.6971
  C  C95  1  0.742610  0.613130  0.031130  1.0  -0.1604
  C  C96  1  0.837970  0.569010  0.024010  1.0  0.6965
  C  C97  1  0.613130  0.031130  0.613130  1.0  -0.1613
  C  C98  1  0.569010  0.024010  0.569010  1.0  0.6964
  C  C99  1  0.613130  0.742610  0.613130  1.0  -0.1606
  C  C100  1  0.569010  0.837970  0.569010  1.0  0.6966
  C  C101  1  0.742610  0.613130  0.613130  1.0  -0.1605
  C  C102  1  0.837970  0.569010  0.569010  1.0  0.6963
  C  C103  1  0.031130  0.613130  0.613130  1.0  -0.1612
  C  C104  1  0.024010  0.569010  0.569010  1.0  0.697
  C  C105  1  0.613130  0.031130  0.742610  1.0  -0.1612
  C  C106  1  0.569010  0.024010  0.837970  1.0  0.6964
  C  C107  1  0.613130  0.742610  0.031130  1.0  -0.1606
  C  C108  1  0.569010  0.837970  0.024010  1.0  0.6967
  O  O109  1  0.507590  0.387590  0.978670  1.0  -0.5601
  O  O110  1  0.387590  0.507590  0.126150  1.0  -0.5601
  O  O111  1  0.978670  0.126150  0.507590  1.0  -0.5597
  O  O112  1  0.126150  0.978670  0.387590  1.0  -0.5601
  O  O113  1  0.507590  0.978670  0.126150  1.0  -0.56
  O  O114  1  0.387590  0.126150  0.978670  1.0  -0.56
  O  O115  1  0.978670  0.507590  0.387590  1.0  -0.5601
  O  O116  1  0.126150  0.387590  0.507590  1.0  -0.5597
  O  O117  1  0.507590  0.126150  0.387590  1.0  -0.5596
  O  O118  1  0.387590  0.978670  0.507590  1.0  -0.5589
  O  O119  1  0.978670  0.387590  0.126150  1.0  -0.5596
  O  O120  1  0.126150  0.507590  0.978670  1.0  -0.56
  O  O121  1  0.612410  0.492410  0.021330  1.0  -0.5601
  O  O122  1  0.492410  0.612410  0.873850  1.0  -0.5601
  O  O123  1  0.873850  0.021330  0.492410  1.0  -0.5595
  O  O124  1  0.021330  0.873850  0.612410  1.0  -0.5592
  O  O125  1  0.021330  0.492410  0.873850  1.0  -0.56
  O  O126  1  0.873850  0.612410  0.021330  1.0  -0.56
  O  O127  1  0.492410  0.021330  0.612410  1.0  -0.5598
  O  O128  1  0.612410  0.873850  0.492410  1.0  -0.5601
  O  O129  1  0.873850  0.492410  0.612410  1.0  -0.5596
  O  O130  1  0.021330  0.612410  0.492410  1.0  -0.5589
  O  O131  1  0.612410  0.021330  0.873850  1.0  -0.5593
  O  O132  1  0.492410  0.873850  0.021330  1.0  -0.5598
  O  O133  1  0.492410  0.612410  0.021330  1.0  -0.5603
  O  O134  1  0.612410  0.492410  0.873850  1.0  -0.5601
  O  O135  1  0.021330  0.873850  0.492410  1.0  -0.5593
  O  O136  1  0.873850  0.021330  0.612410  1.0  -0.5599
  O  O137  1  0.492410  0.021330  0.873850  1.0  -0.56
  O  O138  1  0.612410  0.873850  0.021330  1.0  -0.5599
  O  O139  1  0.021330  0.492410  0.612410  1.0  -0.5592
  O  O140  1  0.873850  0.612410  0.492410  1.0  -0.5603
  O  O141  1  0.492410  0.873850  0.612410  1.0  -0.5593
  O  O142  1  0.612410  0.021330  0.492410  1.0  -0.559
  O  O143  1  0.021330  0.612410  0.873850  1.0  -0.5593
  O  O144  1  0.873850  0.492410  0.021330  1.0  -0.5599
  O  O145  1  0.387590  0.507590  0.978670  1.0  -0.5601
  O  O146  1  0.507590  0.387590  0.126150  1.0  -0.5601
  O  O147  1  0.126150  0.978670  0.507590  1.0  -0.56
  O  O148  1  0.978670  0.126150  0.387590  1.0  -0.5596
  O  O149  1  0.978670  0.507590  0.126150  1.0  -0.5598
  O  O150  1  0.126150  0.387590  0.978670  1.0  -0.5601
  O  O151  1  0.507590  0.978670  0.387590  1.0  -0.5601
  O  O152  1  0.387590  0.126150  0.507590  1.0  -0.5598
  O  O153  1  0.126150  0.507590  0.387590  1.0  -0.5599
  O  O154  1  0.978670  0.387590  0.507590  1.0  -0.5593
  O  O155  1  0.387590  0.978670  0.126150  1.0  -0.559
  O  O156  1  0.507590  0.126150  0.978670  1.0  -0.5594
