# generated using pymatgen
data_CuH2(C3O2)2
_symmetry_space_group_name_H-M   'P 1'
_cell_length_a   18.56610000
_cell_length_b   18.56610000
_cell_length_c   18.56610000
_cell_angle_alpha   60.00000000
_cell_angle_beta   60.00000000
_cell_angle_gamma   60.00000000
_symmetry_Int_Tables_number   1
_chemical_formula_structural   CuH2(C3O2)2
_chemical_formula_sum   'Cu12 H24 C72 O48'
_cell_volume   4525.29669156
_cell_formula_units_Z   12
loop_
 _symmetry_equiv_pos_site_id
 _symmetry_equiv_pos_as_xyz
  1  'x, y, z'
loop_
 _atom_site_type_symbol
 _atom_site_label
 _atom_site_symmetry_multiplicity
 _atom_site_fract_x
 _atom_site_fract_y
 _atom_site_fract_z
 _atom_site_occupancy
 _atom_site_charge
  Cu  Cu1  1  0.000000  0.430100  0.569900  1.0  0.9041
  Cu  Cu2  1  0.430100  0.000000  0.000000  1.0  0.9046
  Cu  Cu3  1  0.569900  0.000000  0.000000  1.0  0.9036
  Cu  Cu4  1  0.000000  0.569900  0.430100  1.0  0.9042
  Cu  Cu5  1  0.000000  0.569900  0.000000  1.0  0.9036
  Cu  Cu6  1  0.430100  0.000000  0.569900  1.0  0.9047
  Cu  Cu7  1  0.569900  0.000000  0.430100  1.0  0.9038
  Cu  Cu8  1  0.000000  0.430100  0.000000  1.0  0.9036
  Cu  Cu9  1  0.000000  0.000000  0.430100  1.0  0.9024
  Cu  Cu10  1  0.430100  0.569900  0.000000  1.0  0.9041
  Cu  Cu11  1  0.569900  0.430100  0.000000  1.0  0.9032
  Cu  Cu12  1  0.000000  0.000000  0.569900  1.0  0.9015
  H  H13  1  0.972200  0.270400  0.487000  1.0  0.1148
  H  H14  1  0.270400  0.972200  0.270400  1.0  0.1147
  H  H15  1  0.487000  0.270400  0.972200  1.0  0.1146
  H  H16  1  0.270400  0.487000  0.270400  1.0  0.1163
  H  H17  1  0.972200  0.487000  0.270400  1.0  0.1159
  H  H18  1  0.270400  0.270400  0.487000  1.0  0.1147
  H  H19  1  0.487000  0.972200  0.270400  1.0  0.115
  H  H20  1  0.270400  0.270400  0.972200  1.0  0.1144
  H  H21  1  0.972200  0.270400  0.270400  1.0  0.1145
  H  H22  1  0.270400  0.487000  0.972200  1.0  0.1162
  H  H23  1  0.487000  0.270400  0.270400  1.0  0.1146
  H  H24  1  0.270400  0.972200  0.487000  1.0  0.1148
  H  H25  1  0.729600  0.027800  0.513000  1.0  0.1146
  H  H26  1  0.027800  0.729600  0.729600  1.0  0.1148
  H  H27  1  0.729600  0.513000  0.027800  1.0  0.1162
  H  H28  1  0.513000  0.729600  0.729600  1.0  0.1148
  H  H29  1  0.513000  0.027800  0.729600  1.0  0.1153
  H  H30  1  0.729600  0.729600  0.513000  1.0  0.1145
  H  H31  1  0.027800  0.513000  0.729600  1.0  0.1164
  H  H32  1  0.729600  0.729600  0.027800  1.0  0.1144
  H  H33  1  0.729600  0.027800  0.729600  1.0  0.1148
  H  H34  1  0.513000  0.729600  0.027800  1.0  0.115
  H  H35  1  0.729600  0.513000  0.729600  1.0  0.116
  H  H36  1  0.027800  0.729600  0.513000  1.0  0.1145
  C  C37  1  0.970400  0.300400  0.428800  1.0  0.0268
  C  C38  1  0.300400  0.970400  0.300400  1.0  0.0271
  C  C39  1  0.428800  0.300400  0.970400  1.0  0.0272
  C  C40  1  0.300400  0.428800  0.300400  1.0  0.0268
  C  C41  1  0.970400  0.428800  0.300400  1.0  0.0274
  C  C42  1  0.300400  0.300400  0.428800  1.0  0.0274
  C  C43  1  0.428800  0.970400  0.300400  1.0  0.027
  C  C44  1  0.300400  0.300400  0.970400  1.0  0.0266
  C  C45  1  0.970400  0.300400  0.300400  1.0  0.0262
  C  C46  1  0.300400  0.428800  0.970400  1.0  0.0268
  C  C47  1  0.428800  0.300400  0.300400  1.0  0.0269
  C  C48  1  0.300400  0.970400  0.428800  1.0  0.0274
  C  C49  1  0.699600  0.029600  0.571200  1.0  0.0264
  C  C50  1  0.029600  0.699600  0.699600  1.0  0.027
  C  C51  1  0.699600  0.571200  0.029600  1.0  0.0276
  C  C52  1  0.571200  0.699600  0.699600  1.0  0.0275
  C  C53  1  0.571200  0.029600  0.699600  1.0  0.0274
  C  C54  1  0.699600  0.699600  0.571200  1.0  0.0264
  C  C55  1  0.029600  0.571200  0.699600  1.0  0.0267
  C  C56  1  0.699600  0.699600  0.029600  1.0  0.0265
  C  C57  1  0.699600  0.029600  0.699600  1.0  0.0275
  C  C58  1  0.571200  0.699600  0.029600  1.0  0.0274
  C  C59  1  0.699600  0.571200  0.699600  1.0  0.0277
  C  C60  1  0.029600  0.699600  0.571200  1.0  0.0258
  C  C61  1  0.968520  0.387000  0.387000  1.0  -0.1649
  C  C62  1  0.978600  0.429600  0.429600  1.0  0.7
  C  C63  1  0.387000  0.968520  0.257480  1.0  -0.1648
  C  C64  1  0.429600  0.978600  0.162200  1.0  0.6998
  C  C65  1  0.387000  0.257480  0.968520  1.0  -0.1648
  C  C66  1  0.429600  0.162200  0.978600  1.0  0.6983
  C  C67  1  0.257480  0.387000  0.387000  1.0  -0.1664
  C  C68  1  0.162200  0.429600  0.429600  1.0  0.6979
  C  C69  1  0.968520  0.387000  0.257480  1.0  -0.1649
  C  C70  1  0.978600  0.429600  0.162200  1.0  0.7003
  C  C71  1  0.387000  0.257480  0.387000  1.0  -0.1651
  C  C72  1  0.429600  0.162200  0.429600  1.0  0.6983
  C  C73  1  0.387000  0.968520  0.387000  1.0  -0.1648
  C  C74  1  0.429600  0.978600  0.429600  1.0  0.6997
  C  C75  1  0.257480  0.387000  0.968520  1.0  -0.1656
  C  C76  1  0.162200  0.429600  0.978600  1.0  0.698
  C  C77  1  0.968520  0.257480  0.387000  1.0  -0.1647
  C  C78  1  0.978600  0.162200  0.429600  1.0  0.6994
  C  C79  1  0.387000  0.387000  0.968520  1.0  -0.1643
  C  C80  1  0.429600  0.429600  0.978600  1.0  0.6983
  C  C81  1  0.387000  0.387000  0.257480  1.0  -0.1642
  C  C82  1  0.429600  0.429600  0.162200  1.0  0.698
  C  C83  1  0.257480  0.968520  0.387000  1.0  -0.1649
  C  C84  1  0.162200  0.978600  0.429600  1.0  0.6991
  C  C85  1  0.613000  0.031480  0.613000  1.0  -0.1648
  C  C86  1  0.570400  0.021400  0.570400  1.0  0.6996
  C  C87  1  0.031480  0.613000  0.742520  1.0  -0.1651
  C  C88  1  0.021400  0.570400  0.837800  1.0  0.6994
  C  C89  1  0.742520  0.613000  0.031480  1.0  -0.1649
  C  C90  1  0.837800  0.570400  0.021400  1.0  0.6981
  C  C91  1  0.613000  0.742520  0.613000  1.0  -0.1645
  C  C92  1  0.570400  0.837800  0.570400  1.0  0.6991
  C  C93  1  0.613000  0.031480  0.742520  1.0  -0.165
  C  C94  1  0.570400  0.021400  0.837800  1.0  0.6996
  C  C95  1  0.742520  0.613000  0.613000  1.0  -0.1648
  C  C96  1  0.837800  0.570400  0.570400  1.0  0.6982
  C  C97  1  0.031480  0.613000  0.613000  1.0  -0.1647
  C  C98  1  0.021400  0.570400  0.570400  1.0  0.6992
  C  C99  1  0.613000  0.742520  0.031480  1.0  -0.1653
  C  C100  1  0.570400  0.837800  0.021400  1.0  0.6991
  C  C101  1  0.742520  0.031480  0.613000  1.0  -0.1643
  C  C102  1  0.837800  0.021400  0.570400  1.0  0.6985
  C  C103  1  0.613000  0.613000  0.031480  1.0  -0.1646
  C  C104  1  0.570400  0.570400  0.021400  1.0  0.6979
  C  C105  1  0.613000  0.613000  0.742520  1.0  -0.1647
  C  C106  1  0.570400  0.570400  0.837800  1.0  0.6981
  C  C107  1  0.031480  0.742520  0.613000  1.0  -0.1639
  C  C108  1  0.021400  0.837800  0.570400  1.0  0.6994
  O  O109  1  0.979980  0.387140  0.506640  1.0  -0.5642
  O  O110  1  0.387140  0.979980  0.126240  1.0  -0.5634
  O  O111  1  0.506640  0.126240  0.979980  1.0  -0.5637
  O  O112  1  0.126240  0.506640  0.387140  1.0  -0.564
  O  O113  1  0.979980  0.506640  0.126240  1.0  -0.5638
  O  O114  1  0.387140  0.126240  0.506640  1.0  -0.5639
  O  O115  1  0.506640  0.979980  0.387140  1.0  -0.5646
  O  O116  1  0.126240  0.387140  0.979980  1.0  -0.564
  O  O117  1  0.979980  0.126240  0.387140  1.0  -0.5632
  O  O118  1  0.387140  0.506640  0.979980  1.0  -0.5649
  O  O119  1  0.506640  0.387140  0.126240  1.0  -0.5648
  O  O120  1  0.126240  0.979980  0.506640  1.0  -0.5637
  O  O121  1  0.612860  0.020020  0.493360  1.0  -0.5627
  O  O122  1  0.020020  0.612860  0.873760  1.0  -0.5645
  O  O123  1  0.873760  0.493360  0.020020  1.0  -0.5653
  O  O124  1  0.493360  0.873760  0.612860  1.0  -0.5632
  O  O125  1  0.493360  0.020020  0.873760  1.0  -0.5637
  O  O126  1  0.873760  0.612860  0.493360  1.0  -0.5643
  O  O127  1  0.020020  0.493360  0.612860  1.0  -0.5642
  O  O128  1  0.612860  0.873760  0.020020  1.0  -0.5643
  O  O129  1  0.873760  0.020020  0.612860  1.0  -0.5633
  O  O130  1  0.493360  0.612860  0.020020  1.0  -0.5649
  O  O131  1  0.612860  0.493360  0.873760  1.0  -0.5653
  O  O132  1  0.020020  0.873760  0.493360  1.0  -0.5626
  O  O133  1  0.020020  0.612860  0.493360  1.0  -0.5635
  O  O134  1  0.612860  0.020020  0.873760  1.0  -0.5635
  O  O135  1  0.493360  0.873760  0.020020  1.0  -0.563
  O  O136  1  0.873760  0.493360  0.612860  1.0  -0.5648
  O  O137  1  0.020020  0.493360  0.873760  1.0  -0.5637
  O  O138  1  0.612860  0.873760  0.493360  1.0  -0.5643
  O  O139  1  0.493360  0.020020  0.612860  1.0  -0.564
  O  O140  1  0.873760  0.612860  0.020020  1.0  -0.5643
  O  O141  1  0.020020  0.873760  0.612860  1.0  -0.5628
  O  O142  1  0.612860  0.493360  0.020020  1.0  -0.5654
  O  O143  1  0.493360  0.612860  0.873760  1.0  -0.5647
  O  O144  1  0.873760  0.020020  0.493360  1.0  -0.5625
  O  O145  1  0.387140  0.979980  0.506640  1.0  -0.5629
  O  O146  1  0.979980  0.387140  0.126240  1.0  -0.5637
  O  O147  1  0.126240  0.506640  0.979980  1.0  -0.5644
  O  O148  1  0.506640  0.126240  0.387140  1.0  -0.5636
  O  O149  1  0.506640  0.979980  0.126240  1.0  -0.5647
  O  O150  1  0.126240  0.387140  0.506640  1.0  -0.5639
  O  O151  1  0.979980  0.506640  0.387140  1.0  -0.5637
  O  O152  1  0.387140  0.126240  0.979980  1.0  -0.5639
  O  O153  1  0.126240  0.979980  0.387140  1.0  -0.5632
  O  O154  1  0.506640  0.387140  0.979980  1.0  -0.5647
  O  O155  1  0.387140  0.506640  0.126240  1.0  -0.5647
  O  O156  1  0.979980  0.126240  0.506640  1.0  -0.5634
