# generated using pymatgen
data_CuH2(C3O2)2
_symmetry_space_group_name_H-M   'P 1'
_cell_length_a   18.34710000
_cell_length_b   18.34710000
_cell_length_c   18.34710000
_cell_angle_alpha   60.00000000
_cell_angle_beta   60.00000000
_cell_angle_gamma   60.00000000
_symmetry_Int_Tables_number   1
_chemical_formula_structural   CuH2(C3O2)2
_chemical_formula_sum   'Cu12 H24 C72 O48'
_cell_volume   4367.04117151
_cell_formula_units_Z   12
loop_
 _symmetry_equiv_pos_site_id
 _symmetry_equiv_pos_as_xyz
  1  'x, y, z'
loop_
 _atom_site_type_symbol
 _atom_site_label
 _atom_site_symmetry_multiplicity
 _atom_site_fract_x
 _atom_site_fract_y
 _atom_site_fract_z
 _atom_site_occupancy
 _atom_site_charge
  Cu  Cu1  1  0.000000  0.429200  0.570800  1.0  0.8963
  Cu  Cu2  1  0.429200  0.000000  0.000000  1.0  0.8966
  Cu  Cu3  1  0.570800  0.000000  0.000000  1.0  0.8953
  Cu  Cu4  1  0.000000  0.570800  0.429200  1.0  0.896
  Cu  Cu5  1  0.000000  0.570800  0.000000  1.0  0.8957
  Cu  Cu6  1  0.429200  0.000000  0.570800  1.0  0.8964
  Cu  Cu7  1  0.570800  0.000000  0.429200  1.0  0.8956
  Cu  Cu8  1  0.000000  0.429200  0.000000  1.0  0.8961
  Cu  Cu9  1  0.000000  0.000000  0.429200  1.0  0.8945
  Cu  Cu10  1  0.429200  0.570800  0.000000  1.0  0.8959
  Cu  Cu11  1  0.570800  0.429200  0.000000  1.0  0.8952
  Cu  Cu12  1  0.000000  0.000000  0.570800  1.0  0.8929
  H  H13  1  0.964100  0.272500  0.490900  1.0  0.1168
  H  H14  1  0.272500  0.964100  0.272500  1.0  0.1169
  H  H15  1  0.490900  0.272500  0.964100  1.0  0.1179
  H  H16  1  0.272500  0.490900  0.272500  1.0  0.1181
  H  H17  1  0.964100  0.490900  0.272500  1.0  0.1183
  H  H18  1  0.272500  0.272500  0.490900  1.0  0.117
  H  H19  1  0.490900  0.964100  0.272500  1.0  0.1178
  H  H20  1  0.272500  0.272500  0.964100  1.0  0.1168
  H  H21  1  0.964100  0.272500  0.272500  1.0  0.1167
  H  H22  1  0.272500  0.490900  0.964100  1.0  0.1182
  H  H23  1  0.490900  0.272500  0.272500  1.0  0.1178
  H  H24  1  0.272500  0.964100  0.490900  1.0  0.1169
  H  H25  1  0.727500  0.035900  0.509100  1.0  0.117
  H  H26  1  0.035900  0.727500  0.727500  1.0  0.1168
  H  H27  1  0.727500  0.509100  0.035900  1.0  0.1183
  H  H28  1  0.509100  0.727500  0.727500  1.0  0.1174
  H  H29  1  0.509100  0.035900  0.727500  1.0  0.1177
  H  H30  1  0.727500  0.727500  0.509100  1.0  0.1168
  H  H31  1  0.035900  0.509100  0.727500  1.0  0.1181
  H  H32  1  0.727500  0.727500  0.035900  1.0  0.1168
  H  H33  1  0.727500  0.035900  0.727500  1.0  0.117
  H  H34  1  0.509100  0.727500  0.035900  1.0  0.1174
  H  H35  1  0.727500  0.509100  0.727500  1.0  0.1181
  H  H36  1  0.035900  0.727500  0.509100  1.0  0.1167
  C  C37  1  0.963700  0.302500  0.431300  1.0  0.0219
  C  C38  1  0.302500  0.963700  0.302500  1.0  0.0219
  C  C39  1  0.431300  0.302500  0.963700  1.0  0.0225
  C  C40  1  0.302500  0.431300  0.302500  1.0  0.0217
  C  C41  1  0.963700  0.431300  0.302500  1.0  0.0225
  C  C42  1  0.302500  0.302500  0.431300  1.0  0.0214
  C  C43  1  0.431300  0.963700  0.302500  1.0  0.0232
  C  C44  1  0.302500  0.302500  0.963700  1.0  0.0209
  C  C45  1  0.963700  0.302500  0.302500  1.0  0.0216
  C  C46  1  0.302500  0.431300  0.963700  1.0  0.0217
  C  C47  1  0.431300  0.302500  0.302500  1.0  0.0224
  C  C48  1  0.302500  0.963700  0.431300  1.0  0.0214
  C  C49  1  0.697500  0.036300  0.568700  1.0  0.0213
  C  C50  1  0.036300  0.697500  0.697500  1.0  0.0224
  C  C51  1  0.697500  0.568700  0.036300  1.0  0.0223
  C  C52  1  0.568700  0.697500  0.697500  1.0  0.0222
  C  C53  1  0.568700  0.036300  0.697500  1.0  0.0218
  C  C54  1  0.697500  0.697500  0.568700  1.0  0.0219
  C  C55  1  0.036300  0.568700  0.697500  1.0  0.0209
  C  C56  1  0.697500  0.697500  0.036300  1.0  0.0216
  C  C57  1  0.697500  0.036300  0.697500  1.0  0.0216
  C  C58  1  0.568700  0.697500  0.036300  1.0  0.0223
  C  C59  1  0.697500  0.568700  0.697500  1.0  0.0222
  C  C60  1  0.036300  0.697500  0.568700  1.0  0.0219
  C  C61  1  0.962500  0.389100  0.389100  1.0  -0.1419
  C  C62  1  0.977400  0.430600  0.430600  1.0  0.6832
  C  C63  1  0.389100  0.962500  0.259300  1.0  -0.1415
  C  C64  1  0.430600  0.977400  0.161400  1.0  0.6838
  C  C65  1  0.389100  0.259300  0.962500  1.0  -0.143
  C  C66  1  0.430600  0.161400  0.977400  1.0  0.6832
  C  C67  1  0.259300  0.389100  0.389100  1.0  -0.1442
  C  C68  1  0.161400  0.430600  0.430600  1.0  0.6823
  C  C69  1  0.962500  0.389100  0.259300  1.0  -0.1417
  C  C70  1  0.977400  0.430600  0.161400  1.0  0.6833
  C  C71  1  0.389100  0.259300  0.389100  1.0  -0.1436
  C  C72  1  0.430600  0.161400  0.430600  1.0  0.6831
  C  C73  1  0.389100  0.962500  0.389100  1.0  -0.1413
  C  C74  1  0.430600  0.977400  0.430600  1.0  0.6837
  C  C75  1  0.259300  0.389100  0.962500  1.0  -0.1434
  C  C76  1  0.161400  0.430600  0.977400  1.0  0.6826
  C  C77  1  0.962500  0.259300  0.389100  1.0  -0.1429
  C  C78  1  0.977400  0.161400  0.430600  1.0  0.6834
  C  C79  1  0.389100  0.389100  0.962500  1.0  -0.1419
  C  C80  1  0.430600  0.430600  0.977400  1.0  0.6827
  C  C81  1  0.389100  0.389100  0.259300  1.0  -0.1418
  C  C82  1  0.430600  0.430600  0.161400  1.0  0.683
  C  C83  1  0.259300  0.962500  0.389100  1.0  -0.1426
  C  C84  1  0.161400  0.977400  0.430600  1.0  0.6831
  C  C85  1  0.610900  0.037500  0.610900  1.0  -0.1412
  C  C86  1  0.569400  0.022600  0.569400  1.0  0.6837
  C  C87  1  0.037500  0.610900  0.740700  1.0  -0.1422
  C  C88  1  0.022600  0.569400  0.838600  1.0  0.6833
  C  C89  1  0.740700  0.610900  0.037500  1.0  -0.1432
  C  C90  1  0.838600  0.569400  0.022600  1.0  0.6824
  C  C91  1  0.610900  0.740700  0.610900  1.0  -0.1432
  C  C92  1  0.569400  0.838600  0.569400  1.0  0.683
  C  C93  1  0.610900  0.037500  0.740700  1.0  -0.1415
  C  C94  1  0.569400  0.022600  0.838600  1.0  0.6835
  C  C95  1  0.740700  0.610900  0.610900  1.0  -0.1424
  C  C96  1  0.838600  0.569400  0.569400  1.0  0.6826
  C  C97  1  0.037500  0.610900  0.610900  1.0  -0.142
  C  C98  1  0.022600  0.569400  0.569400  1.0  0.6832
  C  C99  1  0.610900  0.740700  0.037500  1.0  -0.144
  C  C100  1  0.569400  0.838600  0.022600  1.0  0.683
  C  C101  1  0.740700  0.037500  0.610900  1.0  -0.1415
  C  C102  1  0.838600  0.022600  0.569400  1.0  0.6825
  C  C103  1  0.610900  0.610900  0.037500  1.0  -0.1421
  C  C104  1  0.569400  0.569400  0.022600  1.0  0.6829
  C  C105  1  0.610900  0.610900  0.740700  1.0  -0.1424
  C  C106  1  0.569400  0.569400  0.838600  1.0  0.6826
  C  C107  1  0.037500  0.740700  0.610900  1.0  -0.1423
  C  C108  1  0.022600  0.838600  0.569400  1.0  0.6836
  O  O109  1  0.979600  0.387200  0.509400  1.0  -0.5641
  O  O110  1  0.387200  0.979600  0.123800  1.0  -0.5622
  O  O111  1  0.509400  0.123800  0.979600  1.0  -0.5639
  O  O112  1  0.123800  0.509400  0.387200  1.0  -0.5636
  O  O113  1  0.979600  0.509400  0.123800  1.0  -0.565
  O  O114  1  0.387200  0.123800  0.509400  1.0  -0.5635
  O  O115  1  0.509400  0.979600  0.387200  1.0  -0.5636
  O  O116  1  0.123800  0.387200  0.979600  1.0  -0.5636
  O  O117  1  0.979600  0.123800  0.387200  1.0  -0.5627
  O  O118  1  0.387200  0.509400  0.979600  1.0  -0.5655
  O  O119  1  0.509400  0.387200  0.123800  1.0  -0.5642
  O  O120  1  0.123800  0.979600  0.509400  1.0  -0.5633
  O  O121  1  0.612800  0.020400  0.490600  1.0  -0.5629
  O  O122  1  0.020400  0.612800  0.876200  1.0  -0.5638
  O  O123  1  0.876200  0.490600  0.020400  1.0  -0.5641
  O  O124  1  0.490600  0.876200  0.612800  1.0  -0.5634
  O  O125  1  0.490600  0.020400  0.876200  1.0  -0.5632
  O  O126  1  0.876200  0.612800  0.490600  1.0  -0.5643
  O  O127  1  0.020400  0.490600  0.612800  1.0  -0.5641
  O  O128  1  0.612800  0.876200  0.020400  1.0  -0.5652
  O  O129  1  0.876200  0.020400  0.612800  1.0  -0.5636
  O  O130  1  0.490600  0.612800  0.020400  1.0  -0.5653
  O  O131  1  0.612800  0.490600  0.876200  1.0  -0.5642
  O  O132  1  0.020400  0.876200  0.490600  1.0  -0.5632
  O  O133  1  0.020400  0.612800  0.490600  1.0  -0.5637
  O  O134  1  0.612800  0.020400  0.876200  1.0  -0.5625
  O  O135  1  0.490600  0.876200  0.020400  1.0  -0.5633
  O  O136  1  0.876200  0.490600  0.612800  1.0  -0.5645
  O  O137  1  0.020400  0.490600  0.876200  1.0  -0.5633
  O  O138  1  0.612800  0.876200  0.490600  1.0  -0.5639
  O  O139  1  0.490600  0.020400  0.612800  1.0  -0.5642
  O  O140  1  0.876200  0.612800  0.020400  1.0  -0.5647
  O  O141  1  0.020400  0.876200  0.612800  1.0  -0.5638
  O  O142  1  0.612800  0.490600  0.020400  1.0  -0.5639
  O  O143  1  0.490600  0.612800  0.876200  1.0  -0.5654
  O  O144  1  0.876200  0.020400  0.490600  1.0  -0.5629
  O  O145  1  0.387200  0.979600  0.509400  1.0  -0.5631
  O  O146  1  0.979600  0.387200  0.123800  1.0  -0.5633
  O  O147  1  0.123800  0.509400  0.979600  1.0  -0.5653
  O  O148  1  0.509400  0.123800  0.387200  1.0  -0.5624
  O  O149  1  0.509400  0.979600  0.123800  1.0  -0.5642
  O  O150  1  0.123800  0.387200  0.509400  1.0  -0.5643
  O  O151  1  0.979600  0.509400  0.387200  1.0  -0.5642
  O  O152  1  0.387200  0.123800  0.979600  1.0  -0.5637
  O  O153  1  0.123800  0.979600  0.387200  1.0  -0.563
  O  O154  1  0.509400  0.387200  0.979600  1.0  -0.5643
  O  O155  1  0.387200  0.509400  0.123800  1.0  -0.5656
  O  O156  1  0.979600  0.123800  0.509400  1.0  -0.5632
