# generated using pymatgen
data_CuH2(C3O2)2
_symmetry_space_group_name_H-M   'P 1'
_cell_length_a   18.51370000
_cell_length_b   18.51370000
_cell_length_c   18.51370000
_cell_angle_alpha   60.00000000
_cell_angle_beta   60.00000000
_cell_angle_gamma   60.00000000
_symmetry_Int_Tables_number   1
_chemical_formula_structural   CuH2(C3O2)2
_chemical_formula_sum   'Cu12 H24 C72 O48'
_cell_volume   4487.08884089
_cell_formula_units_Z   12
loop_
 _symmetry_equiv_pos_site_id
 _symmetry_equiv_pos_as_xyz
  1  'x, y, z'
loop_
 _atom_site_type_symbol
 _atom_site_label
 _atom_site_symmetry_multiplicity
 _atom_site_fract_x
 _atom_site_fract_y
 _atom_site_fract_z
 _atom_site_occupancy
 _atom_site_charge
  Cu  Cu1  1  0.000000  0.429920  0.570080  1.0  0.8917
  Cu  Cu2  1  0.429920  0.000000  0.000000  1.0  0.8919
  Cu  Cu3  1  0.570080  0.000000  0.000000  1.0  0.8913
  Cu  Cu4  1  0.000000  0.570080  0.429920  1.0  0.8913
  Cu  Cu5  1  0.000000  0.570080  0.000000  1.0  0.8907
  Cu  Cu6  1  0.429920  0.000000  0.570080  1.0  0.8919
  Cu  Cu7  1  0.570080  0.000000  0.429920  1.0  0.8913
  Cu  Cu8  1  0.000000  0.429920  0.000000  1.0  0.8913
  Cu  Cu9  1  0.000000  0.000000  0.429920  1.0  0.8908
  Cu  Cu10  1  0.429920  0.570080  0.000000  1.0  0.8914
  Cu  Cu11  1  0.570080  0.429920  0.000000  1.0  0.8905
  Cu  Cu12  1  0.000000  0.000000  0.570080  1.0  0.8899
  H  H13  1  0.970300  0.271500  0.486700  1.0  0.1091
  H  H14  1  0.271500  0.970300  0.271500  1.0  0.1095
  H  H15  1  0.486700  0.271500  0.970300  1.0  0.1087
  H  H16  1  0.271500  0.486700  0.271500  1.0  0.1105
  H  H17  1  0.970300  0.486700  0.271500  1.0  0.1101
  H  H18  1  0.271500  0.271500  0.486700  1.0  0.1091
  H  H19  1  0.486700  0.970300  0.271500  1.0  0.109
  H  H20  1  0.271500  0.271500  0.970300  1.0  0.1088
  H  H21  1  0.970300  0.271500  0.271500  1.0  0.1092
  H  H22  1  0.271500  0.486700  0.970300  1.0  0.1104
  H  H23  1  0.486700  0.271500  0.271500  1.0  0.1088
  H  H24  1  0.271500  0.970300  0.486700  1.0  0.1092
  H  H25  1  0.728500  0.029700  0.513300  1.0  0.1092
  H  H26  1  0.029700  0.728500  0.728500  1.0  0.1091
  H  H27  1  0.728500  0.513300  0.029700  1.0  0.1106
  H  H28  1  0.513300  0.728500  0.728500  1.0  0.1089
  H  H29  1  0.513300  0.029700  0.728500  1.0  0.1092
  H  H30  1  0.728500  0.728500  0.513300  1.0  0.1087
  H  H31  1  0.029700  0.513300  0.728500  1.0  0.1103
  H  H32  1  0.728500  0.728500  0.029700  1.0  0.1085
  H  H33  1  0.728500  0.029700  0.728500  1.0  0.1091
  H  H34  1  0.513300  0.728500  0.029700  1.0  0.1092
  H  H35  1  0.728500  0.513300  0.728500  1.0  0.1103
  H  H36  1  0.029700  0.728500  0.513300  1.0  0.1091
  C  C37  1  0.967600  0.302000  0.428400  1.0  0.0191
  C  C38  1  0.302000  0.967600  0.302000  1.0  0.0195
  C  C39  1  0.428400  0.302000  0.967600  1.0  0.0191
  C  C40  1  0.302000  0.428400  0.302000  1.0  0.0175
  C  C41  1  0.967600  0.428400  0.302000  1.0  0.0178
  C  C42  1  0.302000  0.302000  0.428400  1.0  0.0208
  C  C43  1  0.428400  0.967600  0.302000  1.0  0.0196
  C  C44  1  0.302000  0.302000  0.967600  1.0  0.0196
  C  C45  1  0.967600  0.302000  0.302000  1.0  0.0188
  C  C46  1  0.302000  0.428400  0.967600  1.0  0.0178
  C  C47  1  0.428400  0.302000  0.302000  1.0  0.0186
  C  C48  1  0.302000  0.967600  0.428400  1.0  0.0195
  C  C49  1  0.698000  0.032400  0.571600  1.0  0.0182
  C  C50  1  0.032400  0.698000  0.698000  1.0  0.0187
  C  C51  1  0.698000  0.571600  0.032400  1.0  0.0189
  C  C52  1  0.571600  0.698000  0.698000  1.0  0.0209
  C  C53  1  0.571600  0.032400  0.698000  1.0  0.0203
  C  C54  1  0.698000  0.698000  0.571600  1.0  0.0186
  C  C55  1  0.032400  0.571600  0.698000  1.0  0.0193
  C  C56  1  0.698000  0.698000  0.032400  1.0  0.0195
  C  C57  1  0.698000  0.032400  0.698000  1.0  0.0191
  C  C58  1  0.571600  0.698000  0.032400  1.0  0.0207
  C  C59  1  0.698000  0.571600  0.698000  1.0  0.0192
  C  C60  1  0.032400  0.698000  0.571600  1.0  0.0177
  C  C61  1  0.965200  0.389000  0.389000  1.0  -0.1628
  C  C62  1  0.977100  0.430500  0.430500  1.0  0.6948
  C  C63  1  0.389000  0.965200  0.256800  1.0  -0.1609
  C  C64  1  0.430500  0.977100  0.161900  1.0  0.6945
  C  C65  1  0.389000  0.256800  0.965200  1.0  -0.161
  C  C66  1  0.430500  0.161900  0.977100  1.0  0.6938
  C  C67  1  0.256800  0.389000  0.389000  1.0  -0.1622
  C  C68  1  0.161900  0.430500  0.430500  1.0  0.6934
  C  C69  1  0.965200  0.389000  0.256800  1.0  -0.1628
  C  C70  1  0.977100  0.430500  0.161900  1.0  0.6946
  C  C71  1  0.389000  0.256800  0.389000  1.0  -0.161
  C  C72  1  0.430500  0.161900  0.430500  1.0  0.694
  C  C73  1  0.389000  0.965200  0.389000  1.0  -0.1605
  C  C74  1  0.430500  0.977100  0.430500  1.0  0.6946
  C  C75  1  0.256800  0.389000  0.965200  1.0  -0.1616
  C  C76  1  0.161900  0.430500  0.977100  1.0  0.6934
  C  C77  1  0.965200  0.256800  0.389000  1.0  -0.1621
  C  C78  1  0.977100  0.161900  0.430500  1.0  0.6947
  C  C79  1  0.389000  0.389000  0.965200  1.0  -0.1601
  C  C80  1  0.430500  0.430500  0.977100  1.0  0.6935
  C  C81  1  0.389000  0.389000  0.256800  1.0  -0.1603
  C  C82  1  0.430500  0.430500  0.161900  1.0  0.6934
  C  C83  1  0.256800  0.965200  0.389000  1.0  -0.1603
  C  C84  1  0.161900  0.977100  0.430500  1.0  0.6941
  C  C85  1  0.611000  0.034800  0.611000  1.0  -0.1612
  C  C86  1  0.569500  0.022900  0.569500  1.0  0.6942
  C  C87  1  0.034800  0.611000  0.743200  1.0  -0.1609
  C  C88  1  0.022900  0.569500  0.838100  1.0  0.6944
  C  C89  1  0.743200  0.611000  0.034800  1.0  -0.1612
  C  C90  1  0.838100  0.569500  0.022900  1.0  0.6935
  C  C91  1  0.611000  0.743200  0.611000  1.0  -0.1613
  C  C92  1  0.569500  0.838100  0.569500  1.0  0.6936
  C  C93  1  0.611000  0.034800  0.743200  1.0  -0.1615
  C  C94  1  0.569500  0.022900  0.838100  1.0  0.6944
  C  C95  1  0.743200  0.611000  0.611000  1.0  -0.1613
  C  C96  1  0.838100  0.569500  0.569500  1.0  0.6934
  C  C97  1  0.034800  0.611000  0.611000  1.0  -0.161
  C  C98  1  0.022900  0.569500  0.569500  1.0  0.6942
  C  C99  1  0.611000  0.743200  0.034800  1.0  -0.1619
  C  C100  1  0.569500  0.838100  0.022900  1.0  0.6937
  C  C101  1  0.743200  0.034800  0.611000  1.0  -0.1611
  C  C102  1  0.838100  0.022900  0.569500  1.0  0.6936
  C  C103  1  0.611000  0.611000  0.034800  1.0  -0.1622
  C  C104  1  0.569500  0.569500  0.022900  1.0  0.693
  C  C105  1  0.611000  0.611000  0.743200  1.0  -0.162
  C  C106  1  0.569500  0.569500  0.838100  1.0  0.6931
  C  C107  1  0.034800  0.743200  0.611000  1.0  -0.16
  C  C108  1  0.022900  0.838100  0.569500  1.0  0.6944
  O  O109  1  0.979100  0.387100  0.507500  1.0  -0.5536
  O  O110  1  0.387100  0.979100  0.126300  1.0  -0.5523
  O  O111  1  0.507500  0.126300  0.979100  1.0  -0.5524
  O  O112  1  0.126300  0.507500  0.387100  1.0  -0.5531
  O  O113  1  0.979100  0.507500  0.126300  1.0  -0.5529
  O  O114  1  0.387100  0.126300  0.507500  1.0  -0.5531
  O  O115  1  0.507500  0.979100  0.387100  1.0  -0.554
  O  O116  1  0.126300  0.387100  0.979100  1.0  -0.5535
  O  O117  1  0.979100  0.126300  0.387100  1.0  -0.5528
  O  O118  1  0.387100  0.507500  0.979100  1.0  -0.5538
  O  O119  1  0.507500  0.387100  0.126300  1.0  -0.5544
  O  O120  1  0.126300  0.979100  0.507500  1.0  -0.5526
  O  O121  1  0.612900  0.020900  0.492500  1.0  -0.5524
  O  O122  1  0.020900  0.612900  0.873700  1.0  -0.5536
  O  O123  1  0.873700  0.492500  0.020900  1.0  -0.5543
  O  O124  1  0.492500  0.873700  0.612900  1.0  -0.553
  O  O125  1  0.492500  0.020900  0.873700  1.0  -0.5534
  O  O126  1  0.873700  0.612900  0.492500  1.0  -0.5536
  O  O127  1  0.020900  0.492500  0.612900  1.0  -0.5537
  O  O128  1  0.612900  0.873700  0.020900  1.0  -0.5536
  O  O129  1  0.873700  0.020900  0.612900  1.0  -0.5525
  O  O130  1  0.492500  0.612900  0.020900  1.0  -0.5542
  O  O131  1  0.612900  0.492500  0.873700  1.0  -0.5545
  O  O132  1  0.020900  0.873700  0.492500  1.0  -0.5526
  O  O133  1  0.020900  0.612900  0.492500  1.0  -0.5532
  O  O134  1  0.612900  0.020900  0.873700  1.0  -0.5531
  O  O135  1  0.492500  0.873700  0.020900  1.0  -0.5534
  O  O136  1  0.873700  0.492500  0.612900  1.0  -0.5534
  O  O137  1  0.020900  0.492500  0.873700  1.0  -0.5529
  O  O138  1  0.612900  0.873700  0.492500  1.0  -0.5536
  O  O139  1  0.492500  0.020900  0.612900  1.0  -0.5538
  O  O140  1  0.873700  0.612900  0.020900  1.0  -0.5536
  O  O141  1  0.020900  0.873700  0.612900  1.0  -0.5525
  O  O142  1  0.612900  0.492500  0.020900  1.0  -0.5546
  O  O143  1  0.492500  0.612900  0.873700  1.0  -0.5536
  O  O144  1  0.873700  0.020900  0.492500  1.0  -0.5524
  O  O145  1  0.387100  0.979100  0.507500  1.0  -0.5526
  O  O146  1  0.979100  0.387100  0.126300  1.0  -0.5537
  O  O147  1  0.126300  0.507500  0.979100  1.0  -0.5533
  O  O148  1  0.507500  0.126300  0.387100  1.0  -0.553
  O  O149  1  0.507500  0.979100  0.126300  1.0  -0.5539
  O  O150  1  0.126300  0.387100  0.507500  1.0  -0.5537
  O  O151  1  0.979100  0.507500  0.387100  1.0  -0.5529
  O  O152  1  0.387100  0.126300  0.979100  1.0  -0.5535
  O  O153  1  0.126300  0.979100  0.387100  1.0  -0.5532
  O  O154  1  0.507500  0.387100  0.979100  1.0  -0.5541
  O  O155  1  0.387100  0.507500  0.126300  1.0  -0.5539
  O  O156  1  0.979100  0.126300  0.507500  1.0  -0.5529
