# generated using pymatgen
data_CuH2(C3O2)2
_symmetry_space_group_name_H-M   'P 1'
_cell_length_a   18.58960000
_cell_length_b   18.58960000
_cell_length_c   18.58960000
_cell_angle_alpha   60.00000000
_cell_angle_beta   60.00000000
_cell_angle_gamma   60.00000000
_symmetry_Int_Tables_number   1
_chemical_formula_structural   CuH2(C3O2)2
_chemical_formula_sum   'Cu12 H24 C72 O48'
_cell_volume   4542.50210373
_cell_formula_units_Z   12
loop_
 _symmetry_equiv_pos_site_id
 _symmetry_equiv_pos_as_xyz
  1  'x, y, z'
loop_
 _atom_site_type_symbol
 _atom_site_label
 _atom_site_symmetry_multiplicity
 _atom_site_fract_x
 _atom_site_fract_y
 _atom_site_fract_z
 _atom_site_occupancy
 _atom_site_charge
  Cu  Cu1  1  0.000000  0.429980  0.570020  1.0  0.9032
  Cu  Cu2  1  0.429980  0.000000  0.000000  1.0  0.9037
  Cu  Cu3  1  0.570020  0.000000  0.000000  1.0  0.9026
  Cu  Cu4  1  0.000000  0.570020  0.429980  1.0  0.903
  Cu  Cu5  1  0.000000  0.570020  0.000000  1.0  0.9022
  Cu  Cu6  1  0.429980  0.000000  0.570020  1.0  0.9036
  Cu  Cu7  1  0.570020  0.000000  0.429980  1.0  0.9029
  Cu  Cu8  1  0.000000  0.429980  0.000000  1.0  0.9028
  Cu  Cu9  1  0.000000  0.000000  0.429980  1.0  0.9016
  Cu  Cu10  1  0.429980  0.570020  0.000000  1.0  0.9031
  Cu  Cu11  1  0.570020  0.429980  0.000000  1.0  0.9022
  Cu  Cu12  1  0.000000  0.000000  0.570020  1.0  0.9008
  H  H13  1  0.971700  0.271100  0.486100  1.0  0.111
  H  H14  1  0.271100  0.971700  0.271100  1.0  0.1111
  H  H15  1  0.486100  0.271100  0.971700  1.0  0.1105
  H  H16  1  0.271100  0.486100  0.271100  1.0  0.1121
  H  H17  1  0.971700  0.486100  0.271100  1.0  0.1117
  H  H18  1  0.271100  0.271100  0.486100  1.0  0.1109
  H  H19  1  0.486100  0.971700  0.271100  1.0  0.1108
  H  H20  1  0.271100  0.271100  0.971700  1.0  0.1106
  H  H21  1  0.971700  0.271100  0.271100  1.0  0.1111
  H  H22  1  0.271100  0.486100  0.971700  1.0  0.1122
  H  H23  1  0.486100  0.271100  0.271100  1.0  0.1105
  H  H24  1  0.271100  0.971700  0.486100  1.0  0.1109
  H  H25  1  0.728900  0.028300  0.513900  1.0  0.1111
  H  H26  1  0.028300  0.728900  0.728900  1.0  0.1111
  H  H27  1  0.728900  0.513900  0.028300  1.0  0.1119
  H  H28  1  0.513900  0.728900  0.728900  1.0  0.1109
  H  H29  1  0.513900  0.028300  0.728900  1.0  0.1108
  H  H30  1  0.728900  0.728900  0.513900  1.0  0.1107
  H  H31  1  0.028300  0.513900  0.728900  1.0  0.1118
  H  H32  1  0.728900  0.728900  0.028300  1.0  0.1105
  H  H33  1  0.728900  0.028300  0.728900  1.0  0.1109
  H  H34  1  0.513900  0.728900  0.028300  1.0  0.111
  H  H35  1  0.728900  0.513900  0.728900  1.0  0.1118
  H  H36  1  0.028300  0.728900  0.513900  1.0  0.1112
  C  C37  1  0.970100  0.301100  0.427700  1.0  0.0318
  C  C38  1  0.301100  0.970100  0.301100  1.0  0.0316
  C  C39  1  0.427700  0.301100  0.970100  1.0  0.0317
  C  C40  1  0.301100  0.427700  0.301100  1.0  0.03
  C  C41  1  0.970100  0.427700  0.301100  1.0  0.0308
  C  C42  1  0.301100  0.301100  0.427700  1.0  0.0325
  C  C43  1  0.427700  0.970100  0.301100  1.0  0.0323
  C  C44  1  0.301100  0.301100  0.970100  1.0  0.0314
  C  C45  1  0.970100  0.301100  0.301100  1.0  0.0305
  C  C46  1  0.301100  0.427700  0.970100  1.0  0.0301
  C  C47  1  0.427700  0.301100  0.301100  1.0  0.0314
  C  C48  1  0.301100  0.970100  0.427700  1.0  0.0325
  C  C49  1  0.698900  0.029900  0.572300  1.0  0.0306
  C  C50  1  0.029900  0.698900  0.698900  1.0  0.0319
  C  C51  1  0.698900  0.572300  0.029900  1.0  0.0317
  C  C52  1  0.572300  0.698900  0.698900  1.0  0.0332
  C  C53  1  0.572300  0.029900  0.698900  1.0  0.0329
  C  C54  1  0.698900  0.698900  0.572300  1.0  0.0309
  C  C55  1  0.029900  0.572300  0.698900  1.0  0.0309
  C  C56  1  0.698900  0.698900  0.029900  1.0  0.0314
  C  C57  1  0.698900  0.029900  0.698900  1.0  0.0323
  C  C58  1  0.572300  0.698900  0.029900  1.0  0.0331
  C  C59  1  0.698900  0.572300  0.698900  1.0  0.0319
  C  C60  1  0.029900  0.698900  0.572300  1.0  0.0301
  C  C61  1  0.969300  0.386900  0.386900  1.0  -0.1729
  C  C62  1  0.977400  0.430200  0.430200  1.0  0.694
  C  C63  1  0.386900  0.969300  0.256900  1.0  -0.1709
  C  C64  1  0.430200  0.977400  0.162200  1.0  0.6936
  C  C65  1  0.386900  0.256900  0.969300  1.0  -0.1711
  C  C66  1  0.430200  0.162200  0.977400  1.0  0.6933
  C  C67  1  0.256900  0.386900  0.386900  1.0  -0.1723
  C  C68  1  0.162200  0.430200  0.430200  1.0  0.6923
  C  C69  1  0.969300  0.386900  0.256900  1.0  -0.1724
  C  C70  1  0.977400  0.430200  0.162200  1.0  0.6935
  C  C71  1  0.386900  0.256900  0.386900  1.0  -0.1714
  C  C72  1  0.430200  0.162200  0.430200  1.0  0.6935
  C  C73  1  0.386900  0.969300  0.386900  1.0  -0.1714
  C  C74  1  0.430200  0.977400  0.430200  1.0  0.6941
  C  C75  1  0.256900  0.386900  0.969300  1.0  -0.1719
  C  C76  1  0.162200  0.430200  0.977400  1.0  0.6924
  C  C77  1  0.969300  0.256900  0.386900  1.0  -0.1716
  C  C78  1  0.977400  0.162200  0.430200  1.0  0.6941
  C  C79  1  0.386900  0.386900  0.969300  1.0  -0.1715
  C  C80  1  0.430200  0.430200  0.977400  1.0  0.693
  C  C81  1  0.386900  0.386900  0.256900  1.0  -0.1715
  C  C82  1  0.430200  0.430200  0.162200  1.0  0.6934
  C  C83  1  0.256900  0.969300  0.386900  1.0  -0.1709
  C  C84  1  0.162200  0.977400  0.430200  1.0  0.6929
  C  C85  1  0.613100  0.030700  0.613100  1.0  -0.1708
  C  C86  1  0.569800  0.022600  0.569800  1.0  0.6933
  C  C87  1  0.030700  0.613100  0.743100  1.0  -0.1719
  C  C88  1  0.022600  0.569800  0.837800  1.0  0.6941
  C  C89  1  0.743100  0.613100  0.030700  1.0  -0.1711
  C  C90  1  0.837800  0.569800  0.022600  1.0  0.6925
  C  C91  1  0.613100  0.743100  0.613100  1.0  -0.1717
  C  C92  1  0.569800  0.837800  0.569800  1.0  0.6932
  C  C93  1  0.613100  0.030700  0.743100  1.0  -0.1717
  C  C94  1  0.569800  0.022600  0.837800  1.0  0.6939
  C  C95  1  0.743100  0.613100  0.613100  1.0  -0.1707
  C  C96  1  0.837800  0.569800  0.569800  1.0  0.6924
  C  C97  1  0.030700  0.613100  0.613100  1.0  -0.1713
  C  C98  1  0.022600  0.569800  0.569800  1.0  0.6934
  C  C99  1  0.613100  0.743100  0.030700  1.0  -0.172
  C  C100  1  0.569800  0.837800  0.022600  1.0  0.6935
  C  C101  1  0.743100  0.030700  0.613100  1.0  -0.1703
  C  C102  1  0.837800  0.022600  0.569800  1.0  0.6925
  C  C103  1  0.613100  0.613100  0.030700  1.0  -0.1719
  C  C104  1  0.569800  0.569800  0.022600  1.0  0.6928
  C  C105  1  0.613100  0.613100  0.743100  1.0  -0.1719
  C  C106  1  0.569800  0.569800  0.837800  1.0  0.6925
  C  C107  1  0.030700  0.743100  0.613100  1.0  -0.1705
  C  C108  1  0.022600  0.837800  0.569800  1.0  0.6941
  O  O109  1  0.979930  0.387110  0.506950  1.0  -0.5583
  O  O110  1  0.387110  0.979930  0.126010  1.0  -0.5572
  O  O111  1  0.506950  0.126010  0.979930  1.0  -0.5578
  O  O112  1  0.126010  0.506950  0.387110  1.0  -0.5577
  O  O113  1  0.979930  0.506950  0.126010  1.0  -0.5576
  O  O114  1  0.387110  0.126010  0.506950  1.0  -0.5581
  O  O115  1  0.506950  0.979930  0.387110  1.0  -0.5584
  O  O116  1  0.126010  0.387110  0.979930  1.0  -0.558
  O  O117  1  0.979930  0.126010  0.387110  1.0  -0.5575
  O  O118  1  0.387110  0.506950  0.979930  1.0  -0.5585
  O  O119  1  0.506950  0.387110  0.126010  1.0  -0.5585
  O  O120  1  0.126010  0.979930  0.506950  1.0  -0.5578
  O  O121  1  0.612890  0.020070  0.493050  1.0  -0.5571
  O  O122  1  0.020070  0.612890  0.873990  1.0  -0.5581
  O  O123  1  0.873990  0.493050  0.020070  1.0  -0.5585
  O  O124  1  0.493050  0.873990  0.612890  1.0  -0.5573
  O  O125  1  0.493050  0.020070  0.873990  1.0  -0.5579
  O  O126  1  0.873990  0.612890  0.493050  1.0  -0.5579
  O  O127  1  0.020070  0.493050  0.612890  1.0  -0.558
  O  O128  1  0.612890  0.873990  0.020070  1.0  -0.558
  O  O129  1  0.873990  0.020070  0.612890  1.0  -0.5569
  O  O130  1  0.493050  0.612890  0.020070  1.0  -0.5584
  O  O131  1  0.612890  0.493050  0.873990  1.0  -0.5588
  O  O132  1  0.020070  0.873990  0.493050  1.0  -0.5572
  O  O133  1  0.020070  0.612890  0.493050  1.0  -0.5575
  O  O134  1  0.612890  0.020070  0.873990  1.0  -0.5576
  O  O135  1  0.493050  0.873990  0.020070  1.0  -0.5573
  O  O136  1  0.873990  0.493050  0.612890  1.0  -0.5584
  O  O137  1  0.020070  0.493050  0.873990  1.0  -0.5581
  O  O138  1  0.612890  0.873990  0.493050  1.0  -0.5579
  O  O139  1  0.493050  0.020070  0.612890  1.0  -0.558
  O  O140  1  0.873990  0.612890  0.020070  1.0  -0.5582
  O  O141  1  0.020070  0.873990  0.612890  1.0  -0.5574
  O  O142  1  0.612890  0.493050  0.020070  1.0  -0.5586
  O  O143  1  0.493050  0.612890  0.873990  1.0  -0.5585
  O  O144  1  0.873990  0.020070  0.493050  1.0  -0.557
  O  O145  1  0.387110  0.979930  0.506950  1.0  -0.5571
  O  O146  1  0.979930  0.387110  0.126010  1.0  -0.5581
  O  O147  1  0.126010  0.506950  0.979930  1.0  -0.5582
  O  O148  1  0.506950  0.126010  0.387110  1.0  -0.5575
  O  O149  1  0.506950  0.979930  0.126010  1.0  -0.5583
  O  O150  1  0.126010  0.387110  0.506950  1.0  -0.5582
  O  O151  1  0.979930  0.506950  0.387110  1.0  -0.5577
  O  O152  1  0.387110  0.126010  0.979930  1.0  -0.5579
  O  O153  1  0.126010  0.979930  0.387110  1.0  -0.5576
  O  O154  1  0.506950  0.387110  0.979930  1.0  -0.5585
  O  O155  1  0.387110  0.506950  0.126010  1.0  -0.5586
  O  O156  1  0.979930  0.126010  0.506950  1.0  -0.5573
