# generated using pymatgen
data_CuH2(C3O2)2
_symmetry_space_group_name_H-M   'P 1'
_cell_length_a   18.60260000
_cell_length_b   18.60260000
_cell_length_c   18.60260000
_cell_angle_alpha   60.00000000
_cell_angle_beta   60.00000000
_cell_angle_gamma   60.00000000
_symmetry_Int_Tables_number   1
_chemical_formula_structural   CuH2(C3O2)2
_chemical_formula_sum   'Cu12 H24 C72 O48'
_cell_volume   4552.03869946
_cell_formula_units_Z   12
loop_
 _symmetry_equiv_pos_site_id
 _symmetry_equiv_pos_as_xyz
  1  'x, y, z'
loop_
 _atom_site_type_symbol
 _atom_site_label
 _atom_site_symmetry_multiplicity
 _atom_site_fract_x
 _atom_site_fract_y
 _atom_site_fract_z
 _atom_site_occupancy
 _atom_site_charge
  Cu  Cu1  1  0.000000  0.429920  0.570080  1.0  0.9048
  Cu  Cu2  1  0.429920  0.000000  0.000000  1.0  0.9053
  Cu  Cu3  1  0.570080  0.000000  0.000000  1.0  0.9041
  Cu  Cu4  1  0.000000  0.570080  0.429920  1.0  0.9047
  Cu  Cu5  1  0.000000  0.570080  0.000000  1.0  0.9041
  Cu  Cu6  1  0.429920  0.000000  0.570080  1.0  0.9053
  Cu  Cu7  1  0.570080  0.000000  0.429920  1.0  0.9043
  Cu  Cu8  1  0.000000  0.429920  0.000000  1.0  0.9043
  Cu  Cu9  1  0.000000  0.000000  0.429920  1.0  0.9026
  Cu  Cu10  1  0.429920  0.570080  0.000000  1.0  0.9048
  Cu  Cu11  1  0.570080  0.429920  0.000000  1.0  0.9037
  Cu  Cu12  1  0.000000  0.000000  0.570080  1.0  0.9021
  H  H13  1  0.972800  0.270000  0.487200  1.0  0.1185
  H  H14  1  0.270000  0.972800  0.270000  1.0  0.1184
  H  H15  1  0.487200  0.270000  0.972800  1.0  0.1183
  H  H16  1  0.270000  0.487200  0.270000  1.0  0.1201
  H  H17  1  0.972800  0.487200  0.270000  1.0  0.1198
  H  H18  1  0.270000  0.270000  0.487200  1.0  0.1184
  H  H19  1  0.487200  0.972800  0.270000  1.0  0.1187
  H  H20  1  0.270000  0.270000  0.972800  1.0  0.1181
  H  H21  1  0.972800  0.270000  0.270000  1.0  0.1183
  H  H22  1  0.270000  0.487200  0.972800  1.0  0.1201
  H  H23  1  0.487200  0.270000  0.270000  1.0  0.1183
  H  H24  1  0.270000  0.972800  0.487200  1.0  0.1186
  H  H25  1  0.730000  0.027200  0.512800  1.0  0.1184
  H  H26  1  0.027200  0.730000  0.730000  1.0  0.1186
  H  H27  1  0.730000  0.512800  0.027200  1.0  0.1199
  H  H28  1  0.512800  0.730000  0.730000  1.0  0.1187
  H  H29  1  0.512800  0.027200  0.730000  1.0  0.1189
  H  H30  1  0.730000  0.730000  0.512800  1.0  0.1183
  H  H31  1  0.027200  0.512800  0.730000  1.0  0.1198
  H  H32  1  0.730000  0.730000  0.027200  1.0  0.1182
  H  H33  1  0.730000  0.027200  0.730000  1.0  0.1185
  H  H34  1  0.512800  0.730000  0.027200  1.0  0.1189
  H  H35  1  0.730000  0.512800  0.730000  1.0  0.1197
  H  H36  1  0.027200  0.730000  0.512800  1.0  0.1185
  C  C37  1  0.971180  0.300000  0.428820  1.0  0.0226
  C  C38  1  0.300000  0.971180  0.300000  1.0  0.0226
  C  C39  1  0.428820  0.300000  0.971180  1.0  0.0231
  C  C40  1  0.300000  0.428820  0.300000  1.0  0.0224
  C  C41  1  0.971180  0.428820  0.300000  1.0  0.0231
  C  C42  1  0.300000  0.300000  0.428820  1.0  0.0231
  C  C43  1  0.428820  0.971180  0.300000  1.0  0.0232
  C  C44  1  0.300000  0.300000  0.971180  1.0  0.0223
  C  C45  1  0.971180  0.300000  0.300000  1.0  0.022
  C  C46  1  0.300000  0.428820  0.971180  1.0  0.0226
  C  C47  1  0.428820  0.300000  0.300000  1.0  0.0226
  C  C48  1  0.300000  0.971180  0.428820  1.0  0.0229
  C  C49  1  0.700000  0.028820  0.571180  1.0  0.0219
  C  C50  1  0.028820  0.700000  0.700000  1.0  0.0227
  C  C51  1  0.700000  0.571180  0.028820  1.0  0.023
  C  C52  1  0.571180  0.700000  0.700000  1.0  0.0232
  C  C53  1  0.571180  0.028820  0.700000  1.0  0.0232
  C  C54  1  0.700000  0.700000  0.571180  1.0  0.0224
  C  C55  1  0.028820  0.571180  0.700000  1.0  0.0227
  C  C56  1  0.700000  0.700000  0.028820  1.0  0.0226
  C  C57  1  0.700000  0.028820  0.700000  1.0  0.023
  C  C58  1  0.571180  0.700000  0.028820  1.0  0.0231
  C  C59  1  0.700000  0.571180  0.700000  1.0  0.0233
  C  C60  1  0.028820  0.700000  0.571180  1.0  0.0216
  C  C61  1  0.970480  0.386000  0.386000  1.0  -0.1569
  C  C62  1  0.977860  0.430100  0.430100  1.0  0.6895
  C  C63  1  0.386000  0.970480  0.257520  1.0  -0.1553
  C  C64  1  0.430100  0.977860  0.161940  1.0  0.6891
  C  C65  1  0.386000  0.257520  0.970480  1.0  -0.1566
  C  C66  1  0.430100  0.161940  0.977860  1.0  0.6888
  C  C67  1  0.257520  0.386000  0.386000  1.0  -0.1569
  C  C68  1  0.161940  0.430100  0.430100  1.0  0.6879
  C  C69  1  0.970480  0.386000  0.257520  1.0  -0.1561
  C  C70  1  0.977860  0.430100  0.161940  1.0  0.6893
  C  C71  1  0.386000  0.257520  0.386000  1.0  -0.1566
  C  C72  1  0.430100  0.161940  0.430100  1.0  0.689
  C  C73  1  0.386000  0.970480  0.386000  1.0  -0.1559
  C  C74  1  0.430100  0.977860  0.430100  1.0  0.6894
  C  C75  1  0.257520  0.386000  0.970480  1.0  -0.1567
  C  C76  1  0.161940  0.430100  0.977860  1.0  0.6878
  C  C77  1  0.970480  0.257520  0.386000  1.0  -0.1567
  C  C78  1  0.977860  0.161940  0.430100  1.0  0.6896
  C  C79  1  0.386000  0.386000  0.970480  1.0  -0.1561
  C  C80  1  0.430100  0.430100  0.977860  1.0  0.6883
  C  C81  1  0.386000  0.386000  0.257520  1.0  -0.156
  C  C82  1  0.430100  0.430100  0.161940  1.0  0.6883
  C  C83  1  0.257520  0.970480  0.386000  1.0  -0.156
  C  C84  1  0.161940  0.977860  0.430100  1.0  0.6884
  C  C85  1  0.614000  0.029520  0.614000  1.0  -0.1554
  C  C86  1  0.569900  0.022140  0.569900  1.0  0.6888
  C  C87  1  0.029520  0.614000  0.742480  1.0  -0.1561
  C  C88  1  0.022140  0.569900  0.838060  1.0  0.6894
  C  C89  1  0.742480  0.614000  0.029520  1.0  -0.1563
  C  C90  1  0.838060  0.569900  0.022140  1.0  0.6882
  C  C91  1  0.614000  0.742480  0.614000  1.0  -0.1563
  C  C92  1  0.569900  0.838060  0.569900  1.0  0.6887
  C  C93  1  0.614000  0.029520  0.742480  1.0  -0.1565
  C  C94  1  0.569900  0.022140  0.838060  1.0  0.6891
  C  C95  1  0.742480  0.614000  0.614000  1.0  -0.1562
  C  C96  1  0.838060  0.569900  0.569900  1.0  0.6879
  C  C97  1  0.029520  0.614000  0.614000  1.0  -0.1555
  C  C98  1  0.022140  0.569900  0.569900  1.0  0.689
  C  C99  1  0.614000  0.742480  0.029520  1.0  -0.1563
  C  C100  1  0.569900  0.838060  0.022140  1.0  0.6889
  C  C101  1  0.742480  0.029520  0.614000  1.0  -0.1557
  C  C102  1  0.838060  0.022140  0.569900  1.0  0.688
  C  C103  1  0.614000  0.614000  0.029520  1.0  -0.1565
  C  C104  1  0.569900  0.569900  0.022140  1.0  0.6878
  C  C105  1  0.614000  0.614000  0.742480  1.0  -0.1565
  C  C106  1  0.569900  0.569900  0.838060  1.0  0.6878
  C  C107  1  0.029520  0.742480  0.614000  1.0  -0.1557
  C  C108  1  0.022140  0.838060  0.569900  1.0  0.6892
  O  O109  1  0.980120  0.387200  0.507120  1.0  -0.5631
  O  O110  1  0.387200  0.980120  0.125560  1.0  -0.562
  O  O111  1  0.507120  0.125560  0.980120  1.0  -0.5623
  O  O112  1  0.125560  0.507120  0.387200  1.0  -0.5631
  O  O113  1  0.980120  0.507120  0.125560  1.0  -0.563
  O  O114  1  0.387200  0.125560  0.507120  1.0  -0.5631
  O  O115  1  0.507120  0.980120  0.387200  1.0  -0.5633
  O  O116  1  0.125560  0.387200  0.980120  1.0  -0.5628
  O  O117  1  0.980120  0.125560  0.387200  1.0  -0.5623
  O  O118  1  0.387200  0.507120  0.980120  1.0  -0.5642
  O  O119  1  0.507120  0.387200  0.125560  1.0  -0.5635
  O  O120  1  0.125560  0.980120  0.507120  1.0  -0.5625
  O  O121  1  0.612800  0.019880  0.492880  1.0  -0.5621
  O  O122  1  0.019880  0.612800  0.874440  1.0  -0.5633
  O  O123  1  0.874440  0.492880  0.019880  1.0  -0.5642
  O  O124  1  0.492880  0.874440  0.612800  1.0  -0.5626
  O  O125  1  0.492880  0.019880  0.874440  1.0  -0.5627
  O  O126  1  0.874440  0.612800  0.492880  1.0  -0.5634
  O  O127  1  0.019880  0.492880  0.612800  1.0  -0.5633
  O  O128  1  0.612800  0.874440  0.019880  1.0  -0.5634
  O  O129  1  0.874440  0.019880  0.612800  1.0  -0.5626
  O  O130  1  0.492880  0.612800  0.019880  1.0  -0.5642
  O  O131  1  0.612800  0.492880  0.874440  1.0  -0.5641
  O  O132  1  0.019880  0.874440  0.492880  1.0  -0.5622
  O  O133  1  0.019880  0.612800  0.492880  1.0  -0.5628
  O  O134  1  0.612800  0.019880  0.874440  1.0  -0.5624
  O  O135  1  0.492880  0.874440  0.019880  1.0  -0.5622
  O  O136  1  0.874440  0.492880  0.612800  1.0  -0.5643
  O  O137  1  0.019880  0.492880  0.874440  1.0  -0.5632
  O  O138  1  0.612800  0.874440  0.492880  1.0  -0.5633
  O  O139  1  0.492880  0.019880  0.612800  1.0  -0.5629
  O  O140  1  0.874440  0.612800  0.019880  1.0  -0.5636
  O  O141  1  0.019880  0.874440  0.612800  1.0  -0.5621
  O  O142  1  0.612800  0.492880  0.019880  1.0  -0.5639
  O  O143  1  0.492880  0.612800  0.874440  1.0  -0.5644
  O  O144  1  0.874440  0.019880  0.492880  1.0  -0.5621
  O  O145  1  0.387200  0.980120  0.507120  1.0  -0.5621
  O  O146  1  0.980120  0.387200  0.125560  1.0  -0.563
  O  O147  1  0.125560  0.507120  0.980120  1.0  -0.5639
  O  O148  1  0.507120  0.125560  0.387200  1.0  -0.5623
  O  O149  1  0.507120  0.980120  0.125560  1.0  -0.5634
  O  O150  1  0.125560  0.387200  0.507120  1.0  -0.5631
  O  O151  1  0.980120  0.507120  0.387200  1.0  -0.5631
  O  O152  1  0.387200  0.125560  0.980120  1.0  -0.5631
  O  O153  1  0.125560  0.980120  0.387200  1.0  -0.5626
  O  O154  1  0.507120  0.387200  0.980120  1.0  -0.5635
  O  O155  1  0.387200  0.507120  0.125560  1.0  -0.5642
  O  O156  1  0.980120  0.125560  0.507120  1.0  -0.5625
