# generated using pymatgen
data_CoH8C14O5
_symmetry_space_group_name_H-M   'P 1'
_cell_length_a   13.65800000
_cell_length_b   48.51600000
_cell_length_c   20.49700000
_cell_angle_alpha   90.00000000
_cell_angle_beta   99.78400000
_cell_angle_gamma   90.00000000
_symmetry_Int_Tables_number   1
_chemical_formula_structural   CoH8C14O5
_chemical_formula_sum   'Co24 H192 C336 O120'
_cell_volume   13384.41416166
_cell_formula_units_Z   24
loop_
 _symmetry_equiv_pos_site_id
 _symmetry_equiv_pos_as_xyz
  1  'x, y, z'
loop_
 _atom_site_type_symbol
 _atom_site_label
 _atom_site_symmetry_multiplicity
 _atom_site_fract_x
 _atom_site_fract_y
 _atom_site_fract_z
 _atom_site_occupancy
 _atom_site_charge
  Co  Co1  1  0.178400  0.310370  0.392990  1.0  1.0532
  Co  Co2  1  0.784860  0.609680  0.319300  1.0  1.0523
  Co  Co3  1  0.678400  0.810370  0.392990  1.0  1.0529
  Co  Co4  1  0.284860  0.109680  0.319300  1.0  1.0523
  Co  Co5  1  0.821600  0.310370  0.107010  1.0  1.0537
  Co  Co6  1  0.215140  0.609680  0.180700  1.0  1.0541
  Co  Co7  1  0.321600  0.810370  0.107010  1.0  1.0534
  Co  Co8  1  0.715140  0.109680  0.180700  1.0  1.0541
  Co  Co9  1  0.821600  0.689630  0.607010  1.0  1.0542
  Co  Co10  1  0.215140  0.390320  0.680700  1.0  1.0546
  Co  Co11  1  0.321600  0.189630  0.607010  1.0  1.0538
  Co  Co12  1  0.715140  0.890320  0.680700  1.0  1.0546
  Co  Co13  1  0.178400  0.689630  0.892990  1.0  1.0541
  Co  Co14  1  0.784860  0.390320  0.819300  1.0  1.0527
  Co  Co15  1  0.678400  0.189630  0.892990  1.0  1.0539
  Co  Co16  1  0.284860  0.890320  0.819300  1.0  1.0527
  Co  Co17  1  0.000000  0.594580  0.250000  1.0  1.2131
  Co  Co18  1  0.000000  0.316740  0.250000  1.0  1.0785
  Co  Co19  1  0.500000  0.094580  0.250000  1.0  1.2131
  Co  Co20  1  0.500000  0.816740  0.250000  1.0  1.0785
  Co  Co21  1  0.000000  0.405420  0.750000  1.0  1.2123
  Co  Co22  1  0.000000  0.683260  0.750000  1.0  1.0782
  Co  Co23  1  0.500000  0.905420  0.750000  1.0  1.2123
  Co  Co24  1  0.500000  0.183260  0.750000  1.0  1.0782
  H  H25  1  0.094500  0.658000  0.312400  1.0  0.0932
  H  H26  1  0.310100  0.765500  0.332600  1.0  0.0864
  H  H27  1  0.198700  0.738700  0.377100  1.0  0.1437
  H  H28  1  0.221800  0.684900  0.362000  1.0  0.1326
  H  H29  1  0.885900  0.390300  0.317900  1.0  0.1162
  H  H30  1  0.963400  0.666800  0.471500  1.0  0.0952
  H  H31  1  0.529800  0.743200  0.476800  1.0  0.1224
  H  H32  1  0.086500  0.694400  0.518300  1.0  0.1186
  H  H33  1  0.537600  0.639500  0.027000  1.0  0.1208
  H  H34  1  0.847800  0.602300  0.066300  1.0  0.0923
  H  H35  1  0.818400  0.681200  0.834800  1.0  0.121
  H  H36  1  0.009200  0.470000  0.383600  1.0  0.1254
  H  H37  1  0.773400  0.613300  0.960200  1.0  0.0834
  H  H38  1  0.804300  0.496100  0.486100  1.0  0.1187
  H  H39  1  0.075600  0.380400  0.488500  1.0  0.1276
  H  H40  1  0.842000  0.432500  0.356600  1.0  0.1225
  H  H41  1  0.735500  0.667500  0.923000  1.0  0.1008
  H  H42  1  0.999400  0.512500  0.328900  1.0  0.0971
  H  H43  1  0.793400  0.539100  0.429600  1.0  0.1086
  H  H44  1  0.027200  0.421600  0.524000  1.0  0.1077
  H  H45  1  0.634300  0.631000  0.714800  1.0  0.0976
  H  H46  1  0.419600  0.712800  0.514700  1.0  0.112
  H  H47  1  0.608200  0.627600  0.131600  1.0  0.1026
  H  H48  1  0.569300  0.613000  0.804000  1.0  0.1319
  H  H49  1  0.594500  0.158000  0.312400  1.0  0.0932
  H  H50  1  0.810100  0.265500  0.332600  1.0  0.0864
  H  H51  1  0.698700  0.238700  0.377100  1.0  0.1437
  H  H52  1  0.721800  0.184900  0.362000  1.0  0.1326
  H  H53  1  0.385900  0.890300  0.317900  1.0  0.1162
  H  H54  1  0.463400  0.166800  0.471500  1.0  0.0952
  H  H55  1  0.029800  0.243200  0.476800  1.0  0.1224
  H  H56  1  0.586500  0.194400  0.518300  1.0  0.1186
  H  H57  1  0.037600  0.139500  0.027000  1.0  0.1208
  H  H58  1  0.347800  0.102300  0.066300  1.0  0.0923
  H  H59  1  0.318400  0.181200  0.834800  1.0  0.121
  H  H60  1  0.509200  0.970000  0.383600  1.0  0.1254
  H  H61  1  0.273400  0.113300  0.960200  1.0  0.0834
  H  H62  1  0.304300  0.996100  0.486100  1.0  0.1187
  H  H63  1  0.575600  0.880400  0.488500  1.0  0.1276
  H  H64  1  0.342000  0.932500  0.356600  1.0  0.1225
  H  H65  1  0.235500  0.167500  0.923000  1.0  0.1008
  H  H66  1  0.499400  0.012500  0.328900  1.0  0.0971
  H  H67  1  0.293400  0.039100  0.429600  1.0  0.1096
  H  H68  1  0.527200  0.921600  0.524000  1.0  0.1077
  H  H69  1  0.134300  0.131000  0.714800  1.0  0.0976
  H  H70  1  0.919600  0.212800  0.514700  1.0  0.112
  H  H71  1  0.108200  0.127600  0.131600  1.0  0.1026
  H  H72  1  0.069300  0.113000  0.804000  1.0  0.1319
  H  H73  1  0.905500  0.658000  0.187600  1.0  0.0924
  H  H74  1  0.689900  0.765500  0.167400  1.0  0.0864
  H  H75  1  0.801300  0.738700  0.122900  1.0  0.1412
  H  H76  1  0.778200  0.684900  0.138000  1.0  0.1327
  H  H77  1  0.114100  0.390300  0.182100  1.0  0.1168
  H  H78  1  0.036600  0.666800  0.028500  1.0  0.0948
  H  H79  1  0.470200  0.743200  0.023200  1.0  0.1235
  H  H80  1  0.913500  0.694400  0.981700  1.0  0.1191
  H  H81  1  0.462400  0.639500  0.473000  1.0  0.1199
  H  H82  1  0.152200  0.602300  0.433700  1.0  0.0913
  H  H83  1  0.181600  0.681200  0.665200  1.0  0.1215
  H  H84  1  0.990800  0.470000  0.116400  1.0  0.1252
  H  H85  1  0.226600  0.613300  0.539800  1.0  0.0821
  H  H86  1  0.195700  0.496100  0.013900  1.0  0.118
  H  H87  1  0.924400  0.380400  0.011500  1.0  0.1272
  H  H88  1  0.158000  0.432500  0.143400  1.0  0.1232
  H  H89  1  0.264500  0.667500  0.577000  1.0  0.1013
  H  H90  1  0.000600  0.512500  0.171100  1.0  0.0973
  H  H91  1  0.206600  0.539100  0.070400  1.0  0.1079
  H  H92  1  0.972800  0.421600  0.976000  1.0  0.1082
  H  H93  1  0.365700  0.631000  0.785200  1.0  0.0972
  H  H94  1  0.580400  0.712800  0.985300  1.0  0.1119
  H  H95  1  0.391800  0.627600  0.368400  1.0  0.1029
  H  H96  1  0.430700  0.613000  0.696000  1.0  0.1326
  H  H97  1  0.405500  0.158000  0.187600  1.0  0.0924
  H  H98  1  0.189900  0.265500  0.167400  1.0  0.0864
  H  H99  1  0.301300  0.238700  0.122900  1.0  0.1412
  H  H100  1  0.278200  0.184900  0.138000  1.0  0.1327
  H  H101  1  0.614100  0.890300  0.182100  1.0  0.1168
  H  H102  1  0.536600  0.166800  0.028500  1.0  0.0948
  H  H103  1  0.970200  0.243200  0.023200  1.0  0.1235
  H  H104  1  0.413500  0.194400  0.981700  1.0  0.1191
  H  H105  1  0.962400  0.139500  0.473000  1.0  0.1199
  H  H106  1  0.652200  0.102300  0.433700  1.0  0.0913
  H  H107  1  0.681600  0.181200  0.665200  1.0  0.1215
  H  H108  1  0.490800  0.970000  0.116400  1.0  0.1252
  H  H109  1  0.726600  0.113300  0.539800  1.0  0.0821
  H  H110  1  0.695700  0.996100  0.013900  1.0  0.118
  H  H111  1  0.424400  0.880400  0.011500  1.0  0.1272
  H  H112  1  0.658000  0.932500  0.143400  1.0  0.1232
  H  H113  1  0.764500  0.167500  0.577000  1.0  0.1013
  H  H114  1  0.500600  0.012500  0.171100  1.0  0.0973
  H  H115  1  0.706600  0.039100  0.070400  1.0  0.1091
  H  H116  1  0.472800  0.921600  0.976000  1.0  0.1082
  H  H117  1  0.865700  0.131000  0.785200  1.0  0.0972
  H  H118  1  0.080400  0.212800  0.985300  1.0  0.1119
  H  H119  1  0.891800  0.127600  0.368400  1.0  0.1029
  H  H120  1  0.930700  0.113000  0.696000  1.0  0.1326
  H  H121  1  0.905500  0.342000  0.687600  1.0  0.0923
  H  H122  1  0.689900  0.234500  0.667400  1.0  0.0863
  H  H123  1  0.801300  0.261300  0.622900  1.0  0.1414
  H  H124  1  0.778200  0.315100  0.638000  1.0  0.1328
  H  H125  1  0.114100  0.609700  0.682100  1.0  0.1172
  H  H126  1  0.036600  0.333200  0.528500  1.0  0.0948
  H  H127  1  0.470200  0.256800  0.523200  1.0  0.1235
  H  H128  1  0.913500  0.305600  0.481700  1.0  0.1196
  H  H129  1  0.462400  0.360500  0.973000  1.0  0.12
  H  H130  1  0.152200  0.397700  0.933700  1.0  0.0916
  H  H131  1  0.181600  0.318800  0.165200  1.0  0.1213
  H  H132  1  0.990800  0.530000  0.616400  1.0  0.1251
  H  H133  1  0.226600  0.386700  0.039800  1.0  0.0819
  H  H134  1  0.195700  0.503900  0.513900  1.0  0.1181
  H  H135  1  0.924400  0.619600  0.511500  1.0  0.1275
  H  H136  1  0.158000  0.567500  0.643400  1.0  0.1231
  H  H137  1  0.264500  0.332500  0.077000  1.0  0.1011
  H  H138  1  0.000600  0.487500  0.671100  1.0  0.0968
  H  H139  1  0.206600  0.460900  0.570400  1.0  0.1078
  H  H140  1  0.972800  0.578400  0.476000  1.0  0.1085
  H  H141  1  0.365700  0.369000  0.285200  1.0  0.0977
  H  H142  1  0.580400  0.287200  0.485300  1.0  0.1123
  H  H143  1  0.391800  0.372400  0.868400  1.0  0.1029
  H  H144  1  0.430700  0.387000  0.196000  1.0  0.1322
  H  H145  1  0.405500  0.842000  0.687600  1.0  0.0923
  H  H146  1  0.189900  0.734500  0.667400  1.0  0.0863
  H  H147  1  0.301300  0.761300  0.622900  1.0  0.1414
  H  H148  1  0.278200  0.815100  0.638000  1.0  0.1328
  H  H149  1  0.614100  0.109700  0.682100  1.0  0.1172
  H  H150  1  0.536600  0.833200  0.528500  1.0  0.0948
  H  H151  1  0.970200  0.756800  0.523200  1.0  0.1235
  H  H152  1  0.413500  0.805600  0.481700  1.0  0.1196
  H  H153  1  0.962400  0.860500  0.973000  1.0  0.12
  H  H154  1  0.652200  0.897700  0.933700  1.0  0.0916
  H  H155  1  0.681600  0.818800  0.165200  1.0  0.1213
  H  H156  1  0.490800  0.030000  0.616400  1.0  0.1251
  H  H157  1  0.726600  0.886700  0.039800  1.0  0.0819
  H  H158  1  0.695700  0.003900  0.513900  1.0  0.1181
  H  H159  1  0.424400  0.119600  0.511500  1.0  0.1275
  H  H160  1  0.658000  0.067500  0.643400  1.0  0.1231
  H  H161  1  0.764500  0.832500  0.077000  1.0  0.1011
  H  H162  1  0.500600  0.987500  0.671100  1.0  0.0968
  H  H163  1  0.706600  0.960900  0.570400  1.0  0.109
  H  H164  1  0.472800  0.078400  0.476000  1.0  0.1085
  H  H165  1  0.865700  0.869000  0.285200  1.0  0.0977
  H  H166  1  0.080400  0.787200  0.485300  1.0  0.1123
  H  H167  1  0.891800  0.872400  0.868400  1.0  0.1029
  H  H168  1  0.930700  0.887000  0.196000  1.0  0.1322
  H  H169  1  0.094500  0.342000  0.812400  1.0  0.0932
  H  H170  1  0.310100  0.234500  0.832600  1.0  0.0865
  H  H171  1  0.198700  0.261300  0.877100  1.0  0.1436
  H  H172  1  0.221800  0.315100  0.862000  1.0  0.1324
  H  H173  1  0.885900  0.609700  0.817900  1.0  0.1167
  H  H174  1  0.963400  0.333200  0.971500  1.0  0.0953
  H  H175  1  0.529800  0.256800  0.976800  1.0  0.1221
  H  H176  1  0.086500  0.305600  0.018300  1.0  0.1193
  H  H177  1  0.537600  0.360500  0.527000  1.0  0.1207
  H  H178  1  0.847800  0.397700  0.566300  1.0  0.0922
  H  H179  1  0.818400  0.318800  0.334800  1.0  0.1206
  H  H180  1  0.009200  0.530000  0.883600  1.0  0.1252
  H  H181  1  0.773400  0.386700  0.460200  1.0  0.083
  H  H182  1  0.804300  0.503900  0.986100  1.0  0.119
  H  H183  1  0.075600  0.619600  0.988500  1.0  0.1274
  H  H184  1  0.842000  0.567500  0.856600  1.0  0.1223
  H  H185  1  0.735500  0.332500  0.423000  1.0  0.1013
  H  H186  1  0.999400  0.487500  0.828900  1.0  0.097
  H  H187  1  0.793400  0.460900  0.929600  1.0  0.1087
  H  H188  1  0.027200  0.578400  0.024000  1.0  0.1083
  H  H189  1  0.634300  0.369000  0.214800  1.0  0.0974
  H  H190  1  0.419600  0.287200  0.014700  1.0  0.1119
  H  H191  1  0.608200  0.372400  0.631600  1.0  0.1026
  H  H192  1  0.569300  0.387000  0.304000  1.0  0.1328
  H  H193  1  0.594500  0.842000  0.812400  1.0  0.0932
  H  H194  1  0.810100  0.734500  0.832600  1.0  0.0865
  H  H195  1  0.698700  0.761300  0.877100  1.0  0.1436
  H  H196  1  0.721800  0.815100  0.862000  1.0  0.1324
  H  H197  1  0.385900  0.109700  0.817900  1.0  0.1167
  H  H198  1  0.463400  0.833200  0.971500  1.0  0.0953
  H  H199  1  0.029800  0.756800  0.976800  1.0  0.1221
  H  H200  1  0.586500  0.805600  0.018300  1.0  0.1193
  H  H201  1  0.037600  0.860500  0.527000  1.0  0.1207
  H  H202  1  0.347800  0.897700  0.566300  1.0  0.0922
  H  H203  1  0.318400  0.818800  0.334800  1.0  0.1206
  H  H204  1  0.509200  0.030000  0.883600  1.0  0.1252
  H  H205  1  0.273400  0.886700  0.460200  1.0  0.083
  H  H206  1  0.304300  0.003900  0.986100  1.0  0.119
  H  H207  1  0.575600  0.119600  0.988500  1.0  0.1274
  H  H208  1  0.342000  0.067500  0.856600  1.0  0.1223
  H  H209  1  0.235500  0.832500  0.423000  1.0  0.1013
  H  H210  1  0.499400  0.987500  0.828900  1.0  0.097
  H  H211  1  0.293400  0.960900  0.929600  1.0  0.1098
  H  H212  1  0.527200  0.078400  0.024000  1.0  0.1083
  H  H213  1  0.134300  0.869000  0.214800  1.0  0.0974
  H  H214  1  0.919600  0.787200  0.014700  1.0  0.1119
  H  H215  1  0.108200  0.872400  0.631600  1.0  0.1026
  H  H216  1  0.069300  0.887000  0.304000  1.0  0.1328
  C  C217  1  0.011600  0.659000  0.385200  1.0  -0.0843
  C  C218  1  0.737700  0.614100  0.111900  1.0  -0.0517
  C  C219  1  0.899700  0.531100  0.376400  1.0  -0.1108
  C  C220  1  0.429500  0.757400  0.398100  1.0  -0.1545
  C  C221  1  0.020700  0.354700  0.371500  1.0  0.683
  C  C222  1  0.092600  0.665200  0.354200  1.0  0.0133
  C  C223  1  0.987600  0.381600  0.398900  1.0  -0.1524
  C  C224  1  0.163600  0.692400  0.445500  1.0  0.2946
  C  C225  1  0.332800  0.755400  0.370600  1.0  -0.0202
  C  C226  1  0.265500  0.739000  0.396300  1.0  -0.2727
  C  C227  1  0.902700  0.479500  0.436200  1.0  0.3098
  C  C228  1  0.168000  0.681300  0.383100  1.0  -0.3038
  C  C229  1  0.915600  0.396800  0.359300  1.0  0.0121
  C  C230  1  0.014900  0.670700  0.448500  1.0  -0.0374
  C  C231  1  0.931200  0.430400  0.443600  1.0  0.2758
  C  C232  1  0.899300  0.557900  0.342300  1.0  0.732
  C  C233  1  0.500300  0.775700  0.370300  1.0  0.7568
  C  C234  1  0.729900  0.657000  0.765000  1.0  -0.1121
  C  C235  1  0.464300  0.741800  0.455300  1.0  -0.0959
  C  C236  1  0.087900  0.686900  0.476700  1.0  -0.1809
  C  C237  1  0.600200  0.631300  0.034300  1.0  -0.2138
  C  C238  1  0.300100  0.723300  0.450500  1.0  0.2941
  C  C239  1  0.784000  0.609800  0.059200  1.0  -0.1042
  C  C240  1  0.766400  0.668600  0.828300  1.0  -0.1352
  C  C241  1  0.965200  0.483600  0.392500  1.0  -0.1919
  C  C242  1  0.738600  0.616100  0.994900  1.0  -0.1645
  C  C243  1  0.645800  0.639700  0.870600  1.0  0.2187
  C  C244  1  0.842500  0.499400  0.453400  1.0  -0.1359
  C  C245  1  0.028400  0.390900  0.461300  1.0  -0.0812
  C  C246  1  0.889200  0.421600  0.382700  1.0  -0.1494
  C  C247  1  0.718000  0.659700  0.881200  1.0  -0.1402
  C  C248  1  0.647500  0.626200  0.981900  1.0  0.3897
  C  C249  1  0.960400  0.509500  0.361200  1.0  -0.0484
  C  C250  1  0.838200  0.525700  0.420600  1.0  -0.0547
  C  C251  1  0.999500  0.415200  0.482200  1.0  -0.1592
  C  C252  1  0.657300  0.637700  0.757200  1.0  -0.023
  C  C253  1  0.397100  0.724200  0.478800  1.0  -0.1637
  C  C254  1  0.643700  0.624800  0.097300  1.0  -0.0668
  C  C255  1  0.615200  0.627400  0.809700  1.0  -0.2229
  C  C256  1  0.787200  0.607400  0.177300  1.0  0.7457
  C  C257  1  0.934100  0.641000  0.352400  1.0  0.6148
  C  C258  1  0.767600  0.668000  0.708600  1.0  0.6607
  C  C259  1  0.511600  0.159000  0.385200  1.0  -0.0843
  C  C260  1  0.237700  0.114100  0.111900  1.0  -0.0517
  C  C261  1  0.399700  0.031100  0.376400  1.0  -0.1108
  C  C262  1  0.929500  0.257400  0.398100  1.0  -0.1545
  C  C263  1  0.520700  0.854700  0.371500  1.0  0.683
  C  C264  1  0.592600  0.165200  0.354200  1.0  0.0133
  C  C265  1  0.487600  0.881600  0.398900  1.0  -0.1524
  C  C266  1  0.663600  0.192400  0.445500  1.0  0.2946
  C  C267  1  0.832800  0.255400  0.370600  1.0  -0.0202
  C  C268  1  0.765500  0.239000  0.396300  1.0  -0.2727
  C  C269  1  0.402700  0.979500  0.436200  1.0  0.3098
  C  C270  1  0.668000  0.181300  0.383100  1.0  -0.3038
  C  C271  1  0.415600  0.896800  0.359300  1.0  0.0121
  C  C272  1  0.514900  0.170700  0.448500  1.0  -0.0374
  C  C273  1  0.431200  0.930400  0.443600  1.0  0.2758
  C  C274  1  0.399300  0.057900  0.342300  1.0  0.732
  C  C275  1  0.000300  0.275700  0.370300  1.0  0.7568
  C  C276  1  0.229900  0.157000  0.765000  1.0  -0.1121
  C  C277  1  0.964300  0.241800  0.455300  1.0  -0.0959
  C  C278  1  0.587900  0.186900  0.476700  1.0  -0.1809
  C  C279  1  0.100200  0.131300  0.034300  1.0  -0.2138
  C  C280  1  0.800100  0.223300  0.450500  1.0  0.2941
  C  C281  1  0.284000  0.109800  0.059200  1.0  -0.1042
  C  C282  1  0.266400  0.168600  0.828300  1.0  -0.1352
  C  C283  1  0.465200  0.983600  0.392500  1.0  -0.1919
  C  C284  1  0.238600  0.116100  0.994900  1.0  -0.1645
  C  C285  1  0.145800  0.139700  0.870600  1.0  0.2187
  C  C286  1  0.342500  0.999400  0.453400  1.0  -0.1359
  C  C287  1  0.528400  0.890900  0.461300  1.0  -0.0812
  C  C288  1  0.389200  0.921600  0.382700  1.0  -0.1494
  C  C289  1  0.218000  0.159700  0.881200  1.0  -0.1402
  C  C290  1  0.147500  0.126200  0.981900  1.0  0.3897
  C  C291  1  0.460400  0.009500  0.361200  1.0  -0.0484
  C  C292  1  0.338200  0.025700  0.420600  1.0  -0.0547
  C  C293  1  0.499500  0.915200  0.482200  1.0  -0.1592
  C  C294  1  0.157300  0.137700  0.757200  1.0  -0.023
  C  C295  1  0.897100  0.224200  0.478800  1.0  -0.1637
  C  C296  1  0.143700  0.124800  0.097300  1.0  -0.0668
  C  C297  1  0.115200  0.127400  0.809700  1.0  -0.2229
  C  C298  1  0.287200  0.107400  0.177300  1.0  0.7457
  C  C299  1  0.434100  0.141000  0.352400  1.0  0.6148
  C  C300  1  0.267600  0.168000  0.708600  1.0  0.6607
  C  C301  1  0.988400  0.659000  0.114800  1.0  -0.0852
  C  C302  1  0.262300  0.614100  0.388100  1.0  -0.0521
  C  C303  1  0.100300  0.531100  0.123600  1.0  -0.1101
  C  C304  1  0.570500  0.757400  0.101900  1.0  -0.1547
  C  C305  1  0.979300  0.354700  0.128500  1.0  0.6826
  C  C306  1  0.907400  0.665200  0.145800  1.0  0.0124
  C  C307  1  0.012400  0.381600  0.101100  1.0  -0.1523
  C  C308  1  0.836400  0.692400  0.054500  1.0  0.2968
  C  C309  1  0.667200  0.755400  0.129400  1.0  -0.02
  C  C310  1  0.734500  0.739000  0.103700  1.0  -0.2718
  C  C311  1  0.097300  0.479500  0.063800  1.0  0.3089
  C  C312  1  0.832000  0.681300  0.116900  1.0  -0.304
  C  C313  1  0.084400  0.396800  0.140700  1.0  0.0098
  C  C314  1  0.985100  0.670700  0.051500  1.0  -0.0383
  C  C315  1  0.068800  0.430400  0.056400  1.0  0.2769
  C  C316  1  0.100700  0.557900  0.157700  1.0  0.7329
  C  C317  1  0.499700  0.775700  0.129700  1.0  0.7565
  C  C318  1  0.270100  0.657000  0.735000  1.0  -0.1123
  C  C319  1  0.535700  0.741800  0.044700  1.0  -0.0977
  C  C320  1  0.912100  0.686900  0.023300  1.0  -0.1819
  C  C321  1  0.399800  0.631300  0.465700  1.0  -0.2124
  C  C322  1  0.699900  0.723300  0.049500  1.0  0.2935
  C  C323  1  0.216000  0.609800  0.440800  1.0  -0.1017
  C  C324  1  0.233600  0.668600  0.671700  1.0  -0.1345
  C  C325  1  0.034800  0.483600  0.107500  1.0  -0.1917
  C  C326  1  0.261400  0.616100  0.505100  1.0  -0.161
  C  C327  1  0.354200  0.639700  0.629400  1.0  0.218
  C  C328  1  0.157500  0.499400  0.046600  1.0  -0.1338
  C  C329  1  0.971600  0.390900  0.038700  1.0  -0.0806
  C  C330  1  0.110800  0.421600  0.117300  1.0  -0.1481
  C  C331  1  0.282000  0.659700  0.618800  1.0  -0.1399
  C  C332  1  0.352500  0.626200  0.518100  1.0  0.388
  C  C333  1  0.039600  0.509500  0.138800  1.0  -0.0491
  C  C334  1  0.161800  0.525700  0.079400  1.0  -0.0526
  C  C335  1  0.000500  0.415200  0.017800  1.0  -0.1606
  C  C336  1  0.342700  0.637700  0.742800  1.0  -0.0228
  C  C337  1  0.602900  0.724200  0.021200  1.0  -0.1644
  C  C338  1  0.356300  0.624800  0.402700  1.0  -0.0683
  C  C339  1  0.384800  0.627400  0.690300  1.0  -0.2227
  C  C340  1  0.212800  0.607400  0.322700  1.0  0.7464
  C  C341  1  0.065900  0.641000  0.147600  1.0  0.6133
  C  C342  1  0.232400  0.668000  0.791400  1.0  0.6619
  C  C343  1  0.488400  0.159000  0.114800  1.0  -0.0852
  C  C344  1  0.762300  0.114100  0.388100  1.0  -0.0521
  C  C345  1  0.600300  0.031100  0.123600  1.0  -0.1101
  C  C346  1  0.070500  0.257400  0.101900  1.0  -0.1547
  C  C347  1  0.479300  0.854700  0.128500  1.0  0.6826
  C  C348  1  0.407400  0.165200  0.145800  1.0  0.0124
  C  C349  1  0.512400  0.881600  0.101100  1.0  -0.1523
  C  C350  1  0.336400  0.192400  0.054500  1.0  0.2968
  C  C351  1  0.167200  0.255400  0.129400  1.0  -0.02
  C  C352  1  0.234500  0.239000  0.103700  1.0  -0.2718
  C  C353  1  0.597300  0.979500  0.063800  1.0  0.3089
  C  C354  1  0.332000  0.181300  0.116900  1.0  -0.304
  C  C355  1  0.584400  0.896800  0.140700  1.0  0.0098
  C  C356  1  0.485100  0.170700  0.051500  1.0  -0.0383
  C  C357  1  0.568800  0.930400  0.056400  1.0  0.2769
  C  C358  1  0.600700  0.057900  0.157700  1.0  0.7329
  C  C359  1  0.999700  0.275700  0.129700  1.0  0.7565
  C  C360  1  0.770100  0.157000  0.735000  1.0  -0.1123
  C  C361  1  0.035700  0.241800  0.044700  1.0  -0.0977
  C  C362  1  0.412100  0.186900  0.023300  1.0  -0.1819
  C  C363  1  0.899800  0.131300  0.465700  1.0  -0.2124
  C  C364  1  0.199900  0.223300  0.049500  1.0  0.2935
  C  C365  1  0.716000  0.109800  0.440800  1.0  -0.1017
  C  C366  1  0.733600  0.168600  0.671700  1.0  -0.1345
  C  C367  1  0.534800  0.983600  0.107500  1.0  -0.1917
  C  C368  1  0.761400  0.116100  0.505100  1.0  -0.161
  C  C369  1  0.854200  0.139700  0.629400  1.0  0.218
  C  C370  1  0.657500  0.999400  0.046600  1.0  -0.1338
  C  C371  1  0.471600  0.890900  0.038700  1.0  -0.0806
  C  C372  1  0.610800  0.921600  0.117300  1.0  -0.1481
  C  C373  1  0.782000  0.159700  0.618800  1.0  -0.1399
  C  C374  1  0.852500  0.126200  0.518100  1.0  0.388
  C  C375  1  0.539600  0.009500  0.138800  1.0  -0.0491
  C  C376  1  0.661800  0.025700  0.079400  1.0  -0.0526
  C  C377  1  0.500500  0.915200  0.017800  1.0  -0.1606
  C  C378  1  0.842700  0.137700  0.742800  1.0  -0.0228
  C  C379  1  0.102900  0.224200  0.021200  1.0  -0.1644
  C  C380  1  0.856300  0.124800  0.402700  1.0  -0.0683
  C  C381  1  0.884800  0.127400  0.690300  1.0  -0.2227
  C  C382  1  0.712800  0.107400  0.322700  1.0  0.7464
  C  C383  1  0.565900  0.141000  0.147600  1.0  0.6133
  C  C384  1  0.732400  0.168000  0.791400  1.0  0.6619
  C  C385  1  0.988400  0.341000  0.614800  1.0  -0.0851
  C  C386  1  0.262300  0.385900  0.888100  1.0  -0.0508
  C  C387  1  0.100300  0.468900  0.623600  1.0  -0.1105
  C  C388  1  0.570500  0.242600  0.601900  1.0  -0.1527
  C  C389  1  0.979300  0.645300  0.628500  1.0  0.6835
  C  C390  1  0.907400  0.334800  0.645800  1.0  0.0115
  C  C391  1  0.012400  0.618400  0.601100  1.0  -0.1531
  C  C392  1  0.836400  0.307600  0.554500  1.0  0.2963
  C  C393  1  0.667200  0.244600  0.629400  1.0  -0.0208
  C  C394  1  0.734500  0.261000  0.603700  1.0  -0.2721
  C  C395  1  0.097300  0.520500  0.563800  1.0  0.309
  C  C396  1  0.832000  0.318700  0.616900  1.0  -0.3041
  C  C397  1  0.084400  0.603200  0.640700  1.0  0.0098
  C  C398  1  0.985100  0.329300  0.551500  1.0  -0.0387
  C  C399  1  0.068800  0.569600  0.556400  1.0  0.2763
  C  C400  1  0.100700  0.442100  0.657700  1.0  0.7327
  C  C401  1  0.499700  0.224300  0.629700  1.0  0.7562
  C  C402  1  0.270100  0.343000  0.235000  1.0  -0.1117
  C  C403  1  0.535700  0.258200  0.544700  1.0  -0.0977
  C  C404  1  0.912100  0.313100  0.523300  1.0  -0.1813
  C  C405  1  0.399800  0.368700  0.965700  1.0  -0.2127
  C  C406  1  0.699900  0.276700  0.549500  1.0  0.294
  C  C407  1  0.216000  0.390200  0.940800  1.0  -0.102
  C  C408  1  0.233600  0.331400  0.171700  1.0  -0.135
  C  C409  1  0.034800  0.516400  0.607500  1.0  -0.1917
  C  C410  1  0.261400  0.383900  0.005100  1.0  -0.1623
  C  C411  1  0.354200  0.360300  0.129400  1.0  0.2174
  C  C412  1  0.157500  0.500600  0.546600  1.0  -0.1341
  C  C413  1  0.971600  0.609100  0.538700  1.0  -0.0808
  C  C414  1  0.110800  0.578400  0.617300  1.0  -0.1484
  C  C415  1  0.282000  0.340300  0.118800  1.0  -0.1387
  C  C416  1  0.352500  0.373800  0.018100  1.0  0.3886
  C  C417  1  0.039600  0.490500  0.638800  1.0  -0.0488
  C  C418  1  0.161800  0.474300  0.579400  1.0  -0.0525
  C  C419  1  0.000500  0.584800  0.517800  1.0  -0.1606
  C  C420  1  0.342700  0.362300  0.242800  1.0  -0.0224
  C  C421  1  0.602900  0.275800  0.521200  1.0  -0.1647
  C  C422  1  0.356300  0.375200  0.902700  1.0  -0.0683
  C  C423  1  0.384800  0.372600  0.190300  1.0  -0.2222
  C  C424  1  0.212800  0.392600  0.822700  1.0  0.7458
  C  C425  1  0.065900  0.359000  0.647600  1.0  0.6136
  C  C426  1  0.232400  0.332000  0.291400  1.0  0.6619
  C  C427  1  0.488400  0.841000  0.614800  1.0  -0.0851
  C  C428  1  0.762300  0.885900  0.888100  1.0  -0.0508
  C  C429  1  0.600300  0.968900  0.623600  1.0  -0.1105
  C  C430  1  0.070500  0.742600  0.601900  1.0  -0.1527
  C  C431  1  0.479300  0.145300  0.628500  1.0  0.6835
  C  C432  1  0.407400  0.834800  0.645800  1.0  0.0115
  C  C433  1  0.512400  0.118400  0.601100  1.0  -0.1531
  C  C434  1  0.336400  0.807600  0.554500  1.0  0.2963
  C  C435  1  0.167200  0.744600  0.629400  1.0  -0.0208
  C  C436  1  0.234500  0.761000  0.603700  1.0  -0.2721
  C  C437  1  0.597300  0.020500  0.563800  1.0  0.309
  C  C438  1  0.332000  0.818700  0.616900  1.0  -0.3041
  C  C439  1  0.584400  0.103200  0.640700  1.0  0.0098
  C  C440  1  0.485100  0.829300  0.551500  1.0  -0.0387
  C  C441  1  0.568800  0.069600  0.556400  1.0  0.2763
  C  C442  1  0.600700  0.942100  0.657700  1.0  0.7327
  C  C443  1  0.999700  0.724300  0.629700  1.0  0.7562
  C  C444  1  0.770100  0.843000  0.235000  1.0  -0.1117
  C  C445  1  0.035700  0.758200  0.544700  1.0  -0.0977
  C  C446  1  0.412100  0.813100  0.523300  1.0  -0.1813
  C  C447  1  0.899800  0.868700  0.965700  1.0  -0.2127
  C  C448  1  0.199900  0.776700  0.549500  1.0  0.294
  C  C449  1  0.716000  0.890200  0.940800  1.0  -0.102
  C  C450  1  0.733600  0.831400  0.171700  1.0  -0.135
  C  C451  1  0.534800  0.016400  0.607500  1.0  -0.1917
  C  C452  1  0.761400  0.883900  0.005100  1.0  -0.1623
  C  C453  1  0.854200  0.860300  0.129400  1.0  0.2174
  C  C454  1  0.657500  0.000600  0.546600  1.0  -0.1341
  C  C455  1  0.471600  0.109100  0.538700  1.0  -0.0808
  C  C456  1  0.610800  0.078400  0.617300  1.0  -0.1484
  C  C457  1  0.782000  0.840300  0.118800  1.0  -0.1387
  C  C458  1  0.852500  0.873800  0.018100  1.0  0.3886
  C  C459  1  0.539600  0.990500  0.638800  1.0  -0.0488
  C  C460  1  0.661800  0.974300  0.579400  1.0  -0.0525
  C  C461  1  0.500500  0.084800  0.517800  1.0  -0.1606
  C  C462  1  0.842700  0.862300  0.242800  1.0  -0.0224
  C  C463  1  0.102900  0.775800  0.521200  1.0  -0.1647
  C  C464  1  0.856300  0.875200  0.902700  1.0  -0.0683
  C  C465  1  0.884800  0.872600  0.190300  1.0  -0.2222
  C  C466  1  0.712800  0.892600  0.822700  1.0  0.7458
  C  C467  1  0.565900  0.859000  0.647600  1.0  0.6136
  C  C468  1  0.732400  0.832000  0.291400  1.0  0.6619
  C  C469  1  0.011600  0.341000  0.885200  1.0  -0.084
  C  C470  1  0.737700  0.385900  0.611900  1.0  -0.0518
  C  C471  1  0.899700  0.468900  0.876400  1.0  -0.1122
  C  C472  1  0.429500  0.242600  0.898100  1.0  -0.1534
  C  C473  1  0.020700  0.645300  0.871500  1.0  0.6831
  C  C474  1  0.092600  0.334800  0.854200  1.0  0.0132
  C  C475  1  0.987600  0.618400  0.898900  1.0  -0.1517
  C  C476  1  0.163600  0.307600  0.945500  1.0  0.294
  C  C477  1  0.332800  0.244600  0.870600  1.0  -0.02
  C  C478  1  0.265500  0.261000  0.896300  1.0  -0.2728
  C  C479  1  0.902700  0.520500  0.936200  1.0  0.3096
  C  C480  1  0.168000  0.318700  0.883100  1.0  -0.3045
  C  C481  1  0.915600  0.603200  0.859300  1.0  0.0116
  C  C482  1  0.014900  0.329300  0.948500  1.0  -0.0381
  C  C483  1  0.931200  0.569600  0.943600  1.0  0.2759
  C  C484  1  0.899300  0.442100  0.842300  1.0  0.7305
  C  C485  1  0.500300  0.224300  0.870300  1.0  0.7573
  C  C486  1  0.729900  0.343000  0.265000  1.0  -0.113
  C  C487  1  0.464300  0.258200  0.955300  1.0  -0.0949
  C  C488  1  0.087900  0.313100  0.976700  1.0  -0.18
  C  C489  1  0.600200  0.368700  0.534300  1.0  -0.2139
  C  C490  1  0.300100  0.276700  0.950500  1.0  0.294
  C  C491  1  0.784000  0.390200  0.559200  1.0  -0.1043
  C  C492  1  0.766400  0.331400  0.328300  1.0  -0.1358
  C  C493  1  0.965200  0.516400  0.892500  1.0  -0.1918
  C  C494  1  0.738600  0.383900  0.494900  1.0  -0.1646
  C  C495  1  0.645800  0.360300  0.370600  1.0  0.2181
  C  C496  1  0.842500  0.500600  0.953400  1.0  -0.1363
  C  C497  1  0.028400  0.609100  0.961300  1.0  -0.0805
  C  C498  1  0.889200  0.578400  0.882700  1.0  -0.15
  C  C499  1  0.718000  0.340300  0.381200  1.0  -0.1394
  C  C500  1  0.647500  0.373800  0.481900  1.0  0.3914
  C  C501  1  0.960400  0.490500  0.861200  1.0  -0.0485
  C  C502  1  0.838200  0.474300  0.920600  1.0  -0.0541
  C  C503  1  0.999500  0.584800  0.982200  1.0  -0.1581
  C  C504  1  0.657300  0.362300  0.257200  1.0  -0.0233
  C  C505  1  0.397100  0.275800  0.978800  1.0  -0.1645
  C  C506  1  0.643700  0.375200  0.597300  1.0  -0.0669
  C  C507  1  0.615200  0.372600  0.309700  1.0  -0.2225
  C  C508  1  0.787200  0.392600  0.677300  1.0  0.7449
  C  C509  1  0.934100  0.359000  0.852400  1.0  0.6149
  C  C510  1  0.767600  0.332000  0.208600  1.0  0.6608
  C  C511  1  0.511600  0.841000  0.885200  1.0  -0.084
  C  C512  1  0.237700  0.885900  0.611900  1.0  -0.0518
  C  C513  1  0.399700  0.968900  0.876400  1.0  -0.1122
  C  C514  1  0.929500  0.742600  0.898100  1.0  -0.1534
  C  C515  1  0.520700  0.145300  0.871500  1.0  0.6831
  C  C516  1  0.592600  0.834800  0.854200  1.0  0.0132
  C  C517  1  0.487600  0.118400  0.898900  1.0  -0.1517
  C  C518  1  0.663600  0.807600  0.945500  1.0  0.294
  C  C519  1  0.832800  0.744600  0.870600  1.0  -0.02
  C  C520  1  0.765500  0.761000  0.896300  1.0  -0.2728
  C  C521  1  0.402700  0.020500  0.936200  1.0  0.3096
  C  C522  1  0.668000  0.818700  0.883100  1.0  -0.3045
  C  C523  1  0.415600  0.103200  0.859300  1.0  0.0116
  C  C524  1  0.514900  0.829300  0.948500  1.0  -0.0381
  C  C525  1  0.431200  0.069600  0.943600  1.0  0.2759
  C  C526  1  0.399300  0.942100  0.842300  1.0  0.7305
  C  C527  1  0.000300  0.724300  0.870300  1.0  0.7573
  C  C528  1  0.229900  0.843000  0.265000  1.0  -0.113
  C  C529  1  0.964300  0.758200  0.955300  1.0  -0.0949
  C  C530  1  0.587900  0.813100  0.976700  1.0  -0.18
  C  C531  1  0.100200  0.868700  0.534300  1.0  -0.2139
  C  C532  1  0.800100  0.776700  0.950500  1.0  0.294
  C  C533  1  0.284000  0.890200  0.559200  1.0  -0.1043
  C  C534  1  0.266400  0.831400  0.328300  1.0  -0.1358
  C  C535  1  0.465200  0.016400  0.892500  1.0  -0.1918
  C  C536  1  0.238600  0.883900  0.494900  1.0  -0.1646
  C  C537  1  0.145800  0.860300  0.370600  1.0  0.2181
  C  C538  1  0.342500  0.000600  0.953400  1.0  -0.1363
  C  C539  1  0.528400  0.109100  0.961300  1.0  -0.0805
  C  C540  1  0.389200  0.078400  0.882700  1.0  -0.15
  C  C541  1  0.218000  0.840300  0.381200  1.0  -0.1394
  C  C542  1  0.147500  0.873800  0.481900  1.0  0.3914
  C  C543  1  0.460400  0.990500  0.861200  1.0  -0.0485
  C  C544  1  0.338200  0.974300  0.920600  1.0  -0.0541
  C  C545  1  0.499500  0.084800  0.982200  1.0  -0.1581
  C  C546  1  0.157300  0.862300  0.257200  1.0  -0.0233
  C  C547  1  0.897100  0.775800  0.978800  1.0  -0.1645
  C  C548  1  0.143700  0.875200  0.597300  1.0  -0.0669
  C  C549  1  0.115200  0.872600  0.309700  1.0  -0.2225
  C  C550  1  0.287200  0.892600  0.677300  1.0  0.7449
  C  C551  1  0.434100  0.859000  0.852400  1.0  0.6149
  C  C552  1  0.267600  0.832000  0.208600  1.0  0.6608
  O  O553  1  0.940800  0.626230  0.304800  1.0  -0.6414
  O  O554  1  0.983700  0.347920  0.315400  1.0  -0.5833
  O  O555  1  0.850700  0.639610  0.377300  1.0  -0.5728
  O  O556  1  0.469100  0.786170  0.314400  1.0  -0.647
  O  O557  1  0.961200  0.562580  0.307200  1.0  -0.5832
  O  O558  1  0.738800  0.614000  0.224800  1.0  -0.6055
  O  O559  1  0.239800  0.706800  0.481800  1.0  -0.2554
  O  O560  1  0.827900  0.573680  0.353700  1.0  -0.6444
  O  O561  1  0.088300  0.341630  0.409500  1.0  -0.6145
  O  O562  1  0.583600  0.779600  0.404300  1.0  -0.6081
  O  O563  1  0.900800  0.454920  0.470600  1.0  -0.2722
  O  O564  1  0.596900  0.631400  0.923200  1.0  -0.3259
  O  O565  1  0.867600  0.596450  0.186100  1.0  -0.6386
  O  O566  1  0.841500  0.684170  0.714100  1.0  -0.7069
  O  O567  1  0.729400  0.661700  0.651100  1.0  -0.6015
  O  O568  1  0.440800  0.126230  0.304800  1.0  -0.6414
  O  O569  1  0.483700  0.847920  0.315400  1.0  -0.5833
  O  O570  1  0.350700  0.139610  0.377300  1.0  -0.5728
  O  O571  1  0.969100  0.286170  0.314400  1.0  -0.647
  O  O572  1  0.461200  0.062580  0.307200  1.0  -0.5832
  O  O573  1  0.238800  0.114000  0.224800  1.0  -0.6055
  O  O574  1  0.739800  0.206800  0.481800  1.0  -0.2554
  O  O575  1  0.327900  0.073680  0.353700  1.0  -0.6444
  O  O576  1  0.588300  0.841630  0.409500  1.0  -0.6145
  O  O577  1  0.083600  0.279600  0.404300  1.0  -0.6081
  O  O578  1  0.400800  0.954920  0.470600  1.0  -0.2722
  O  O579  1  0.096900  0.131400  0.923200  1.0  -0.3259
  O  O580  1  0.367600  0.096450  0.186100  1.0  -0.6386
  O  O581  1  0.341500  0.184170  0.714100  1.0  -0.7069
  O  O582  1  0.229400  0.161700  0.651100  1.0  -0.6015
  O  O583  1  0.059200  0.626230  0.195200  1.0  -0.6417
  O  O584  1  0.016300  0.347920  0.184600  1.0  -0.5853
  O  O585  1  0.149300  0.639610  0.122700  1.0  -0.5734
  O  O586  1  0.530900  0.786170  0.185600  1.0  -0.6498
  O  O587  1  0.038800  0.562580  0.192800  1.0  -0.5829
  O  O588  1  0.261200  0.614000  0.275200  1.0  -0.6067
  O  O589  1  0.760200  0.706800  0.018200  1.0  -0.2539
  O  O590  1  0.172100  0.573680  0.146300  1.0  -0.6443
  O  O591  1  0.911700  0.341630  0.090500  1.0  -0.6146
  O  O592  1  0.416400  0.779600  0.095700  1.0  -0.6062
  O  O593  1  0.099200  0.454920  0.029400  1.0  -0.2704
  O  O594  1  0.403100  0.631400  0.576800  1.0  -0.3295
  O  O595  1  0.132400  0.596450  0.313900  1.0  -0.6368
  O  O596  1  0.158500  0.684170  0.785900  1.0  -0.7067
  O  O597  1  0.270600  0.661700  0.848900  1.0  -0.6017
  O  O598  1  0.559200  0.126230  0.195200  1.0  -0.6417
  O  O599  1  0.516300  0.847920  0.184600  1.0  -0.5853
  O  O600  1  0.649300  0.139610  0.122700  1.0  -0.5734
  O  O601  1  0.030900  0.286170  0.185600  1.0  -0.6498
  O  O602  1  0.538800  0.062580  0.192800  1.0  -0.5829
  O  O603  1  0.761200  0.114000  0.275200  1.0  -0.6067
  O  O604  1  0.260200  0.206800  0.018200  1.0  -0.2539
  O  O605  1  0.672100  0.073680  0.146300  1.0  -0.6443
  O  O606  1  0.411700  0.841630  0.090500  1.0  -0.6146
  O  O607  1  0.916400  0.279600  0.095700  1.0  -0.6062
  O  O608  1  0.599200  0.954920  0.029400  1.0  -0.2704
  O  O609  1  0.903100  0.131400  0.576800  1.0  -0.3295
  O  O610  1  0.632400  0.096450  0.313900  1.0  -0.6368
  O  O611  1  0.658500  0.184170  0.785900  1.0  -0.7067
  O  O612  1  0.770600  0.161700  0.848900  1.0  -0.6017
  O  O613  1  0.059200  0.373770  0.695200  1.0  -0.6402
  O  O614  1  0.016300  0.652080  0.684600  1.0  -0.5852
  O  O615  1  0.149300  0.360390  0.622700  1.0  -0.5733
  O  O616  1  0.530900  0.213830  0.685600  1.0  -0.6491
  O  O617  1  0.038800  0.437420  0.692800  1.0  -0.5823
  O  O618  1  0.261200  0.386000  0.775200  1.0  -0.6075
  O  O619  1  0.760200  0.293200  0.518200  1.0  -0.2542
  O  O620  1  0.172100  0.426320  0.646300  1.0  -0.6436
  O  O621  1  0.911700  0.658370  0.590500  1.0  -0.6154
  O  O622  1  0.416400  0.220400  0.595700  1.0  -0.6065
  O  O623  1  0.099200  0.545080  0.529400  1.0  -0.2706
  O  O624  1  0.403100  0.368600  0.076800  1.0  -0.3301
  O  O625  1  0.132400  0.403550  0.813900  1.0  -0.6372
  O  O626  1  0.158500  0.315830  0.285900  1.0  -0.7064
  O  O627  1  0.270600  0.338300  0.348900  1.0  -0.6021
  O  O628  1  0.559200  0.873770  0.695200  1.0  -0.6402
  O  O629  1  0.516300  0.152080  0.684600  1.0  -0.5852
  O  O630  1  0.649300  0.860390  0.622700  1.0  -0.5733
  O  O631  1  0.030900  0.713830  0.685600  1.0  -0.6491
  O  O632  1  0.538800  0.937420  0.692800  1.0  -0.5823
  O  O633  1  0.761200  0.886000  0.775200  1.0  -0.6075
  O  O634  1  0.260200  0.793200  0.518200  1.0  -0.2542
  O  O635  1  0.672100  0.926320  0.646300  1.0  -0.6436
  O  O636  1  0.411700  0.158370  0.590500  1.0  -0.6154
  O  O637  1  0.916400  0.720400  0.595700  1.0  -0.6065
  O  O638  1  0.599200  0.045080  0.529400  1.0  -0.2706
  O  O639  1  0.903100  0.868600  0.076800  1.0  -0.3301
  O  O640  1  0.632400  0.903550  0.813900  1.0  -0.6372
  O  O641  1  0.658500  0.815830  0.285900  1.0  -0.7064
  O  O642  1  0.770600  0.838300  0.348900  1.0  -0.6021
  O  O643  1  0.940800  0.373770  0.804800  1.0  -0.6405
  O  O644  1  0.983700  0.652080  0.815400  1.0  -0.5836
  O  O645  1  0.850700  0.360390  0.877300  1.0  -0.5725
  O  O646  1  0.469100  0.213830  0.814400  1.0  -0.6472
  O  O647  1  0.961200  0.437420  0.807200  1.0  -0.5828
  O  O648  1  0.738800  0.386000  0.724800  1.0  -0.6059
  O  O649  1  0.239800  0.293200  0.981800  1.0  -0.2553
  O  O650  1  0.827900  0.426320  0.853700  1.0  -0.6443
  O  O651  1  0.088300  0.658370  0.909500  1.0  -0.6146
  O  O652  1  0.583600  0.220400  0.904300  1.0  -0.6065
  O  O653  1  0.900800  0.545080  0.970600  1.0  -0.2725
  O  O654  1  0.596900  0.368600  0.423200  1.0  -0.3258
  O  O655  1  0.867600  0.403550  0.686100  1.0  -0.6387
  O  O656  1  0.841500  0.315830  0.214100  1.0  -0.7062
  O  O657  1  0.729400  0.338300  0.151100  1.0  -0.6005
  O  O658  1  0.440800  0.873770  0.804800  1.0  -0.6405
  O  O659  1  0.483700  0.152080  0.815400  1.0  -0.5836
  O  O660  1  0.350700  0.860390  0.877300  1.0  -0.5725
  O  O661  1  0.969100  0.713830  0.814400  1.0  -0.6472
  O  O662  1  0.461200  0.937420  0.807200  1.0  -0.5828
  O  O663  1  0.238800  0.886000  0.724800  1.0  -0.6059
  O  O664  1  0.739800  0.793200  0.981800  1.0  -0.2553
  O  O665  1  0.327900  0.926320  0.853700  1.0  -0.6443
  O  O666  1  0.588300  0.158370  0.909500  1.0  -0.6146
  O  O667  1  0.083600  0.720400  0.904300  1.0  -0.6065
  O  O668  1  0.400800  0.045080  0.970600  1.0  -0.2725
  O  O669  1  0.096900  0.868600  0.423200  1.0  -0.3258
  O  O670  1  0.367600  0.903550  0.686100  1.0  -0.6387
  O  O671  1  0.341500  0.815830  0.214100  1.0  -0.7062
  O  O672  1  0.229400  0.838300  0.151100  1.0  -0.6005
