# generated using pymatgen
data_Zn4H32C46O17
_symmetry_space_group_name_H-M   'P 1'
_cell_length_a   17.11680000
_cell_length_b   17.22150000
_cell_length_c   17.22150000
_cell_angle_alpha   90.00000000
_cell_angle_beta   90.00000000
_cell_angle_gamma   90.00000000
_symmetry_Int_Tables_number   1
_chemical_formula_structural   Zn4H32C46O17
_chemical_formula_sum   'Zn8 H64 C92 O34'
_cell_volume   5076.50160952
_cell_formula_units_Z   2
loop_
 _symmetry_equiv_pos_site_id
 _symmetry_equiv_pos_as_xyz
  1  'x, y, z'
loop_
 _atom_site_type_symbol
 _atom_site_label
 _atom_site_symmetry_multiplicity
 _atom_site_fract_x
 _atom_site_fract_y
 _atom_site_fract_z
 _atom_site_occupancy
 _atom_site_charge
  Zn  Zn1  1  0.055190  0.934620  0.434620  1.0  1.0913
  Zn  Zn2  1  0.055190  0.065380  0.565380  1.0  1.0905
  Zn  Zn3  1  0.184390  0.934370  0.565630  1.0  1.1004
  Zn  Zn4  1  0.184390  0.065630  0.434370  1.0  1.1002
  Zn  Zn5  1  0.944810  0.434620  0.065380  1.0  1.0926
  Zn  Zn6  1  0.944810  0.565380  0.934620  1.0  1.0926
  Zn  Zn7  1  0.815610  0.565630  0.065630  1.0  1.1007
  Zn  Zn8  1  0.815610  0.434370  0.934370  1.0  1.1
  H  H9  1  0.045050  0.897890  0.197810  1.0  0.1081
  H  H10  1  0.048460  0.896420  0.050680  1.0  0.0997
  H  H11  1  0.185440  0.100130  0.201620  1.0  0.0989
  H  H12  1  0.504650  0.889670  0.698600  1.0  0.0871
  H  H13  1  0.264010  0.213270  0.042240  1.0  0.1021
  H  H14  1  0.269920  0.145970  0.126630  1.0  0.0923
  H  H15  1  0.182260  0.208560  0.113380  1.0  0.1377
  H  H16  1  0.045050  0.102110  0.802190  1.0  0.1049
  H  H17  1  0.048460  0.103580  0.949320  1.0  0.1004
  H  H18  1  0.186030  0.899090  0.800070  1.0  0.1212
  H  H19  1  0.207540  0.767440  0.938460  1.0  0.1121
  H  H20  1  0.295200  0.830030  0.925210  1.0  0.0967
  H  H21  1  0.213450  0.834740  0.854070  1.0  0.0649
  H  H22  1  0.045050  0.302190  0.602110  1.0  0.1116
  H  H23  1  0.048460  0.449320  0.603580  1.0  0.1007
  H  H24  1  0.186030  0.300070  0.399090  1.0  0.1206
  H  H25  1  0.546350  0.798940  0.656930  1.0  0.0891
  H  H26  1  0.213450  0.354070  0.334740  1.0  0.0678
  H  H27  1  0.295200  0.425210  0.330030  1.0  0.0867
  H  H28  1  0.207540  0.438460  0.267440  1.0  0.098
  H  H29  1  0.045050  0.697810  0.397890  1.0  0.1075
  H  H30  1  0.048460  0.550680  0.396420  1.0  0.0988
  H  H31  1  0.185440  0.701620  0.600130  1.0  0.1068
  H  H32  1  0.818400  0.090660  0.590660  1.0  0.1164
  H  H33  1  0.669900  0.089210  0.589210  1.0  0.1106
  H  H34  1  0.818400  0.909340  0.409340  1.0  0.1171
  H  H35  1  0.669900  0.910790  0.410790  1.0  0.108
  H  H36  1  0.418650  0.908810  0.591190  1.0  0.1672
  H  H37  1  0.462950  0.848000  0.607870  1.0  0.0732
  H  H38  1  0.418650  0.091190  0.408810  1.0  0.1287
  H  H39  1  0.954950  0.197810  0.102110  1.0  0.108
  H  H40  1  0.951540  0.050680  0.103580  1.0  0.1009
  H  H41  1  0.813970  0.199930  0.899090  1.0  0.1116
  H  H42  1  0.519430  0.678520  0.102090  1.0  0.092
  H  H43  1  0.816570  0.099510  0.781670  1.0  0.1015
  H  H44  1  0.743970  0.136510  0.853160  1.0  0.0742
  H  H45  1  0.723270  0.046230  0.797380  1.0  0.0946
  H  H46  1  0.954950  0.802190  0.897890  1.0  0.1065
  H  H47  1  0.951540  0.949320  0.896420  1.0  0.1005
  H  H48  1  0.813970  0.800070  0.100910  1.0  0.1094
  H  H49  1  0.799270  0.858060  0.175900  1.0  0.0691
  H  H50  1  0.705970  0.911340  0.160200  1.0  0.08
  H  H51  1  0.778570  0.948340  0.231690  1.0  0.09
  H  H52  1  0.954950  0.602110  0.697810  1.0  0.1101
  H  H53  1  0.951540  0.603580  0.550680  1.0  0.0998
  H  H54  1  0.814560  0.399870  0.701620  1.0  0.1062
  H  H55  1  0.447190  0.682790  0.182790  1.0  0.0985
  H  H56  1  0.954950  0.397890  0.302190  1.0  0.1104
  H  H57  1  0.951540  0.396420  0.449320  1.0  0.1012
  H  H58  1  0.813970  0.600910  0.300070  1.0  0.1103
  H  H59  1  0.705970  0.660200  0.411340  1.0  0.0761
  H  H60  1  0.799270  0.675900  0.358060  1.0  0.0663
  H  H61  1  0.778570  0.731690  0.448340  1.0  0.0943
  H  H62  1  0.181600  0.590660  0.909340  1.0  0.1171
  H  H63  1  0.330100  0.589210  0.910790  1.0  0.11
  H  H64  1  0.181600  0.409340  0.090660  1.0  0.1143
  H  H65  1  0.330100  0.410790  0.089210  1.0  0.1086
  H  H66  1  0.581350  0.591190  0.091190  1.0  0.1248
  H  H67  1  0.519430  0.602090  0.178520  1.0  0.0811
  H  H68  1  0.581350  0.408810  0.908810  1.0  0.1281
  H  H69  1  0.187530  0.548910  0.597670  1.0  0.1033
  H  H70  1  0.566840  0.089120  0.410880  1.0  0.1071
  H  H71  1  0.812470  0.402330  0.548910  1.0  0.1048
  H  H72  1  0.433160  0.410880  0.910880  1.0  0.1061
  C  C73  1  0.117300  0.000500  0.290800  1.0  0.7085
  C  C74  1  0.115300  0.999500  0.204500  1.0  -0.0412
  C  C75  1  0.078700  0.945000  0.165500  1.0  -0.103
  C  C76  1  0.080500  0.944000  0.083900  1.0  -0.1222
  C  C77  1  0.118600  0.997100  0.044200  1.0  0.0116
  C  C78  1  0.154300  0.050600  0.081700  1.0  0.1984
  C  C79  1  0.153500  0.052900  0.167800  1.0  -0.1559
  C  C80  1  0.229100  0.173400  0.082100  1.0  -0.0647
  C  C81  1  0.117300  0.999500  0.709200  1.0  0.7074
  C  C82  1  0.115300  0.000500  0.795500  1.0  -0.037
  C  C83  1  0.078700  0.055000  0.834500  1.0  -0.1133
  C  C84  1  0.080500  0.056000  0.916100  1.0  -0.1138
  C  C85  1  0.118600  0.002900  0.955800  1.0  0.0118
  C  C86  1  0.154300  0.949400  0.918300  1.0  0.1889
  C  C87  1  0.153500  0.947100  0.832200  1.0  -0.1937
  C  C88  1  0.229100  0.826600  0.917900  1.0  -0.0576
  C  C89  1  0.117300  0.209200  0.499500  1.0  0.7057
  C  C90  1  0.115300  0.295500  0.500500  1.0  -0.0405
  C  C91  1  0.078700  0.334500  0.555000  1.0  -0.1069
  C  C92  1  0.080500  0.416100  0.556000  1.0  -0.1104
  C  C93  1  0.118600  0.455800  0.502900  1.0  -0.0136
  C  C94  1  0.154300  0.418300  0.449400  1.0  0.1929
  C  C95  1  0.153500  0.332200  0.447100  1.0  -0.2011
  C  C96  1  0.229100  0.417900  0.326600  1.0  -0.059
  C  C97  1  0.117300  0.790800  0.500500  1.0  0.7053
  C  C98  1  0.115300  0.704500  0.499500  1.0  -0.0507
  C  C99  1  0.078700  0.665500  0.445000  1.0  -0.0831
  C  C100  1  0.080500  0.583900  0.444000  1.0  -0.1354
  C  C101  1  0.118600  0.544200  0.497100  1.0  0.1341
  C  C102  1  0.154300  0.581700  0.550600  1.0  -0.1092
  C  C103  1  0.153500  0.667800  0.552900  1.0  -0.0839
  C  C104  1  0.785900  0.049800  0.549800  1.0  -0.0585
  C  C105  1  0.704000  0.049000  0.549000  1.0  -0.1685
  C  C106  1  0.785900  0.950200  0.450200  1.0  -0.0521
  C  C107  1  0.704000  0.951000  0.451000  1.0  -0.178
  C  C108  1  0.532400  0.950940  0.549060  1.0  0.2152
  C  C109  1  0.450800  0.949800  0.550200  1.0  -0.1881
  C  C110  1  0.518900  0.857500  0.642500  1.0  -0.0808
  C  C111  1  0.532400  0.049060  0.450940  1.0  -0.1138
  C  C112  1  0.450800  0.050200  0.449800  1.0  -0.0802
  C  C113  1  0.908600  0.000000  0.500000  1.0  0.5242
  C  C114  1  0.828200  0.000000  0.500000  1.0  -0.0316
  C  C115  1  0.659800  0.000000  0.500000  1.0  0.1031
  C  C116  1  0.578500  0.000000  0.500000  1.0  -0.0375
  C  C117  1  0.415300  0.000000  0.500000  1.0  -0.0007
  C  C118  1  0.323700  0.000000  0.500000  1.0  0.495
  C  C119  1  0.882700  0.290800  0.999500  1.0  0.7063
  C  C120  1  0.884700  0.204500  0.000500  1.0  -0.0326
  C  C121  1  0.921300  0.165500  0.055000  1.0  -0.1116
  C  C122  1  0.919500  0.083900  0.056000  1.0  -0.1129
  C  C123  1  0.881400  0.044200  0.002900  1.0  0.0137
  C  C124  1  0.845700  0.081700  0.949400  1.0  0.1983
  C  C125  1  0.846500  0.167800  0.947100  1.0  -0.1705
  C  C126  1  0.770900  0.082100  0.826600  1.0  -0.0662
  C  C127  1  0.882700  0.709200  0.000500  1.0  0.7075
  C  C128  1  0.884700  0.795500  0.999500  1.0  -0.0314
  C  C129  1  0.921300  0.834500  0.945000  1.0  -0.1114
  C  C130  1  0.919500  0.916100  0.944000  1.0  -0.118
  C  C131  1  0.881400  0.955800  0.997100  1.0  0.012
  C  C132  1  0.845700  0.918300  0.050600  1.0  0.1994
  C  C133  1  0.846500  0.832200  0.052900  1.0  -0.1505
  C  C134  1  0.770900  0.917900  0.173400  1.0  -0.0632
  C  C135  1  0.882700  0.499500  0.790800  1.0  0.707
  C  C136  1  0.884700  0.500500  0.704500  1.0  -0.0415
  C  C137  1  0.921300  0.555000  0.665500  1.0  -0.0872
  C  C138  1  0.919500  0.556000  0.583900  1.0  -0.1341
  C  C139  1  0.881400  0.502900  0.544200  1.0  0.134
  C  C140  1  0.845700  0.449400  0.581700  1.0  -0.1062
  C  C141  1  0.846500  0.447100  0.667800  1.0  -0.0828
  C  C142  1  0.882700  0.500500  0.209200  1.0  0.7053
  C  C143  1  0.884700  0.499500  0.295500  1.0  -0.0411
  C  C144  1  0.921300  0.445000  0.334500  1.0  -0.1065
  C  C145  1  0.919500  0.444000  0.416100  1.0  -0.1134
  C  C146  1  0.881400  0.497100  0.455800  1.0  -0.0116
  C  C147  1  0.845700  0.550600  0.418300  1.0  0.1868
  C  C148  1  0.846500  0.552900  0.332200  1.0  -0.1788
  C  C149  1  0.770900  0.673400  0.417900  1.0  -0.0645
  C  C150  1  0.214100  0.549800  0.950200  1.0  -0.0598
  C  C151  1  0.296000  0.549000  0.951000  1.0  -0.1684
  C  C152  1  0.214100  0.450200  0.049800  1.0  -0.0547
  C  C153  1  0.296000  0.451000  0.049000  1.0  -0.1736
  C  C154  1  0.467600  0.549060  0.049060  1.0  0.2303
  C  C155  1  0.549200  0.550200  0.050200  1.0  -0.1738
  C  C156  1  0.481100  0.642500  0.142500  1.0  -0.0801
  C  C157  1  0.467600  0.450940  0.950940  1.0  -0.1232
  C  C158  1  0.549200  0.449800  0.949800  1.0  -0.0759
  C  C159  1  0.091400  0.500000  0.000000  1.0  0.4872
  C  C160  1  0.171800  0.500000  0.000000  1.0  -0.0432
  C  C161  1  0.340200  0.500000  0.000000  1.0  0.1008
  C  C162  1  0.421500  0.500000  0.000000  1.0  -0.0341
  C  C163  1  0.584700  0.500000  0.000000  1.0  0.0096
  C  C164  1  0.676300  0.500000  0.000000  1.0  0.4895
  O  O165  1  0.072000  0.950400  0.325230  1.0  -0.6335
  O  O166  1  0.157700  0.048300  0.325400  1.0  -0.6089
  O  O167  1  0.193100  0.114100  0.037300  1.0  -0.2954
  O  O168  1  0.072000  0.049600  0.674770  1.0  -0.6303
  O  O169  1  0.157700  0.951700  0.674600  1.0  -0.6084
  O  O170  1  0.193100  0.885900  0.962700  1.0  -0.2756
  O  O171  1  0.072000  0.174770  0.549600  1.0  -0.6282
  O  O172  1  0.157700  0.174600  0.451700  1.0  -0.6043
  O  O173  1  0.193100  0.462700  0.385900  1.0  -0.2762
  O  O174  1  0.072000  0.825230  0.450400  1.0  -0.6325
  O  O175  1  0.157700  0.825400  0.548300  1.0  -0.6059
  O  O176  1  0.944200  0.947500  0.447500  1.0  -0.5978
  O  O177  1  0.944200  0.052500  0.552500  1.0  -0.5954
  O  O178  1  0.291000  0.946000  0.554000  1.0  -0.5696
  O  O179  1  0.570700  0.901000  0.599000  1.0  -0.2252
  O  O180  1  0.291000  0.054000  0.446000  1.0  -0.5649
  O  O181  1  0.119000  0.000000  0.500000  1.0  -1.2581
  O  O182  1  0.928000  0.325230  0.049600  1.0  -0.6292
  O  O183  1  0.842300  0.325400  0.951700  1.0  -0.6039
  O  O184  1  0.806900  0.037300  0.885900  1.0  -0.2746
  O  O185  1  0.928000  0.674770  0.950400  1.0  -0.6328
  O  O186  1  0.842300  0.674600  0.048300  1.0  -0.6144
  O  O187  1  0.806900  0.962700  0.114100  1.0  -0.2717
  O  O188  1  0.928000  0.549600  0.825230  1.0  -0.6305
  O  O189  1  0.842300  0.451700  0.825400  1.0  -0.6038
  O  O190  1  0.928000  0.450400  0.174770  1.0  -0.6281
  O  O191  1  0.842300  0.548300  0.174600  1.0  -0.6108
  O  O192  1  0.806900  0.614100  0.462700  1.0  -0.2718
  O  O193  1  0.055800  0.447500  0.052500  1.0  -0.5991
  O  O194  1  0.055800  0.552500  0.947500  1.0  -0.5967
  O  O195  1  0.709000  0.554000  0.054000  1.0  -0.5756
  O  O196  1  0.429300  0.599000  0.099000  1.0  -0.2263
  O  O197  1  0.709000  0.446000  0.946000  1.0  -0.5633
  O  O198  1  0.881000  0.500000  0.000000  1.0  -1.2582
