# generated using pymatgen
data_CaNiH4(C3O4)2
_symmetry_space_group_name_H-M   'P 1'
_cell_length_a   8.92100000
_cell_length_b   11.93500000
_cell_length_c   13.27400000
_cell_angle_alpha   90.00000000
_cell_angle_beta   90.00000000
_cell_angle_gamma   90.00000000
_symmetry_Int_Tables_number   1
_chemical_formula_structural   CaNiH4(C3O4)2
_chemical_formula_sum   'Ca4 Ni4 H16 C24 O32'
_cell_volume   1413.31111999
_cell_formula_units_Z   4
loop_
 _symmetry_equiv_pos_site_id
 _symmetry_equiv_pos_as_xyz
  1  'x, y, z'
loop_
 _atom_site_type_symbol
 _atom_site_label
 _atom_site_symmetry_multiplicity
 _atom_site_fract_x
 _atom_site_fract_y
 _atom_site_fract_z
 _atom_site_occupancy
 _atom_site_charge
  Ca  Ca1  1  0.000000  0.761750  0.750000  1.0  1.5826
  Ca  Ca2  1  0.500000  0.738250  0.250000  1.0  1.5803
  Ca  Ca3  1  0.000000  0.238250  0.250000  1.0  1.5824
  Ca  Ca4  1  0.500000  0.261750  0.750000  1.0  1.5803
  Ni  Ni5  1  0.500000  0.500000  0.000000  1.0  0.729
  Ni  Ni6  1  0.000000  0.000000  0.500000  1.0  0.729
  Ni  Ni7  1  0.500000  0.500000  0.500000  1.0  0.729
  Ni  Ni8  1  0.000000  0.000000  0.000000  1.0  0.729
  H  H9  1  0.751000  0.782000  0.938000  1.0  0.1938
  H  H10  1  0.601000  0.741000  0.895000  1.0  0.188
  H  H11  1  0.749000  0.718000  0.438000  1.0  0.1934
  H  H12  1  0.899000  0.759000  0.395000  1.0  0.1862
  H  H13  1  0.249000  0.782000  0.562000  1.0  0.1921
  H  H14  1  0.399000  0.741000  0.605000  1.0  0.1866
  H  H15  1  0.251000  0.718000  0.062000  1.0  0.1943
  H  H16  1  0.101000  0.759000  0.105000  1.0  0.1882
  H  H17  1  0.249000  0.218000  0.062000  1.0  0.193
  H  H18  1  0.399000  0.259000  0.105000  1.0  0.1862
  H  H19  1  0.251000  0.282000  0.562000  1.0  0.1929
  H  H20  1  0.101000  0.241000  0.605000  1.0  0.1885
  H  H21  1  0.751000  0.218000  0.438000  1.0  0.1952
  H  H22  1  0.601000  0.259000  0.395000  1.0  0.1877
  H  H23  1  0.749000  0.282000  0.938000  1.0  0.193
  H  H24  1  0.899000  0.241000  0.895000  1.0  0.1866
  C  C25  1  0.753100  0.617900  0.902700  1.0  0.7803
  C  C26  1  0.684100  0.725600  0.942000  1.0  -0.5688
  C  C27  1  0.622100  0.722400  0.047800  1.0  0.7787
  C  C28  1  0.746900  0.882100  0.402700  1.0  0.781
  C  C29  1  0.815900  0.774400  0.442000  1.0  -0.5674
  C  C30  1  0.877900  0.777600  0.547800  1.0  0.7787
  C  C31  1  0.246900  0.617900  0.597300  1.0  0.782
  C  C32  1  0.315900  0.725600  0.558000  1.0  -0.5687
  C  C33  1  0.377900  0.722400  0.452200  1.0  0.7797
  C  C34  1  0.253100  0.882100  0.097300  1.0  0.7812
  C  C35  1  0.184100  0.774400  0.058000  1.0  -0.568
  C  C36  1  0.122100  0.777600  0.952200  1.0  0.7802
  C  C37  1  0.246900  0.382100  0.097300  1.0  0.7813
  C  C38  1  0.315900  0.274400  0.058000  1.0  -0.5677
  C  C39  1  0.377900  0.277600  0.952200  1.0  0.7798
  C  C40  1  0.253100  0.117900  0.597300  1.0  0.7823
  C  C41  1  0.184100  0.225600  0.558000  1.0  -0.5686
  C  C42  1  0.122100  0.222400  0.452200  1.0  0.7802
  C  C43  1  0.753100  0.382100  0.402700  1.0  0.7805
  C  C44  1  0.684100  0.274400  0.442000  1.0  -0.568
  C  C45  1  0.622100  0.277600  0.547800  1.0  0.7787
  C  C46  1  0.746900  0.117900  0.902700  1.0  0.7804
  C  C47  1  0.815900  0.225600  0.942000  1.0  -0.5686
  C  C48  1  0.877900  0.222400  0.047800  1.0  0.7789
  O  O49  1  0.854500  0.626200  0.838600  1.0  -0.667
  O  O50  1  0.707300  0.524200  0.934800  1.0  -0.5506
  O  O51  1  0.523000  0.649800  0.072200  1.0  -0.6835
  O  O52  1  0.836200  0.705800  0.610200  1.0  -0.6255
  O  O53  1  0.645500  0.873800  0.338600  1.0  -0.6677
  O  O54  1  0.792700  0.975800  0.434800  1.0  -0.5515
  O  O55  1  0.977000  0.850200  0.572200  1.0  -0.6851
  O  O56  1  0.663800  0.794200  0.110200  1.0  -0.6253
  O  O57  1  0.145500  0.626200  0.661400  1.0  -0.6671
  O  O58  1  0.292700  0.524200  0.565200  1.0  -0.5513
  O  O59  1  0.477000  0.649800  0.427800  1.0  -0.6833
  O  O60  1  0.163800  0.705800  0.889800  1.0  -0.6264
  O  O61  1  0.354500  0.873800  0.161400  1.0  -0.6673
  O  O62  1  0.207300  0.975800  0.065200  1.0  -0.5508
  O  O63  1  0.023000  0.850200  0.927800  1.0  -0.683
  O  O64  1  0.336200  0.794200  0.389800  1.0  -0.6269
  O  O65  1  0.145500  0.373800  0.161400  1.0  -0.6677
  O  O66  1  0.292700  0.475800  0.065200  1.0  -0.552
  O  O67  1  0.477000  0.350200  0.927800  1.0  -0.6836
  O  O68  1  0.163800  0.294200  0.389800  1.0  -0.6266
  O  O69  1  0.354500  0.126200  0.661400  1.0  -0.6672
  O  O70  1  0.207300  0.024200  0.565200  1.0  -0.5509
  O  O71  1  0.023000  0.149800  0.427800  1.0  -0.683
  O  O72  1  0.336200  0.205800  0.889800  1.0  -0.6263
  O  O73  1  0.854500  0.373800  0.338600  1.0  -0.6672
  O  O74  1  0.707300  0.475800  0.434800  1.0  -0.5506
  O  O75  1  0.523000  0.350200  0.572200  1.0  -0.6845
  O  O76  1  0.836200  0.294200  0.110200  1.0  -0.6262
  O  O77  1  0.645500  0.126200  0.838600  1.0  -0.6673
  O  O78  1  0.792700  0.024200  0.934800  1.0  -0.5508
  O  O79  1  0.977000  0.149800  0.072200  1.0  -0.6837
  O  O80  1  0.663800  0.205800  0.610200  1.0  -0.6252
