# generated using pymatgen
data_LaH12(C5O2)3
_symmetry_space_group_name_H-M   'P 1'
_cell_length_a   28.12950000
_cell_length_b   15.23050000
_cell_length_c   8.76070000
_cell_angle_alpha   90.00000000
_cell_angle_beta   98.83500000
_cell_angle_gamma   90.00000000
_symmetry_Int_Tables_number   1
_chemical_formula_structural   LaH12(C5O2)3
_chemical_formula_sum   'La8 H96 C120 O48'
_cell_volume   3708.78067975
_cell_formula_units_Z   8
loop_
 _symmetry_equiv_pos_site_id
 _symmetry_equiv_pos_as_xyz
  1  'x, y, z'
loop_
 _atom_site_type_symbol
 _atom_site_label
 _atom_site_symmetry_multiplicity
 _atom_site_fract_x
 _atom_site_fract_y
 _atom_site_fract_z
 _atom_site_occupancy
 _atom_site_charge
  La  La1  1  0.167540  0.013630  0.642020  1.0  2.157
  La  La2  1  0.667540  0.513630  0.642020  1.0  2.157
  La  La3  1  0.832460  0.013630  0.857980  1.0  2.1568
  La  La4  1  0.332460  0.513630  0.857980  1.0  2.1568
  La  La5  1  0.832460  0.986370  0.357980  1.0  2.1573
  La  La6  1  0.332460  0.486370  0.357980  1.0  2.1573
  La  La7  1  0.167540  0.986370  0.142020  1.0  2.1574
  La  La8  1  0.667540  0.486370  0.142020  1.0  2.1574
  H  H9  1  0.051500  0.896500  0.490400  1.0  0.1369
  H  H10  1  0.015900  0.950600  0.371200  1.0  0.1139
  H  H11  1  0.146400  0.523500  0.352900  1.0  0.0832
  H  H12  1  0.207400  0.439600  0.695700  1.0  0.1257
  H  H13  1  0.196700  0.527100  0.604000  1.0  0.141
  H  H14  1  0.182800  0.329500  0.752600  1.0  0.14
  H  H15  1  0.130800  0.301100  0.773400  1.0  0.1402
  H  H16  1  0.074600  0.280000  0.516800  1.0  0.0941
  H  H17  1  0.027200  0.612500  0.357400  1.0  0.0945
  H  H18  1  0.038200  0.355400  0.304400  1.0  0.0995
  H  H19  1  0.060100  0.740800  0.459700  1.0  0.1147
  H  H20  1  0.074800  0.476000  0.216300  1.0  0.1118
  H  H21  1  0.551500  0.396500  0.490400  1.0  0.1369
  H  H22  1  0.515900  0.450600  0.371200  1.0  0.1139
  H  H23  1  0.646400  0.023500  0.352900  1.0  0.0832
  H  H24  1  0.707400  0.939600  0.695700  1.0  0.1257
  H  H25  1  0.696700  0.027100  0.604000  1.0  0.141
  H  H26  1  0.682800  0.829500  0.752600  1.0  0.14
  H  H27  1  0.630800  0.801100  0.773400  1.0  0.1402
  H  H28  1  0.574600  0.780000  0.516800  1.0  0.0941
  H  H29  1  0.527200  0.112500  0.357400  1.0  0.0945
  H  H30  1  0.538200  0.855400  0.304400  1.0  0.0995
  H  H31  1  0.560100  0.240800  0.459700  1.0  0.1147
  H  H32  1  0.574800  0.976000  0.216300  1.0  0.1118
  H  H33  1  0.948500  0.896500  0.009600  1.0  0.1375
  H  H34  1  0.984100  0.950600  0.128800  1.0  0.1139
  H  H35  1  0.853600  0.523500  0.147100  1.0  0.0832
  H  H36  1  0.792600  0.439600  0.804300  1.0  0.1247
  H  H37  1  0.803300  0.527100  0.896000  1.0  0.1416
  H  H38  1  0.817200  0.329500  0.747400  1.0  0.1414
  H  H39  1  0.869200  0.301100  0.726600  1.0  0.1379
  H  H40  1  0.925400  0.280000  0.983200  1.0  0.0943
  H  H41  1  0.972800  0.612500  0.142600  1.0  0.0936
  H  H42  1  0.961800  0.355400  0.195600  1.0  0.1005
  H  H43  1  0.939900  0.740800  0.040300  1.0  0.1149
  H  H44  1  0.925200  0.476000  0.283700  1.0  0.1127
  H  H45  1  0.448500  0.396500  0.009600  1.0  0.1375
  H  H46  1  0.484100  0.450600  0.128800  1.0  0.1139
  H  H47  1  0.353600  0.023500  0.147100  1.0  0.0832
  H  H48  1  0.292600  0.939600  0.804300  1.0  0.1247
  H  H49  1  0.303300  0.027100  0.896000  1.0  0.1416
  H  H50  1  0.317200  0.829500  0.747400  1.0  0.1414
  H  H51  1  0.369200  0.801100  0.726600  1.0  0.1379
  H  H52  1  0.425400  0.780000  0.983200  1.0  0.0943
  H  H53  1  0.472800  0.112500  0.142600  1.0  0.0936
  H  H54  1  0.461800  0.855400  0.195600  1.0  0.1005
  H  H55  1  0.439900  0.240800  0.040300  1.0  0.1149
  H  H56  1  0.425200  0.976000  0.283700  1.0  0.1127
  H  H57  1  0.948500  0.103500  0.509600  1.0  0.1367
  H  H58  1  0.984100  0.049400  0.628800  1.0  0.1147
  H  H59  1  0.853600  0.476500  0.647100  1.0  0.0832
  H  H60  1  0.792600  0.560400  0.304300  1.0  0.1244
  H  H61  1  0.803300  0.472900  0.396000  1.0  0.1361
  H  H62  1  0.817200  0.670500  0.247400  1.0  0.1417
  H  H63  1  0.869200  0.698900  0.226600  1.0  0.1382
  H  H64  1  0.925400  0.720000  0.483200  1.0  0.094
  H  H65  1  0.972800  0.387500  0.642600  1.0  0.0937
  H  H66  1  0.961800  0.644600  0.695600  1.0  0.1006
  H  H67  1  0.939900  0.259200  0.540300  1.0  0.1148
  H  H68  1  0.925200  0.524000  0.783700  1.0  0.1127
  H  H69  1  0.448500  0.603500  0.509600  1.0  0.1367
  H  H70  1  0.484100  0.549400  0.628800  1.0  0.1147
  H  H71  1  0.353600  0.976500  0.647100  1.0  0.0832
  H  H72  1  0.292600  0.060400  0.304300  1.0  0.1244
  H  H73  1  0.303300  0.972900  0.396000  1.0  0.1361
  H  H74  1  0.317200  0.170500  0.247400  1.0  0.1417
  H  H75  1  0.369200  0.198900  0.226600  1.0  0.1382
  H  H76  1  0.425400  0.220000  0.483200  1.0  0.094
  H  H77  1  0.472800  0.887500  0.642600  1.0  0.0937
  H  H78  1  0.461800  0.144600  0.695600  1.0  0.1006
  H  H79  1  0.439900  0.759200  0.540300  1.0  0.1148
  H  H80  1  0.425200  0.024000  0.783700  1.0  0.1127
  H  H81  1  0.051500  0.103500  0.990400  1.0  0.1362
  H  H82  1  0.015900  0.049400  0.871200  1.0  0.1142
  H  H83  1  0.146400  0.476500  0.852900  1.0  0.0834
  H  H84  1  0.207400  0.560400  0.195700  1.0  0.126
  H  H85  1  0.196700  0.472900  0.104000  1.0  0.1367
  H  H86  1  0.182800  0.670500  0.252600  1.0  0.1401
  H  H87  1  0.130800  0.698900  0.273400  1.0  0.1401
  H  H88  1  0.074600  0.720000  0.016800  1.0  0.0941
  H  H89  1  0.027200  0.387500  0.857400  1.0  0.0941
  H  H90  1  0.038200  0.644600  0.804400  1.0  0.1006
  H  H91  1  0.060100  0.259200  0.959700  1.0  0.1146
  H  H92  1  0.074800  0.524000  0.716300  1.0  0.1121
  H  H93  1  0.551500  0.603500  0.990400  1.0  0.1362
  H  H94  1  0.515900  0.549400  0.871200  1.0  0.1142
  H  H95  1  0.646400  0.976500  0.852900  1.0  0.0834
  H  H96  1  0.707400  0.060400  0.195700  1.0  0.126
  H  H97  1  0.696700  0.972900  0.104000  1.0  0.1367
  H  H98  1  0.682800  0.170500  0.252600  1.0  0.1401
  H  H99  1  0.630800  0.198900  0.273400  1.0  0.1401
  H  H100  1  0.574600  0.220000  0.016800  1.0  0.0941
  H  H101  1  0.527200  0.887500  0.857400  1.0  0.0941
  H  H102  1  0.538200  0.144600  0.804400  1.0  0.1006
  H  H103  1  0.560100  0.759200  0.959700  1.0  0.1146
  H  H104  1  0.574800  0.024000  0.716300  1.0  0.1121
  C  C105  1  0.133470  0.354700  0.561200  1.0  0.0714
  C  C106  1  0.018700  0.822300  0.313500  1.0  0.0564
  C  C107  1  0.082360  0.937800  0.305900  1.0  0.7941
  C  C108  1  0.155870  0.426700  0.511200  1.0  0.0787
  C  C109  1  0.246890  0.452000  0.519900  1.0  0.742
  C  C110  1  0.166130  0.206700  0.671600  1.0  0.7563
  C  C111  1  0.040510  0.905500  0.381000  1.0  -0.3745
  C  C112  1  0.132300  0.472700  0.384200  1.0  -0.1251
  C  C113  1  0.201560  0.464600  0.592600  1.0  -0.3414
  C  C114  1  0.153900  0.300700  0.701800  1.0  -0.3465
  C  C115  1  0.089750  0.329000  0.483000  1.0  -0.114
  C  C116  1  0.016600  0.665600  0.312100  1.0  -0.0942
  C  C117  1  0.067800  0.374100  0.355600  1.0  -0.0833
  C  C118  1  0.035700  0.742200  0.375100  1.0  -0.1319
  C  C119  1  0.089100  0.446000  0.303800  1.0  -0.0837
  C  C120  1  0.633470  0.854700  0.561200  1.0  0.0714
  C  C121  1  0.518700  0.322300  0.313500  1.0  0.0564
  C  C122  1  0.582360  0.437800  0.305900  1.0  0.7941
  C  C123  1  0.655870  0.926700  0.511200  1.0  0.0787
  C  C124  1  0.746890  0.952000  0.519900  1.0  0.742
  C  C125  1  0.666130  0.706700  0.671600  1.0  0.7563
  C  C126  1  0.540510  0.405500  0.381000  1.0  -0.3745
  C  C127  1  0.632300  0.972700  0.384200  1.0  -0.1251
  C  C128  1  0.701560  0.964600  0.592600  1.0  -0.3414
  C  C129  1  0.653900  0.800700  0.701800  1.0  -0.3465
  C  C130  1  0.589750  0.829000  0.483000  1.0  -0.114
  C  C131  1  0.516600  0.165600  0.312100  1.0  -0.0942
  C  C132  1  0.567800  0.874100  0.355600  1.0  -0.0833
  C  C133  1  0.535700  0.242200  0.375100  1.0  -0.1319
  C  C134  1  0.589100  0.946000  0.303800  1.0  -0.0837
  C  C135  1  0.866530  0.354700  0.938800  1.0  0.0714
  C  C136  1  0.981300  0.822300  0.186500  1.0  0.0555
  C  C137  1  0.917640  0.937800  0.194100  1.0  0.7902
  C  C138  1  0.844130  0.426700  0.988800  1.0  0.0776
  C  C139  1  0.753110  0.452000  0.980100  1.0  0.7457
  C  C140  1  0.833870  0.206700  0.828400  1.0  0.7574
  C  C141  1  0.959490  0.905500  0.119000  1.0  -0.3743
  C  C142  1  0.867700  0.472700  0.115800  1.0  -0.1249
  C  C143  1  0.798440  0.464600  0.907400  1.0  -0.3382
  C  C144  1  0.846100  0.300700  0.798200  1.0  -0.3479
  C  C145  1  0.910250  0.329000  0.017000  1.0  -0.1143
  C  C146  1  0.983400  0.665600  0.187900  1.0  -0.0912
  C  C147  1  0.932200  0.374100  0.144400  1.0  -0.0822
  C  C148  1  0.964300  0.742200  0.124900  1.0  -0.1391
  C  C149  1  0.910900  0.446000  0.196200  1.0  -0.0815
  C  C150  1  0.366530  0.854700  0.938800  1.0  0.0714
  C  C151  1  0.481300  0.322300  0.186500  1.0  0.0555
  C  C152  1  0.417640  0.437800  0.194100  1.0  0.7902
  C  C153  1  0.344130  0.926700  0.988800  1.0  0.0776
  C  C154  1  0.253110  0.952000  0.980100  1.0  0.7457
  C  C155  1  0.333870  0.706700  0.828400  1.0  0.7574
  C  C156  1  0.459490  0.405500  0.119000  1.0  -0.3743
  C  C157  1  0.367700  0.972700  0.115800  1.0  -0.1249
  C  C158  1  0.298440  0.964600  0.907400  1.0  -0.3382
  C  C159  1  0.346100  0.800700  0.798200  1.0  -0.3479
  C  C160  1  0.410250  0.829000  0.017000  1.0  -0.1143
  C  C161  1  0.483400  0.165600  0.187900  1.0  -0.0912
  C  C162  1  0.432200  0.874100  0.144400  1.0  -0.0822
  C  C163  1  0.464300  0.242200  0.124900  1.0  -0.1391
  C  C164  1  0.410900  0.946000  0.196200  1.0  -0.0815
  C  C165  1  0.866530  0.645300  0.438800  1.0  0.0704
  C  C166  1  0.981300  0.177700  0.686500  1.0  0.0559
  C  C167  1  0.917640  0.062200  0.694100  1.0  0.7953
  C  C168  1  0.844130  0.573300  0.488800  1.0  0.0777
  C  C169  1  0.753110  0.548000  0.480100  1.0  0.7456
  C  C170  1  0.833870  0.793300  0.328400  1.0  0.7568
  C  C171  1  0.959490  0.094500  0.619000  1.0  -0.3719
  C  C172  1  0.867700  0.527300  0.615800  1.0  -0.1253
  C  C173  1  0.798440  0.535400  0.407400  1.0  -0.3384
  C  C174  1  0.846100  0.699300  0.298200  1.0  -0.3453
  C  C175  1  0.910250  0.671000  0.517000  1.0  -0.1142
  C  C176  1  0.983400  0.334400  0.687900  1.0  -0.0923
  C  C177  1  0.932200  0.625900  0.644400  1.0  -0.0817
  C  C178  1  0.964300  0.257800  0.624900  1.0  -0.1304
  C  C179  1  0.910900  0.554000  0.696200  1.0  -0.0813
  C  C180  1  0.366530  0.145300  0.438800  1.0  0.0704
  C  C181  1  0.481300  0.677700  0.686500  1.0  0.0559
  C  C182  1  0.417640  0.562200  0.694100  1.0  0.7953
  C  C183  1  0.344130  0.073300  0.488800  1.0  0.0777
  C  C184  1  0.253110  0.048000  0.480100  1.0  0.7456
  C  C185  1  0.333870  0.293300  0.328400  1.0  0.7568
  C  C186  1  0.459490  0.594500  0.619000  1.0  -0.3719
  C  C187  1  0.367700  0.027300  0.615800  1.0  -0.1253
  C  C188  1  0.298440  0.035400  0.407400  1.0  -0.3384
  C  C189  1  0.346100  0.199300  0.298200  1.0  -0.3453
  C  C190  1  0.410250  0.171000  0.517000  1.0  -0.1142
  C  C191  1  0.483400  0.834400  0.687900  1.0  -0.0923
  C  C192  1  0.432200  0.125900  0.644400  1.0  -0.0817
  C  C193  1  0.464300  0.757800  0.624900  1.0  -0.1304
  C  C194  1  0.410900  0.054000  0.696200  1.0  -0.0813
  C  C195  1  0.133470  0.645300  0.061200  1.0  0.0713
  C  C196  1  0.018700  0.177700  0.813500  1.0  0.0563
  C  C197  1  0.082360  0.062200  0.805900  1.0  0.7901
  C  C198  1  0.155870  0.573300  0.011200  1.0  0.0795
  C  C199  1  0.246890  0.548000  0.019900  1.0  0.7423
  C  C200  1  0.166130  0.793300  0.171600  1.0  0.7552
  C  C201  1  0.040510  0.094500  0.881000  1.0  -0.3757
  C  C202  1  0.132300  0.527300  0.884200  1.0  -0.125
  C  C203  1  0.201560  0.535400  0.092600  1.0  -0.3418
  C  C204  1  0.153900  0.699300  0.201800  1.0  -0.3467
  C  C205  1  0.089750  0.671000  0.983000  1.0  -0.114
  C  C206  1  0.016600  0.334400  0.812100  1.0  -0.0925
  C  C207  1  0.067800  0.625900  0.855600  1.0  -0.0828
  C  C208  1  0.035700  0.257800  0.875100  1.0  -0.1405
  C  C209  1  0.089100  0.554000  0.803800  1.0  -0.0841
  C  C210  1  0.633470  0.145300  0.061200  1.0  0.0713
  C  C211  1  0.518700  0.677700  0.813500  1.0  0.0563
  C  C212  1  0.582360  0.562200  0.805900  1.0  0.7901
  C  C213  1  0.655870  0.073300  0.011200  1.0  0.0795
  C  C214  1  0.746890  0.048000  0.019900  1.0  0.7423
  C  C215  1  0.666130  0.293300  0.171600  1.0  0.7552
  C  C216  1  0.540510  0.594500  0.881000  1.0  -0.3757
  C  C217  1  0.632300  0.027300  0.884200  1.0  -0.125
  C  C218  1  0.701560  0.035400  0.092600  1.0  -0.3418
  C  C219  1  0.653900  0.199300  0.201800  1.0  -0.3467
  C  C220  1  0.589750  0.171000  0.983000  1.0  -0.114
  C  C221  1  0.516600  0.834400  0.812100  1.0  -0.0925
  C  C222  1  0.567800  0.125900  0.855600  1.0  -0.0828
  C  C223  1  0.535700  0.757800  0.875100  1.0  -0.1405
  C  C224  1  0.589100  0.054000  0.803800  1.0  -0.0841
  O  O225  1  0.286780  0.473020  0.602000  1.0  -0.8738
  O  O226  1  0.245280  0.429200  0.382800  1.0  -0.6414
  O  O227  1  0.118210  0.973400  0.389500  1.0  -0.8469
  O  O228  1  0.081530  0.930600  0.162900  1.0  -0.6529
  O  O229  1  0.160610  0.174680  0.537500  1.0  -0.6449
  O  O230  1  0.180600  0.160190  0.788100  1.0  -0.69
  O  O231  1  0.786780  0.973020  0.602000  1.0  -0.8738
  O  O232  1  0.745280  0.929200  0.382800  1.0  -0.6414
  O  O233  1  0.618210  0.473400  0.389500  1.0  -0.8469
  O  O234  1  0.581530  0.430600  0.162900  1.0  -0.6529
  O  O235  1  0.660610  0.674680  0.537500  1.0  -0.6449
  O  O236  1  0.680600  0.660190  0.788100  1.0  -0.69
  O  O237  1  0.713220  0.473020  0.898000  1.0  -0.8744
  O  O238  1  0.754720  0.429200  0.117200  1.0  -0.6416
  O  O239  1  0.881790  0.973400  0.110500  1.0  -0.8484
  O  O240  1  0.918470  0.930600  0.337100  1.0  -0.6547
  O  O241  1  0.839390  0.174680  0.962500  1.0  -0.6483
  O  O242  1  0.819400  0.160190  0.711900  1.0  -0.6917
  O  O243  1  0.213220  0.973020  0.898000  1.0  -0.8744
  O  O244  1  0.254720  0.929200  0.117200  1.0  -0.6416
  O  O245  1  0.381790  0.473400  0.110500  1.0  -0.8484
  O  O246  1  0.418470  0.430600  0.337100  1.0  -0.6547
  O  O247  1  0.339390  0.674680  0.962500  1.0  -0.6483
  O  O248  1  0.319400  0.660190  0.711900  1.0  -0.6917
  O  O249  1  0.713220  0.526980  0.398000  1.0  -0.8769
  O  O250  1  0.754720  0.570800  0.617200  1.0  -0.644
  O  O251  1  0.881790  0.026600  0.610500  1.0  -0.8485
  O  O252  1  0.918470  0.069400  0.837100  1.0  -0.6538
  O  O253  1  0.839390  0.825320  0.462500  1.0  -0.6492
  O  O254  1  0.819400  0.839810  0.211900  1.0  -0.6911
  O  O255  1  0.213220  0.026980  0.398000  1.0  -0.8769
  O  O256  1  0.254720  0.070800  0.617200  1.0  -0.644
  O  O257  1  0.381790  0.526600  0.610500  1.0  -0.8485
  O  O258  1  0.418470  0.569400  0.837100  1.0  -0.6538
  O  O259  1  0.339390  0.325320  0.462500  1.0  -0.6492
  O  O260  1  0.319400  0.339810  0.211900  1.0  -0.6911
  O  O261  1  0.286780  0.526980  0.102000  1.0  -0.8757
  O  O262  1  0.245280  0.570800  0.882800  1.0  -0.6403
  O  O263  1  0.118210  0.026600  0.889500  1.0  -0.847
  O  O264  1  0.081530  0.069400  0.662900  1.0  -0.6534
  O  O265  1  0.160610  0.825320  0.037500  1.0  -0.6463
  O  O266  1  0.180600  0.839810  0.288100  1.0  -0.6892
  O  O267  1  0.786780  0.026980  0.102000  1.0  -0.8757
  O  O268  1  0.745280  0.070800  0.882800  1.0  -0.6403
  O  O269  1  0.618210  0.526600  0.889500  1.0  -0.847
  O  O270  1  0.581530  0.569400  0.662900  1.0  -0.6534
  O  O271  1  0.660610  0.325320  0.037500  1.0  -0.6463
  O  O272  1  0.680600  0.339810  0.288100  1.0  -0.6892
