# generated using pymatgen
data_CoH12C20(SN4)2
_symmetry_space_group_name_H-M   'P 1'
_cell_length_a   15.75400000
_cell_length_b   26.87700000
_cell_length_c   19.24400000
_cell_angle_alpha   90.00000000
_cell_angle_beta   90.06500000
_cell_angle_gamma   90.00000000
_symmetry_Int_Tables_number   1
_chemical_formula_structural   CoH12C20(SN4)2
_chemical_formula_sum   'Co8 H96 C160 S16 N64'
_cell_volume   8148.29420149
_cell_formula_units_Z   8
loop_
 _symmetry_equiv_pos_site_id
 _symmetry_equiv_pos_as_xyz
  1  'x, y, z'
loop_
 _atom_site_type_symbol
 _atom_site_label
 _atom_site_symmetry_multiplicity
 _atom_site_fract_x
 _atom_site_fract_y
 _atom_site_fract_z
 _atom_site_occupancy
 _atom_site_charge
  Co  Co1  1  0.045300  0.618690  0.786780  1.0  0.8969
  Co  Co2  1  0.538500  0.863520  0.208240  1.0  0.8915
  Co  Co3  1  0.954700  0.118690  0.713220  1.0  0.8956
  Co  Co4  1  0.461500  0.363520  0.291760  1.0  0.8937
  Co  Co5  1  0.954700  0.381310  0.213220  1.0  0.8962
  Co  Co6  1  0.461500  0.136480  0.791760  1.0  0.8935
  Co  Co7  1  0.045300  0.881310  0.286780  1.0  0.8973
  Co  Co8  1  0.538500  0.636480  0.708240  1.0  0.8917
  H  H9  1  0.669700  0.799500  0.135100  1.0  0.086
  H  H10  1  0.763500  0.798600  0.042800  1.0  0.1282
  H  H11  1  0.704000  0.943100  0.006500  1.0  0.115
  H  H12  1  0.608900  0.939500  0.099000  1.0  0.0922
  H  H13  1  0.974600  0.671100  0.917900  1.0  0.0854
  H  H14  1  0.919700  0.746200  0.956300  1.0  0.1244
  H  H15  1  0.973100  0.804300  0.766500  1.0  0.1194
  H  H16  1  0.024000  0.726500  0.733000  1.0  0.104
  H  H17  1  0.018600  0.011100  0.722200  1.0  0.0895
  H  H18  1  0.995400  0.936200  0.780300  1.0  0.1176
  H  H19  1  0.783600  0.997000  0.863900  1.0  0.1228
  H  H20  1  0.812000  0.069200  0.802700  1.0  0.0911
  H  H21  1  0.163900  0.683600  0.870100  1.0  0.0904
  H  H22  1  0.258600  0.682200  0.962300  1.0  0.1279
  H  H23  1  0.206000  0.535400  0.988300  1.0  0.1237
  H  H24  1  0.109200  0.541900  0.898400  1.0  0.0814
  H  H25  1  0.471100  0.808700  0.075600  1.0  0.0832
  H  H26  1  0.413600  0.732700  0.041100  1.0  0.1208
  H  H27  1  0.465500  0.679100  0.233000  1.0  0.1195
  H  H28  1  0.520700  0.756200  0.261500  1.0  0.0901
  H  H29  1  0.497200  0.477200  0.299300  1.0  0.0927
  H  H30  1  0.466700  0.551600  0.244400  1.0  0.1219
  H  H31  1  0.315600  0.475500  0.111800  1.0  0.1168
  H  H32  1  0.350300  0.403400  0.171400  1.0  0.0907
  H  H33  1  0.330300  0.299500  0.364900  1.0  0.0862
  H  H34  1  0.236500  0.298600  0.457200  1.0  0.128
  H  H35  1  0.296000  0.443100  0.493500  1.0  0.1148
  H  H36  1  0.391100  0.439500  0.401000  1.0  0.0922
  H  H37  1  0.025400  0.171100  0.582100  1.0  0.0848
  H  H38  1  0.080300  0.246200  0.543700  1.0  0.1243
  H  H39  1  0.026900  0.304300  0.733500  1.0  0.1198
  H  H40  1  0.976000  0.226500  0.767000  1.0  0.1039
  H  H41  1  0.981400  0.511100  0.777800  1.0  0.0895
  H  H42  1  0.004600  0.436200  0.719700  1.0  0.1173
  H  H43  1  0.216400  0.497000  0.636100  1.0  0.1225
  H  H44  1  0.188000  0.569200  0.697300  1.0  0.0911
  H  H45  1  0.836100  0.183600  0.629900  1.0  0.0906
  H  H46  1  0.741400  0.182200  0.537700  1.0  0.1285
  H  H47  1  0.794000  0.035400  0.511700  1.0  0.124
  H  H48  1  0.890800  0.041900  0.601600  1.0  0.0811
  H  H49  1  0.528900  0.308700  0.424400  1.0  0.0842
  H  H50  1  0.586400  0.232700  0.458900  1.0  0.1211
  H  H51  1  0.534500  0.179100  0.267000  1.0  0.1189
  H  H52  1  0.479300  0.256200  0.238500  1.0  0.0892
  H  H53  1  0.502800  0.977200  0.200700  1.0  0.0922
  H  H54  1  0.533300  0.051600  0.255600  1.0  0.1224
  H  H55  1  0.684400  0.975500  0.388200  1.0  0.1172
  H  H56  1  0.649700  0.903400  0.328600  1.0  0.0906
  H  H57  1  0.330300  0.200500  0.864900  1.0  0.0866
  H  H58  1  0.236500  0.201400  0.957200  1.0  0.1282
  H  H59  1  0.296000  0.056900  0.993500  1.0  0.1149
  H  H60  1  0.391100  0.060500  0.901000  1.0  0.0925
  H  H61  1  0.025400  0.328900  0.082100  1.0  0.0848
  H  H62  1  0.080300  0.253800  0.043700  1.0  0.1241
  H  H63  1  0.026900  0.195700  0.233500  1.0  0.1199
  H  H64  1  0.976000  0.273500  0.267000  1.0  0.1043
  H  H65  1  0.981400  0.988900  0.277800  1.0  0.0892
  H  H66  1  0.004600  0.063800  0.219700  1.0  0.117
  H  H67  1  0.216400  0.003000  0.136100  1.0  0.1226
  H  H68  1  0.188000  0.930800  0.197300  1.0  0.0907
  H  H69  1  0.836100  0.316400  0.129900  1.0  0.0905
  H  H70  1  0.741400  0.317800  0.037700  1.0  0.1283
  H  H71  1  0.794000  0.464600  0.011700  1.0  0.1243
  H  H72  1  0.890800  0.458100  0.101600  1.0  0.0807
  H  H73  1  0.528900  0.191300  0.924400  1.0  0.0847
  H  H74  1  0.586400  0.267300  0.958900  1.0  0.1212
  H  H75  1  0.534500  0.320900  0.767000  1.0  0.1186
  H  H76  1  0.479300  0.243800  0.738500  1.0  0.0894
  H  H77  1  0.502800  0.522800  0.700700  1.0  0.0924
  H  H78  1  0.533300  0.448400  0.755600  1.0  0.122
  H  H79  1  0.684400  0.524500  0.888200  1.0  0.1172
  H  H80  1  0.649700  0.596600  0.828600  1.0  0.091
  H  H81  1  0.669700  0.700500  0.635100  1.0  0.0865
  H  H82  1  0.763500  0.701400  0.542800  1.0  0.1278
  H  H83  1  0.704000  0.556900  0.506500  1.0  0.1147
  H  H84  1  0.608900  0.560500  0.599000  1.0  0.092
  H  H85  1  0.974600  0.828900  0.417900  1.0  0.0851
  H  H86  1  0.919700  0.753800  0.456300  1.0  0.1244
  H  H87  1  0.973100  0.695700  0.266500  1.0  0.1191
  H  H88  1  0.024000  0.773500  0.233000  1.0  0.1042
  H  H89  1  0.018600  0.488900  0.222200  1.0  0.0894
  H  H90  1  0.995400  0.563800  0.280300  1.0  0.1175
  H  H91  1  0.783600  0.503000  0.363900  1.0  0.1229
  H  H92  1  0.812000  0.430800  0.302700  1.0  0.0905
  H  H93  1  0.163900  0.816400  0.370100  1.0  0.09
  H  H94  1  0.258600  0.817800  0.462300  1.0  0.1282
  H  H95  1  0.206000  0.964600  0.488300  1.0  0.1238
  H  H96  1  0.109200  0.958100  0.398400  1.0  0.0811
  H  H97  1  0.471100  0.691300  0.575600  1.0  0.0833
  H  H98  1  0.413600  0.767300  0.541100  1.0  0.1209
  H  H99  1  0.465500  0.820900  0.733000  1.0  0.1193
  H  H100  1  0.520700  0.743800  0.761500  1.0  0.0897
  H  H101  1  0.497200  0.022800  0.799300  1.0  0.0922
  H  H102  1  0.466700  0.948400  0.744400  1.0  0.1218
  H  H103  1  0.315600  0.024500  0.611800  1.0  0.1167
  H  H104  1  0.350300  0.096600  0.671400  1.0  0.0904
  C  C105  1  0.204100  0.679260  0.724300  1.0  0.2803
  C  C106  1  0.906100  0.576260  0.891500  1.0  0.2948
  C  C107  1  0.397500  0.913290  0.109000  1.0  0.2611
  C  C108  1  0.682900  0.806050  0.290300  1.0  0.2723
  C  C109  1  0.676400  0.828930  0.108300  1.0  0.1684
  C  C110  1  0.732800  0.828040  0.053600  1.0  -0.1402
  C  C111  1  0.744100  0.871180  0.014430  1.0  -0.0977
  C  C112  1  0.697500  0.913130  0.032070  1.0  -0.123
  C  C113  1  0.641000  0.910750  0.087600  1.0  0.1556
  C  C114  1  0.973100  0.698350  0.886560  1.0  0.1574
  C  C115  1  0.940300  0.743060  0.910140  1.0  -0.1453
  C  C116  1  0.938200  0.783400  0.864310  1.0  -0.1211
  C  C117  1  0.971500  0.777180  0.798130  1.0  -0.1127
  C  C118  1  0.002400  0.730710  0.778680  1.0  0.1487
  C  C119  1  0.970200  0.008150  0.751200  1.0  0.16
  C  C120  1  0.957000  0.963190  0.786000  1.0  -0.1412
  C  C121  1  0.887200  0.958710  0.828700  1.0  -0.0968
  C  C122  1  0.832300  0.999010  0.835000  1.0  -0.1418
  C  C123  1  0.849900  0.041880  0.798400  1.0  0.1506
  C  C124  1  0.805100  0.871710  0.954950  1.0  0.3693
  C  C125  1  0.896700  0.830710  0.885830  1.0  0.2667
  C  C126  1  0.870900  0.911970  0.867900  1.0  0.3227
  C  C127  1  0.172100  0.653440  0.895010  1.0  0.1633
  C  C128  1  0.229000  0.652830  0.949520  1.0  -0.0905
  C  C129  1  0.242700  0.608470  0.985690  1.0  -0.1326
  C  C130  1  0.197700  0.566360  0.965380  1.0  -0.1324
  C  C131  1  0.140800  0.570530  0.911350  1.0  0.1581
  C  C132  1  0.469300  0.782040  0.108020  1.0  0.1565
  C  C133  1  0.434900  0.736820  0.086950  1.0  -0.1338
  C  C134  1  0.432400  0.697910  0.134300  1.0  -0.1081
  C  C135  1  0.465400  0.705260  0.199800  1.0  -0.1345
  C  C136  1  0.498100  0.751320  0.216200  1.0  0.1435
  C  C137  1  0.460000  0.476930  0.260500  1.0  0.1699
  C  C138  1  0.442400  0.521450  0.227900  1.0  -0.1458
  C  C139  1  0.388300  0.521480  0.170510  1.0  -0.0883
  C  C140  1  0.353600  0.476840  0.150120  1.0  -0.1306
  C  C141  1  0.374700  0.433940  0.186090  1.0  0.157
  C  C142  1  0.302800  0.607600  0.044310  1.0  0.4086
  C  C143  1  0.391600  0.649910  0.114690  1.0  0.3834
  C  C144  1  0.369700  0.568420  0.132160  1.0  0.4245
  C  C145  1  0.795900  0.179260  0.775700  1.0  0.2807
  C  C146  1  0.093900  0.076260  0.608500  1.0  0.292
  C  C147  1  0.602500  0.413290  0.391000  1.0  0.2582
  C  C148  1  0.317100  0.306050  0.209700  1.0  0.2736
  C  C149  1  0.323600  0.328930  0.391700  1.0  0.1683
  C  C150  1  0.267200  0.328040  0.446400  1.0  -0.14
  C  C151  1  0.255900  0.371180  0.485570  1.0  -0.0982
  C  C152  1  0.302500  0.413130  0.467930  1.0  -0.124
  C  C153  1  0.359000  0.410750  0.412400  1.0  0.1563
  C  C154  1  0.026900  0.198350  0.613440  1.0  0.1563
  C  C155  1  0.059700  0.243060  0.589860  1.0  -0.146
  C  C156  1  0.061800  0.283400  0.635690  1.0  -0.12
  C  C157  1  0.028500  0.277180  0.701870  1.0  -0.1127
  C  C158  1  0.997600  0.230710  0.721320  1.0  0.1478
  C  C159  1  0.029800  0.508150  0.748800  1.0  0.1591
  C  C160  1  0.043000  0.463190  0.714000  1.0  -0.1418
  C  C161  1  0.112800  0.458710  0.671300  1.0  -0.0967
  C  C162  1  0.167700  0.499010  0.665000  1.0  -0.1404
  C  C163  1  0.150100  0.541880  0.701600  1.0  0.1504
  C  C164  1  0.194900  0.371710  0.545050  1.0  0.369
  C  C165  1  0.103300  0.330710  0.614170  1.0  0.2671
  C  C166  1  0.129100  0.411970  0.632100  1.0  0.3225
  C  C167  1  0.827900  0.153440  0.604990  1.0  0.1632
  C  C168  1  0.771000  0.152830  0.550480  1.0  -0.0917
  C  C169  1  0.757300  0.108470  0.514310  1.0  -0.1325
  C  C170  1  0.802300  0.066360  0.534620  1.0  -0.1324
  C  C171  1  0.859200  0.070530  0.588650  1.0  0.1573
  C  C172  1  0.530700  0.282040  0.391980  1.0  0.1555
  C  C173  1  0.565100  0.236820  0.413050  1.0  -0.1348
  C  C174  1  0.567600  0.197910  0.365700  1.0  -0.1084
  C  C175  1  0.534600  0.205260  0.300200  1.0  -0.1333
  C  C176  1  0.501900  0.251320  0.283800  1.0  0.145
  C  C177  1  0.540000  0.976930  0.239500  1.0  0.1692
  C  C178  1  0.557600  0.021450  0.272100  1.0  -0.1466
  C  C179  1  0.611700  0.021480  0.329490  1.0  -0.0884
  C  C180  1  0.646400  0.976840  0.349880  1.0  -0.131
  C  C181  1  0.625300  0.933940  0.313910  1.0  0.1592
  C  C182  1  0.697200  0.107600  0.455690  1.0  0.4084
  C  C183  1  0.608400  0.149910  0.385310  1.0  0.3836
  C  C184  1  0.630300  0.068420  0.367840  1.0  0.4241
  C  C185  1  0.795900  0.320740  0.275700  1.0  0.2794
  C  C186  1  0.093900  0.423740  0.108500  1.0  0.292
  C  C187  1  0.602500  0.086710  0.891000  1.0  0.2581
  C  C188  1  0.317100  0.193950  0.709700  1.0  0.2744
  C  C189  1  0.323600  0.171070  0.891700  1.0  0.1683
  C  C190  1  0.267200  0.171960  0.946400  1.0  -0.1405
  C  C191  1  0.255900  0.128820  0.985570  1.0  -0.0982
  C  C192  1  0.302500  0.086870  0.967930  1.0  -0.1243
  C  C193  1  0.359000  0.089250  0.912400  1.0  0.1563
  C  C194  1  0.026900  0.301650  0.113440  1.0  0.1565
  C  C195  1  0.059700  0.256940  0.089860  1.0  -0.146
  C  C196  1  0.061800  0.216600  0.135690  1.0  -0.1206
  C  C197  1  0.028500  0.222820  0.201870  1.0  -0.1123
  C  C198  1  0.997600  0.269290  0.221320  1.0  0.1468
  C  C199  1  0.029800  0.991850  0.248800  1.0  0.1589
  C  C200  1  0.043000  0.036810  0.214000  1.0  -0.1426
  C  C201  1  0.112800  0.041290  0.171300  1.0  -0.0971
  C  C202  1  0.167700  0.000990  0.165000  1.0  -0.1406
  C  C203  1  0.150100  0.958120  0.201600  1.0  0.1505
  C  C204  1  0.194900  0.128290  0.045050  1.0  0.3688
  C  C205  1  0.103300  0.169290  0.114170  1.0  0.2672
  C  C206  1  0.129100  0.088030  0.132100  1.0  0.3227
  C  C207  1  0.827900  0.346560  0.104990  1.0  0.1636
  C  C208  1  0.771000  0.347170  0.050480  1.0  -0.0905
  C  C209  1  0.757300  0.391530  0.014310  1.0  -0.1325
  C  C210  1  0.802300  0.433640  0.034620  1.0  -0.1314
  C  C211  1  0.859200  0.429470  0.088650  1.0  0.1575
  C  C212  1  0.530700  0.217960  0.891980  1.0  0.1556
  C  C213  1  0.565100  0.263180  0.913050  1.0  -0.1348
  C  C214  1  0.567600  0.302090  0.865700  1.0  -0.1078
  C  C215  1  0.534600  0.294740  0.800200  1.0  -0.1327
  C  C216  1  0.501900  0.248680  0.783800  1.0  0.1452
  C  C217  1  0.540000  0.523070  0.739500  1.0  0.1695
  C  C218  1  0.557600  0.478550  0.772100  1.0  -0.1461
  C  C219  1  0.611700  0.478520  0.829490  1.0  -0.0881
  C  C220  1  0.646400  0.523160  0.849880  1.0  -0.1317
  C  C221  1  0.625300  0.566060  0.813910  1.0  0.1583
  C  C222  1  0.697200  0.392400  0.955690  1.0  0.4083
  C  C223  1  0.608400  0.350090  0.885310  1.0  0.3833
  C  C224  1  0.630300  0.431580  0.867840  1.0  0.4238
  C  C225  1  0.204100  0.820740  0.224300  1.0  0.2789
  C  C226  1  0.906100  0.923740  0.391500  1.0  0.2947
  C  C227  1  0.397500  0.586710  0.609000  1.0  0.2605
  C  C228  1  0.682900  0.693950  0.790300  1.0  0.272
  C  C229  1  0.676400  0.671070  0.608300  1.0  0.1678
  C  C230  1  0.732800  0.671960  0.553600  1.0  -0.1396
  C  C231  1  0.744100  0.628820  0.514430  1.0  -0.0976
  C  C232  1  0.697500  0.586870  0.532070  1.0  -0.1242
  C  C233  1  0.641000  0.589250  0.587600  1.0  0.1558
  C  C234  1  0.973100  0.801650  0.386560  1.0  0.158
  C  C235  1  0.940300  0.756940  0.410140  1.0  -0.1455
  C  C236  1  0.938200  0.716600  0.364310  1.0  -0.1214
  C  C237  1  0.971500  0.722820  0.298130  1.0  -0.114
  C  C238  1  0.002400  0.769290  0.278680  1.0  0.1488
  C  C239  1  0.970200  0.491850  0.251200  1.0  0.1596
  C  C240  1  0.957000  0.536810  0.286000  1.0  -0.1411
  C  C241  1  0.887200  0.541290  0.328700  1.0  -0.0973
  C  C242  1  0.832300  0.500990  0.335000  1.0  -0.1421
  C  C243  1  0.849900  0.458120  0.298400  1.0  0.1508
  C  C244  1  0.805100  0.628290  0.454950  1.0  0.3692
  C  C245  1  0.896700  0.669290  0.385830  1.0  0.2667
  C  C246  1  0.870900  0.588030  0.367900  1.0  0.3229
  C  C247  1  0.172100  0.846560  0.395010  1.0  0.1636
  C  C248  1  0.229000  0.847170  0.449520  1.0  -0.0902
  C  C249  1  0.242700  0.891530  0.485690  1.0  -0.1327
  C  C250  1  0.197700  0.933640  0.465380  1.0  -0.1309
  C  C251  1  0.140800  0.929470  0.411350  1.0  0.1584
  C  C252  1  0.469300  0.717960  0.608020  1.0  0.1565
  C  C253  1  0.434900  0.763180  0.586950  1.0  -0.1339
  C  C254  1  0.432400  0.802090  0.634300  1.0  -0.1072
  C  C255  1  0.465400  0.794740  0.699800  1.0  -0.1347
  C  C256  1  0.498100  0.748680  0.716200  1.0  0.1443
  C  C257  1  0.460000  0.023070  0.760500  1.0  0.1699
  C  C258  1  0.442400  0.978550  0.727900  1.0  -0.1454
  C  C259  1  0.388300  0.978520  0.670510  1.0  -0.0884
  C  C260  1  0.353600  0.023160  0.650120  1.0  -0.1311
  C  C261  1  0.374700  0.066060  0.686090  1.0  0.1574
  C  C262  1  0.302800  0.892400  0.544310  1.0  0.4086
  C  C263  1  0.391600  0.850090  0.614690  1.0  0.3831
  C  C264  1  0.369700  0.931580  0.632160  1.0  0.4245
  S  S265  1  0.322350  0.935350  0.058220  1.0  -0.2085
  S  S266  1  0.767620  0.778090  0.318640  1.0  -0.2981
  S  S267  1  0.283360  0.715890  0.710460  1.0  -0.2952
  S  S268  1  0.848110  0.563710  0.960090  1.0  -0.218
  S  S269  1  0.677650  0.435350  0.441780  1.0  -0.2083
  S  S270  1  0.232380  0.278090  0.181360  1.0  -0.2978
  S  S271  1  0.716640  0.215890  0.789540  1.0  -0.296
  S  S272  1  0.151890  0.063710  0.539910  1.0  -0.2178
  S  S273  1  0.677650  0.064650  0.941780  1.0  -0.2081
  S  S274  1  0.232380  0.221910  0.681360  1.0  -0.2967
  S  S275  1  0.716640  0.284110  0.289540  1.0  -0.297
  S  S276  1  0.151890  0.436290  0.039910  1.0  -0.2173
  S  S277  1  0.322350  0.564650  0.558220  1.0  -0.208
  S  S278  1  0.767620  0.721910  0.818640  1.0  -0.2967
  S  S279  1  0.283360  0.784110  0.210460  1.0  -0.2959
  S  S280  1  0.848110  0.936290  0.460090  1.0  -0.2184
  N  N281  1  0.144200  0.654410  0.734470  1.0  -0.4214
  N  N282  1  0.947100  0.585820  0.843460  1.0  -0.4522
  N  N283  1  0.450600  0.898230  0.144660  1.0  -0.4158
  N  N284  1  0.625300  0.826660  0.269240  1.0  -0.4152
  N  N285  1  0.630400  0.869250  0.125660  1.0  -0.3203
  N  N286  1  0.002810  0.691280  0.822360  1.0  -0.3363
  N  N287  1  0.918300  0.047040  0.756690  1.0  -0.3448
  N  N288  1  0.845250  0.828950  0.940750  1.0  -0.4663
  N  N289  1  0.815500  0.914040  0.920500  1.0  -0.3105
  N  N290  1  0.912700  0.871280  0.847350  1.0  -0.4753
  N  N291  1  0.127600  0.612960  0.875790  1.0  -0.322
  N  N292  1  0.499900  0.789700  0.171740  1.0  -0.3269
  N  N293  1  0.427320  0.433260  0.240130  1.0  -0.35
  N  N294  1  0.340400  0.651350  0.059770  1.0  -0.481
  N  N295  1  0.407500  0.610010  0.153750  1.0  -0.3427
  N  N296  1  0.316300  0.564720  0.077990  1.0  -0.4796
  N  N297  1  0.855800  0.154410  0.765530  1.0  -0.4237
  N  N298  1  0.052900  0.085820  0.656540  1.0  -0.4499
  N  N299  1  0.549400  0.398230  0.355340  1.0  -0.4117
  N  N300  1  0.374700  0.326660  0.230760  1.0  -0.4118
  N  N301  1  0.369600  0.369250  0.374340  1.0  -0.3204
  N  N302  1  0.997190  0.191280  0.677640  1.0  -0.3372
  N  N303  1  0.081700  0.547040  0.743310  1.0  -0.3448
  N  N304  1  0.154750  0.328950  0.559250  1.0  -0.4666
  N  N305  1  0.184500  0.414040  0.579500  1.0  -0.3106
  N  N306  1  0.087300  0.371280  0.652650  1.0  -0.4775
  N  N307  1  0.872400  0.112960  0.624210  1.0  -0.3202
  N  N308  1  0.500100  0.289700  0.328260  1.0  -0.3279
  N  N309  1  0.572680  0.933260  0.259870  1.0  -0.3511
  N  N310  1  0.659600  0.151350  0.440230  1.0  -0.4823
  N  N311  1  0.592500  0.110010  0.346250  1.0  -0.3414
  N  N312  1  0.683700  0.064720  0.422010  1.0  -0.4779
  N  N313  1  0.855800  0.345590  0.265530  1.0  -0.4228
  N  N314  1  0.052900  0.414180  0.156540  1.0  -0.4496
  N  N315  1  0.549400  0.101770  0.855340  1.0  -0.4108
  N  N316  1  0.374700  0.173340  0.730760  1.0  -0.4126
  N  N317  1  0.369600  0.130750  0.874340  1.0  -0.3204
  N  N318  1  0.997190  0.308720  0.177640  1.0  -0.3381
  N  N319  1  0.081700  0.952960  0.243310  1.0  -0.3446
  N  N320  1  0.154750  0.171050  0.059250  1.0  -0.4661
  N  N321  1  0.184500  0.085960  0.079500  1.0  -0.3103
  N  N322  1  0.087300  0.128720  0.152650  1.0  -0.4777
  N  N323  1  0.872400  0.387040  0.124210  1.0  -0.3202
  N  N324  1  0.500100  0.210300  0.828260  1.0  -0.3266
  N  N325  1  0.572680  0.566740  0.759870  1.0  -0.3508
  N  N326  1  0.659600  0.348650  0.940230  1.0  -0.4808
  N  N327  1  0.592500  0.389990  0.846250  1.0  -0.3415
  N  N328  1  0.683700  0.435280  0.922010  1.0  -0.4777
  N  N329  1  0.144200  0.845590  0.234470  1.0  -0.4197
  N  N330  1  0.947100  0.914180  0.343460  1.0  -0.4519
  N  N331  1  0.450600  0.601770  0.644660  1.0  -0.4155
  N  N332  1  0.625300  0.673340  0.769240  1.0  -0.4152
  N  N333  1  0.630400  0.630750  0.625660  1.0  -0.3202
  N  N334  1  0.002810  0.808720  0.322360  1.0  -0.3361
  N  N335  1  0.918300  0.452960  0.256690  1.0  -0.3446
  N  N336  1  0.845250  0.671050  0.440750  1.0  -0.4665
  N  N337  1  0.815500  0.585960  0.420500  1.0  -0.3093
  N  N338  1  0.912700  0.628720  0.347350  1.0  -0.4755
  N  N339  1  0.127600  0.887040  0.375790  1.0  -0.3217
  N  N340  1  0.499900  0.710300  0.671740  1.0  -0.3254
  N  N341  1  0.427320  0.066740  0.740130  1.0  -0.3504
  N  N342  1  0.340400  0.848650  0.559770  1.0  -0.4809
  N  N343  1  0.407500  0.889990  0.653750  1.0  -0.3427
  N  N344  1  0.316300  0.935280  0.577990  1.0  -0.4788
