# generated using pymatgen
data_FeH12C20(SN4)2
_symmetry_space_group_name_H-M   'P 1'
_cell_length_a   15.77200000
_cell_length_b   26.98400000
_cell_length_c   19.25400000
_cell_angle_alpha   90.00000000
_cell_angle_beta   90.01900000
_cell_angle_gamma   90.00000000
_symmetry_Int_Tables_number   1
_chemical_formula_structural   FeH12C20(SN4)2
_chemical_formula_sum   'Fe8 H96 C160 S16 N64'
_cell_volume   8194.34114004
_cell_formula_units_Z   8
loop_
 _symmetry_equiv_pos_site_id
 _symmetry_equiv_pos_as_xyz
  1  'x, y, z'
loop_
 _atom_site_type_symbol
 _atom_site_label
 _atom_site_symmetry_multiplicity
 _atom_site_fract_x
 _atom_site_fract_y
 _atom_site_fract_z
 _atom_site_occupancy
 _atom_site_charge
  Fe  Fe1  1  0.041340  0.618000  0.787460  1.0  0.9426
  Fe  Fe2  1  0.534480  0.866680  0.206340  1.0  0.9593
  Fe  Fe3  1  0.958660  0.118000  0.712540  1.0  0.9442
  Fe  Fe4  1  0.465520  0.366680  0.293660  1.0  0.9599
  Fe  Fe5  1  0.958660  0.382000  0.212540  1.0  0.9441
  Fe  Fe6  1  0.465520  0.133320  0.793660  1.0  0.9598
  Fe  Fe7  1  0.041340  0.882000  0.287460  1.0  0.9426
  Fe  Fe8  1  0.534480  0.633320  0.706340  1.0  0.9595
  H  H9  1  0.666000  0.801900  0.133300  1.0  0.0852
  H  H10  1  0.760700  0.800300  0.041600  1.0  0.1201
  H  H11  1  0.706500  0.944700  0.005700  1.0  0.1201
  H  H12  1  0.611200  0.942000  0.097100  1.0  0.0908
  H  H13  1  0.968200  0.671500  0.918600  1.0  0.086
  H  H14  1  0.915900  0.747100  0.956700  1.0  0.1242
  H  H15  1  0.971100  0.803800  0.766900  1.0  0.1221
  H  H16  1  0.022800  0.726700  0.734800  1.0  0.0932
  H  H17  1  0.021000  0.009000  0.722200  1.0  0.0915
  H  H18  1  0.996000  0.934800  0.779200  1.0  0.1238
  H  H19  1  0.786200  0.996800  0.863700  1.0  0.1187
  H  H20  1  0.814700  0.068000  0.800900  1.0  0.0895
  H  H21  1  0.158300  0.683800  0.873600  1.0  0.0876
  H  H22  1  0.255500  0.683000  0.963500  1.0  0.126
  H  H23  1  0.206000  0.536900  0.990500  1.0  0.1231
  H  H24  1  0.108900  0.542400  0.900800  1.0  0.082
  H  H25  1  0.468800  0.809300  0.074300  1.0  0.0827
  H  H26  1  0.413200  0.733600  0.040800  1.0  0.1217
  H  H27  1  0.464300  0.681500  0.233600  1.0  0.1234
  H  H28  1  0.516900  0.759000  0.261600  1.0  0.0904
  H  H29  1  0.495000  0.481200  0.301800  1.0  0.095
  H  H30  1  0.462100  0.555100  0.247200  1.0  0.1275
  H  H31  1  0.321100  0.477400  0.109700  1.0  0.1199
  H  H32  1  0.357600  0.406000  0.168100  1.0  0.098
  H  H33  1  0.334000  0.301900  0.366700  1.0  0.0856
  H  H34  1  0.239300  0.300300  0.458400  1.0  0.1198
  H  H35  1  0.293500  0.444700  0.494300  1.0  0.1202
  H  H36  1  0.388800  0.442000  0.402900  1.0  0.091
  H  H37  1  0.031800  0.171500  0.581400  1.0  0.0854
  H  H38  1  0.084100  0.247100  0.543300  1.0  0.124
  H  H39  1  0.028900  0.303800  0.733100  1.0  0.1226
  H  H40  1  0.977200  0.226700  0.765200  1.0  0.0944
  H  H41  1  0.979000  0.509000  0.777800  1.0  0.0914
  H  H42  1  0.004000  0.434800  0.720800  1.0  0.1239
  H  H43  1  0.213800  0.496800  0.636300  1.0  0.1184
  H  H44  1  0.185300  0.568000  0.699100  1.0  0.0889
  H  H45  1  0.841700  0.183800  0.626400  1.0  0.0873
  H  H46  1  0.744500  0.183000  0.536500  1.0  0.1266
  H  H47  1  0.794000  0.036900  0.509500  1.0  0.1234
  H  H48  1  0.891100  0.042400  0.599200  1.0  0.0812
  H  H49  1  0.531200  0.309300  0.425700  1.0  0.0835
  H  H50  1  0.586800  0.233600  0.459200  1.0  0.1218
  H  H51  1  0.535700  0.181500  0.266400  1.0  0.1227
  H  H52  1  0.483100  0.259000  0.238400  1.0  0.0894
  H  H53  1  0.505000  0.981200  0.198200  1.0  0.0942
  H  H54  1  0.537900  0.055100  0.252800  1.0  0.1277
  H  H55  1  0.678900  0.977400  0.390300  1.0  0.1198
  H  H56  1  0.642400  0.906000  0.331900  1.0  0.0981
  H  H57  1  0.334000  0.198100  0.866700  1.0  0.0858
  H  H58  1  0.239300  0.199700  0.958400  1.0  0.1198
  H  H59  1  0.293500  0.055300  0.994300  1.0  0.1201
  H  H60  1  0.388800  0.058000  0.902900  1.0  0.0911
  H  H61  1  0.031800  0.328500  0.081400  1.0  0.0856
  H  H62  1  0.084100  0.252900  0.043300  1.0  0.1239
  H  H63  1  0.028900  0.196200  0.233100  1.0  0.1225
  H  H64  1  0.977200  0.273300  0.265200  1.0  0.0949
  H  H65  1  0.979000  0.991000  0.277800  1.0  0.0916
  H  H66  1  0.004000  0.065200  0.220800  1.0  0.1239
  H  H67  1  0.213800  0.003200  0.136300  1.0  0.1184
  H  H68  1  0.185300  0.932000  0.199100  1.0  0.0888
  H  H69  1  0.841700  0.316200  0.126400  1.0  0.0873
  H  H70  1  0.744500  0.317000  0.036500  1.0  0.1262
  H  H71  1  0.794000  0.463100  0.009500  1.0  0.1233
  H  H72  1  0.891100  0.457600  0.099200  1.0  0.0811
  H  H73  1  0.531200  0.190700  0.925700  1.0  0.0841
  H  H74  1  0.586800  0.266400  0.959200  1.0  0.122
  H  H75  1  0.535700  0.318500  0.766400  1.0  0.1229
  H  H76  1  0.483100  0.241000  0.738400  1.0  0.0895
  H  H77  1  0.505000  0.518800  0.698200  1.0  0.0943
  H  H78  1  0.537900  0.444900  0.752800  1.0  0.1275
  H  H79  1  0.678900  0.522600  0.890300  1.0  0.1197
  H  H80  1  0.642400  0.594000  0.831900  1.0  0.0988
  H  H81  1  0.666000  0.698100  0.633300  1.0  0.0853
  H  H82  1  0.760700  0.699700  0.541600  1.0  0.1197
  H  H83  1  0.706500  0.555300  0.505700  1.0  0.1199
  H  H84  1  0.611200  0.558000  0.597100  1.0  0.0906
  H  H85  1  0.968200  0.828500  0.418600  1.0  0.0858
  H  H86  1  0.915900  0.752900  0.456700  1.0  0.124
  H  H87  1  0.971100  0.696200  0.266900  1.0  0.1215
  H  H88  1  0.022800  0.773300  0.234800  1.0  0.0933
  H  H89  1  0.021000  0.491000  0.222200  1.0  0.0919
  H  H90  1  0.996000  0.565200  0.279200  1.0  0.1239
  H  H91  1  0.786200  0.503200  0.363700  1.0  0.1188
  H  H92  1  0.814700  0.432000  0.300900  1.0  0.0889
  H  H93  1  0.158300  0.816200  0.373600  1.0  0.0875
  H  H94  1  0.255500  0.817000  0.463500  1.0  0.126
  H  H95  1  0.206000  0.963100  0.490500  1.0  0.1232
  H  H96  1  0.108900  0.957600  0.400800  1.0  0.082
  H  H97  1  0.468800  0.690700  0.574300  1.0  0.0828
  H  H98  1  0.413200  0.766400  0.540800  1.0  0.1219
  H  H99  1  0.464300  0.818500  0.733600  1.0  0.1233
  H  H100  1  0.516900  0.741000  0.761600  1.0  0.0898
  H  H101  1  0.495000  0.018800  0.801800  1.0  0.0943
  H  H102  1  0.462100  0.944900  0.747200  1.0  0.1274
  H  H103  1  0.321100  0.022600  0.609700  1.0  0.1198
  H  H104  1  0.357600  0.094000  0.668100  1.0  0.0983
  C  C105  1  0.200200  0.679700  0.726950  1.0  0.3041
  C  C106  1  0.902500  0.574990  0.893270  1.0  0.2935
  C  C107  1  0.394300  0.916700  0.104400  1.0  0.2503
  C  C108  1  0.681700  0.808420  0.288700  1.0  0.2493
  C  C109  1  0.674100  0.831130  0.106610  1.0  0.1673
  C  C110  1  0.730900  0.829970  0.052260  1.0  -0.1241
  C  C111  1  0.744150  0.872420  0.013430  1.0  -0.107
  C  C112  1  0.698700  0.914870  0.031050  1.0  -0.133
  C  C113  1  0.642400  0.913010  0.085690  1.0  0.1585
  C  C114  1  0.968300  0.698820  0.887390  1.0  0.1564
  C  C115  1  0.936600  0.743660  0.910630  1.0  -0.1551
  C  C116  1  0.935830  0.783360  0.865070  1.0  -0.1165
  C  C117  1  0.969400  0.776950  0.798740  1.0  -0.1229
  C  C118  1  0.000100  0.730920  0.780110  1.0  0.1567
  C  C119  1  0.972200  0.006250  0.750850  1.0  0.1627
  C  C120  1  0.958300  0.961900  0.785040  1.0  -0.1393
  C  C121  1  0.888100  0.957960  0.828080  1.0  -0.1049
  C  C122  1  0.834500  0.998320  0.834290  1.0  -0.143
  C  C123  1  0.852500  0.040690  0.797120  1.0  0.1584
  C  C124  1  0.805000  0.872260  0.954670  1.0  0.3733
  C  C125  1  0.895600  0.830720  0.885810  1.0  0.2734
  C  C126  1  0.871200  0.911800  0.867410  1.0  0.3332
  C  C127  1  0.168400  0.653630  0.897780  1.0  0.161
  C  C128  1  0.226300  0.653470  0.951180  1.0  -0.1023
  C  C129  1  0.241700  0.609600  0.986950  1.0  -0.1159
  C  C130  1  0.197200  0.567550  0.967360  1.0  -0.1378
  C  C131  1  0.139900  0.571200  0.913610  1.0  0.1615
  C  C132  1  0.467200  0.783020  0.107150  1.0  0.1539
  C  C133  1  0.433800  0.738010  0.086760  1.0  -0.1415
  C  C134  1  0.430500  0.699500  0.134130  1.0  -0.1097
  C  C135  1  0.463600  0.707400  0.200230  1.0  -0.1252
  C  C136  1  0.495300  0.753560  0.216150  1.0  0.1517
  C  C137  1  0.459400  0.480400  0.262010  1.0  0.1735
  C  C138  1  0.440300  0.524730  0.229680  1.0  -0.1417
  C  C139  1  0.388800  0.524320  0.171110  1.0  -0.097
  C  C140  1  0.357500  0.479150  0.148980  1.0  -0.1391
  C  C141  1  0.379500  0.436710  0.184200  1.0  0.1466
  C  C142  1  0.302200  0.609460  0.045440  1.0  0.4211
  C  C143  1  0.390400  0.651890  0.115470  1.0  0.3971
  C  C144  1  0.369100  0.570440  0.133140  1.0  0.4386
  C  C145  1  0.799800  0.179700  0.773050  1.0  0.3037
  C  C146  1  0.097500  0.074990  0.606730  1.0  0.292
  C  C147  1  0.605700  0.416700  0.395600  1.0  0.2482
  C  C148  1  0.318300  0.308420  0.211300  1.0  0.2544
  C  C149  1  0.325900  0.331130  0.393390  1.0  0.1664
  C  C150  1  0.269100  0.329970  0.447740  1.0  -0.1236
  C  C151  1  0.255850  0.372420  0.486570  1.0  -0.1074
  C  C152  1  0.301300  0.414870  0.468950  1.0  -0.1327
  C  C153  1  0.357600  0.413010  0.414310  1.0  0.1594
  C  C154  1  0.031700  0.198820  0.612610  1.0  0.1569
  C  C155  1  0.063400  0.243660  0.589370  1.0  -0.1538
  C  C156  1  0.064170  0.283360  0.634930  1.0  -0.1156
  C  C157  1  0.030600  0.276950  0.701260  1.0  -0.1238
  C  C158  1  0.999900  0.230920  0.719890  1.0  0.1555
  C  C159  1  0.027800  0.506250  0.749150  1.0  0.1631
  C  C160  1  0.041700  0.461900  0.714960  1.0  -0.1387
  C  C161  1  0.111900  0.457960  0.671920  1.0  -0.1049
  C  C162  1  0.165500  0.498320  0.665710  1.0  -0.1412
  C  C163  1  0.147500  0.540690  0.702880  1.0  0.1576
  C  C164  1  0.195000  0.372260  0.545330  1.0  0.3733
  C  C165  1  0.104400  0.330720  0.614190  1.0  0.2739
  C  C166  1  0.128800  0.411800  0.632590  1.0  0.3332
  C  C167  1  0.831600  0.153630  0.602220  1.0  0.1615
  C  C168  1  0.773700  0.153470  0.548820  1.0  -0.1033
  C  C169  1  0.758300  0.109600  0.513050  1.0  -0.1166
  C  C170  1  0.802800  0.067550  0.532640  1.0  -0.138
  C  C171  1  0.860100  0.071200  0.586390  1.0  0.16
  C  C172  1  0.532800  0.283020  0.392850  1.0  0.1533
  C  C173  1  0.566200  0.238010  0.413240  1.0  -0.143
  C  C174  1  0.569500  0.199500  0.365870  1.0  -0.1097
  C  C175  1  0.536400  0.207400  0.299770  1.0  -0.1247
  C  C176  1  0.504700  0.253560  0.283850  1.0  0.1554
  C  C177  1  0.540600  0.980400  0.237990  1.0  0.1734
  C  C178  1  0.559700  0.024730  0.270320  1.0  -0.143
  C  C179  1  0.611200  0.024320  0.328890  1.0  -0.097
  C  C180  1  0.642500  0.979150  0.351020  1.0  -0.1401
  C  C181  1  0.620500  0.936710  0.315800  1.0  0.1463
  C  C182  1  0.697800  0.109460  0.454560  1.0  0.4213
  C  C183  1  0.609600  0.151890  0.384530  1.0  0.3976
  C  C184  1  0.630900  0.070440  0.366860  1.0  0.4382
  C  C185  1  0.799800  0.320300  0.273050  1.0  0.3028
  C  C186  1  0.097500  0.425010  0.106730  1.0  0.2921
  C  C187  1  0.605700  0.083300  0.895600  1.0  0.2488
  C  C188  1  0.318300  0.191580  0.711300  1.0  0.2529
  C  C189  1  0.325900  0.168870  0.893390  1.0  0.1657
  C  C190  1  0.269100  0.170030  0.947740  1.0  -0.1241
  C  C191  1  0.255850  0.127580  0.986570  1.0  -0.1075
  C  C192  1  0.301300  0.085130  0.968950  1.0  -0.1332
  C  C193  1  0.357600  0.086990  0.914310  1.0  0.16
  C  C194  1  0.031700  0.301180  0.112610  1.0  0.1571
  C  C195  1  0.063400  0.256340  0.089370  1.0  -0.1535
  C  C196  1  0.064170  0.216640  0.134930  1.0  -0.1161
  C  C197  1  0.030600  0.223050  0.201260  1.0  -0.1229
  C  C198  1  0.999900  0.269080  0.219890  1.0  0.1547
  C  C199  1  0.027800  0.993750  0.249150  1.0  0.1627
  C  C200  1  0.041700  0.038100  0.214960  1.0  -0.1393
  C  C201  1  0.111900  0.042040  0.171920  1.0  -0.1045
  C  C202  1  0.165500  0.001680  0.165710  1.0  -0.1413
  C  C203  1  0.147500  0.959310  0.202880  1.0  0.1579
  C  C204  1  0.195000  0.127740  0.045330  1.0  0.3732
  C  C205  1  0.104400  0.169280  0.114190  1.0  0.2741
  C  C206  1  0.128800  0.088200  0.132590  1.0  0.3333
  C  C207  1  0.831600  0.346370  0.102220  1.0  0.1622
  C  C208  1  0.773700  0.346530  0.048820  1.0  -0.1028
  C  C209  1  0.758300  0.390400  0.013050  1.0  -0.1165
  C  C210  1  0.802800  0.432450  0.032640  1.0  -0.1372
  C  C211  1  0.860100  0.428800  0.086390  1.0  0.1605
  C  C212  1  0.532800  0.216980  0.892850  1.0  0.1536
  C  C213  1  0.566200  0.261990  0.913240  1.0  -0.1427
  C  C214  1  0.569500  0.300500  0.865870  1.0  -0.109
  C  C215  1  0.536400  0.292600  0.799770  1.0  -0.1228
  C  C216  1  0.504700  0.246440  0.783850  1.0  0.1559
  C  C217  1  0.540600  0.519600  0.737990  1.0  0.1734
  C  C218  1  0.559700  0.475270  0.770320  1.0  -0.1422
  C  C219  1  0.611200  0.475680  0.828890  1.0  -0.0968
  C  C220  1  0.642500  0.520850  0.851020  1.0  -0.141
  C  C221  1  0.620500  0.563290  0.815800  1.0  0.1453
  C  C222  1  0.697800  0.390540  0.954560  1.0  0.4214
  C  C223  1  0.609600  0.348110  0.884530  1.0  0.3973
  C  C224  1  0.630900  0.429560  0.866860  1.0  0.4386
  C  C225  1  0.200200  0.820300  0.226950  1.0  0.3031
  C  C226  1  0.902500  0.925010  0.393270  1.0  0.293
  C  C227  1  0.394300  0.583300  0.604400  1.0  0.2504
  C  C228  1  0.681700  0.691580  0.788700  1.0  0.2517
  C  C229  1  0.674100  0.668870  0.606610  1.0  0.166
  C  C230  1  0.730900  0.670030  0.552260  1.0  -0.1238
  C  C231  1  0.744150  0.627580  0.513430  1.0  -0.1069
  C  C232  1  0.698700  0.585130  0.531050  1.0  -0.1338
  C  C233  1  0.642400  0.586990  0.585690  1.0  0.1593
  C  C234  1  0.968300  0.801180  0.387390  1.0  0.157
  C  C235  1  0.936600  0.756340  0.410630  1.0  -0.155
  C  C236  1  0.935830  0.716640  0.365070  1.0  -0.1169
  C  C237  1  0.969400  0.723050  0.298740  1.0  -0.1239
  C  C238  1  0.000100  0.769080  0.280110  1.0  0.1564
  C  C239  1  0.972200  0.493750  0.250850  1.0  0.1624
  C  C240  1  0.958300  0.538100  0.285040  1.0  -0.1393
  C  C241  1  0.888100  0.542040  0.328080  1.0  -0.1049
  C  C242  1  0.834500  0.501680  0.334290  1.0  -0.1431
  C  C243  1  0.852500  0.459310  0.297120  1.0  0.1594
  C  C244  1  0.805000  0.627740  0.454670  1.0  0.3732
  C  C245  1  0.895600  0.669280  0.385810  1.0  0.2734
  C  C246  1  0.871200  0.588200  0.367410  1.0  0.3335
  C  C247  1  0.168400  0.846370  0.397780  1.0  0.1615
  C  C248  1  0.226300  0.846530  0.451180  1.0  -0.1029
  C  C249  1  0.241700  0.890400  0.486950  1.0  -0.116
  C  C250  1  0.197200  0.932450  0.467360  1.0  -0.1367
  C  C251  1  0.139900  0.928800  0.413610  1.0  0.1616
  C  C252  1  0.467200  0.716980  0.607150  1.0  0.1539
  C  C253  1  0.433800  0.761990  0.586760  1.0  -0.1412
  C  C254  1  0.430500  0.800500  0.634130  1.0  -0.1086
  C  C255  1  0.463600  0.792600  0.700230  1.0  -0.1245
  C  C256  1  0.495300  0.746440  0.716150  1.0  0.1529
  C  C257  1  0.459400  0.019600  0.762010  1.0  0.1737
  C  C258  1  0.440300  0.975270  0.729680  1.0  -0.1412
  C  C259  1  0.388800  0.975680  0.671110  1.0  -0.0974
  C  C260  1  0.357500  0.020850  0.648980  1.0  -0.1393
  C  C261  1  0.379500  0.063290  0.684200  1.0  0.1465
  C  C262  1  0.302200  0.890540  0.545440  1.0  0.4212
  C  C263  1  0.390400  0.848110  0.615470  1.0  0.3969
  C  C264  1  0.369100  0.929560  0.633140  1.0  0.4391
  S  S265  1  0.319310  0.937740  0.054480  1.0  -0.237
  S  S266  1  0.764840  0.779220  0.316680  1.0  -0.3035
  S  S267  1  0.281490  0.716020  0.714090  1.0  -0.2951
  S  S268  1  0.845290  0.562650  0.961820  1.0  -0.2219
  S  S269  1  0.680690  0.437740  0.445520  1.0  -0.2373
  S  S270  1  0.235160  0.279220  0.183320  1.0  -0.3039
  S  S271  1  0.718510  0.216020  0.785910  1.0  -0.2948
  S  S272  1  0.154710  0.062650  0.538180  1.0  -0.2217
  S  S273  1  0.680690  0.062260  0.945520  1.0  -0.2374
  S  S274  1  0.235160  0.220780  0.683320  1.0  -0.303
  S  S275  1  0.718510  0.283980  0.285910  1.0  -0.2956
  S  S276  1  0.154710  0.437350  0.038180  1.0  -0.2217
  S  S277  1  0.319310  0.562260  0.554480  1.0  -0.2364
  S  S278  1  0.764840  0.720780  0.816680  1.0  -0.3024
  S  S279  1  0.281490  0.783980  0.214090  1.0  -0.2955
  S  S280  1  0.845290  0.937350  0.461820  1.0  -0.2227
  N  N281  1  0.142340  0.654270  0.735830  1.0  -0.4298
  N  N282  1  0.943740  0.584470  0.845330  1.0  -0.4512
  N  N283  1  0.447850  0.901830  0.140480  1.0  -0.4297
  N  N284  1  0.622880  0.829380  0.268500  1.0  -0.4439
  N  N285  1  0.629830  0.871810  0.123380  1.0  -0.3282
  N  N286  1  0.999230  0.691800  0.823420  1.0  -0.3326
  N  N287  1  0.920600  0.045400  0.755910  1.0  -0.3447
  N  N288  1  0.843980  0.829490  0.940410  1.0  -0.4682
  N  N289  1  0.815760  0.914490  0.919610  1.0  -0.4167
  N  N290  1  0.912590  0.870870  0.847710  1.0  -0.4304
  N  N291  1  0.125620  0.613030  0.878470  1.0  -0.3256
  N  N292  1  0.497310  0.791270  0.170780  1.0  -0.3343
  N  N293  1  0.430390  0.436540  0.240340  1.0  -0.3409
  N  N294  1  0.339300  0.652570  0.060520  1.0  -0.4609
  N  N295  1  0.406830  0.612240  0.154420  1.0  -0.3613
  N  N296  1  0.316410  0.566970  0.078890  1.0  -0.4788
  N  N297  1  0.857660  0.154270  0.764170  1.0  -0.4319
  N  N298  1  0.056260  0.084470  0.654670  1.0  -0.4511
  N  N299  1  0.552150  0.401830  0.359520  1.0  -0.427
  N  N300  1  0.377120  0.329380  0.231500  1.0  -0.4404
  N  N301  1  0.370170  0.371810  0.376620  1.0  -0.3298
  N  N302  1  0.000770  0.191800  0.676580  1.0  -0.3338
  N  N303  1  0.079400  0.545400  0.744090  1.0  -0.3466
  N  N304  1  0.156020  0.329490  0.559590  1.0  -0.4682
  N  N305  1  0.184240  0.414490  0.580390  1.0  -0.4152
  N  N306  1  0.087410  0.370870  0.652290  1.0  -0.4308
  N  N307  1  0.874380  0.113030  0.621530  1.0  -0.3262
  N  N308  1  0.502690  0.291270  0.329220  1.0  -0.3358
  N  N309  1  0.569610  0.936540  0.259660  1.0  -0.3414
  N  N310  1  0.660700  0.152570  0.439480  1.0  -0.4619
  N  N311  1  0.593170  0.112240  0.345580  1.0  -0.3597
  N  N312  1  0.683590  0.066970  0.421110  1.0  -0.477
  N  N313  1  0.857660  0.345730  0.264170  1.0  -0.4324
  N  N314  1  0.056260  0.415530  0.154670  1.0  -0.4506
  N  N315  1  0.552150  0.098170  0.859520  1.0  -0.4264
  N  N316  1  0.377120  0.170620  0.731500  1.0  -0.4417
  N  N317  1  0.370170  0.128190  0.876620  1.0  -0.3299
  N  N318  1  0.000770  0.308200  0.176580  1.0  -0.3358
  N  N319  1  0.079400  0.954600  0.244090  1.0  -0.3457
  N  N320  1  0.156020  0.170510  0.059590  1.0  -0.4681
  N  N321  1  0.184240  0.085510  0.080390  1.0  -0.4138
  N  N322  1  0.087410  0.129130  0.152290  1.0  -0.4309
  N  N323  1  0.874380  0.386970  0.121530  1.0  -0.3262
  N  N324  1  0.502690  0.208730  0.829220  1.0  -0.334
  N  N325  1  0.569610  0.563460  0.759660  1.0  -0.3415
  N  N326  1  0.660700  0.347430  0.939480  1.0  -0.4605
  N  N327  1  0.593170  0.387760  0.845580  1.0  -0.3597
  N  N328  1  0.683590  0.433030  0.921110  1.0  -0.4769
  N  N329  1  0.142340  0.845730  0.235830  1.0  -0.4293
  N  N330  1  0.943740  0.915530  0.345330  1.0  -0.4508
  N  N331  1  0.447850  0.598170  0.640480  1.0  -0.4294
  N  N332  1  0.622880  0.670620  0.768500  1.0  -0.4442
  N  N333  1  0.629830  0.628190  0.623380  1.0  -0.328
  N  N334  1  0.999230  0.808200  0.323420  1.0  -0.3336
  N  N335  1  0.920600  0.454600  0.255910  1.0  -0.3441
  N  N336  1  0.843980  0.670510  0.440410  1.0  -0.469
  N  N337  1  0.815760  0.585510  0.419610  1.0  -0.4147
  N  N338  1  0.912590  0.629130  0.347710  1.0  -0.4304
  N  N339  1  0.125620  0.886970  0.378470  1.0  -0.3253
  N  N340  1  0.497310  0.708730  0.670780  1.0  -0.3326
  N  N341  1  0.430390  0.063460  0.740340  1.0  -0.3427
  N  N342  1  0.339300  0.847430  0.560520  1.0  -0.4611
  N  N343  1  0.406830  0.887760  0.654420  1.0  -0.3613
  N  N344  1  0.316410  0.933030  0.578890  1.0  -0.4781
