# generated using pymatgen
data_Co3H12C20(N8Cl3)2
_symmetry_space_group_name_H-M   'P 1'
_cell_length_a   7.04720000
_cell_length_b   13.49190000
_cell_length_c   13.49190000
_cell_angle_alpha   97.13640000
_cell_angle_beta   98.65850000
_cell_angle_gamma   98.65850000
_symmetry_Int_Tables_number   1
_chemical_formula_structural   Co3H12C20(N8Cl3)2
_chemical_formula_sum   'Co3 H12 C20 N16 Cl6'
_cell_volume   1239.49583236
_cell_formula_units_Z   1
loop_
 _symmetry_equiv_pos_site_id
 _symmetry_equiv_pos_as_xyz
  1  'x, y, z'
loop_
 _atom_site_type_symbol
 _atom_site_label
 _atom_site_symmetry_multiplicity
 _atom_site_fract_x
 _atom_site_fract_y
 _atom_site_fract_z
 _atom_site_occupancy
 _atom_site_charge
  Co  Co1  1  0.000000  0.000000  0.000000  1.0  0.479
  Co  Co2  1  0.500000  0.000000  0.500000  1.0  0.3727
  Co  Co3  1  0.500000  0.500000  0.000000  1.0  0.3727
  H  H4  1  0.061400  0.002800  0.774600  1.0  0.0803
  H  H5  1  0.581900  0.006100  0.884300  1.0  0.0791
  H  H6  1  0.414500  0.007200  0.725400  1.0  0.0888
  H  H7  1  0.938600  0.225400  0.997200  1.0  0.0801
  H  H8  1  0.418100  0.115700  0.993900  1.0  0.0767
  H  H9  1  0.585500  0.274600  0.992800  1.0  0.0888
  H  H10  1  0.938600  0.997200  0.225400  1.0  0.0809
  H  H11  1  0.418100  0.993900  0.115700  1.0  0.0794
  H  H12  1  0.585500  0.992800  0.274600  1.0  0.0891
  H  H13  1  0.061400  0.774600  0.002800  1.0  0.0799
  H  H14  1  0.581900  0.884300  0.006100  1.0  0.0778
  H  H15  1  0.414500  0.725400  0.007200  1.0  0.0889
  C  C16  1  0.827700  0.002560  0.669660  1.0  0.0748
  C  C17  1  0.928100  0.003210  0.765870  1.0  0.1496
  C  C18  1  0.648900  0.005420  0.829960  1.0  0.1327
  C  C19  1  0.547300  0.005610  0.733650  1.0  0.1261
  C  C20  1  0.921300  0.000780  0.579880  1.0  0.292
  C  C21  1  0.172300  0.330340  0.997440  1.0  0.0732
  C  C22  1  0.071900  0.234130  0.996790  1.0  0.1485
  C  C23  1  0.351100  0.170040  0.994580  1.0  0.1312
  C  C24  1  0.452700  0.266350  0.994390  1.0  0.1245
  C  C25  1  0.078700  0.420120  0.999220  1.0  0.2921
  C  C26  1  0.172300  0.997440  0.330340  1.0  0.0745
  C  C27  1  0.071900  0.996790  0.234130  1.0  0.1494
  C  C28  1  0.351100  0.994580  0.170040  1.0  0.1319
  C  C29  1  0.452700  0.994390  0.266350  1.0  0.1238
  C  C30  1  0.078700  0.999220  0.420120  1.0  0.2919
  C  C31  1  0.827700  0.669660  0.002560  1.0  0.0737
  C  C32  1  0.928100  0.765870  0.003210  1.0  0.1475
  C  C33  1  0.648900  0.829960  0.005420  1.0  0.1311
  C  C34  1  0.547300  0.733650  0.005610  1.0  0.1277
  C  C35  1  0.921300  0.579880  0.000780  1.0  0.2916
  N  N36  1  0.633800  0.003570  0.652870  1.0  -0.1199
  N  N37  1  0.839900  0.004360  0.846960  1.0  -0.2964
  N  N38  1  0.806700  0.999850  0.490810  1.0  -0.0219
  N  N39  1  0.114000  0.000200  0.591820  1.0  -0.194
  N  N40  1  0.366200  0.347130  0.996430  1.0  -0.1198
  N  N41  1  0.160100  0.153040  0.995640  1.0  -0.2993
  N  N42  1  0.193300  0.509190  0.000150  1.0  -0.0245
  N  N43  1  0.886000  0.408180  0.999800  1.0  -0.1941
  N  N44  1  0.366200  0.996430  0.347130  1.0  -0.1199
  N  N45  1  0.160100  0.995640  0.153040  1.0  -0.2955
  N  N46  1  0.193300  0.000150  0.509190  1.0  -0.0223
  N  N47  1  0.886000  0.999800  0.408180  1.0  -0.1939
  N  N48  1  0.633800  0.652870  0.003570  1.0  -0.1196
  N  N49  1  0.839900  0.846960  0.004360  1.0  -0.2989
  N  N50  1  0.806700  0.490810  0.999850  1.0  -0.0234
  N  N51  1  0.114000  0.591820  0.000200  1.0  -0.1939
  Cl  Cl52  1  0.604300  0.176520  0.524680  1.0  -0.4513
  Cl  Cl53  1  0.395700  0.475320  0.823480  1.0  -0.4539
  Cl  Cl54  1  0.395700  0.823480  0.475320  1.0  -0.4499
  Cl  Cl55  1  0.604300  0.524680  0.176520  1.0  -0.449
  Cl  Cl56  1  0.764220  0.076880  0.076880  1.0  -0.4806
  Cl  Cl57  1  0.235780  0.923120  0.923120  1.0  -0.4804
