# generated using pymatgen
data_AgH15(C7S)3
_symmetry_space_group_name_H-M   'P 1'
_cell_length_a   19.08600000
_cell_length_b   19.06000000
_cell_length_c   25.90420000
_cell_angle_alpha   90.00000000
_cell_angle_beta   90.00000000
_cell_angle_gamma   90.00000000
_symmetry_Int_Tables_number   1
_chemical_formula_structural   AgH15(C7S)3
_chemical_formula_sum   'Ag16 H240 C336 S48'
_cell_volume   9423.40811647
_cell_formula_units_Z   16
loop_
 _symmetry_equiv_pos_site_id
 _symmetry_equiv_pos_as_xyz
  1  'x, y, z'
loop_
 _atom_site_type_symbol
 _atom_site_label
 _atom_site_symmetry_multiplicity
 _atom_site_fract_x
 _atom_site_fract_y
 _atom_site_fract_z
 _atom_site_occupancy
 _atom_site_charge
  Ag  Ag1  1  0.602620  0.384740  0.383790  1.0  0.1819
  Ag  Ag2  1  0.634770  0.147410  0.366250  1.0  0.172
  Ag  Ag3  1  0.102620  0.884740  0.883790  1.0  0.1819
  Ag  Ag4  1  0.134770  0.647410  0.866250  1.0  0.172
  Ag  Ag5  1  0.897380  0.615260  0.883790  1.0  0.1831
  Ag  Ag6  1  0.865230  0.852590  0.866250  1.0  0.1712
  Ag  Ag7  1  0.397380  0.115260  0.383790  1.0  0.1831
  Ag  Ag8  1  0.365230  0.352590  0.366250  1.0  0.1712
  Ag  Ag9  1  0.397380  0.884740  0.116210  1.0  0.1815
  Ag  Ag10  1  0.365230  0.647410  0.133750  1.0  0.1725
  Ag  Ag11  1  0.897380  0.384740  0.616210  1.0  0.1815
  Ag  Ag12  1  0.865230  0.147410  0.633750  1.0  0.1725
  Ag  Ag13  1  0.102620  0.115260  0.616210  1.0  0.183
  Ag  Ag14  1  0.134770  0.352590  0.633750  1.0  0.1715
  Ag  Ag15  1  0.602620  0.615260  0.116210  1.0  0.183
  Ag  Ag16  1  0.634770  0.852590  0.133750  1.0  0.1715
  H  H17  1  0.691300  0.557400  0.472700  1.0  0.0956
  H  H18  1  0.621600  0.619800  0.529500  1.0  0.0988
  H  H19  1  0.557700  0.565900  0.591300  1.0  0.1015
  H  H20  1  0.546100  0.441400  0.592500  1.0  0.1142
  H  H21  1  0.610900  0.376400  0.531000  1.0  0.1009
  H  H22  1  0.826200  0.306900  0.402100  1.0  0.0957
  H  H23  1  0.909000  0.346600  0.338000  1.0  0.1107
  H  H24  1  0.876500  0.349800  0.251900  1.0  0.09
  H  H25  1  0.768000  0.319900  0.225300  1.0  0.0828
  H  H26  1  0.683500  0.283500  0.284900  1.0  0.1228
  H  H27  1  0.828900  0.165600  0.401400  1.0  0.0996
  H  H28  1  0.919900  0.099300  0.361200  1.0  0.1036
  H  H29  1  0.910500  0.975400  0.360900  1.0  0.0999
  H  H30  1  0.819100  0.920100  0.404000  1.0  0.0947
  H  H31  1  0.729000  0.985300  0.443400  1.0  0.1007
  H  H32  1  0.192800  0.558800  0.222900  1.0  0.0911
  H  H33  1  0.130800  0.627100  0.281000  1.0  0.1124
  H  H34  1  0.183100  0.692500  0.339900  1.0  0.1055
  H  H35  1  0.308400  0.704200  0.341700  1.0  0.1049
  H  H36  1  0.373800  0.638600  0.281200  1.0  0.1075
  H  H37  1  0.466400  0.433400  0.465400  1.0  0.1259
  H  H38  1  0.427700  0.519200  0.524100  1.0  0.0725
  H  H39  1  0.402200  0.628900  0.497800  1.0  0.1106
  H  H40  1  0.405700  0.657900  0.408500  1.0  0.1015
  H  H41  1  0.444500  0.576300  0.348200  1.0  0.0946
  H  H42  1  0.764800  0.479700  0.307400  1.0  0.0975
  H  H43  1  0.830600  0.567600  0.346400  1.0  0.1043
  H  H44  1  0.775300  0.661900  0.387800  1.0  0.1036
  H  H45  1  0.653000  0.668500  0.391200  1.0  0.1046
  H  H46  1  0.584900  0.579900  0.347900  1.0  0.0994
  H  H47  1  0.191300  0.057400  0.972700  1.0  0.0956
  H  H48  1  0.121600  0.119800  0.029500  1.0  0.0988
  H  H49  1  0.057700  0.065900  0.091300  1.0  0.1015
  H  H50  1  0.046100  0.941400  0.092500  1.0  0.1142
  H  H51  1  0.110900  0.876400  0.031000  1.0  0.1009
  H  H52  1  0.326200  0.806900  0.902100  1.0  0.0956
  H  H53  1  0.409000  0.846600  0.838000  1.0  0.1108
  H  H54  1  0.376500  0.849800  0.751900  1.0  0.09
  H  H55  1  0.268000  0.819900  0.725300  1.0  0.0828
  H  H56  1  0.183500  0.783500  0.784900  1.0  0.1228
  H  H57  1  0.328900  0.665600  0.901400  1.0  0.0996
  H  H58  1  0.419900  0.599300  0.861200  1.0  0.1036
  H  H59  1  0.410500  0.475400  0.860900  1.0  0.0999
  H  H60  1  0.319100  0.420100  0.904000  1.0  0.0947
  H  H61  1  0.229000  0.485300  0.943400  1.0  0.1007
  H  H62  1  0.692800  0.058800  0.722900  1.0  0.0911
  H  H63  1  0.630800  0.127100  0.781000  1.0  0.1124
  H  H64  1  0.683100  0.192500  0.839900  1.0  0.1055
  H  H65  1  0.808400  0.204200  0.841700  1.0  0.1049
  H  H66  1  0.873800  0.138600  0.781200  1.0  0.1075
  H  H67  1  0.966400  0.933400  0.965400  1.0  0.1259
  H  H68  1  0.927700  0.019200  0.024100  1.0  0.0725
  H  H69  1  0.902200  0.128900  0.997800  1.0  0.1106
  H  H70  1  0.905700  0.157900  0.908500  1.0  0.1015
  H  H71  1  0.944500  0.076300  0.848200  1.0  0.0946
  H  H72  1  0.264800  0.979700  0.807400  1.0  0.0975
  H  H73  1  0.330600  0.067600  0.846400  1.0  0.1043
  H  H74  1  0.275300  0.161900  0.887800  1.0  0.1036
  H  H75  1  0.153000  0.168500  0.891200  1.0  0.1046
  H  H76  1  0.084900  0.079900  0.847900  1.0  0.0994
  H  H77  1  0.808700  0.442600  0.972700  1.0  0.0952
  H  H78  1  0.878400  0.380200  0.029500  1.0  0.0988
  H  H79  1  0.942300  0.434100  0.091300  1.0  0.1007
  H  H80  1  0.953900  0.558600  0.092500  1.0  0.1139
  H  H81  1  0.889100  0.623600  0.031000  1.0  0.1015
  H  H82  1  0.673800  0.693100  0.902100  1.0  0.0954
  H  H83  1  0.591000  0.653400  0.838000  1.0  0.1104
  H  H84  1  0.623500  0.650200  0.751900  1.0  0.0905
  H  H85  1  0.732000  0.680100  0.725300  1.0  0.0827
  H  H86  1  0.816500  0.716500  0.784900  1.0  0.1226
  H  H87  1  0.671100  0.834400  0.901400  1.0  0.0998
  H  H88  1  0.580100  0.900700  0.861200  1.0  0.1042
  H  H89  1  0.589500  0.024600  0.860900  1.0  0.1004
  H  H90  1  0.680900  0.079900  0.904000  1.0  0.0938
  H  H91  1  0.771000  0.014700  0.943400  1.0  0.1002
  H  H92  1  0.307200  0.441200  0.722900  1.0  0.0912
  H  H93  1  0.369200  0.372900  0.781000  1.0  0.1198
  H  H94  1  0.316900  0.307500  0.839900  1.0  0.1045
  H  H95  1  0.191600  0.295800  0.841700  1.0  0.1055
  H  H96  1  0.126200  0.361400  0.781200  1.0  0.1077
  H  H97  1  0.033600  0.566600  0.965400  1.0  0.1256
  H  H98  1  0.072300  0.480800  0.024100  1.0  0.0727
  H  H99  1  0.097800  0.371100  0.997800  1.0  0.1107
  H  H100  1  0.094300  0.342100  0.908500  1.0  0.1012
  H  H101  1  0.055500  0.423700  0.848200  1.0  0.0947
  H  H102  1  0.735200  0.520300  0.807400  1.0  0.0966
  H  H103  1  0.669400  0.432400  0.846400  1.0  0.1027
  H  H104  1  0.724700  0.338100  0.887800  1.0  0.1047
  H  H105  1  0.847000  0.331500  0.891200  1.0  0.103
  H  H106  1  0.915100  0.420100  0.847900  1.0  0.0991
  H  H107  1  0.308700  0.942600  0.472700  1.0  0.0952
  H  H108  1  0.378400  0.880200  0.529500  1.0  0.0988
  H  H109  1  0.442300  0.934100  0.591300  1.0  0.1007
  H  H110  1  0.453900  0.058600  0.592500  1.0  0.1139
  H  H111  1  0.389100  0.123600  0.531000  1.0  0.1015
  H  H112  1  0.173800  0.193100  0.402100  1.0  0.0953
  H  H113  1  0.091000  0.153400  0.338000  1.0  0.1104
  H  H114  1  0.123500  0.150200  0.251900  1.0  0.0905
  H  H115  1  0.232000  0.180100  0.225300  1.0  0.0827
  H  H116  1  0.316500  0.216500  0.284900  1.0  0.1226
  H  H117  1  0.171100  0.334400  0.401400  1.0  0.0998
  H  H118  1  0.080100  0.400700  0.361200  1.0  0.1042
  H  H119  1  0.089500  0.524600  0.360900  1.0  0.1004
  H  H120  1  0.180900  0.579900  0.404000  1.0  0.0938
  H  H121  1  0.271000  0.514700  0.443400  1.0  0.1002
  H  H122  1  0.807200  0.941200  0.222900  1.0  0.0912
  H  H123  1  0.869200  0.872900  0.281000  1.0  0.1198
  H  H124  1  0.816900  0.807500  0.339900  1.0  0.1045
  H  H125  1  0.691600  0.795800  0.341700  1.0  0.1055
  H  H126  1  0.626200  0.861400  0.281200  1.0  0.1077
  H  H127  1  0.533600  0.066600  0.465400  1.0  0.1256
  H  H128  1  0.572300  0.980800  0.524100  1.0  0.0727
  H  H129  1  0.597800  0.871100  0.497800  1.0  0.1107
  H  H130  1  0.594300  0.842100  0.408500  1.0  0.1012
  H  H131  1  0.555500  0.923700  0.348200  1.0  0.0947
  H  H132  1  0.235200  0.020300  0.307400  1.0  0.0966
  H  H133  1  0.169400  0.932400  0.346400  1.0  0.1027
  H  H134  1  0.224700  0.838100  0.387800  1.0  0.1047
  H  H135  1  0.347000  0.831500  0.391200  1.0  0.103
  H  H136  1  0.415100  0.920100  0.347900  1.0  0.0991
  H  H137  1  0.308700  0.057400  0.027300  1.0  0.0978
  H  H138  1  0.378400  0.119800  0.970500  1.0  0.0983
  H  H139  1  0.442300  0.065900  0.908700  1.0  0.1002
  H  H140  1  0.453900  0.941400  0.907500  1.0  0.1142
  H  H141  1  0.389100  0.876400  0.969000  1.0  0.1012
  H  H142  1  0.173800  0.806900  0.097900  1.0  0.095
  H  H143  1  0.091000  0.846600  0.162000  1.0  0.1109
  H  H144  1  0.123500  0.849800  0.248100  1.0  0.0915
  H  H145  1  0.232000  0.819900  0.274700  1.0  0.0827
  H  H146  1  0.316500  0.783500  0.215100  1.0  0.1222
  H  H147  1  0.171100  0.665600  0.098600  1.0  0.0997
  H  H148  1  0.080100  0.599300  0.138800  1.0  0.1044
  H  H149  1  0.089500  0.475400  0.139100  1.0  0.1002
  H  H150  1  0.180900  0.420100  0.096000  1.0  0.0946
  H  H151  1  0.271000  0.485300  0.056600  1.0  0.1004
  H  H152  1  0.807200  0.058800  0.277100  1.0  0.0933
  H  H153  1  0.869200  0.127100  0.219000  1.0  0.1198
  H  H154  1  0.816900  0.192500  0.160100  1.0  0.1041
  H  H155  1  0.691600  0.204200  0.158300  1.0  0.1051
  H  H156  1  0.626200  0.138600  0.218800  1.0  0.108
  H  H157  1  0.533600  0.933400  0.034600  1.0  0.1253
  H  H158  1  0.572300  0.019200  0.975900  1.0  0.0732
  H  H159  1  0.597800  0.128900  0.002200  1.0  0.1104
  H  H160  1  0.594300  0.157900  0.091500  1.0  0.101
  H  H161  1  0.555500  0.076300  0.151800  1.0  0.0943
  H  H162  1  0.235200  0.979700  0.192600  1.0  0.0974
  H  H163  1  0.169400  0.067600  0.153600  1.0  0.103
  H  H164  1  0.224700  0.161900  0.112200  1.0  0.1047
  H  H165  1  0.347000  0.168500  0.108800  1.0  0.1043
  H  H166  1  0.415100  0.079900  0.152100  1.0  0.0988
  H  H167  1  0.808700  0.557400  0.527300  1.0  0.0978
  H  H168  1  0.878400  0.619800  0.470500  1.0  0.0983
  H  H169  1  0.942300  0.565900  0.408700  1.0  0.1002
  H  H170  1  0.953900  0.441400  0.407500  1.0  0.1142
  H  H171  1  0.889100  0.376400  0.469000  1.0  0.1012
  H  H172  1  0.673800  0.306900  0.597900  1.0  0.095
  H  H173  1  0.591000  0.346600  0.662000  1.0  0.1109
  H  H174  1  0.623500  0.349800  0.748100  1.0  0.0915
  H  H175  1  0.732000  0.319900  0.774700  1.0  0.0827
  H  H176  1  0.816500  0.283500  0.715100  1.0  0.1222
  H  H177  1  0.671100  0.165600  0.598600  1.0  0.0997
  H  H178  1  0.580100  0.099300  0.638800  1.0  0.1044
  H  H179  1  0.589500  0.975400  0.639100  1.0  0.1002
  H  H180  1  0.680900  0.920100  0.596000  1.0  0.0946
  H  H181  1  0.771000  0.985300  0.556600  1.0  0.1004
  H  H182  1  0.307200  0.558800  0.777100  1.0  0.0933
  H  H183  1  0.369200  0.627100  0.719000  1.0  0.1198
  H  H184  1  0.316900  0.692500  0.660100  1.0  0.1041
  H  H185  1  0.191600  0.704200  0.658300  1.0  0.1051
  H  H186  1  0.126200  0.638600  0.718800  1.0  0.108
  H  H187  1  0.033600  0.433400  0.534600  1.0  0.1253
  H  H188  1  0.072300  0.519200  0.475900  1.0  0.0732
  H  H189  1  0.097800  0.628900  0.502200  1.0  0.1104
  H  H190  1  0.094300  0.657900  0.591500  1.0  0.101
  H  H191  1  0.055500  0.576300  0.651800  1.0  0.0943
  H  H192  1  0.735200  0.479700  0.692600  1.0  0.0974
  H  H193  1  0.669400  0.567600  0.653600  1.0  0.103
  H  H194  1  0.724700  0.661900  0.612200  1.0  0.1047
  H  H195  1  0.847000  0.668500  0.608800  1.0  0.1043
  H  H196  1  0.915100  0.579900  0.652100  1.0  0.0988
  H  H197  1  0.191300  0.942600  0.527300  1.0  0.0978
  H  H198  1  0.121600  0.880200  0.470500  1.0  0.0989
  H  H199  1  0.057700  0.934100  0.408700  1.0  0.1003
  H  H200  1  0.046100  0.058600  0.407500  1.0  0.114
  H  H201  1  0.110900  0.123600  0.469000  1.0  0.1011
  H  H202  1  0.326200  0.193100  0.597900  1.0  0.0952
  H  H203  1  0.409000  0.153400  0.662000  1.0  0.1113
  H  H204  1  0.376500  0.150200  0.748100  1.0  0.0903
  H  H205  1  0.268000  0.180100  0.774700  1.0  0.0824
  H  H206  1  0.183500  0.216500  0.715100  1.0  0.1229
  H  H207  1  0.328900  0.334400  0.598600  1.0  0.0997
  H  H208  1  0.419900  0.400700  0.638800  1.0  0.104
  H  H209  1  0.410500  0.524600  0.639100  1.0  0.0993
  H  H210  1  0.319100  0.579900  0.596000  1.0  0.0939
  H  H211  1  0.229000  0.514700  0.556600  1.0  0.0999
  H  H212  1  0.692800  0.941200  0.777100  1.0  0.0932
  H  H213  1  0.630800  0.872900  0.719000  1.0  0.1128
  H  H214  1  0.683100  0.807500  0.660100  1.0  0.1046
  H  H215  1  0.808400  0.795800  0.658300  1.0  0.105
  H  H216  1  0.873800  0.861400  0.718800  1.0  0.1074
  H  H217  1  0.966400  0.066600  0.534600  1.0  0.1258
  H  H218  1  0.927700  0.980800  0.475900  1.0  0.0731
  H  H219  1  0.902200  0.871100  0.502200  1.0  0.1099
  H  H220  1  0.905700  0.842100  0.591500  1.0  0.1003
  H  H221  1  0.944500  0.923700  0.651800  1.0  0.0949
  H  H222  1  0.264800  0.020300  0.692600  1.0  0.0967
  H  H223  1  0.330600  0.932400  0.653600  1.0  0.1043
  H  H224  1  0.275300  0.838100  0.612200  1.0  0.1044
  H  H225  1  0.153000  0.831500  0.608800  1.0  0.1029
  H  H226  1  0.084900  0.920100  0.652100  1.0  0.0993
  H  H227  1  0.691300  0.442600  0.027300  1.0  0.0978
  H  H228  1  0.621600  0.380200  0.970500  1.0  0.0989
  H  H229  1  0.557700  0.434100  0.908700  1.0  0.1003
  H  H230  1  0.546100  0.558600  0.907500  1.0  0.114
  H  H231  1  0.610900  0.623600  0.969000  1.0  0.1011
  H  H232  1  0.826200  0.693100  0.097900  1.0  0.0952
  H  H233  1  0.909000  0.653400  0.162000  1.0  0.1113
  H  H234  1  0.876500  0.650200  0.248100  1.0  0.0903
  H  H235  1  0.768000  0.680100  0.274700  1.0  0.0824
  H  H236  1  0.683500  0.716500  0.215100  1.0  0.1229
  H  H237  1  0.828900  0.834400  0.098600  1.0  0.0996
  H  H238  1  0.919900  0.900700  0.138800  1.0  0.104
  H  H239  1  0.910500  0.024600  0.139100  1.0  0.0993
  H  H240  1  0.819100  0.079900  0.096000  1.0  0.0939
  H  H241  1  0.729000  0.014700  0.056600  1.0  0.0999
  H  H242  1  0.192800  0.441200  0.277100  1.0  0.0932
  H  H243  1  0.130800  0.372900  0.219000  1.0  0.1128
  H  H244  1  0.183100  0.307500  0.160100  1.0  0.1046
  H  H245  1  0.308400  0.295800  0.158300  1.0  0.105
  H  H246  1  0.373800  0.361400  0.218800  1.0  0.1074
  H  H247  1  0.466400  0.566600  0.034600  1.0  0.1258
  H  H248  1  0.427700  0.480800  0.975900  1.0  0.0731
  H  H249  1  0.402200  0.371100  0.002200  1.0  0.1099
  H  H250  1  0.405700  0.342100  0.091500  1.0  0.1003
  H  H251  1  0.444500  0.423700  0.151800  1.0  0.0949
  H  H252  1  0.764800  0.520300  0.192600  1.0  0.0967
  H  H253  1  0.830600  0.432400  0.153600  1.0  0.1043
  H  H254  1  0.775300  0.338100  0.112200  1.0  0.1044
  H  H255  1  0.653000  0.331500  0.108800  1.0  0.1029
  H  H256  1  0.584900  0.420100  0.152100  1.0  0.0993
  C  C257  1  0.731000  0.335300  0.476500  1.0  0.02
  C  C258  1  0.715700  0.271000  0.452400  1.0  -0.0698
  C  C259  1  0.732500  0.207100  0.475800  1.0  -0.0727
  C  C260  1  0.656600  0.460400  0.496900  1.0  -0.0522
  C  C261  1  0.661000  0.533600  0.496500  1.0  -0.145
  C  C262  1  0.621300  0.569800  0.531100  1.0  -0.1095
  C  C263  1  0.582200  0.538200  0.566700  1.0  -0.1062
  C  C264  1  0.575600  0.464900  0.568000  1.0  -0.1176
  C  C265  1  0.614800  0.426300  0.531700  1.0  -0.0402
  C  C266  1  0.748100  0.295600  0.348400  1.0  -0.1677
  C  C267  1  0.813600  0.311400  0.365700  1.0  -0.0573
  C  C268  1  0.863100  0.333333  0.328200  1.0  -0.1483
  C  C269  1  0.843300  0.335300  0.277000  1.0  -0.1127
  C  C270  1  0.779700  0.317400  0.261300  1.0  -0.112
  C  C271  1  0.729200  0.296600  0.295900  1.0  -0.1263
  C  C272  1  0.772900  0.081500  0.426200  1.0  0.0083
  C  C273  1  0.827400  0.115000  0.401600  1.0  -0.1076
  C  C274  1  0.880200  0.075200  0.378100  1.0  -0.1296
  C  C275  1  0.874400  0.002100  0.378400  1.0  -0.1101
  C  C276  1  0.820500  0.970300  0.403000  1.0  -0.1082
  C  C277  1  0.768500  0.008600  0.426700  1.0  -0.1148
  C  C278  1  0.415000  0.481300  0.273700  1.0  -0.0062
  C  C279  1  0.478600  0.465500  0.297200  1.0  -0.0674
  C  C280  1  0.289300  0.593900  0.246700  1.0  -0.0832
  C  C281  1  0.216700  0.589300  0.246700  1.0  -0.104
  C  C282  1  0.180400  0.628000  0.281600  1.0  -0.1145
  C  C283  1  0.211100  0.667700  0.315900  1.0  -0.1108
  C  C284  1  0.285200  0.674500  0.317100  1.0  -0.1129
  C  C285  1  0.323800  0.635800  0.281500  1.0  -0.0422
  C  C286  1  0.454500  0.497700  0.401800  1.0  -0.1468
  C  C287  1  0.453000  0.479300  0.454000  1.0  -0.1378
  C  C288  1  0.431800  0.531100  0.488100  1.0  -0.07
  C  C289  1  0.415400  0.594500  0.473000  1.0  -0.1155
  C  C290  1  0.417900  0.611800  0.419800  1.0  -0.1213
  C  C291  1  0.439300  0.563900  0.384500  1.0  -0.1025
  C  C292  1  0.543200  0.482700  0.274500  1.0  -0.0795
  C  C293  1  0.668500  0.522300  0.323200  1.0  -0.0337
  C  C294  1  0.741100  0.519200  0.323900  1.0  -0.1126
  C  C295  1  0.780700  0.570600  0.347400  1.0  -0.1122
  C  C296  1  0.748200  0.624900  0.371500  1.0  -0.1053
  C  C297  1  0.676100  0.629600  0.372800  1.0  -0.1048
  C  C298  1  0.635200  0.577100  0.348100  1.0  -0.0466
  C  C299  1  0.231000  0.835300  0.976500  1.0  0.02
  C  C300  1  0.215700  0.771000  0.952400  1.0  -0.0698
  C  C301  1  0.232500  0.707100  0.975800  1.0  -0.0727
  C  C302  1  0.156600  0.960400  0.996900  1.0  -0.0522
  C  C303  1  0.161000  0.033600  0.996500  1.0  -0.145
  C  C304  1  0.121300  0.069800  0.031100  1.0  -0.1095
  C  C305  1  0.082200  0.038200  0.066700  1.0  -0.1062
  C  C306  1  0.075600  0.964900  0.068000  1.0  -0.1176
  C  C307  1  0.114800  0.926300  0.031700  1.0  -0.0402
  C  C308  1  0.248100  0.795600  0.848400  1.0  -0.1677
  C  C309  1  0.313600  0.811400  0.865700  1.0  -0.0578
  C  C310  1  0.363100  0.833300  0.828200  1.0  -0.1403
  C  C311  1  0.343300  0.835300  0.777000  1.0  -0.1123
  C  C312  1  0.279700  0.817400  0.761300  1.0  -0.112
  C  C313  1  0.229200  0.796600  0.795900  1.0  -0.1261
  C  C314  1  0.272900  0.581500  0.926200  1.0  0.0083
  C  C315  1  0.327400  0.615000  0.901600  1.0  -0.1076
  C  C316  1  0.380200  0.575200  0.878100  1.0  -0.1296
  C  C317  1  0.374400  0.502100  0.878400  1.0  -0.1101
  C  C318  1  0.320500  0.470300  0.903000  1.0  -0.1082
  C  C319  1  0.268500  0.508600  0.926700  1.0  -0.1148
  C  C320  1  0.915000  0.981300  0.773700  1.0  -0.0062
  C  C321  1  0.978600  0.965500  0.797200  1.0  -0.0674
  C  C322  1  0.789300  0.093900  0.746700  1.0  -0.0832
  C  C323  1  0.716700  0.089300  0.746700  1.0  -0.104
  C  C324  1  0.680400  0.128000  0.781600  1.0  -0.1145
  C  C325  1  0.711100  0.167700  0.815900  1.0  -0.1108
  C  C326  1  0.785200  0.174500  0.817100  1.0  -0.1129
  C  C327  1  0.823800  0.135800  0.781500  1.0  -0.0422
  C  C328  1  0.954500  0.997700  0.901800  1.0  -0.1468
  C  C329  1  0.953000  0.979300  0.954000  1.0  -0.1378
  C  C330  1  0.931800  0.031100  0.988100  1.0  -0.07
  C  C331  1  0.915400  0.094500  0.973000  1.0  -0.1155
  C  C332  1  0.917900  0.111800  0.919800  1.0  -0.1213
  C  C333  1  0.939300  0.063900  0.884500  1.0  -0.1025
  C  C334  1  0.043200  0.982700  0.774500  1.0  -0.0795
  C  C335  1  0.168500  0.022300  0.823200  1.0  -0.0337
  C  C336  1  0.241100  0.019200  0.823900  1.0  -0.1126
  C  C337  1  0.280700  0.070600  0.847400  1.0  -0.1122
  C  C338  1  0.248200  0.124900  0.871500  1.0  -0.1053
  C  C339  1  0.176100  0.129600  0.872800  1.0  -0.1048
  C  C340  1  0.135200  0.077100  0.848100  1.0  -0.0466
  C  C341  1  0.769000  0.664700  0.976500  1.0  0.0199
  C  C342  1  0.784300  0.729000  0.952400  1.0  -0.0719
  C  C343  1  0.767500  0.792900  0.975800  1.0  -0.0731
  C  C344  1  0.843400  0.539600  0.996900  1.0  -0.0529
  C  C345  1  0.839000  0.466400  0.996500  1.0  -0.1442
  C  C346  1  0.878700  0.430200  0.031100  1.0  -0.1103
  C  C347  1  0.917800  0.461800  0.066700  1.0  -0.1074
  C  C348  1  0.924400  0.535100  0.068000  1.0  -0.1167
  C  C349  1  0.885200  0.573700  0.031700  1.0  -0.0413
  C  C350  1  0.751900  0.704400  0.848400  1.0  -0.1673
  C  C351  1  0.686400  0.688600  0.865700  1.0  -0.0581
  C  C352  1  0.636900  0.666667  0.828200  1.0  -0.1503
  C  C353  1  0.656700  0.664700  0.777000  1.0  -0.1155
  C  C354  1  0.720300  0.682600  0.761300  1.0  -0.1127
  C  C355  1  0.770800  0.703400  0.795900  1.0  -0.1269
  C  C356  1  0.727100  0.918500  0.926200  1.0  0.0081
  C  C357  1  0.672600  0.885000  0.901600  1.0  -0.1079
  C  C358  1  0.619800  0.924800  0.878100  1.0  -0.1285
  C  C359  1  0.625600  0.997900  0.878400  1.0  -0.1097
  C  C360  1  0.679500  0.029700  0.903000  1.0  -0.1085
  C  C361  1  0.731500  0.991400  0.926700  1.0  -0.1141
  C  C362  1  0.085000  0.518700  0.773700  1.0  -0.0041
  C  C363  1  0.021400  0.534500  0.797200  1.0  -0.0686
  C  C364  1  0.210700  0.406100  0.746700  1.0  -0.085
  C  C365  1  0.283300  0.410700  0.746700  1.0  -0.1051
  C  C366  1  0.319600  0.372000  0.781600  1.0  -0.113
  C  C367  1  0.288900  0.332300  0.815900  1.0  -0.109
  C  C368  1  0.214800  0.325500  0.817100  1.0  -0.1126
  C  C369  1  0.176200  0.364200  0.781500  1.0  -0.0416
  C  C370  1  0.045500  0.502300  0.901800  1.0  -0.1443
  C  C371  1  0.047000  0.520700  0.954000  1.0  -0.1375
  C  C372  1  0.068200  0.468900  0.988100  1.0  -0.0699
  C  C373  1  0.084600  0.405500  0.973000  1.0  -0.1142
  C  C374  1  0.082100  0.388200  0.919800  1.0  -0.1219
  C  C375  1  0.060700  0.436100  0.884500  1.0  -0.1034
  C  C376  1  0.956800  0.517300  0.774500  1.0  -0.0794
  C  C377  1  0.831500  0.477700  0.823200  1.0  -0.0306
  C  C378  1  0.758900  0.480800  0.823900  1.0  -0.1111
  C  C379  1  0.719300  0.429400  0.847400  1.0  -0.113
  C  C380  1  0.751800  0.375100  0.871500  1.0  -0.1065
  C  C381  1  0.823900  0.370400  0.872800  1.0  -0.1059
  C  C382  1  0.864800  0.422900  0.848100  1.0  -0.0457
  C  C383  1  0.269000  0.164700  0.476500  1.0  0.0199
  C  C384  1  0.284300  0.229000  0.452400  1.0  -0.0719
  C  C385  1  0.267500  0.292900  0.475800  1.0  -0.0731
  C  C386  1  0.343400  0.039600  0.496900  1.0  -0.0529
  C  C387  1  0.339000  0.966400  0.496500  1.0  -0.1442
  C  C388  1  0.378700  0.930200  0.531100  1.0  -0.1103
  C  C389  1  0.417800  0.961800  0.566700  1.0  -0.1074
  C  C390  1  0.424400  0.035100  0.568000  1.0  -0.1167
  C  C391  1  0.385200  0.073700  0.531700  1.0  -0.0413
  C  C392  1  0.251900  0.204400  0.348400  1.0  -0.1673
  C  C393  1  0.186400  0.188600  0.365700  1.0  -0.0588
  C  C394  1  0.136900  0.166700  0.328200  1.0  -0.1423
  C  C395  1  0.156700  0.164700  0.277000  1.0  -0.1151
  C  C396  1  0.220300  0.182600  0.261300  1.0  -0.1127
  C  C397  1  0.270800  0.203400  0.295900  1.0  -0.1269
  C  C398  1  0.227100  0.418500  0.426200  1.0  0.0081
  C  C399  1  0.172600  0.385000  0.401600  1.0  -0.1079
  C  C400  1  0.119800  0.424800  0.378100  1.0  -0.1285
  C  C401  1  0.125600  0.497900  0.378400  1.0  -0.1097
  C  C402  1  0.179500  0.529700  0.403000  1.0  -0.1085
  C  C403  1  0.231500  0.491400  0.426700  1.0  -0.1141
  C  C404  1  0.585000  0.018700  0.273700  1.0  -0.0041
  C  C405  1  0.521400  0.034500  0.297200  1.0  -0.0686
  C  C406  1  0.710700  0.906100  0.246700  1.0  -0.085
  C  C407  1  0.783300  0.910700  0.246700  1.0  -0.1051
  C  C408  1  0.819600  0.872000  0.281600  1.0  -0.113
  C  C409  1  0.788900  0.832300  0.315900  1.0  -0.109
  C  C410  1  0.714800  0.825500  0.317100  1.0  -0.1126
  C  C411  1  0.676200  0.864200  0.281500  1.0  -0.0416
  C  C412  1  0.545500  0.002300  0.401800  1.0  -0.1443
  C  C413  1  0.547000  0.020700  0.454000  1.0  -0.1375
  C  C414  1  0.568200  0.968900  0.488100  1.0  -0.0699
  C  C415  1  0.584600  0.905500  0.473000  1.0  -0.1142
  C  C416  1  0.582100  0.888200  0.419800  1.0  -0.1219
  C  C417  1  0.560700  0.936100  0.384500  1.0  -0.1034
  C  C418  1  0.456800  0.017300  0.274500  1.0  -0.0794
  C  C419  1  0.331500  0.977700  0.323200  1.0  -0.0306
  C  C420  1  0.258900  0.980800  0.323900  1.0  -0.1111
  C  C421  1  0.219300  0.929400  0.347400  1.0  -0.113
  C  C422  1  0.251800  0.875100  0.371500  1.0  -0.1065
  C  C423  1  0.323900  0.870400  0.372800  1.0  -0.1059
  C  C424  1  0.364800  0.922900  0.348100  1.0  -0.0457
  C  C425  1  0.269000  0.835300  0.023500  1.0  0.0202
  C  C426  1  0.284300  0.771000  0.047600  1.0  -0.0714
  C  C427  1  0.267500  0.707100  0.024200  1.0  -0.0734
  C  C428  1  0.343400  0.960400  0.003100  1.0  -0.0504
  C  C429  1  0.339000  0.033600  0.003500  1.0  -0.1429
  C  C430  1  0.378700  0.069800  0.968900  1.0  -0.1092
  C  C431  1  0.417800  0.038200  0.933300  1.0  -0.1073
  C  C432  1  0.424400  0.964900  0.932000  1.0  -0.1178
  C  C433  1  0.385200  0.926300  0.968300  1.0  -0.04
  C  C434  1  0.251900  0.795600  0.151600  1.0  -0.1675
  C  C435  1  0.186400  0.811400  0.134300  1.0  -0.0595
  C  C436  1  0.136900  0.833300  0.171800  1.0  -0.1419
  C  C437  1  0.156700  0.835300  0.223000  1.0  -0.1137
  C  C438  1  0.220300  0.817400  0.238700  1.0  -0.1133
  C  C439  1  0.270800  0.796600  0.204100  1.0  -0.1267
  C  C440  1  0.227100  0.581500  0.073800  1.0  0.008
  C  C441  1  0.172600  0.615000  0.098400  1.0  -0.1082
  C  C442  1  0.119800  0.575200  0.121900  1.0  -0.1284
  C  C443  1  0.125600  0.502100  0.121600  1.0  -0.1088
  C  C444  1  0.179500  0.470300  0.097000  1.0  -0.1082
  C  C445  1  0.231500  0.508600  0.073300  1.0  -0.1142
  C  C446  1  0.585000  0.981300  0.226300  1.0  -0.0052
  C  C447  1  0.521400  0.965500  0.202800  1.0  -0.0684
  C  C448  1  0.710700  0.093900  0.253300  1.0  -0.0804
  C  C449  1  0.783300  0.089300  0.253300  1.0  -0.1059
  C  C450  1  0.819600  0.128000  0.218400  1.0  -0.1124
  C  C451  1  0.788900  0.167700  0.184100  1.0  -0.1109
  C  C452  1  0.714800  0.174500  0.182900  1.0  -0.1124
  C  C453  1  0.676200  0.135800  0.218500  1.0  -0.0417
  C  C454  1  0.545500  0.997700  0.098200  1.0  -0.1465
  C  C455  1  0.547000  0.979300  0.046000  1.0  -0.1384
  C  C456  1  0.568200  0.031100  0.011900  1.0  -0.0709
  C  C457  1  0.584600  0.094500  0.027000  1.0  -0.1142
  C  C458  1  0.582100  0.111800  0.080200  1.0  -0.1199
  C  C459  1  0.560700  0.063900  0.115500  1.0  -0.1024
  C  C460  1  0.456800  0.982700  0.225500  1.0  -0.0803
  C  C461  1  0.331500  0.022300  0.176800  1.0  -0.0321
  C  C462  1  0.258900  0.019200  0.176100  1.0  -0.111
  C  C463  1  0.219300  0.070600  0.152600  1.0  -0.1134
  C  C464  1  0.251800  0.124900  0.128500  1.0  -0.1058
  C  C465  1  0.323900  0.129600  0.127200  1.0  -0.1055
  C  C466  1  0.364800  0.077100  0.151900  1.0  -0.0463
  C  C467  1  0.769000  0.335300  0.523500  1.0  0.0202
  C  C468  1  0.784300  0.271000  0.547600  1.0  -0.0714
  C  C469  1  0.767500  0.207100  0.524200  1.0  -0.0733
  C  C470  1  0.843400  0.460400  0.503100  1.0  -0.0504
  C  C471  1  0.839000  0.533600  0.503500  1.0  -0.1429
  C  C472  1  0.878700  0.569800  0.468900  1.0  -0.1092
  C  C473  1  0.917800  0.538200  0.433300  1.0  -0.1073
  C  C474  1  0.924400  0.464900  0.432000  1.0  -0.1178
  C  C475  1  0.885200  0.426300  0.468300  1.0  -0.04
  C  C476  1  0.751900  0.295600  0.651600  1.0  -0.1675
  C  C477  1  0.686400  0.311400  0.634300  1.0  -0.0589
  C  C478  1  0.636900  0.333333  0.671800  1.0  -0.15
  C  C479  1  0.656700  0.335300  0.723000  1.0  -0.114
  C  C480  1  0.720300  0.317400  0.738700  1.0  -0.1133
  C  C481  1  0.770800  0.296600  0.704100  1.0  -0.1267
  C  C482  1  0.727100  0.081500  0.573800  1.0  0.008
  C  C483  1  0.672600  0.115000  0.598400  1.0  -0.1082
  C  C484  1  0.619800  0.075200  0.621900  1.0  -0.1284
  C  C485  1  0.625600  0.002100  0.621600  1.0  -0.1088
  C  C486  1  0.679500  0.970300  0.597000  1.0  -0.1082
  C  C487  1  0.731500  0.008600  0.573300  1.0  -0.1142
  C  C488  1  0.085000  0.481300  0.726300  1.0  -0.0052
  C  C489  1  0.021400  0.465500  0.702800  1.0  -0.0684
  C  C490  1  0.210700  0.593900  0.753300  1.0  -0.0804
  C  C491  1  0.283300  0.589300  0.753300  1.0  -0.1059
  C  C492  1  0.319600  0.628000  0.718400  1.0  -0.1124
  C  C493  1  0.288900  0.667700  0.684100  1.0  -0.1109
  C  C494  1  0.214800  0.674500  0.682900  1.0  -0.1124
  C  C495  1  0.176200  0.635800  0.718500  1.0  -0.0417
  C  C496  1  0.045500  0.497700  0.598200  1.0  -0.1465
  C  C497  1  0.047000  0.479300  0.546000  1.0  -0.1384
  C  C498  1  0.068200  0.531100  0.511900  1.0  -0.0709
  C  C499  1  0.084600  0.594500  0.527000  1.0  -0.1142
  C  C500  1  0.082100  0.611800  0.580200  1.0  -0.1199
  C  C501  1  0.060700  0.563900  0.615500  1.0  -0.1024
  C  C502  1  0.956800  0.482700  0.725500  1.0  -0.0803
  C  C503  1  0.831500  0.522300  0.676800  1.0  -0.0321
  C  C504  1  0.758900  0.519200  0.676100  1.0  -0.111
  C  C505  1  0.719300  0.570600  0.652600  1.0  -0.1134
  C  C506  1  0.751800  0.624900  0.628500  1.0  -0.1058
  C  C507  1  0.823900  0.629600  0.627200  1.0  -0.1055
  C  C508  1  0.864800  0.577100  0.651900  1.0  -0.0463
  C  C509  1  0.231000  0.164700  0.523500  1.0  0.0201
  C  C510  1  0.215700  0.229000  0.547600  1.0  -0.0692
  C  C511  1  0.232500  0.292900  0.524200  1.0  -0.0726
  C  C512  1  0.156600  0.039600  0.503100  1.0  -0.0494
  C  C513  1  0.161000  0.966400  0.503500  1.0  -0.1447
  C  C514  1  0.121300  0.930200  0.468900  1.0  -0.1099
  C  C515  1  0.082200  0.961800  0.433300  1.0  -0.1065
  C  C516  1  0.075600  0.035100  0.432000  1.0  -0.1181
  C  C517  1  0.114800  0.073700  0.468300  1.0  -0.0418
  C  C518  1  0.248100  0.204400  0.651600  1.0  -0.1667
  C  C519  1  0.313600  0.188600  0.634300  1.0  -0.0592
  C  C520  1  0.363100  0.166700  0.671800  1.0  -0.1406
  C  C521  1  0.343300  0.164700  0.723000  1.0  -0.1115
  C  C522  1  0.279700  0.182600  0.738700  1.0  -0.1125
  C  C523  1  0.229200  0.203400  0.704100  1.0  -0.1252
  C  C524  1  0.272900  0.418500  0.573800  1.0  0.007
  C  C525  1  0.327400  0.385000  0.598400  1.0  -0.1076
  C  C526  1  0.380200  0.424800  0.621900  1.0  -0.1293
  C  C527  1  0.374400  0.497900  0.621600  1.0  -0.111
  C  C528  1  0.320500  0.529700  0.597000  1.0  -0.1079
  C  C529  1  0.268500  0.491400  0.573300  1.0  -0.1159
  C  C530  1  0.915000  0.018700  0.726300  1.0  -0.0055
  C  C531  1  0.978600  0.034500  0.702800  1.0  -0.0699
  C  C532  1  0.789300  0.906100  0.753300  1.0  -0.0796
  C  C533  1  0.716700  0.910700  0.753300  1.0  -0.1052
  C  C534  1  0.680400  0.872000  0.718400  1.0  -0.1148
  C  C535  1  0.711100  0.832300  0.684100  1.0  -0.1099
  C  C536  1  0.785200  0.825500  0.682900  1.0  -0.1122
  C  C537  1  0.823800  0.864200  0.718500  1.0  -0.0416
  C  C538  1  0.954500  0.002300  0.598200  1.0  -0.144
  C  C539  1  0.953000  0.020700  0.546000  1.0  -0.1362
  C  C540  1  0.931800  0.968900  0.511900  1.0  -0.0703
  C  C541  1  0.915400  0.905500  0.527000  1.0  -0.1164
  C  C542  1  0.917900  0.888200  0.580200  1.0  -0.1235
  C  C543  1  0.939300  0.936100  0.615500  1.0  -0.1015
  C  C544  1  0.043200  0.017300  0.725500  1.0  -0.0792
  C  C545  1  0.168500  0.977700  0.676800  1.0  -0.0322
  C  C546  1  0.241100  0.980800  0.676100  1.0  -0.1119
  C  C547  1  0.280700  0.929400  0.652600  1.0  -0.1119
  C  C548  1  0.248200  0.875100  0.628500  1.0  -0.1074
  C  C549  1  0.176100  0.870400  0.627200  1.0  -0.106
  C  C550  1  0.135200  0.922900  0.651900  1.0  -0.0468
  C  C551  1  0.731000  0.664700  0.023500  1.0  0.0201
  C  C552  1  0.715700  0.729000  0.047600  1.0  -0.0692
  C  C553  1  0.732500  0.792900  0.024200  1.0  -0.0725
  C  C554  1  0.656600  0.539600  0.003100  1.0  -0.0494
  C  C555  1  0.661000  0.466400  0.003500  1.0  -0.1447
  C  C556  1  0.621300  0.430200  0.968900  1.0  -0.1099
  C  C557  1  0.582200  0.461800  0.933300  1.0  -0.1065
  C  C558  1  0.575600  0.535100  0.932000  1.0  -0.1181
  C  C559  1  0.614800  0.573700  0.968300  1.0  -0.0418
  C  C560  1  0.748100  0.704400  0.151600  1.0  -0.1667
  C  C561  1  0.813600  0.688600  0.134300  1.0  -0.0587
  C  C562  1  0.863100  0.666667  0.171800  1.0  -0.1486
  C  C563  1  0.843300  0.664700  0.223000  1.0  -0.1119
  C  C564  1  0.779700  0.682600  0.238700  1.0  -0.1125
  C  C565  1  0.729200  0.703400  0.204100  1.0  -0.1255
  C  C566  1  0.772900  0.918500  0.073800  1.0  0.007
  C  C567  1  0.827400  0.885000  0.098400  1.0  -0.1076
  C  C568  1  0.880200  0.924800  0.121900  1.0  -0.1293
  C  C569  1  0.874400  0.997900  0.121600  1.0  -0.111
  C  C570  1  0.820500  0.029700  0.097000  1.0  -0.1079
  C  C571  1  0.768500  0.991400  0.073300  1.0  -0.1159
  C  C572  1  0.415000  0.518700  0.226300  1.0  -0.0055
  C  C573  1  0.478600  0.534500  0.202800  1.0  -0.0699
  C  C574  1  0.289300  0.406100  0.253300  1.0  -0.0796
  C  C575  1  0.216700  0.410700  0.253300  1.0  -0.1052
  C  C576  1  0.180400  0.372000  0.218400  1.0  -0.1148
  C  C577  1  0.211100  0.332300  0.184100  1.0  -0.1099
  C  C578  1  0.285200  0.325500  0.182900  1.0  -0.1122
  C  C579  1  0.323800  0.364200  0.218500  1.0  -0.0416
  C  C580  1  0.454500  0.502300  0.098200  1.0  -0.144
  C  C581  1  0.453000  0.520700  0.046000  1.0  -0.1362
  C  C582  1  0.431800  0.468900  0.011900  1.0  -0.0703
  C  C583  1  0.415400  0.405500  0.027000  1.0  -0.1164
  C  C584  1  0.417900  0.388200  0.080200  1.0  -0.1235
  C  C585  1  0.439300  0.436100  0.115500  1.0  -0.1015
  C  C586  1  0.543200  0.517300  0.225500  1.0  -0.0792
  C  C587  1  0.668500  0.477700  0.176800  1.0  -0.0322
  C  C588  1  0.741100  0.480800  0.176100  1.0  -0.1119
  C  C589  1  0.780700  0.429400  0.152600  1.0  -0.1119
  C  C590  1  0.748200  0.375100  0.128500  1.0  -0.1074
  C  C591  1  0.676100  0.370400  0.127200  1.0  -0.106
  C  C592  1  0.635200  0.422900  0.151900  1.0  -0.0468
  S  S593  1  0.703420  0.415300  0.447360  1.0  0.0868
  S  S594  1  0.676710  0.270780  0.389790  1.0  0.1976
  S  S595  1  0.699860  0.125540  0.453190  1.0  0.0047
  S  S596  1  0.334690  0.453560  0.302600  1.0  0.0809
  S  S597  1  0.479230  0.426790  0.360300  1.0  0.171
  S  S598  1  0.624500  0.449870  0.296800  1.0  -0.0432
  S  S599  1  0.203420  0.915300  0.947360  1.0  0.0868
  S  S600  1  0.176710  0.770780  0.889790  1.0  0.1976
  S  S601  1  0.199860  0.625540  0.953190  1.0  0.0047
  S  S602  1  0.834690  0.953560  0.802600  1.0  0.0809
  S  S603  1  0.979230  0.926790  0.860300  1.0  0.171
  S  S604  1  0.124500  0.949870  0.796800  1.0  -0.0432
  S  S605  1  0.796580  0.584700  0.947360  1.0  0.0869
  S  S606  1  0.823290  0.729220  0.889790  1.0  0.1991
  S  S607  1  0.800140  0.874460  0.953190  1.0  0.0057
  S  S608  1  0.165310  0.546440  0.802600  1.0  0.0816
  S  S609  1  0.020770  0.573210  0.860300  1.0  0.1774
  S  S610  1  0.875500  0.550130  0.796800  1.0  -0.0424
  S  S611  1  0.296580  0.084700  0.447360  1.0  0.0869
  S  S612  1  0.323290  0.229220  0.389790  1.0  0.1991
  S  S613  1  0.300140  0.374460  0.453190  1.0  0.0057
  S  S614  1  0.665310  0.046440  0.302600  1.0  0.0816
  S  S615  1  0.520770  0.073210  0.360300  1.0  0.1774
  S  S616  1  0.375500  0.050130  0.296800  1.0  -0.0424
  S  S617  1  0.296580  0.915300  0.052640  1.0  0.0849
  S  S618  1  0.323290  0.770780  0.110210  1.0  0.1983
  S  S619  1  0.300140  0.625540  0.046810  1.0  0.0027
  S  S620  1  0.665310  0.953560  0.197400  1.0  0.0815
  S  S621  1  0.520770  0.926790  0.139700  1.0  0.171
  S  S622  1  0.375500  0.949870  0.203200  1.0  -0.0428
  S  S623  1  0.796580  0.415300  0.552640  1.0  0.0849
  S  S624  1  0.823290  0.270780  0.610210  1.0  0.1983
  S  S625  1  0.800140  0.125540  0.546810  1.0  0.0027
  S  S626  1  0.165310  0.453560  0.697400  1.0  0.0815
  S  S627  1  0.020770  0.426790  0.639700  1.0  0.171
  S  S628  1  0.875500  0.449870  0.703200  1.0  -0.0428
  S  S629  1  0.203420  0.084700  0.552640  1.0  0.0859
  S  S630  1  0.176710  0.229220  0.610210  1.0  0.1977
  S  S631  1  0.199860  0.374460  0.546810  1.0  0.0012
  S  S632  1  0.834690  0.046440  0.697400  1.0  0.0813
  S  S633  1  0.979230  0.073210  0.639700  1.0  0.177
  S  S634  1  0.124500  0.050130  0.703200  1.0  -0.0423
  S  S635  1  0.703420  0.584700  0.052640  1.0  0.0859
  S  S636  1  0.676710  0.729220  0.110210  1.0  0.1977
  S  S637  1  0.699860  0.874460  0.046810  1.0  0.0012
  S  S638  1  0.334690  0.546440  0.197400  1.0  0.0813
  S  S639  1  0.479230  0.573210  0.139700  1.0  0.177
  S  S640  1  0.624500  0.550130  0.203200  1.0  -0.0423
