# generated using pymatgen
data_CuH16(C7N)4
_symmetry_space_group_name_H-M   'P 1'
_cell_length_a   10.62600000
_cell_length_b   10.62600000
_cell_length_c   25.71800000
_cell_angle_alpha   90.00000000
_cell_angle_beta   90.00000000
_cell_angle_gamma   90.00000000
_symmetry_Int_Tables_number   1
_chemical_formula_structural   CuH16(C7N)4
_chemical_formula_sum   'Cu4 H64 C112 N16'
_cell_volume   2903.86762697
_cell_formula_units_Z   4
loop_
 _symmetry_equiv_pos_site_id
 _symmetry_equiv_pos_as_xyz
  1  'x, y, z'
loop_
 _atom_site_type_symbol
 _atom_site_label
 _atom_site_symmetry_multiplicity
 _atom_site_fract_x
 _atom_site_fract_y
 _atom_site_fract_z
 _atom_site_occupancy
 _atom_site_charge
  Cu  Cu1  1  0.500000  0.250000  0.375000  1.0  0.3558
  Cu  Cu2  1  0.000000  0.750000  0.875000  1.0  0.3558
  Cu  Cu3  1  0.500000  0.750000  0.625000  1.0  0.3558
  Cu  Cu4  1  0.000000  0.250000  0.125000  1.0  0.3558
  H  H5  1  0.175500  0.028700  0.122500  1.0  0.0461
  H  H6  1  0.239200  0.859600  0.168100  1.0  0.1028
  H  H7  1  0.144600  0.817500  0.248400  1.0  0.0906
  H  H8  1  0.984600  0.954100  0.278600  1.0  0.1019
  H  H9  1  0.675500  0.528700  0.622500  1.0  0.0461
  H  H10  1  0.739200  0.359600  0.668100  1.0  0.1028
  H  H11  1  0.644600  0.317500  0.748400  1.0  0.0906
  H  H12  1  0.484600  0.454100  0.778600  1.0  0.1019
  H  H13  1  0.324500  0.971300  0.622500  1.0  0.0462
  H  H14  1  0.260800  0.140400  0.668100  1.0  0.1032
  H  H15  1  0.355400  0.182500  0.748400  1.0  0.0903
  H  H16  1  0.515400  0.045900  0.778600  1.0  0.1018
  H  H17  1  0.824500  0.471300  0.122500  1.0  0.0462
  H  H18  1  0.760800  0.640400  0.168100  1.0  0.1032
  H  H19  1  0.855400  0.682500  0.248400  1.0  0.0903
  H  H20  1  0.015400  0.545900  0.278600  1.0  0.1018
  H  H21  1  0.721300  0.425500  0.372500  1.0  0.0456
  H  H22  1  0.890400  0.489200  0.418100  1.0  0.1031
  H  H23  1  0.932500  0.394600  0.498400  1.0  0.0897
  H  H24  1  0.795900  0.234600  0.528600  1.0  0.1019
  H  H25  1  0.221300  0.925500  0.872500  1.0  0.0456
  H  H26  1  0.390400  0.989200  0.918100  1.0  0.1031
  H  H27  1  0.432500  0.894600  0.998400  1.0  0.0897
  H  H28  1  0.295900  0.734600  0.028600  1.0  0.1019
  H  H29  1  0.778700  0.574500  0.872500  1.0  0.0456
  H  H30  1  0.609600  0.510800  0.918100  1.0  0.1029
  H  H31  1  0.567500  0.605400  0.998400  1.0  0.0901
  H  H32  1  0.704100  0.765400  0.028600  1.0  0.1017
  H  H33  1  0.278700  0.074500  0.372500  1.0  0.0456
  H  H34  1  0.109600  0.010800  0.418100  1.0  0.1029
  H  H35  1  0.067500  0.105400  0.498400  1.0  0.0901
  H  H36  1  0.204100  0.265400  0.528600  1.0  0.1017
  H  H37  1  0.824500  0.971300  0.877500  1.0  0.046
  H  H38  1  0.760800  0.140400  0.831900  1.0  0.1038
  H  H39  1  0.855400  0.182500  0.751600  1.0  0.0901
  H  H40  1  0.015400  0.045900  0.721400  1.0  0.1024
  H  H41  1  0.324500  0.471300  0.377500  1.0  0.046
  H  H42  1  0.260800  0.640400  0.331900  1.0  0.1038
  H  H43  1  0.355400  0.682500  0.251600  1.0  0.0901
  H  H44  1  0.515400  0.545900  0.221400  1.0  0.1024
  H  H45  1  0.675500  0.028700  0.377500  1.0  0.0461
  H  H46  1  0.739200  0.859600  0.331900  1.0  0.1035
  H  H47  1  0.644600  0.817500  0.251600  1.0  0.0902
  H  H48  1  0.484600  0.954100  0.221400  1.0  0.1024
  H  H49  1  0.175500  0.528700  0.877500  1.0  0.0461
  H  H50  1  0.239200  0.359600  0.831900  1.0  0.1035
  H  H51  1  0.144600  0.317500  0.751600  1.0  0.0902
  H  H52  1  0.984600  0.454100  0.721400  1.0  0.1024
  H  H53  1  0.278700  0.574500  0.627500  1.0  0.0459
  H  H54  1  0.109600  0.510800  0.581900  1.0  0.1035
  H  H55  1  0.067500  0.605400  0.501600  1.0  0.0897
  H  H56  1  0.204100  0.765400  0.471400  1.0  0.1021
  H  H57  1  0.778700  0.074500  0.127500  1.0  0.0459
  H  H58  1  0.609600  0.010800  0.081900  1.0  0.1035
  H  H59  1  0.567500  0.105400  0.001600  1.0  0.0897
  H  H60  1  0.704100  0.265400  0.971400  1.0  0.1021
  H  H61  1  0.221300  0.425500  0.127500  1.0  0.0454
  H  H62  1  0.390400  0.489200  0.081900  1.0  0.1037
  H  H63  1  0.432500  0.394600  0.001600  1.0  0.0892
  H  H64  1  0.295900  0.234600  0.971400  1.0  0.1023
  H  H65  1  0.721300  0.925500  0.627500  1.0  0.0454
  H  H66  1  0.890400  0.989200  0.581900  1.0  0.1037
  H  H67  1  0.932500  0.894600  0.501600  1.0  0.0892
  H  H68  1  0.795900  0.734600  0.471400  1.0  0.1023
  C  C69  1  0.133000  0.011300  0.154100  1.0  0.1471
  C  C70  1  0.173700  0.911700  0.181100  1.0  -0.1941
  C  C71  1  0.118000  0.887100  0.228000  1.0  -0.0965
  C  C72  1  0.022000  0.966200  0.245400  1.0  -0.1783
  C  C73  1  0.982800  0.061800  0.213500  1.0  0.1756
  C  C74  1  0.882200  0.143700  0.229000  1.0  0.0381
  C  C75  1  0.797600  0.210400  0.242400  1.0  0.0452
  C  C76  1  0.633000  0.511300  0.654100  1.0  0.1471
  C  C77  1  0.673700  0.411700  0.681100  1.0  -0.1941
  C  C78  1  0.618000  0.387100  0.728000  1.0  -0.0965
  C  C79  1  0.522000  0.466200  0.745400  1.0  -0.1783
  C  C80  1  0.482800  0.561800  0.713500  1.0  0.1756
  C  C81  1  0.382200  0.643700  0.729000  1.0  0.0381
  C  C82  1  0.297600  0.710400  0.742400  1.0  0.0452
  C  C83  1  0.367000  0.988700  0.654100  1.0  0.1481
  C  C84  1  0.326300  0.088300  0.681100  1.0  -0.1964
  C  C85  1  0.382000  0.112900  0.728000  1.0  -0.0967
  C  C86  1  0.478000  0.033800  0.745400  1.0  -0.1767
  C  C87  1  0.517200  0.938200  0.713500  1.0  0.1757
  C  C88  1  0.617800  0.856300  0.729000  1.0  0.0397
  C  C89  1  0.702400  0.789600  0.742400  1.0  0.0442
  C  C90  1  0.867000  0.488700  0.154100  1.0  0.1481
  C  C91  1  0.826300  0.588300  0.181100  1.0  -0.1964
  C  C92  1  0.882000  0.612900  0.228000  1.0  -0.0967
  C  C93  1  0.978000  0.533800  0.245400  1.0  -0.1767
  C  C94  1  0.017200  0.438200  0.213500  1.0  0.1757
  C  C95  1  0.117800  0.356300  0.229000  1.0  0.0397
  C  C96  1  0.202400  0.289600  0.242400  1.0  0.0442
  C  C97  1  0.738700  0.383000  0.404100  1.0  0.1451
  C  C98  1  0.838300  0.423700  0.431100  1.0  -0.1954
  C  C99  1  0.862900  0.368000  0.478000  1.0  -0.098
  C  C100  1  0.783800  0.272000  0.495400  1.0  -0.1757
  C  C101  1  0.688200  0.232800  0.463500  1.0  0.1762
  C  C102  1  0.606300  0.132200  0.479000  1.0  0.0395
  C  C103  1  0.539600  0.047600  0.492400  1.0  0.0452
  C  C104  1  0.238700  0.883000  0.904100  1.0  0.1451
  C  C105  1  0.338300  0.923700  0.931100  1.0  -0.1954
  C  C106  1  0.362900  0.868000  0.978000  1.0  -0.098
  C  C107  1  0.283800  0.772000  0.995400  1.0  -0.1757
  C  C108  1  0.188200  0.732800  0.963500  1.0  0.1762
  C  C109  1  0.106300  0.632200  0.979000  1.0  0.0395
  C  C110  1  0.039600  0.547600  0.992400  1.0  0.0452
  C  C111  1  0.761300  0.617000  0.904100  1.0  0.1471
  C  C112  1  0.661700  0.576300  0.931100  1.0  -0.1978
  C  C113  1  0.637100  0.632000  0.978000  1.0  -0.0995
  C  C114  1  0.716200  0.728000  0.995400  1.0  -0.1769
  C  C115  1  0.811800  0.767200  0.963500  1.0  0.1771
  C  C116  1  0.893700  0.867800  0.979000  1.0  0.039
  C  C117  1  0.960400  0.952400  0.992400  1.0  0.0446
  C  C118  1  0.261300  0.117000  0.404100  1.0  0.1471
  C  C119  1  0.161700  0.076300  0.431100  1.0  -0.1978
  C  C120  1  0.137100  0.132000  0.478000  1.0  -0.0995
  C  C121  1  0.216200  0.228000  0.495400  1.0  -0.1769
  C  C122  1  0.311800  0.267200  0.463500  1.0  0.1771
  C  C123  1  0.393700  0.367800  0.479000  1.0  0.039
  C  C124  1  0.460400  0.452400  0.492400  1.0  0.0446
  C  C125  1  0.867000  0.988700  0.845900  1.0  0.1491
  C  C126  1  0.826300  0.088300  0.818900  1.0  -0.1975
  C  C127  1  0.882000  0.112900  0.772000  1.0  -0.0974
  C  C128  1  0.978000  0.033800  0.754600  1.0  -0.1776
  C  C129  1  0.017200  0.938200  0.786500  1.0  0.1767
  C  C130  1  0.117800  0.856300  0.771000  1.0  0.0389
  C  C131  1  0.202400  0.789600  0.757600  1.0  0.0438
  C  C132  1  0.367000  0.488700  0.345900  1.0  0.1491
  C  C133  1  0.326300  0.588300  0.318900  1.0  -0.1975
  C  C134  1  0.382000  0.612900  0.272000  1.0  -0.0974
  C  C135  1  0.478000  0.533800  0.254600  1.0  -0.1776
  C  C136  1  0.517200  0.438200  0.286500  1.0  0.1767
  C  C137  1  0.617800  0.356300  0.271000  1.0  0.0389
  C  C138  1  0.702400  0.289600  0.257600  1.0  0.0438
  C  C139  1  0.633000  0.011300  0.345900  1.0  0.1483
  C  C140  1  0.673700  0.911700  0.318900  1.0  -0.195
  C  C141  1  0.618000  0.887100  0.272000  1.0  -0.0973
  C  C142  1  0.522000  0.966200  0.254600  1.0  -0.1777
  C  C143  1  0.482800  0.061800  0.286500  1.0  0.1762
  C  C144  1  0.382200  0.143700  0.271000  1.0  0.0376
  C  C145  1  0.297600  0.210400  0.257600  1.0  0.0459
  C  C146  1  0.133000  0.511300  0.845900  1.0  0.1483
  C  C147  1  0.173700  0.411700  0.818900  1.0  -0.195
  C  C148  1  0.118000  0.387100  0.772000  1.0  -0.0973
  C  C149  1  0.022000  0.466200  0.754600  1.0  -0.1777
  C  C150  1  0.982800  0.561800  0.786500  1.0  0.1762
  C  C151  1  0.882200  0.643700  0.771000  1.0  0.0376
  C  C152  1  0.797600  0.710400  0.757600  1.0  0.0459
  C  C153  1  0.261300  0.617000  0.595900  1.0  0.1483
  C  C154  1  0.161700  0.576300  0.568900  1.0  -0.1978
  C  C155  1  0.137100  0.632000  0.522000  1.0  -0.1002
  C  C156  1  0.216200  0.728000  0.504600  1.0  -0.1763
  C  C157  1  0.311800  0.767200  0.536500  1.0  0.1779
  C  C158  1  0.393700  0.867800  0.521000  1.0  0.0383
  C  C159  1  0.460400  0.952400  0.507600  1.0  0.0445
  C  C160  1  0.761300  0.117000  0.095900  1.0  0.1483
  C  C161  1  0.661700  0.076300  0.068900  1.0  -0.1978
  C  C162  1  0.637100  0.132000  0.022000  1.0  -0.1002
  C  C163  1  0.716200  0.228000  0.004600  1.0  -0.1763
  C  C164  1  0.811800  0.267200  0.036500  1.0  0.1779
  C  C165  1  0.893700  0.367800  0.021000  1.0  0.0383
  C  C166  1  0.960400  0.452400  0.007600  1.0  0.0445
  C  C167  1  0.238700  0.383000  0.095900  1.0  0.1457
  C  C168  1  0.338300  0.423700  0.068900  1.0  -0.1969
  C  C169  1  0.362900  0.368000  0.022000  1.0  -0.0985
  C  C170  1  0.283800  0.272000  0.004600  1.0  -0.1764
  C  C171  1  0.188200  0.232800  0.036500  1.0  0.1769
  C  C172  1  0.106300  0.132200  0.021000  1.0  0.0385
  C  C173  1  0.039600  0.047600  0.007600  1.0  0.0456
  C  C174  1  0.738700  0.883000  0.595900  1.0  0.1457
  C  C175  1  0.838300  0.923700  0.568900  1.0  -0.1969
  C  C176  1  0.862900  0.868000  0.522000  1.0  -0.0985
  C  C177  1  0.783800  0.772000  0.504600  1.0  -0.1764
  C  C178  1  0.688200  0.732800  0.536500  1.0  0.1769
  C  C179  1  0.606300  0.632200  0.521000  1.0  0.0385
  C  C180  1  0.539600  0.547600  0.507600  1.0  0.0456
  N  N181  1  0.039500  0.088300  0.166800  1.0  -0.3658
  N  N182  1  0.539500  0.588300  0.666800  1.0  -0.3658
  N  N183  1  0.460500  0.911700  0.666800  1.0  -0.3649
  N  N184  1  0.960500  0.411700  0.166800  1.0  -0.3649
  N  N185  1  0.661700  0.289500  0.416800  1.0  -0.3677
  N  N186  1  0.161700  0.789500  0.916800  1.0  -0.3677
  N  N187  1  0.838300  0.710500  0.916800  1.0  -0.3674
  N  N188  1  0.338300  0.210500  0.416800  1.0  -0.3674
  N  N189  1  0.960500  0.911700  0.833200  1.0  -0.3648
  N  N190  1  0.460500  0.411700  0.333200  1.0  -0.3648
  N  N191  1  0.539500  0.088300  0.333200  1.0  -0.3658
  N  N192  1  0.039500  0.588300  0.833200  1.0  -0.3658
  N  N193  1  0.338300  0.710500  0.583200  1.0  -0.3674
  N  N194  1  0.838300  0.210500  0.083200  1.0  -0.3674
  N  N195  1  0.161700  0.289500  0.083200  1.0  -0.3671
  N  N196  1  0.661700  0.789500  0.583200  1.0  -0.3671
