# generated using pymatgen
data_VH4C8O5
_symmetry_space_group_name_H-M   'P 1'
_cell_length_a   15.12670000
_cell_length_b   15.12670000
_cell_length_c   12.03630000
_cell_angle_alpha   90.00000000
_cell_angle_beta   90.00000000
_cell_angle_gamma   90.00000000
_symmetry_Int_Tables_number   1
_chemical_formula_structural   VH4C8O5
_chemical_formula_sum   'V8 H32 C64 O40'
_cell_volume   2754.11069370
_cell_formula_units_Z   8
loop_
 _symmetry_equiv_pos_site_id
 _symmetry_equiv_pos_as_xyz
  1  'x, y, z'
loop_
 _atom_site_type_symbol
 _atom_site_label
 _atom_site_symmetry_multiplicity
 _atom_site_fract_x
 _atom_site_fract_y
 _atom_site_fract_z
 _atom_site_occupancy
 _atom_site_charge
  V  V1  1  0.690160  0.309840  0.500000  1.0  1.7278
  V  V2  1  0.190160  0.809840  0.000000  1.0  1.7278
  V  V3  1  0.809840  0.190160  0.000000  1.0  1.7253
  V  V4  1  0.309840  0.690160  0.500000  1.0  1.7253
  V  V5  1  0.690160  0.190160  0.750000  1.0  1.7309
  V  V6  1  0.190160  0.690160  0.250000  1.0  1.7309
  V  V7  1  0.809840  0.309840  0.250000  1.0  1.7226
  V  V8  1  0.309840  0.809840  0.750000  1.0  1.7226
  H  H9  1  0.573180  0.381620  0.907350  1.0  0.108
  H  H10  1  0.073180  0.881620  0.407350  1.0  0.108
  H  H11  1  0.926820  0.118380  0.407350  1.0  0.1081
  H  H12  1  0.426820  0.618380  0.907350  1.0  0.1081
  H  H13  1  0.618380  0.073180  0.157350  1.0  0.1086
  H  H14  1  0.118380  0.573180  0.657350  1.0  0.1086
  H  H15  1  0.881620  0.426820  0.657350  1.0  0.1082
  H  H16  1  0.381620  0.926820  0.157350  1.0  0.1082
  H  H17  1  0.926820  0.381620  0.842650  1.0  0.1083
  H  H18  1  0.426820  0.881620  0.342650  1.0  0.1083
  H  H19  1  0.573180  0.118380  0.342650  1.0  0.1087
  H  H20  1  0.073180  0.618380  0.842650  1.0  0.1087
  H  H21  1  0.881620  0.073180  0.592650  1.0  0.1086
  H  H22  1  0.381620  0.573180  0.092650  1.0  0.1086
  H  H23  1  0.618380  0.426820  0.092650  1.0  0.1092
  H  H24  1  0.118380  0.926820  0.592650  1.0  0.1092
  H  H25  1  0.806000  0.250000  0.625000  1.0  0.4307
  H  H26  1  0.306000  0.750000  0.125000  1.0  0.4307
  H  H27  1  0.694000  0.250000  0.125000  1.0  0.4297
  H  H28  1  0.194000  0.750000  0.625000  1.0  0.4297
  H  H29  1  0.750000  0.306000  0.875000  1.0  0.4345
  H  H30  1  0.250000  0.806000  0.375000  1.0  0.4345
  H  H31  1  0.750000  0.194000  0.375000  1.0  0.434
  H  H32  1  0.250000  0.694000  0.875000  1.0  0.434
  H  H33  1  0.500000  0.500000  0.626000  1.0  0.1112
  H  H34  1  0.000000  0.000000  0.126000  1.0  0.1112
  H  H35  1  0.500000  0.000000  0.876000  1.0  0.1112
  H  H36  1  0.000000  0.500000  0.376000  1.0  0.1112
  H  H37  1  0.000000  0.500000  0.124000  1.0  0.1109
  H  H38  1  0.500000  0.000000  0.624000  1.0  0.1109
  H  H39  1  0.000000  0.000000  0.874000  1.0  0.1107
  H  H40  1  0.500000  0.500000  0.374000  1.0  0.1109
  C  C41  1  0.595800  0.362700  0.705200  1.0  0.7366
  C  C42  1  0.546700  0.435600  0.760400  1.0  -0.141
  C  C43  1  0.547600  0.433200  0.879400  1.0  -0.0503
  C  C44  1  0.095800  0.862700  0.205200  1.0  0.7366
  C  C45  1  0.046700  0.935600  0.260400  1.0  -0.141
  C  C46  1  0.047600  0.933200  0.379400  1.0  -0.0503
  C  C47  1  0.904200  0.137300  0.205200  1.0  0.7367
  C  C48  1  0.953300  0.064400  0.260400  1.0  -0.1408
  C  C49  1  0.952400  0.066800  0.379400  1.0  -0.0515
  C  C50  1  0.404200  0.637300  0.705200  1.0  0.7367
  C  C51  1  0.453300  0.564400  0.760400  1.0  -0.1408
  C  C52  1  0.452400  0.566800  0.879400  1.0  -0.0515
  C  C53  1  0.637300  0.095800  0.955200  1.0  0.734
  C  C54  1  0.564400  0.046700  0.010400  1.0  -0.1396
  C  C55  1  0.566800  0.047600  0.129400  1.0  -0.0522
  C  C56  1  0.137300  0.595800  0.455200  1.0  0.734
  C  C57  1  0.064400  0.546700  0.510400  1.0  -0.1396
  C  C58  1  0.066800  0.547600  0.629400  1.0  -0.0522
  C  C59  1  0.862700  0.404200  0.455200  1.0  0.735
  C  C60  1  0.935600  0.453300  0.510400  1.0  -0.1398
  C  C61  1  0.933200  0.452400  0.629400  1.0  -0.0529
  C  C62  1  0.362700  0.904200  0.955200  1.0  0.735
  C  C63  1  0.435600  0.953300  0.010400  1.0  -0.1398
  C  C64  1  0.433200  0.952400  0.129400  1.0  -0.0529
  C  C65  1  0.904200  0.362700  0.044800  1.0  0.7368
  C  C66  1  0.953300  0.435600  0.989600  1.0  -0.141
  C  C67  1  0.952400  0.433200  0.870600  1.0  -0.0514
  C  C68  1  0.404200  0.862700  0.544800  1.0  0.7368
  C  C69  1  0.453300  0.935600  0.489600  1.0  -0.141
  C  C70  1  0.452400  0.933200  0.370600  1.0  -0.0514
  C  C71  1  0.595800  0.137300  0.544800  1.0  0.7369
  C  C72  1  0.546700  0.064400  0.489600  1.0  -0.1406
  C  C73  1  0.547600  0.066800  0.370600  1.0  -0.0504
  C  C74  1  0.095800  0.637300  0.044800  1.0  0.7369
  C  C75  1  0.046700  0.564400  0.989600  1.0  -0.1406
  C  C76  1  0.047600  0.566800  0.870600  1.0  -0.0504
  C  C77  1  0.862700  0.095800  0.794800  1.0  0.7354
  C  C78  1  0.935600  0.046700  0.739600  1.0  -0.1402
  C  C79  1  0.933200  0.047600  0.620600  1.0  -0.0525
  C  C80  1  0.362700  0.595800  0.294800  1.0  0.7354
  C  C81  1  0.435600  0.546700  0.239600  1.0  -0.1402
  C  C82  1  0.433200  0.547600  0.120600  1.0  -0.0525
  C  C83  1  0.637300  0.404200  0.294800  1.0  0.7337
  C  C84  1  0.564400  0.453300  0.239600  1.0  -0.1394
  C  C85  1  0.566800  0.452400  0.120600  1.0  -0.0526
  C  C86  1  0.137300  0.904200  0.794800  1.0  0.7337
  C  C87  1  0.064400  0.953300  0.739600  1.0  -0.1394
  C  C88  1  0.066800  0.952400  0.620600  1.0  -0.0526
  C  C89  1  0.500000  0.500000  0.703000  1.0  0.0431
  C  C90  1  0.500000  0.500000  0.936200  1.0  -0.0769
  C  C91  1  0.000000  0.000000  0.203000  1.0  0.0492
  C  C92  1  0.000000  0.000000  0.436200  1.0  -0.0769
  C  C93  1  0.500000  0.000000  0.953000  1.0  0.0431
  C  C94  1  0.500000  0.000000  0.186200  1.0  -0.0769
  C  C95  1  0.000000  0.500000  0.453000  1.0  0.0431
  C  C96  1  0.000000  0.500000  0.686200  1.0  -0.0769
  C  C97  1  0.000000  0.500000  0.047000  1.0  0.0442
  C  C98  1  0.000000  0.500000  0.813800  1.0  -0.0763
  C  C99  1  0.500000  0.000000  0.547000  1.0  0.0442
  C  C100  1  0.500000  0.000000  0.313800  1.0  -0.0763
  C  C101  1  0.000000  0.000000  0.797000  1.0  0.0506
  C  C102  1  0.000000  0.000000  0.563800  1.0  -0.0763
  C  C103  1  0.500000  0.500000  0.297000  1.0  0.0442
  C  C104  1  0.500000  0.500000  0.063800  1.0  -0.0763
  O  O105  1  0.601300  0.290400  0.755900  1.0  -0.6048
  O  O106  1  0.618000  0.377100  0.608500  1.0  -0.6118
  O  O107  1  0.101300  0.790400  0.255900  1.0  -0.6048
  O  O108  1  0.118000  0.877100  0.108500  1.0  -0.6118
  O  O109  1  0.898700  0.209600  0.255900  1.0  -0.6052
  O  O110  1  0.882000  0.122900  0.108500  1.0  -0.612
  O  O111  1  0.398700  0.709600  0.755900  1.0  -0.6052
  O  O112  1  0.382000  0.622900  0.608500  1.0  -0.612
  O  O113  1  0.709600  0.101300  0.005900  1.0  -0.6041
  O  O114  1  0.622900  0.118000  0.858500  1.0  -0.6115
  O  O115  1  0.209600  0.601300  0.505900  1.0  -0.6041
  O  O116  1  0.122900  0.618000  0.358500  1.0  -0.6115
  O  O117  1  0.790400  0.398700  0.505900  1.0  -0.6049
  O  O118  1  0.877100  0.382000  0.358500  1.0  -0.612
  O  O119  1  0.290400  0.898700  0.005900  1.0  -0.6049
  O  O120  1  0.377100  0.882000  0.858500  1.0  -0.612
  O  O121  1  0.898700  0.290400  0.994100  1.0  -0.6047
  O  O122  1  0.882000  0.377100  0.141500  1.0  -0.6105
  O  O123  1  0.398700  0.790400  0.494100  1.0  -0.6047
  O  O124  1  0.382000  0.877100  0.641500  1.0  -0.6105
  O  O125  1  0.601300  0.209600  0.494100  1.0  -0.6065
  O  O126  1  0.618000  0.122900  0.641500  1.0  -0.6122
  O  O127  1  0.101300  0.709600  0.994100  1.0  -0.6065
  O  O128  1  0.118000  0.622900  0.141500  1.0  -0.6122
  O  O129  1  0.790400  0.101300  0.744100  1.0  -0.6048
  O  O130  1  0.877100  0.118000  0.891500  1.0  -0.6109
  O  O131  1  0.290400  0.601300  0.244100  1.0  -0.6048
  O  O132  1  0.377100  0.618000  0.391500  1.0  -0.6109
  O  O133  1  0.709600  0.398700  0.244100  1.0  -0.6049
  O  O134  1  0.622900  0.382000  0.391500  1.0  -0.6112
  O  O135  1  0.209600  0.898700  0.744100  1.0  -0.6049
  O  O136  1  0.122900  0.882000  0.891500  1.0  -0.6112
  O  O137  1  0.746300  0.250000  0.625000  1.0  -1.11
  O  O138  1  0.246300  0.750000  0.125000  1.0  -1.11
  O  O139  1  0.753700  0.250000  0.125000  1.0  -1.1076
  O  O140  1  0.253700  0.750000  0.625000  1.0  -1.1076
  O  O141  1  0.750000  0.246300  0.875000  1.0  -1.1094
  O  O142  1  0.250000  0.746300  0.375000  1.0  -1.1094
  O  O143  1  0.750000  0.253700  0.375000  1.0  -1.1118
  O  O144  1  0.250000  0.753700  0.875000  1.0  -1.1118
