# generated using pymatgen
data_VH4C8O5
_symmetry_space_group_name_H-M   'P 1'
_cell_length_a   15.11330000
_cell_length_b   15.11330000
_cell_length_c   12.03270000
_cell_angle_alpha   90.00000000
_cell_angle_beta   90.00000000
_cell_angle_gamma   90.00000000
_symmetry_Int_Tables_number   1
_chemical_formula_structural   VH4C8O5
_chemical_formula_sum   'V8 H32 C64 O40'
_cell_volume   2748.41110975
_cell_formula_units_Z   8
loop_
 _symmetry_equiv_pos_site_id
 _symmetry_equiv_pos_as_xyz
  1  'x, y, z'
loop_
 _atom_site_type_symbol
 _atom_site_label
 _atom_site_symmetry_multiplicity
 _atom_site_fract_x
 _atom_site_fract_y
 _atom_site_fract_z
 _atom_site_occupancy
 _atom_site_charge
  V  V1  1  0.691230  0.308770  0.500000  1.0  1.7641
  V  V2  1  0.191230  0.808770  0.000000  1.0  1.7641
  V  V3  1  0.808770  0.191230  0.000000  1.0  1.7612
  V  V4  1  0.308770  0.691230  0.500000  1.0  1.7612
  V  V5  1  0.691230  0.191230  0.750000  1.0  1.7668
  V  V6  1  0.191230  0.691230  0.250000  1.0  1.7668
  V  V7  1  0.808770  0.308770  0.250000  1.0  1.7594
  V  V8  1  0.308770  0.808770  0.750000  1.0  1.7594
  H  H9  1  0.573180  0.381620  0.907350  1.0  0.1078
  H  H10  1  0.073180  0.881620  0.407350  1.0  0.1078
  H  H11  1  0.926820  0.118380  0.407350  1.0  0.1077
  H  H12  1  0.426820  0.618380  0.907350  1.0  0.1077
  H  H13  1  0.618380  0.073180  0.157350  1.0  0.1082
  H  H14  1  0.118380  0.573180  0.657350  1.0  0.1082
  H  H15  1  0.881620  0.426820  0.657350  1.0  0.1077
  H  H16  1  0.381620  0.926820  0.157350  1.0  0.1077
  H  H17  1  0.926820  0.381620  0.842650  1.0  0.1073
  H  H18  1  0.426820  0.881620  0.342650  1.0  0.1073
  H  H19  1  0.573180  0.118380  0.342650  1.0  0.1073
  H  H20  1  0.073180  0.618380  0.842650  1.0  0.1073
  H  H21  1  0.881620  0.073180  0.592650  1.0  0.1074
  H  H22  1  0.381620  0.573180  0.092650  1.0  0.1074
  H  H23  1  0.618380  0.426820  0.092650  1.0  0.1077
  H  H24  1  0.118380  0.926820  0.592650  1.0  0.1077
  H  H25  1  0.806000  0.250000  0.625000  1.0  0.3812
  H  H26  1  0.306000  0.750000  0.125000  1.0  0.3812
  H  H27  1  0.694000  0.250000  0.125000  1.0  0.3807
  H  H28  1  0.194000  0.750000  0.625000  1.0  0.3807
  H  H29  1  0.750000  0.306000  0.875000  1.0  0.3847
  H  H30  1  0.250000  0.806000  0.375000  1.0  0.3847
  H  H31  1  0.750000  0.194000  0.375000  1.0  0.3846
  H  H32  1  0.250000  0.694000  0.875000  1.0  0.3846
  H  H33  1  0.500000  0.500000  0.626000  1.0  0.1126
  H  H34  1  0.000000  0.000000  0.126000  1.0  0.1133
  H  H35  1  0.500000  0.000000  0.876000  1.0  0.1126
  H  H36  1  0.000000  0.500000  0.376000  1.0  0.1126
  H  H37  1  0.000000  0.500000  0.124000  1.0  0.1123
  H  H38  1  0.500000  0.000000  0.624000  1.0  0.1123
  H  H39  1  0.000000  0.000000  0.874000  1.0  0.1129
  H  H40  1  0.500000  0.500000  0.374000  1.0  0.1123
  C  C41  1  0.591230  0.360450  0.702420  1.0  0.7316
  C  C42  1  0.543270  0.433160  0.760170  1.0  -0.1399
  C  C43  1  0.546780  0.432760  0.879180  1.0  -0.0798
  C  C44  1  0.091230  0.860450  0.202420  1.0  0.7316
  C  C45  1  0.043270  0.933160  0.260170  1.0  -0.1399
  C  C46  1  0.046780  0.932760  0.379180  1.0  -0.0798
  C  C47  1  0.908770  0.139550  0.202420  1.0  0.7326
  C  C48  1  0.956730  0.066840  0.260170  1.0  -0.1436
  C  C49  1  0.953220  0.067240  0.379180  1.0  -0.0797
  C  C50  1  0.408770  0.639550  0.702420  1.0  0.7326
  C  C51  1  0.456730  0.566840  0.760170  1.0  -0.1436
  C  C52  1  0.453220  0.567240  0.879180  1.0  -0.0797
  C  C53  1  0.639550  0.091230  0.952420  1.0  0.7309
  C  C54  1  0.566840  0.043270  0.010170  1.0  -0.1392
  C  C55  1  0.567240  0.046780  0.129180  1.0  -0.081
  C  C56  1  0.139550  0.591230  0.452420  1.0  0.7309
  C  C57  1  0.066840  0.543270  0.510170  1.0  -0.1392
  C  C58  1  0.067240  0.546780  0.629180  1.0  -0.081
  C  C59  1  0.860450  0.408770  0.452420  1.0  0.7298
  C  C60  1  0.933160  0.456730  0.510170  1.0  -0.1424
  C  C61  1  0.932760  0.453220  0.629180  1.0  -0.0815
  C  C62  1  0.360450  0.908770  0.952420  1.0  0.7298
  C  C63  1  0.433160  0.956730  0.010170  1.0  -0.1424
  C  C64  1  0.432760  0.953220  0.129180  1.0  -0.0815
  C  C65  1  0.908770  0.360450  0.047580  1.0  0.732
  C  C66  1  0.956730  0.433160  0.989830  1.0  -0.139
  C  C67  1  0.953220  0.432760  0.870820  1.0  -0.0811
  C  C68  1  0.408770  0.860450  0.547580  1.0  0.732
  C  C69  1  0.456730  0.933160  0.489830  1.0  -0.139
  C  C70  1  0.453220  0.932760  0.370820  1.0  -0.0811
  C  C71  1  0.591230  0.139550  0.547580  1.0  0.7324
  C  C72  1  0.543270  0.066840  0.489830  1.0  -0.1437
  C  C73  1  0.546780  0.067240  0.370820  1.0  -0.0794
  C  C74  1  0.091230  0.639550  0.047580  1.0  0.7324
  C  C75  1  0.043270  0.566840  0.989830  1.0  -0.1437
  C  C76  1  0.046780  0.567240  0.870820  1.0  -0.0794
  C  C77  1  0.860450  0.091230  0.797580  1.0  0.7307
  C  C78  1  0.933160  0.043270  0.739830  1.0  -0.1382
  C  C79  1  0.932760  0.046780  0.620820  1.0  -0.0816
  C  C80  1  0.360450  0.591230  0.297580  1.0  0.7307
  C  C81  1  0.433160  0.543270  0.239830  1.0  -0.1382
  C  C82  1  0.432760  0.546780  0.120820  1.0  -0.0816
  C  C83  1  0.639550  0.408770  0.297580  1.0  0.7299
  C  C84  1  0.566840  0.456730  0.239830  1.0  -0.1427
  C  C85  1  0.567240  0.453220  0.120820  1.0  -0.0815
  C  C86  1  0.139550  0.908770  0.797580  1.0  0.7299
  C  C87  1  0.066840  0.956730  0.739830  1.0  -0.1427
  C  C88  1  0.067240  0.953220  0.620820  1.0  -0.0815
  C  C89  1  0.500000  0.500000  0.703330  1.0  0.0182
  C  C90  1  0.500000  0.500000  0.936200  1.0  -0.0748
  C  C91  1  0.000000  0.000000  0.203330  1.0  0.0182
  C  C92  1  0.000000  0.000000  0.436200  1.0  -0.0748
  C  C93  1  0.500000  0.000000  0.953330  1.0  0.0182
  C  C94  1  0.500000  0.000000  0.186200  1.0  -0.0748
  C  C95  1  0.000000  0.500000  0.453330  1.0  0.0182
  C  C96  1  0.000000  0.500000  0.686200  1.0  -0.0748
  C  C97  1  0.000000  0.500000  0.046670  1.0  0.0168
  C  C98  1  0.000000  0.500000  0.813800  1.0  -0.0741
  C  C99  1  0.500000  0.000000  0.546670  1.0  0.0168
  C  C100  1  0.500000  0.000000  0.313800  1.0  -0.0741
  C  C101  1  0.000000  0.000000  0.796670  1.0  0.0168
  C  C102  1  0.000000  0.000000  0.563800  1.0  -0.0741
  C  C103  1  0.500000  0.500000  0.296670  1.0  0.0168
  C  C104  1  0.500000  0.500000  0.063800  1.0  -0.0741
  O  O105  1  0.600880  0.289650  0.755990  1.0  -0.5932
  O  O106  1  0.618030  0.379950  0.608960  1.0  -0.5874
  O  O107  1  0.100880  0.789650  0.255990  1.0  -0.5932
  O  O108  1  0.118030  0.879950  0.108960  1.0  -0.5874
  O  O109  1  0.899120  0.210350  0.255990  1.0  -0.5929
  O  O110  1  0.881970  0.120050  0.108960  1.0  -0.5886
  O  O111  1  0.399120  0.710350  0.755990  1.0  -0.5929
  O  O112  1  0.381970  0.620050  0.608960  1.0  -0.5886
  O  O113  1  0.710350  0.100880  0.005990  1.0  -0.5919
  O  O114  1  0.620050  0.118030  0.858960  1.0  -0.5866
  O  O115  1  0.210350  0.600880  0.505990  1.0  -0.5919
  O  O116  1  0.120050  0.618030  0.358960  1.0  -0.5866
  O  O117  1  0.789650  0.399120  0.505990  1.0  -0.5929
  O  O118  1  0.879950  0.381970  0.358960  1.0  -0.5865
  O  O119  1  0.289650  0.899120  0.005990  1.0  -0.5929
  O  O120  1  0.379950  0.881970  0.858960  1.0  -0.5865
  O  O121  1  0.899120  0.289650  0.994010  1.0  -0.5931
  O  O122  1  0.881970  0.379950  0.141040  1.0  -0.5871
  O  O123  1  0.399120  0.789650  0.494010  1.0  -0.5931
  O  O124  1  0.381970  0.879950  0.641040  1.0  -0.5871
  O  O125  1  0.600880  0.210350  0.494010  1.0  -0.5943
  O  O126  1  0.618030  0.120050  0.641040  1.0  -0.5861
  O  O127  1  0.100880  0.710350  0.994010  1.0  -0.5943
  O  O128  1  0.118030  0.620050  0.141040  1.0  -0.5861
  O  O129  1  0.789650  0.100880  0.744010  1.0  -0.5918
  O  O130  1  0.879950  0.118030  0.891040  1.0  -0.5855
  O  O131  1  0.289650  0.600880  0.244010  1.0  -0.5918
  O  O132  1  0.379950  0.618030  0.391040  1.0  -0.5855
  O  O133  1  0.710350  0.399120  0.244010  1.0  -0.5931
  O  O134  1  0.620050  0.381970  0.391040  1.0  -0.5855
  O  O135  1  0.210350  0.899120  0.744010  1.0  -0.5931
  O  O136  1  0.120050  0.881970  0.891040  1.0  -0.5855
  O  O137  1  0.744700  0.250000  0.625000  1.0  -1.0769
  O  O138  1  0.244700  0.750000  0.125000  1.0  -1.0769
  O  O139  1  0.755300  0.250000  0.125000  1.0  -1.0741
  O  O140  1  0.255300  0.750000  0.625000  1.0  -1.0741
  O  O141  1  0.750000  0.244700  0.875000  1.0  -1.0759
  O  O142  1  0.250000  0.744700  0.375000  1.0  -1.0759
  O  O143  1  0.750000  0.255300  0.375000  1.0  -1.0789
  O  O144  1  0.250000  0.755300  0.875000  1.0  -1.0789
