# generated using pymatgen
data_ZnH8C12(IN2)2
_symmetry_space_group_name_H-M   'P 1'
_cell_length_a   27.64790000
_cell_length_b   13.75000000
_cell_length_c   45.71400000
_cell_angle_alpha   90.00000000
_cell_angle_beta   90.00000000
_cell_angle_gamma   90.00000000
_symmetry_Int_Tables_number   1
_chemical_formula_structural   ZnH8C12(IN2)2
_chemical_formula_sum   'Zn24 H192 C288 I48 N96'
_cell_volume   17378.57138325
_cell_formula_units_Z   24
loop_
 _symmetry_equiv_pos_site_id
 _symmetry_equiv_pos_as_xyz
  1  'x, y, z'
loop_
 _atom_site_type_symbol
 _atom_site_label
 _atom_site_symmetry_multiplicity
 _atom_site_fract_x
 _atom_site_fract_y
 _atom_site_fract_z
 _atom_site_occupancy
 _atom_site_charge
  Zn  Zn1  1  0.050750  0.855700  0.575330  1.0  0.8808
  Zn  Zn2  1  0.245470  0.846350  0.313450  1.0  0.8531
  Zn  Zn3  1  0.027680  0.638470  0.411310  1.0  0.8493
  Zn  Zn4  1  0.449250  0.144300  0.075330  1.0  0.8803
  Zn  Zn5  1  0.254530  0.153650  0.813450  1.0  0.8513
  Zn  Zn6  1  0.472320  0.361530  0.911310  1.0  0.8514
  Zn  Zn7  1  0.949250  0.355700  0.924670  1.0  0.8782
  Zn  Zn8  1  0.754530  0.346350  0.186550  1.0  0.8526
  Zn  Zn9  1  0.972320  0.138470  0.088690  1.0  0.8507
  Zn  Zn10  1  0.550750  0.644300  0.424670  1.0  0.879
  Zn  Zn11  1  0.745470  0.653650  0.686550  1.0  0.8516
  Zn  Zn12  1  0.527680  0.861530  0.588690  1.0  0.8494
  Zn  Zn13  1  0.949250  0.144300  0.424670  1.0  0.8788
  Zn  Zn14  1  0.754530  0.153650  0.686550  1.0  0.8515
  Zn  Zn15  1  0.972320  0.361530  0.588690  1.0  0.8513
  Zn  Zn16  1  0.550750  0.855700  0.924670  1.0  0.879
  Zn  Zn17  1  0.745470  0.846350  0.186550  1.0  0.8528
  Zn  Zn18  1  0.527680  0.638470  0.088690  1.0  0.8494
  Zn  Zn19  1  0.050750  0.644300  0.075330  1.0  0.8805
  Zn  Zn20  1  0.245470  0.653650  0.813450  1.0  0.8515
  Zn  Zn21  1  0.027680  0.861530  0.911310  1.0  0.8496
  Zn  Zn22  1  0.449250  0.355700  0.575330  1.0  0.8802
  Zn  Zn23  1  0.254530  0.346350  0.313450  1.0  0.8529
  Zn  Zn24  1  0.472320  0.138470  0.411310  1.0  0.8506
  H  H25  1  0.033300  0.048900  0.546700  1.0  0.0938
  H  H26  1  0.056100  0.134000  0.505300  1.0  0.115
  H  H27  1  0.116900  0.889000  0.473200  1.0  0.1283
  H  H28  1  0.092800  0.809300  0.515500  1.0  0.0955
  H  H29  1  0.071900  0.342700  0.470500  1.0  0.1174
  H  H30  1  0.044300  0.500500  0.462200  1.0  0.0959
  H  H31  1  0.078500  0.482000  0.378600  1.0  0.0922
  H  H32  1  0.108100  0.325300  0.385200  1.0  0.1198
  H  H33  1  0.185500  0.144200  0.366000  1.0  0.1138
  H  H34  1  0.223900  0.056100  0.329300  1.0  0.0885
  H  H35  1  0.190300  0.808500  0.367400  1.0  0.0905
  H  H36  1  0.153000  0.889300  0.406000  1.0  0.1264
  H  H37  1  0.334600  0.072400  0.776800  1.0  0.0837
  H  H38  1  0.346600  0.012700  0.729700  1.0  0.1206
  H  H39  1  0.200900  0.994500  0.720900  1.0  0.1208
  H  H40  1  0.193500  0.051500  0.768500  1.0  0.0886
  H  H41  1  0.414800  0.942500  0.671800  1.0  0.1215
  H  H42  1  0.488200  0.915400  0.648300  1.0  0.0901
  H  H43  1  0.424000  0.895000  0.571700  1.0  0.0869
  H  H44  1  0.348600  0.916900  0.592700  1.0  0.121
  H  H45  1  0.231100  0.890000  0.589100  1.0  0.1213
  H  H46  1  0.160000  0.862600  0.564000  1.0  0.0982
  H  H47  1  0.082400  0.934800  0.633100  1.0  0.0933
  H  H48  1  0.151500  0.957300  0.660900  1.0  0.1216
  H  H49  1  0.466700  0.951100  0.046700  1.0  0.0934
  H  H50  1  0.443900  0.866000  0.005300  1.0  0.1148
  H  H51  1  0.383100  0.111000  0.973200  1.0  0.1282
  H  H52  1  0.407200  0.190700  0.015500  1.0  0.0952
  H  H53  1  0.428100  0.657300  0.970500  1.0  0.118
  H  H54  1  0.455700  0.499500  0.962200  1.0  0.0966
  H  H55  1  0.421500  0.518000  0.878600  1.0  0.0928
  H  H56  1  0.391900  0.674700  0.885200  1.0  0.1195
  H  H57  1  0.314500  0.855800  0.866000  1.0  0.1135
  H  H58  1  0.276100  0.943900  0.829300  1.0  0.0885
  H  H59  1  0.309700  0.191500  0.867400  1.0  0.0898
  H  H60  1  0.347000  0.110700  0.906000  1.0  0.1262
  H  H61  1  0.165400  0.927600  0.276800  1.0  0.084
  H  H62  1  0.153400  0.987300  0.229700  1.0  0.12
  H  H63  1  0.299100  0.005500  0.220900  1.0  0.1206
  H  H64  1  0.306500  0.948500  0.268500  1.0  0.0884
  H  H65  1  0.085200  0.057500  0.171800  1.0  0.1219
  H  H66  1  0.011800  0.084600  0.148300  1.0  0.0902
  H  H67  1  0.076000  0.105000  0.071700  1.0  0.0868
  H  H68  1  0.151400  0.083100  0.092700  1.0  0.1208
  H  H69  1  0.268900  0.110000  0.089100  1.0  0.1214
  H  H70  1  0.340000  0.137400  0.064000  1.0  0.098
  H  H71  1  0.417600  0.065200  0.133100  1.0  0.0926
  H  H72  1  0.348500  0.042700  0.160900  1.0  0.1213
  H  H73  1  0.966700  0.548900  0.953300  1.0  0.0934
  H  H74  1  0.943900  0.634000  0.994700  1.0  0.1149
  H  H75  1  0.883100  0.389000  0.026800  1.0  0.1282
  H  H76  1  0.907200  0.309300  0.984500  1.0  0.0954
  H  H77  1  0.928100  0.842700  0.029500  1.0  0.118
  H  H78  1  0.955700  0.000500  0.037800  1.0  0.0955
  H  H79  1  0.921500  0.982000  0.121400  1.0  0.0922
  H  H80  1  0.891900  0.825300  0.114800  1.0  0.1196
  H  H81  1  0.814500  0.644200  0.134000  1.0  0.1137
  H  H82  1  0.776100  0.556100  0.170700  1.0  0.0884
  H  H83  1  0.809700  0.308500  0.132600  1.0  0.091
  H  H84  1  0.847000  0.389300  0.094000  1.0  0.126
  H  H85  1  0.665400  0.572400  0.723200  1.0  0.084
  H  H86  1  0.653400  0.512700  0.770300  1.0  0.1199
  H  H87  1  0.799100  0.494500  0.779100  1.0  0.1205
  H  H88  1  0.806500  0.551500  0.731500  1.0  0.0878
  H  H89  1  0.585200  0.442500  0.828200  1.0  0.1217
  H  H90  1  0.511800  0.415400  0.851700  1.0  0.0895
  H  H91  1  0.576000  0.395000  0.928300  1.0  0.0881
  H  H92  1  0.651400  0.416900  0.907300  1.0  0.121
  H  H93  1  0.768900  0.390000  0.910900  1.0  0.1217
  H  H94  1  0.840000  0.362600  0.936000  1.0  0.0976
  H  H95  1  0.917600  0.434800  0.866900  1.0  0.0921
  H  H96  1  0.848500  0.457300  0.839100  1.0  0.1216
  H  H97  1  0.533300  0.451100  0.453300  1.0  0.0925
  H  H98  1  0.556100  0.366000  0.494700  1.0  0.1151
  H  H99  1  0.616900  0.611000  0.526800  1.0  0.1277
  H  H100  1  0.592800  0.690700  0.484500  1.0  0.0951
  H  H101  1  0.571900  0.157300  0.529500  1.0  0.1178
  H  H102  1  0.544300  0.999500  0.537800  1.0  0.0956
  H  H103  1  0.578500  0.018000  0.621400  1.0  0.0928
  H  H104  1  0.608100  0.174700  0.614800  1.0  0.1196
  H  H105  1  0.685500  0.355800  0.634000  1.0  0.1136
  H  H106  1  0.723900  0.443900  0.670700  1.0  0.0885
  H  H107  1  0.690300  0.691500  0.632600  1.0  0.0894
  H  H108  1  0.653000  0.610700  0.594000  1.0  0.1268
  H  H109  1  0.834600  0.427600  0.223200  1.0  0.0841
  H  H110  1  0.846600  0.487300  0.270300  1.0  0.1203
  H  H111  1  0.700900  0.505500  0.279100  1.0  0.1208
  H  H112  1  0.693500  0.448500  0.231500  1.0  0.0882
  H  H113  1  0.914800  0.557500  0.328200  1.0  0.1217
  H  H114  1  0.988200  0.584600  0.351700  1.0  0.0894
  H  H115  1  0.924000  0.605000  0.428300  1.0  0.0881
  H  H116  1  0.848600  0.583100  0.407300  1.0  0.1208
  H  H117  1  0.731100  0.610000  0.410900  1.0  0.1209
  H  H118  1  0.660000  0.637400  0.436000  1.0  0.0978
  H  H119  1  0.582400  0.565200  0.366900  1.0  0.0924
  H  H120  1  0.651500  0.542700  0.339100  1.0  0.1217
  H  H121  1  0.966700  0.951100  0.453300  1.0  0.0931
  H  H122  1  0.943900  0.866000  0.494700  1.0  0.115
  H  H123  1  0.883100  0.111000  0.526800  1.0  0.1279
  H  H124  1  0.907200  0.190700  0.484500  1.0  0.095
  H  H125  1  0.928100  0.657300  0.529500  1.0  0.1181
  H  H126  1  0.955700  0.499500  0.537800  1.0  0.0957
  H  H127  1  0.921500  0.518000  0.621400  1.0  0.093
  H  H128  1  0.891900  0.674700  0.614800  1.0  0.1195
  H  H129  1  0.814500  0.855800  0.634000  1.0  0.1137
  H  H130  1  0.776100  0.943900  0.670700  1.0  0.0886
  H  H131  1  0.809700  0.191500  0.632600  1.0  0.0898
  H  H132  1  0.847000  0.110700  0.594000  1.0  0.1263
  H  H133  1  0.665400  0.927600  0.223200  1.0  0.0838
  H  H134  1  0.653400  0.987300  0.270300  1.0  0.1198
  H  H135  1  0.799100  0.005500  0.279100  1.0  0.1205
  H  H136  1  0.806500  0.948500  0.231500  1.0  0.0878
  H  H137  1  0.585200  0.057500  0.328200  1.0  0.1217
  H  H138  1  0.511800  0.084600  0.351700  1.0  0.0897
  H  H139  1  0.576000  0.105000  0.428300  1.0  0.0878
  H  H140  1  0.651400  0.083100  0.407300  1.0  0.1209
  H  H141  1  0.768900  0.110000  0.410900  1.0  0.1214
  H  H142  1  0.840000  0.137400  0.436000  1.0  0.0973
  H  H143  1  0.917600  0.065200  0.366900  1.0  0.0921
  H  H144  1  0.848500  0.042700  0.339100  1.0  0.1218
  H  H145  1  0.533300  0.048900  0.953300  1.0  0.0933
  H  H146  1  0.556100  0.134000  0.994700  1.0  0.1149
  H  H147  1  0.616900  0.889000  0.026800  1.0  0.1278
  H  H148  1  0.592800  0.809300  0.984500  1.0  0.0957
  H  H149  1  0.571900  0.342700  0.029500  1.0  0.1179
  H  H150  1  0.544300  0.500500  0.037800  1.0  0.0954
  H  H151  1  0.578500  0.482000  0.121400  1.0  0.0922
  H  H152  1  0.608100  0.325300  0.114800  1.0  0.1197
  H  H153  1  0.685500  0.144200  0.134000  1.0  0.1135
  H  H154  1  0.723900  0.056100  0.170700  1.0  0.0885
  H  H155  1  0.690300  0.808500  0.132600  1.0  0.0905
  H  H156  1  0.653000  0.889300  0.094000  1.0  0.1263
  H  H157  1  0.834600  0.072400  0.723200  1.0  0.0843
  H  H158  1  0.846600  0.012700  0.770300  1.0  0.1204
  H  H159  1  0.700900  0.994500  0.779100  1.0  0.1208
  H  H160  1  0.693500  0.051500  0.731500  1.0  0.0883
  H  H161  1  0.914800  0.942500  0.828200  1.0  0.1218
  H  H162  1  0.988200  0.915400  0.851700  1.0  0.0894
  H  H163  1  0.924000  0.895000  0.928300  1.0  0.0883
  H  H164  1  0.848600  0.916900  0.907300  1.0  0.1208
  H  H165  1  0.731100  0.890000  0.910900  1.0  0.1212
  H  H166  1  0.660000  0.862600  0.936000  1.0  0.0974
  H  H167  1  0.582400  0.934800  0.866900  1.0  0.0923
  H  H168  1  0.651500  0.957300  0.839100  1.0  0.1215
  H  H169  1  0.033300  0.451100  0.046700  1.0  0.093
  H  H170  1  0.056100  0.366000  0.005300  1.0  0.1149
  H  H171  1  0.116900  0.611000  0.973200  1.0  0.1285
  H  H172  1  0.092800  0.690700  0.015500  1.0  0.0953
  H  H173  1  0.071900  0.157300  0.970500  1.0  0.1176
  H  H174  1  0.044300  0.999500  0.962200  1.0  0.0965
  H  H175  1  0.078500  0.018000  0.878600  1.0  0.0927
  H  H176  1  0.108100  0.174700  0.885200  1.0  0.1197
  H  H177  1  0.185500  0.355800  0.866000  1.0  0.1134
  H  H178  1  0.223900  0.443900  0.829300  1.0  0.0883
  H  H179  1  0.190300  0.691500  0.867400  1.0  0.0894
  H  H180  1  0.153000  0.610700  0.906000  1.0  0.1267
  H  H181  1  0.334600  0.427600  0.276800  1.0  0.0839
  H  H182  1  0.346600  0.487300  0.229700  1.0  0.1205
  H  H183  1  0.200900  0.505500  0.220900  1.0  0.121
  H  H184  1  0.193500  0.448500  0.268500  1.0  0.0889
  H  H185  1  0.414800  0.557500  0.171800  1.0  0.1216
  H  H186  1  0.488200  0.584600  0.148300  1.0  0.09
  H  H187  1  0.424000  0.605000  0.071700  1.0  0.0868
  H  H188  1  0.348600  0.583100  0.092700  1.0  0.121
  H  H189  1  0.231100  0.610000  0.089100  1.0  0.1212
  H  H190  1  0.160000  0.637400  0.064000  1.0  0.0986
  H  H191  1  0.082400  0.565200  0.133100  1.0  0.0933
  H  H192  1  0.151500  0.542700  0.160900  1.0  0.1219
  H  H193  1  0.466700  0.548900  0.546700  1.0  0.094
  H  H194  1  0.443900  0.634000  0.505300  1.0  0.1149
  H  H195  1  0.383100  0.389000  0.473200  1.0  0.1282
  H  H196  1  0.407200  0.309300  0.515500  1.0  0.0953
  H  H197  1  0.428100  0.842700  0.470500  1.0  0.1177
  H  H198  1  0.455700  0.000500  0.462200  1.0  0.096
  H  H199  1  0.421500  0.982000  0.378600  1.0  0.0921
  H  H200  1  0.391900  0.825300  0.385200  1.0  0.1196
  H  H201  1  0.314500  0.644200  0.366000  1.0  0.114
  H  H202  1  0.276100  0.556100  0.329300  1.0  0.0886
  H  H203  1  0.309700  0.308500  0.367400  1.0  0.091
  H  H204  1  0.347000  0.389300  0.406000  1.0  0.1262
  H  H205  1  0.165400  0.572400  0.776800  1.0  0.0837
  H  H206  1  0.153400  0.512700  0.729700  1.0  0.1201
  H  H207  1  0.299100  0.494500  0.720900  1.0  0.1205
  H  H208  1  0.306500  0.551500  0.768500  1.0  0.0881
  H  H209  1  0.085200  0.442500  0.671800  1.0  0.1218
  H  H210  1  0.011800  0.415400  0.648300  1.0  0.0901
  H  H211  1  0.076000  0.395000  0.571700  1.0  0.0871
  H  H212  1  0.151400  0.416900  0.592700  1.0  0.1208
  H  H213  1  0.268900  0.390000  0.589100  1.0  0.1216
  H  H214  1  0.340000  0.362600  0.564000  1.0  0.0981
  H  H215  1  0.417600  0.434800  0.633100  1.0  0.0926
  H  H216  1  0.348500  0.457300  0.660900  1.0  0.1209
  C  C217  1  0.051000  0.016400  0.531830  1.0  0.111
  C  C218  1  0.064700  0.067400  0.507180  1.0  -0.0902
  C  C219  1  0.090610  0.022500  0.485390  1.0  -0.0874
  C  C220  1  0.100500  0.923400  0.488240  1.0  -0.1472
  C  C221  1  0.085800  0.876600  0.513460  1.0  0.1354
  C  C222  1  0.106580  0.077000  0.458990  1.0  0.3967
  C  C223  1  0.108370  0.215200  0.432600  1.0  0.4433
  C  C224  1  0.142360  0.079000  0.414760  1.0  0.3983
  C  C225  1  0.093090  0.318100  0.428540  1.0  -0.0944
  C  C226  1  0.073900  0.370400  0.451470  1.0  -0.1087
  C  C227  1  0.057300  0.464300  0.446350  1.0  0.1269
  C  C228  1  0.077400  0.453700  0.397500  1.0  0.1393
  C  C229  1  0.094900  0.360100  0.401320  1.0  -0.0923
  C  C230  1  0.166490  0.026600  0.390590  1.0  -0.1157
  C  C231  1  0.186800  0.075300  0.367030  1.0  -0.1302
  C  C232  1  0.209100  0.022200  0.345050  1.0  0.1424
  C  C233  1  0.189700  0.877600  0.367430  1.0  0.137
  C  C234  1  0.167400  0.925200  0.390520  1.0  -0.1369
  C  C235  1  0.307180  0.057300  0.765140  1.0  0.1357
  C  C236  1  0.314740  0.022100  0.737000  1.0  -0.1539
  C  C237  1  0.274580  0.001000  0.719770  1.0  -0.1237
  C  C238  1  0.228900  0.011000  0.731830  1.0  -0.1153
  C  C239  1  0.224820  0.045500  0.760170  1.0  0.1326
  C  C240  1  0.279640  0.972800  0.688520  1.0  0.4075
  C  C241  1  0.325440  0.941900  0.648740  1.0  0.3976
  C  C242  1  0.243750  0.939700  0.645280  1.0  0.4181
  C  C243  1  0.373220  0.930300  0.634760  1.0  -0.1022
  C  C244  1  0.415710  0.931400  0.651250  1.0  -0.1573
  C  C245  1  0.459300  0.915900  0.636980  1.0  0.1465
  C  C246  1  0.421900  0.903300  0.592280  1.0  0.1366
  C  C247  1  0.376830  0.916800  0.604620  1.0  -0.1386
  C  C248  1  0.199480  0.926200  0.627990  1.0  -0.1063
  C  C249  1  0.200940  0.898200  0.598710  1.0  -0.135
  C  C250  1  0.158410  0.882600  0.583870  1.0  0.1364
  C  C251  1  0.113110  0.923900  0.624380  1.0  0.1285
  C  C252  1  0.154050  0.938800  0.640980  1.0  -0.1332
  C  C253  1  0.449000  0.983600  0.031830  1.0  0.1111
  C  C254  1  0.435300  0.932600  0.007180  1.0  -0.0902
  C  C255  1  0.409390  0.977500  0.985390  1.0  -0.0886
  C  C256  1  0.399500  0.076600  0.988240  1.0  -0.1482
  C  C257  1  0.414200  0.123400  0.013460  1.0  0.1378
  C  C258  1  0.393420  0.923000  0.958990  1.0  0.3974
  C  C259  1  0.391630  0.784800  0.932600  1.0  0.4434
  C  C260  1  0.357640  0.921000  0.914760  1.0  0.3986
  C  C261  1  0.406910  0.681900  0.928540  1.0  -0.0937
  C  C262  1  0.426100  0.629600  0.951470  1.0  -0.1095
  C  C263  1  0.442700  0.535700  0.946350  1.0  0.1296
  C  C264  1  0.422600  0.546300  0.897500  1.0  0.1398
  C  C265  1  0.405100  0.639900  0.901320  1.0  -0.0912
  C  C266  1  0.333510  0.973400  0.890590  1.0  -0.1159
  C  C267  1  0.313200  0.924700  0.867030  1.0  -0.1287
  C  C268  1  0.290900  0.977800  0.845050  1.0  0.1432
  C  C269  1  0.310300  0.122400  0.867430  1.0  0.1374
  C  C270  1  0.332600  0.074800  0.890520  1.0  -0.1366
  C  C271  1  0.192820  0.942700  0.265140  1.0  0.1368
  C  C272  1  0.185260  0.977900  0.237000  1.0  -0.155
  C  C273  1  0.225420  0.999000  0.219770  1.0  -0.1239
  C  C274  1  0.271100  0.989000  0.231830  1.0  -0.1121
  C  C275  1  0.275180  0.954500  0.260170  1.0  0.1324
  C  C276  1  0.220360  0.027200  0.188520  1.0  0.4075
  C  C277  1  0.174560  0.058100  0.148740  1.0  0.3973
  C  C278  1  0.256250  0.060300  0.145280  1.0  0.4184
  C  C279  1  0.126780  0.069700  0.134760  1.0  -0.1022
  C  C280  1  0.084290  0.068600  0.151250  1.0  -0.1576
  C  C281  1  0.040700  0.084100  0.136980  1.0  0.1466
  C  C282  1  0.078100  0.096700  0.092280  1.0  0.1359
  C  C283  1  0.123170  0.083200  0.104620  1.0  -0.1386
  C  C284  1  0.300520  0.073800  0.127990  1.0  -0.1071
  C  C285  1  0.299060  0.101800  0.098710  1.0  -0.1356
  C  C286  1  0.341590  0.117400  0.083870  1.0  0.137
  C  C287  1  0.386890  0.076100  0.124380  1.0  0.1282
  C  C288  1  0.345950  0.061200  0.140980  1.0  -0.1326
  C  C289  1  0.949000  0.516400  0.968170  1.0  0.1117
  C  C290  1  0.935300  0.567400  0.992820  1.0  -0.0892
  C  C291  1  0.909390  0.522500  0.014610  1.0  -0.0879
  C  C292  1  0.899500  0.423400  0.011760  1.0  -0.1478
  C  C293  1  0.914200  0.376600  0.986540  1.0  0.1368
  C  C294  1  0.893420  0.577000  0.041010  1.0  0.3968
  C  C295  1  0.891630  0.715200  0.067400  1.0  0.4436
  C  C296  1  0.857640  0.579000  0.085240  1.0  0.3987
  C  C297  1  0.906910  0.818100  0.071460  1.0  -0.094
  C  C298  1  0.926100  0.870400  0.048530  1.0  -0.1073
  C  C299  1  0.942700  0.964300  0.053650  1.0  0.1279
  C  C300  1  0.922600  0.953700  0.102500  1.0  0.1398
  C  C301  1  0.905100  0.860100  0.098680  1.0  -0.0921
  C  C302  1  0.833510  0.526600  0.109410  1.0  -0.1157
  C  C303  1  0.813200  0.575300  0.132970  1.0  -0.1298
  C  C304  1  0.790900  0.522200  0.154950  1.0  0.1431
  C  C305  1  0.810300  0.377600  0.132570  1.0  0.1362
  C  C306  1  0.832600  0.425200  0.109480  1.0  -0.1364
  C  C307  1  0.692820  0.557300  0.734860  1.0  0.136
  C  C308  1  0.685260  0.522100  0.763000  1.0  -0.1553
  C  C309  1  0.725420  0.501000  0.780230  1.0  -0.1234
  C  C310  1  0.771100  0.511000  0.768170  1.0  -0.1123
  C  C311  1  0.775180  0.545500  0.739830  1.0  0.1323
  C  C312  1  0.720360  0.472800  0.811480  1.0  0.4071
  C  C313  1  0.674560  0.441900  0.851260  1.0  0.3971
  C  C314  1  0.756250  0.439700  0.854720  1.0  0.4187
  C  C315  1  0.626780  0.430300  0.865240  1.0  -0.1018
  C  C316  1  0.584290  0.431400  0.848750  1.0  -0.1544
  C  C317  1  0.540700  0.415900  0.863020  1.0  0.1468
  C  C318  1  0.578100  0.403300  0.907720  1.0  0.1352
  C  C319  1  0.623170  0.416800  0.895380  1.0  -0.1377
  C  C320  1  0.800520  0.426200  0.872010  1.0  -0.1068
  C  C321  1  0.799060  0.398200  0.901290  1.0  -0.136
  C  C322  1  0.841590  0.382600  0.916130  1.0  0.1364
  C  C323  1  0.886890  0.423900  0.875620  1.0  0.1277
  C  C324  1  0.845950  0.438800  0.859020  1.0  -0.1329
  C  C325  1  0.551000  0.483600  0.468170  1.0  0.1117
  C  C326  1  0.564700  0.432600  0.492820  1.0  -0.0903
  C  C327  1  0.590610  0.477500  0.514610  1.0  -0.0888
  C  C328  1  0.600500  0.576600  0.511760  1.0  -0.1481
  C  C329  1  0.585800  0.623400  0.486540  1.0  0.1381
  C  C330  1  0.606580  0.423000  0.541010  1.0  0.3965
  C  C331  1  0.608370  0.284800  0.567400  1.0  0.4426
  C  C332  1  0.642360  0.421000  0.585240  1.0  0.3984
  C  C333  1  0.593090  0.181900  0.571460  1.0  -0.0947
  C  C334  1  0.573900  0.129600  0.548530  1.0  -0.1077
  C  C335  1  0.557300  0.035700  0.553650  1.0  0.1275
  C  C336  1  0.577400  0.046300  0.602500  1.0  0.1402
  C  C337  1  0.594900  0.139900  0.598680  1.0  -0.0912
  C  C338  1  0.666490  0.473400  0.609410  1.0  -0.1152
  C  C339  1  0.686800  0.424700  0.632970  1.0  -0.1288
  C  C340  1  0.709100  0.477800  0.654950  1.0  0.143
  C  C341  1  0.689700  0.622400  0.632570  1.0  0.1376
  C  C342  1  0.667400  0.574800  0.609480  1.0  -0.1372
  C  C343  1  0.807180  0.442700  0.234860  1.0  0.1354
  C  C344  1  0.814740  0.477900  0.263000  1.0  -0.1536
  C  C345  1  0.774580  0.499000  0.280230  1.0  -0.1234
  C  C346  1  0.728900  0.489000  0.268170  1.0  -0.1159
  C  C347  1  0.724820  0.454500  0.239830  1.0  0.1324
  C  C348  1  0.779640  0.527200  0.311480  1.0  0.407
  C  C349  1  0.825440  0.558100  0.351260  1.0  0.3977
  C  C350  1  0.743750  0.560300  0.354720  1.0  0.4184
  C  C351  1  0.873220  0.569700  0.365240  1.0  -0.102
  C  C352  1  0.915710  0.568600  0.348750  1.0  -0.1551
  C  C353  1  0.959300  0.584100  0.363020  1.0  0.1463
  C  C354  1  0.921900  0.596700  0.407720  1.0  0.1353
  C  C355  1  0.876830  0.583200  0.395380  1.0  -0.1391
  C  C356  1  0.699480  0.573800  0.372010  1.0  -0.1062
  C  C357  1  0.700940  0.601800  0.401290  1.0  -0.1349
  C  C358  1  0.658410  0.617400  0.416130  1.0  0.135
  C  C359  1  0.613110  0.576100  0.375620  1.0  0.1281
  C  C360  1  0.654050  0.561200  0.359020  1.0  -0.1313
  C  C361  1  0.949000  0.983600  0.468170  1.0  0.1112
  C  C362  1  0.935300  0.932600  0.492820  1.0  -0.0897
  C  C363  1  0.909390  0.977500  0.514610  1.0  -0.088
  C  C364  1  0.899500  0.076600  0.511760  1.0  -0.1491
  C  C365  1  0.914200  0.123400  0.486540  1.0  0.1385
  C  C366  1  0.893420  0.923000  0.541010  1.0  0.3971
  C  C367  1  0.891630  0.784800  0.567400  1.0  0.4433
  C  C368  1  0.857640  0.921000  0.585240  1.0  0.3988
  C  C369  1  0.906910  0.681900  0.571460  1.0  -0.0937
  C  C370  1  0.926100  0.629600  0.548530  1.0  -0.1071
  C  C371  1  0.942700  0.535700  0.553650  1.0  0.1286
  C  C372  1  0.922600  0.546300  0.602500  1.0  0.1405
  C  C373  1  0.905100  0.639900  0.598680  1.0  -0.0922
  C  C374  1  0.833510  0.973400  0.609410  1.0  -0.1158
  C  C375  1  0.813200  0.924700  0.632970  1.0  -0.1282
  C  C376  1  0.790900  0.977800  0.654950  1.0  0.1439
  C  C377  1  0.810300  0.122400  0.632570  1.0  0.1374
  C  C378  1  0.832600  0.074800  0.609480  1.0  -0.1365
  C  C379  1  0.692820  0.942700  0.234860  1.0  0.1357
  C  C380  1  0.685260  0.977900  0.263000  1.0  -0.1554
  C  C381  1  0.725420  0.999000  0.280230  1.0  -0.1237
  C  C382  1  0.771100  0.989000  0.268170  1.0  -0.1125
  C  C383  1  0.775180  0.954500  0.239830  1.0  0.132
  C  C384  1  0.720360  0.027200  0.311480  1.0  0.4071
  C  C385  1  0.674560  0.058100  0.351260  1.0  0.3973
  C  C386  1  0.756250  0.060300  0.354720  1.0  0.4187
  C  C387  1  0.626780  0.069700  0.365240  1.0  -0.1019
  C  C388  1  0.584290  0.068600  0.348750  1.0  -0.1541
  C  C389  1  0.540700  0.084100  0.363020  1.0  0.1471
  C  C390  1  0.578100  0.096700  0.407720  1.0  0.1349
  C  C391  1  0.623170  0.083200  0.395380  1.0  -0.1374
  C  C392  1  0.800520  0.073800  0.372010  1.0  -0.1069
  C  C393  1  0.799060  0.101800  0.401290  1.0  -0.1364
  C  C394  1  0.841590  0.117400  0.416130  1.0  0.1354
  C  C395  1  0.886890  0.076100  0.375620  1.0  0.1275
  C  C396  1  0.845950  0.061200  0.359020  1.0  -0.1326
  C  C397  1  0.551000  0.016400  0.968170  1.0  0.1124
  C  C398  1  0.564700  0.067400  0.992820  1.0  -0.09
  C  C399  1  0.590610  0.022500  0.014610  1.0  -0.089
  C  C400  1  0.600500  0.923400  0.011760  1.0  -0.1472
  C  C401  1  0.585800  0.876600  0.986540  1.0  0.1365
  C  C402  1  0.606580  0.077000  0.041010  1.0  0.3963
  C  C403  1  0.608370  0.215200  0.067400  1.0  0.443
  C  C404  1  0.642360  0.079000  0.085240  1.0  0.3983
  C  C405  1  0.593090  0.318100  0.071460  1.0  -0.0944
  C  C406  1  0.573900  0.370400  0.048530  1.0  -0.1077
  C  C407  1  0.557300  0.464300  0.053650  1.0  0.1271
  C  C408  1  0.577400  0.453700  0.102500  1.0  0.1395
  C  C409  1  0.594900  0.360100  0.098680  1.0  -0.0911
  C  C410  1  0.666490  0.026600  0.109410  1.0  -0.1152
  C  C411  1  0.686800  0.075300  0.132970  1.0  -0.1301
  C  C412  1  0.709100  0.022200  0.154950  1.0  0.1426
  C  C413  1  0.689700  0.877600  0.132570  1.0  0.1364
  C  C414  1  0.667400  0.925200  0.109480  1.0  -0.137
  C  C415  1  0.807180  0.057300  0.734860  1.0  0.1353
  C  C416  1  0.814740  0.022100  0.763000  1.0  -0.1537
  C  C417  1  0.774580  0.001000  0.780230  1.0  -0.1231
  C  C418  1  0.728900  0.011000  0.768170  1.0  -0.1157
  C  C419  1  0.724820  0.045500  0.739830  1.0  0.1325
  C  C420  1  0.779640  0.972800  0.811480  1.0  0.4071
  C  C421  1  0.825440  0.941900  0.851260  1.0  0.3976
  C  C422  1  0.743750  0.939700  0.854720  1.0  0.4184
  C  C423  1  0.873220  0.930300  0.865240  1.0  -0.1021
  C  C424  1  0.915710  0.931400  0.848750  1.0  -0.1552
  C  C425  1  0.959300  0.915900  0.863020  1.0  0.146
  C  C426  1  0.921900  0.903300  0.907720  1.0  0.1358
  C  C427  1  0.876830  0.916800  0.895380  1.0  -0.1393
  C  C428  1  0.699480  0.926200  0.872010  1.0  -0.106
  C  C429  1  0.700940  0.898200  0.901290  1.0  -0.1347
  C  C430  1  0.658410  0.882600  0.916130  1.0  0.1359
  C  C431  1  0.613110  0.923900  0.875620  1.0  0.1283
  C  C432  1  0.654050  0.938800  0.859020  1.0  -0.1318
  C  C433  1  0.051000  0.483600  0.031830  1.0  0.1115
  C  C434  1  0.064700  0.432600  0.007180  1.0  -0.0912
  C  C435  1  0.090610  0.477500  0.985390  1.0  -0.0872
  C  C436  1  0.100500  0.576600  0.988240  1.0  -0.1475
  C  C437  1  0.085800  0.623400  0.013460  1.0  0.1376
  C  C438  1  0.106580  0.423000  0.958990  1.0  0.3967
  C  C439  1  0.108370  0.284800  0.932600  1.0  0.4427
  C  C440  1  0.142360  0.421000  0.914760  1.0  0.3983
  C  C441  1  0.093090  0.181900  0.928540  1.0  -0.0949
  C  C442  1  0.073900  0.129600  0.951470  1.0  -0.1093
  C  C443  1  0.057300  0.035700  0.946350  1.0  0.1282
  C  C444  1  0.077400  0.046300  0.897500  1.0  0.1389
  C  C445  1  0.094900  0.139900  0.901320  1.0  -0.0925
  C  C446  1  0.166490  0.473400  0.890590  1.0  -0.1156
  C  C447  1  0.186800  0.424700  0.867030  1.0  -0.1293
  C  C448  1  0.209100  0.477800  0.845050  1.0  0.1422
  C  C449  1  0.189700  0.622400  0.867430  1.0  0.1376
  C  C450  1  0.167400  0.574800  0.890520  1.0  -0.1374
  C  C451  1  0.307180  0.442700  0.265140  1.0  0.1366
  C  C452  1  0.314740  0.477900  0.237000  1.0  -0.1538
  C  C453  1  0.274580  0.499000  0.219770  1.0  -0.1235
  C  C454  1  0.228900  0.489000  0.231830  1.0  -0.1152
  C  C455  1  0.224820  0.454500  0.260170  1.0  0.1331
  C  C456  1  0.279640  0.527200  0.188520  1.0  0.4075
  C  C457  1  0.325440  0.558100  0.148740  1.0  0.3978
  C  C458  1  0.243750  0.560300  0.145280  1.0  0.4182
  C  C459  1  0.373220  0.569700  0.134760  1.0  -0.1021
  C  C460  1  0.415710  0.568600  0.151250  1.0  -0.1572
  C  C461  1  0.459300  0.584100  0.136980  1.0  0.1468
  C  C462  1  0.421900  0.596700  0.092280  1.0  0.1365
  C  C463  1  0.376830  0.583200  0.104620  1.0  -0.1383
  C  C464  1  0.199480  0.573800  0.127990  1.0  -0.1064
  C  C465  1  0.200940  0.601800  0.098710  1.0  -0.1353
  C  C466  1  0.158410  0.617400  0.083870  1.0  0.1366
  C  C467  1  0.113110  0.576100  0.124380  1.0  0.1284
  C  C468  1  0.154050  0.561200  0.140980  1.0  -0.133
  C  C469  1  0.449000  0.516400  0.531830  1.0  0.1104
  C  C470  1  0.435300  0.567400  0.507180  1.0  -0.0896
  C  C471  1  0.409390  0.522500  0.485390  1.0  -0.0885
  C  C472  1  0.399500  0.423400  0.488240  1.0  -0.1473
  C  C473  1  0.414200  0.376600  0.513460  1.0  0.136
  C  C474  1  0.393420  0.577000  0.458990  1.0  0.3973
  C  C475  1  0.391630  0.715200  0.432600  1.0  0.4438
  C  C476  1  0.357640  0.579000  0.414760  1.0  0.3985
  C  C477  1  0.406910  0.818100  0.428540  1.0  -0.0938
  C  C478  1  0.426100  0.870400  0.451470  1.0  -0.1089
  C  C479  1  0.442700  0.964300  0.446350  1.0  0.128
  C  C480  1  0.422600  0.953700  0.397500  1.0  0.1403
  C  C481  1  0.405100  0.860100  0.401320  1.0  -0.0912
  C  C482  1  0.333510  0.526600  0.390590  1.0  -0.116
  C  C483  1  0.313200  0.575300  0.367030  1.0  -0.1299
  C  C484  1  0.290900  0.522200  0.345050  1.0  0.1431
  C  C485  1  0.310300  0.377600  0.367430  1.0  0.1367
  C  C486  1  0.332600  0.425200  0.390520  1.0  -0.1363
  C  C487  1  0.192820  0.557300  0.765140  1.0  0.1362
  C  C488  1  0.185260  0.522100  0.737000  1.0  -0.155
  C  C489  1  0.225420  0.501000  0.719770  1.0  -0.1241
  C  C490  1  0.271100  0.511000  0.731830  1.0  -0.112
  C  C491  1  0.275180  0.545500  0.760170  1.0  0.1321
  C  C492  1  0.220360  0.472800  0.688520  1.0  0.4076
  C  C493  1  0.174560  0.441900  0.648740  1.0  0.3971
  C  C494  1  0.256250  0.439700  0.645280  1.0  0.4184
  C  C495  1  0.126780  0.430300  0.634760  1.0  -0.102
  C  C496  1  0.084290  0.431400  0.651250  1.0  -0.1578
  C  C497  1  0.040700  0.415900  0.636980  1.0  0.1463
  C  C498  1  0.078100  0.403300  0.592280  1.0  0.1358
  C  C499  1  0.123170  0.416800  0.604620  1.0  -0.139
  C  C500  1  0.300520  0.426200  0.627990  1.0  -0.1069
  C  C501  1  0.299060  0.398200  0.598710  1.0  -0.1352
  C  C502  1  0.341590  0.382600  0.583870  1.0  0.1369
  C  C503  1  0.386890  0.423900  0.624380  1.0  0.1284
  C  C504  1  0.345950  0.438800  0.640980  1.0  -0.1329
  I  I505  1  0.983930  0.947440  0.601850  1.0  -0.4173
  I  I506  1  0.056340  0.672420  0.568060  1.0  -0.4046
  I  I507  1  0.195280  0.691440  0.305830  1.0  -0.3671
  I  I508  1  0.335780  0.833160  0.324340  1.0  -0.3196
  I  I509  1  0.074490  0.725360  0.371420  1.0  -0.3493
  I  I510  1  0.008950  0.716870  0.460840  1.0  -0.4372
  I  I511  1  0.516070  0.052560  0.101850  1.0  -0.4167
  I  I512  1  0.443660  0.327580  0.068060  1.0  -0.4034
  I  I513  1  0.304720  0.308560  0.805830  1.0  -0.3651
  I  I514  1  0.164220  0.166840  0.824340  1.0  -0.3191
  I  I515  1  0.425510  0.274640  0.871420  1.0  -0.3494
  I  I516  1  0.491050  0.283130  0.960840  1.0  -0.4369
  I  I517  1  0.016070  0.447440  0.898150  1.0  -0.4186
  I  I518  1  0.943660  0.172420  0.931940  1.0  -0.4034
  I  I519  1  0.804720  0.191440  0.194170  1.0  -0.3662
  I  I520  1  0.664220  0.333160  0.175660  1.0  -0.3188
  I  I521  1  0.925510  0.225360  0.128580  1.0  -0.3492
  I  I522  1  0.991050  0.216870  0.039160  1.0  -0.438
  I  I523  1  0.483930  0.552560  0.398150  1.0  -0.4195
  I  I524  1  0.556340  0.827580  0.431940  1.0  -0.4046
  I  I525  1  0.695280  0.808560  0.694170  1.0  -0.3656
  I  I526  1  0.835780  0.666840  0.675660  1.0  -0.3191
  I  I527  1  0.574490  0.774640  0.628580  1.0  -0.3493
  I  I528  1  0.508950  0.783130  0.539160  1.0  -0.4377
  I  I529  1  0.016070  0.052560  0.398150  1.0  -0.4188
  I  I530  1  0.943660  0.327580  0.431940  1.0  -0.4034
  I  I531  1  0.804720  0.308560  0.694170  1.0  -0.3654
  I  I532  1  0.664220  0.166840  0.675660  1.0  -0.3187
  I  I533  1  0.925510  0.274640  0.628580  1.0  -0.3491
  I  I534  1  0.991050  0.283130  0.539160  1.0  -0.4378
  I  I535  1  0.483930  0.947440  0.898150  1.0  -0.4192
  I  I536  1  0.556340  0.672420  0.931940  1.0  -0.4045
  I  I537  1  0.695280  0.691440  0.194170  1.0  -0.3662
  I  I538  1  0.835780  0.833160  0.175660  1.0  -0.3193
  I  I539  1  0.574490  0.725360  0.128580  1.0  -0.3494
  I  I540  1  0.508950  0.716870  0.039160  1.0  -0.4379
  I  I541  1  0.983930  0.552560  0.101850  1.0  -0.4173
  I  I542  1  0.056340  0.827580  0.068060  1.0  -0.4045
  I  I543  1  0.195280  0.808560  0.805830  1.0  -0.3657
  I  I544  1  0.335780  0.666840  0.824340  1.0  -0.3195
  I  I545  1  0.074490  0.774640  0.871420  1.0  -0.3495
  I  I546  1  0.008950  0.783130  0.960840  1.0  -0.4367
  I  I547  1  0.516070  0.447440  0.601850  1.0  -0.4168
  I  I548  1  0.443660  0.172420  0.568060  1.0  -0.4036
  I  I549  1  0.304720  0.191440  0.305830  1.0  -0.3656
  I  I550  1  0.164220  0.333160  0.324340  1.0  -0.3192
  I  I551  1  0.425510  0.225360  0.371420  1.0  -0.3492
  I  I552  1  0.491050  0.216870  0.460840  1.0  -0.4374
  N  N553  1  0.062000  0.922200  0.535280  1.0  -0.3044
  N  N554  1  0.094950  0.170700  0.457380  1.0  -0.4768
  N  N555  1  0.133240  0.172900  0.410830  1.0  -0.4648
  N  N556  1  0.130530  0.027100  0.438440  1.0  -0.3629
  N  N557  1  0.059020  0.505500  0.419730  1.0  -0.3198
  N  N558  1  0.210450  0.925000  0.345160  1.0  -0.319
  N  N559  1  0.263090  0.071000  0.776460  1.0  -0.3342
  N  N560  1  0.324140  0.964300  0.677400  1.0  -0.4689
  N  N561  1  0.286470  0.928900  0.631900  1.0  -0.4946
  N  N562  1  0.238360  0.961400  0.673670  1.0  -0.4998
  N  N563  1  0.462750  0.901400  0.607970  1.0  -0.3419
  N  N564  1  0.114650  0.894600  0.596270  1.0  -0.3516
  N  N565  1  0.438000  0.077800  0.035280  1.0  -0.3044
  N  N566  1  0.405050  0.829300  0.957380  1.0  -0.4748
  N  N567  1  0.366760  0.827100  0.910830  1.0  -0.4647
  N  N568  1  0.369470  0.972900  0.938440  1.0  -0.3637
  N  N569  1  0.440980  0.494500  0.919730  1.0  -0.3197
  N  N570  1  0.289550  0.075000  0.845160  1.0  -0.3176
  N  N571  1  0.236910  0.929000  0.276460  1.0  -0.3328
  N  N572  1  0.175860  0.035700  0.177400  1.0  -0.4693
  N  N573  1  0.213530  0.071100  0.131900  1.0  -0.494
  N  N574  1  0.261640  0.038600  0.173670  1.0  -0.4987
  N  N575  1  0.037250  0.098600  0.107970  1.0  -0.3408
  N  N576  1  0.385350  0.105400  0.096270  1.0  -0.3552
  N  N577  1  0.938000  0.422200  0.964720  1.0  -0.3045
  N  N578  1  0.905050  0.670700  0.042620  1.0  -0.4749
  N  N579  1  0.866760  0.672900  0.089170  1.0  -0.4656
  N  N580  1  0.869470  0.527100  0.061560  1.0  -0.3631
  N  N581  1  0.940980  0.005500  0.080270  1.0  -0.3201
  N  N582  1  0.789550  0.425000  0.154840  1.0  -0.3182
  N  N583  1  0.736910  0.571000  0.723540  1.0  -0.3332
  N  N584  1  0.675860  0.464300  0.822600  1.0  -0.468
  N  N585  1  0.713530  0.428900  0.868100  1.0  -0.495
  N  N586  1  0.761640  0.461400  0.826330  1.0  -0.4992
  N  N587  1  0.537250  0.401400  0.892030  1.0  -0.3431
  N  N588  1  0.885350  0.394600  0.903730  1.0  -0.3558
  N  N589  1  0.562000  0.577800  0.464720  1.0  -0.3037
  N  N590  1  0.594950  0.329300  0.542620  1.0  -0.476
  N  N591  1  0.633240  0.327100  0.589170  1.0  -0.4651
  N  N592  1  0.630530  0.472900  0.561560  1.0  -0.3632
  N  N593  1  0.559020  0.994500  0.580270  1.0  -0.3196
  N  N594  1  0.710450  0.575000  0.654840  1.0  -0.3193
  N  N595  1  0.763090  0.429000  0.223540  1.0  -0.3341
  N  N596  1  0.824140  0.535700  0.322600  1.0  -0.4686
  N  N597  1  0.786470  0.571100  0.368100  1.0  -0.4948
  N  N598  1  0.738360  0.538600  0.326330  1.0  -0.5
  N  N599  1  0.962750  0.598600  0.392030  1.0  -0.3432
  N  N600  1  0.614650  0.605400  0.403730  1.0  -0.3518
  N  N601  1  0.938000  0.077800  0.464720  1.0  -0.3034
  N  N602  1  0.905050  0.829300  0.542620  1.0  -0.475
  N  N603  1  0.866760  0.827100  0.589170  1.0  -0.4647
  N  N604  1  0.869470  0.972900  0.561560  1.0  -0.3635
  N  N605  1  0.940980  0.494500  0.580270  1.0  -0.32
  N  N606  1  0.789550  0.075000  0.654840  1.0  -0.3193
  N  N607  1  0.736910  0.929000  0.223540  1.0  -0.3336
  N  N608  1  0.675860  0.035700  0.322600  1.0  -0.4683
  N  N609  1  0.713530  0.071100  0.368100  1.0  -0.4948
  N  N610  1  0.761640  0.038600  0.326330  1.0  -0.4993
  N  N611  1  0.537250  0.098600  0.392030  1.0  -0.3429
  N  N612  1  0.885350  0.105400  0.403730  1.0  -0.3554
  N  N613  1  0.562000  0.922200  0.964720  1.0  -0.3054
  N  N614  1  0.594950  0.170700  0.042620  1.0  -0.4752
  N  N615  1  0.633240  0.172900  0.089170  1.0  -0.4662
  N  N616  1  0.630530  0.027100  0.061560  1.0  -0.3628
  N  N617  1  0.559020  0.505500  0.080270  1.0  -0.32
  N  N618  1  0.710450  0.925000  0.154840  1.0  -0.3186
  N  N619  1  0.763090  0.071000  0.723540  1.0  -0.3334
  N  N620  1  0.824140  0.964300  0.822600  1.0  -0.4683
  N  N621  1  0.786470  0.928900  0.868100  1.0  -0.4949
  N  N622  1  0.738360  0.961400  0.826330  1.0  -0.4999
  N  N623  1  0.962750  0.901400  0.892030  1.0  -0.3427
  N  N624  1  0.614650  0.894600  0.903730  1.0  -0.3528
  N  N625  1  0.062000  0.577800  0.035280  1.0  -0.3047
  N  N626  1  0.094950  0.329300  0.957380  1.0  -0.476
  N  N627  1  0.133240  0.327100  0.910830  1.0  -0.465
  N  N628  1  0.130530  0.472900  0.938440  1.0  -0.3637
  N  N629  1  0.059020  0.994500  0.919730  1.0  -0.3193
  N  N630  1  0.210450  0.575000  0.845160  1.0  -0.3181
  N  N631  1  0.263090  0.429000  0.276460  1.0  -0.3336
  N  N632  1  0.324140  0.535700  0.177400  1.0  -0.4688
  N  N633  1  0.286470  0.571100  0.131900  1.0  -0.4938
  N  N634  1  0.238360  0.538600  0.173670  1.0  -0.4997
  N  N635  1  0.462750  0.598600  0.107970  1.0  -0.3414
  N  N636  1  0.114650  0.605400  0.096270  1.0  -0.3505
  N  N637  1  0.438000  0.422200  0.535280  1.0  -0.3041
  N  N638  1  0.405050  0.670700  0.457380  1.0  -0.4758
  N  N639  1  0.366760  0.672900  0.410830  1.0  -0.4641
  N  N640  1  0.369470  0.527100  0.438440  1.0  -0.3629
  N  N641  1  0.440980  0.005500  0.419730  1.0  -0.3199
  N  N642  1  0.289550  0.425000  0.345160  1.0  -0.318
  N  N643  1  0.236910  0.571000  0.776460  1.0  -0.3337
  N  N644  1  0.175860  0.464300  0.677400  1.0  -0.4694
  N  N645  1  0.213530  0.428900  0.631900  1.0  -0.4949
  N  N646  1  0.261640  0.461400  0.673670  1.0  -0.4988
  N  N647  1  0.037250  0.401400  0.607970  1.0  -0.3419
  N  N648  1  0.385350  0.394600  0.596270  1.0  -0.3558
