# generated using pymatgen
data_VH4C8O5
_symmetry_space_group_name_H-M   'P 1'
_cell_length_a   15.12360000
_cell_length_b   15.12360000
_cell_length_c   12.04200000
_cell_angle_alpha   90.00000000
_cell_angle_beta   90.00000000
_cell_angle_gamma   90.00000000
_symmetry_Int_Tables_number   1
_chemical_formula_structural   VH4C8O5
_chemical_formula_sum   'V8 H32 C64 O40'
_cell_volume   2754.28570115
_cell_formula_units_Z   8
loop_
 _symmetry_equiv_pos_site_id
 _symmetry_equiv_pos_as_xyz
  1  'x, y, z'
loop_
 _atom_site_type_symbol
 _atom_site_label
 _atom_site_symmetry_multiplicity
 _atom_site_fract_x
 _atom_site_fract_y
 _atom_site_fract_z
 _atom_site_occupancy
 _atom_site_charge
  V  V1  1  0.690800  0.309200  0.500000  1.0  1.7278
  V  V2  1  0.190800  0.809200  0.000000  1.0  1.7278
  V  V3  1  0.809200  0.190800  0.000000  1.0  1.7246
  V  V4  1  0.309200  0.690800  0.500000  1.0  1.7246
  V  V5  1  0.690800  0.190800  0.750000  1.0  1.731
  V  V6  1  0.190800  0.690800  0.250000  1.0  1.731
  V  V7  1  0.809200  0.309200  0.250000  1.0  1.7219
  V  V8  1  0.309200  0.809200  0.750000  1.0  1.7219
  H  H9  1  0.573180  0.381620  0.907350  1.0  0.1021
  H  H10  1  0.073180  0.881620  0.407350  1.0  0.1021
  H  H11  1  0.926820  0.118380  0.407350  1.0  0.1024
  H  H12  1  0.426820  0.618380  0.907350  1.0  0.1024
  H  H13  1  0.618380  0.073180  0.157350  1.0  0.1027
  H  H14  1  0.118380  0.573180  0.657350  1.0  0.1027
  H  H15  1  0.881620  0.426820  0.657350  1.0  0.1021
  H  H16  1  0.381620  0.926820  0.157350  1.0  0.1021
  H  H17  1  0.926820  0.381620  0.842650  1.0  0.1019
  H  H18  1  0.426820  0.881620  0.342650  1.0  0.1019
  H  H19  1  0.573180  0.118380  0.342650  1.0  0.1019
  H  H20  1  0.073180  0.618380  0.842650  1.0  0.1019
  H  H21  1  0.881620  0.073180  0.592650  1.0  0.102
  H  H22  1  0.381620  0.573180  0.092650  1.0  0.102
  H  H23  1  0.618380  0.426820  0.092650  1.0  0.1023
  H  H24  1  0.118380  0.926820  0.592650  1.0  0.1023
  H  H25  1  0.806000  0.250000  0.625000  1.0  0.4204
  H  H26  1  0.306000  0.750000  0.125000  1.0  0.4204
  H  H27  1  0.694000  0.250000  0.125000  1.0  0.4201
  H  H28  1  0.194000  0.750000  0.625000  1.0  0.4201
  H  H29  1  0.750000  0.306000  0.875000  1.0  0.4246
  H  H30  1  0.250000  0.806000  0.375000  1.0  0.4246
  H  H31  1  0.750000  0.194000  0.375000  1.0  0.4244
  H  H32  1  0.250000  0.694000  0.875000  1.0  0.4244
  H  H33  1  0.500000  0.500000  0.626600  1.0  0.1091
  H  H34  1  0.000000  0.000000  0.126600  1.0  0.1099
  H  H35  1  0.500000  0.000000  0.876600  1.0  0.1091
  H  H36  1  0.000000  0.500000  0.376600  1.0  0.1091
  H  H37  1  0.000000  0.500000  0.123400  1.0  0.1084
  H  H38  1  0.500000  0.000000  0.623400  1.0  0.1084
  H  H39  1  0.000000  0.000000  0.873400  1.0  0.1093
  H  H40  1  0.500000  0.500000  0.373400  1.0  0.1084
  C  C41  1  0.590030  0.360260  0.702400  1.0  0.7459
  C  C42  1  0.542990  0.433070  0.760400  1.0  -0.1492
  C  C43  1  0.546260  0.432560  0.879370  1.0  -0.0428
  C  C44  1  0.090030  0.860260  0.202400  1.0  0.7459
  C  C45  1  0.042990  0.933070  0.260400  1.0  -0.1492
  C  C46  1  0.046260  0.932560  0.379370  1.0  -0.0428
  C  C47  1  0.909970  0.139740  0.202400  1.0  0.7474
  C  C48  1  0.957010  0.066930  0.260400  1.0  -0.1539
  C  C49  1  0.953740  0.067440  0.379370  1.0  -0.0422
  C  C50  1  0.409970  0.639740  0.702400  1.0  0.7474
  C  C51  1  0.457010  0.566930  0.760400  1.0  -0.1539
  C  C52  1  0.453740  0.567440  0.879370  1.0  -0.0422
  C  C53  1  0.639740  0.090030  0.952400  1.0  0.7444
  C  C54  1  0.566930  0.042990  0.010400  1.0  -0.1487
  C  C55  1  0.567440  0.046260  0.129370  1.0  -0.0424
  C  C56  1  0.139740  0.590030  0.452400  1.0  0.7444
  C  C57  1  0.066930  0.542990  0.510400  1.0  -0.1487
  C  C58  1  0.067440  0.546260  0.629370  1.0  -0.0424
  C  C59  1  0.860260  0.409970  0.452400  1.0  0.7444
  C  C60  1  0.933070  0.457010  0.510400  1.0  -0.1525
  C  C61  1  0.932560  0.453740  0.629370  1.0  -0.0433
  C  C62  1  0.360260  0.909970  0.952400  1.0  0.7444
  C  C63  1  0.433070  0.957010  0.010400  1.0  -0.1525
  C  C64  1  0.432560  0.953740  0.129370  1.0  -0.0433
  C  C65  1  0.909970  0.360260  0.047600  1.0  0.7476
  C  C66  1  0.957010  0.433070  0.989600  1.0  -0.1491
  C  C67  1  0.953740  0.432560  0.870630  1.0  -0.0429
  C  C68  1  0.409970  0.860260  0.547600  1.0  0.7476
  C  C69  1  0.457010  0.933070  0.489600  1.0  -0.1491
  C  C70  1  0.453740  0.932560  0.370630  1.0  -0.0429
  C  C71  1  0.590030  0.139740  0.547600  1.0  0.747
  C  C72  1  0.542990  0.066930  0.489600  1.0  -0.1534
  C  C73  1  0.546260  0.067440  0.370630  1.0  -0.0423
  C  C74  1  0.090030  0.639740  0.047600  1.0  0.747
  C  C75  1  0.042990  0.566930  0.989600  1.0  -0.1534
  C  C76  1  0.046260  0.567440  0.870630  1.0  -0.0423
  C  C77  1  0.860260  0.090030  0.797600  1.0  0.7454
  C  C78  1  0.933070  0.042990  0.739600  1.0  -0.1482
  C  C79  1  0.932560  0.046260  0.620630  1.0  -0.0432
  C  C80  1  0.360260  0.590030  0.297600  1.0  0.7454
  C  C81  1  0.433070  0.542990  0.239600  1.0  -0.1482
  C  C82  1  0.432560  0.546260  0.120630  1.0  -0.0432
  C  C83  1  0.639740  0.409970  0.297600  1.0  0.7443
  C  C84  1  0.566930  0.457010  0.239600  1.0  -0.1526
  C  C85  1  0.567440  0.453740  0.120630  1.0  -0.0427
  C  C86  1  0.139740  0.909970  0.797600  1.0  0.7443
  C  C87  1  0.066930  0.957010  0.739600  1.0  -0.1526
  C  C88  1  0.067440  0.953740  0.620630  1.0  -0.0427
  C  C89  1  0.500000  0.500000  0.703800  1.0  0.0186
  C  C90  1  0.500000  0.500000  0.936190  1.0  -0.0902
  C  C91  1  0.000000  0.000000  0.203800  1.0  0.0186
  C  C92  1  0.000000  0.000000  0.436190  1.0  -0.0902
  C  C93  1  0.500000  0.000000  0.953800  1.0  0.0186
  C  C94  1  0.500000  0.000000  0.186190  1.0  -0.0902
  C  C95  1  0.000000  0.500000  0.453800  1.0  0.0186
  C  C96  1  0.000000  0.500000  0.686190  1.0  -0.0902
  C  C97  1  0.000000  0.500000  0.046200  1.0  0.0172
  C  C98  1  0.000000  0.500000  0.813810  1.0  -0.0894
  C  C99  1  0.500000  0.000000  0.546200  1.0  0.0172
  C  C100  1  0.500000  0.000000  0.313810  1.0  -0.0894
  C  C101  1  0.000000  0.000000  0.796200  1.0  0.0172
  C  C102  1  0.000000  0.000000  0.563810  1.0  -0.0894
  C  C103  1  0.500000  0.500000  0.296200  1.0  0.0172
  C  C104  1  0.500000  0.500000  0.063810  1.0  -0.0894
  O  O105  1  0.601510  0.289840  0.756760  1.0  -0.6092
  O  O106  1  0.617400  0.379270  0.609630  1.0  -0.5928
  O  O107  1  0.101510  0.789840  0.256760  1.0  -0.6092
  O  O108  1  0.117400  0.879270  0.109630  1.0  -0.5928
  O  O109  1  0.898490  0.210160  0.256760  1.0  -0.6098
  O  O110  1  0.882600  0.120730  0.109630  1.0  -0.5947
  O  O111  1  0.398490  0.710160  0.756760  1.0  -0.6098
  O  O112  1  0.382600  0.620730  0.609630  1.0  -0.5947
  O  O113  1  0.710160  0.101510  0.006760  1.0  -0.6087
  O  O114  1  0.620730  0.117400  0.859630  1.0  -0.5921
  O  O115  1  0.210160  0.601510  0.506760  1.0  -0.6087
  O  O116  1  0.120730  0.617400  0.359630  1.0  -0.5921
  O  O117  1  0.789840  0.398490  0.506760  1.0  -0.6088
  O  O118  1  0.879270  0.382600  0.359630  1.0  -0.5913
  O  O119  1  0.289840  0.898490  0.006760  1.0  -0.6088
  O  O120  1  0.379270  0.882600  0.859630  1.0  -0.5913
  O  O121  1  0.898490  0.289840  0.993240  1.0  -0.61
  O  O122  1  0.882600  0.379270  0.140370  1.0  -0.5931
  O  O123  1  0.398490  0.789840  0.493240  1.0  -0.61
  O  O124  1  0.382600  0.879270  0.640370  1.0  -0.5931
  O  O125  1  0.601510  0.210160  0.493240  1.0  -0.61
  O  O126  1  0.617400  0.120730  0.640370  1.0  -0.592
  O  O127  1  0.101510  0.710160  0.993240  1.0  -0.61
  O  O128  1  0.117400  0.620730  0.140370  1.0  -0.592
  O  O129  1  0.789840  0.101510  0.743240  1.0  -0.6082
  O  O130  1  0.879270  0.117400  0.890370  1.0  -0.5904
  O  O131  1  0.289840  0.601510  0.243240  1.0  -0.6082
  O  O132  1  0.379270  0.617400  0.390370  1.0  -0.5904
  O  O133  1  0.710160  0.398490  0.243240  1.0  -0.6101
  O  O134  1  0.620730  0.382600  0.390370  1.0  -0.5911
  O  O135  1  0.210160  0.898490  0.743240  1.0  -0.6101
  O  O136  1  0.120730  0.882600  0.890370  1.0  -0.5911
  O  O137  1  0.746250  0.250000  0.625000  1.0  -1.0912
  O  O138  1  0.246250  0.750000  0.125000  1.0  -1.0912
  O  O139  1  0.753750  0.250000  0.125000  1.0  -1.0887
  O  O140  1  0.253750  0.750000  0.625000  1.0  -1.0887
  O  O141  1  0.750000  0.246250  0.875000  1.0  -1.0921
  O  O142  1  0.250000  0.746250  0.375000  1.0  -1.0921
  O  O143  1  0.750000  0.253750  0.375000  1.0  -1.0932
  O  O144  1  0.250000  0.753750  0.875000  1.0  -1.0932
