# generated using pymatgen
data_ZnH8C12(IN2)2
_symmetry_space_group_name_H-M   'P 1'
_cell_length_a   27.26800000
_cell_length_b   13.69920000
_cell_length_c   45.88800000
_cell_angle_alpha   90.00000000
_cell_angle_beta   90.00000000
_cell_angle_gamma   90.00000000
_symmetry_Int_Tables_number   1
_chemical_formula_structural   ZnH8C12(IN2)2
_chemical_formula_sum   'Zn24 H192 C288 I48 N96'
_cell_volume   17141.45256161
_cell_formula_units_Z   24
loop_
 _symmetry_equiv_pos_site_id
 _symmetry_equiv_pos_as_xyz
  1  'x, y, z'
loop_
 _atom_site_type_symbol
 _atom_site_label
 _atom_site_symmetry_multiplicity
 _atom_site_fract_x
 _atom_site_fract_y
 _atom_site_fract_z
 _atom_site_occupancy
 _atom_site_charge
  Zn  Zn1  1  0.048070  0.860790  0.571400  1.0  0.86
  Zn  Zn2  1  0.246410  0.841810  0.311080  1.0  0.887
  Zn  Zn3  1  0.031160  0.642660  0.408520  1.0  0.8486
  Zn  Zn4  1  0.451930  0.139210  0.071400  1.0  0.8592
  Zn  Zn5  1  0.253590  0.158190  0.811080  1.0  0.8832
  Zn  Zn6  1  0.468840  0.357340  0.908520  1.0  0.8486
  Zn  Zn7  1  0.951930  0.360790  0.928600  1.0  0.8591
  Zn  Zn8  1  0.753590  0.341810  0.188920  1.0  0.8862
  Zn  Zn9  1  0.968840  0.142660  0.091480  1.0  0.8482
  Zn  Zn10  1  0.548070  0.639210  0.428600  1.0  0.8574
  Zn  Zn11  1  0.746410  0.658190  0.688920  1.0  0.8831
  Zn  Zn12  1  0.531160  0.857340  0.591480  1.0  0.8485
  Zn  Zn13  1  0.951930  0.139210  0.428600  1.0  0.8584
  Zn  Zn14  1  0.753590  0.158190  0.688920  1.0  0.8831
  Zn  Zn15  1  0.968840  0.357340  0.591480  1.0  0.8484
  Zn  Zn16  1  0.548070  0.860790  0.928600  1.0  0.8586
  Zn  Zn17  1  0.746410  0.841810  0.188920  1.0  0.8864
  Zn  Zn18  1  0.531160  0.642660  0.091480  1.0  0.8488
  Zn  Zn19  1  0.048070  0.639210  0.071400  1.0  0.8582
  Zn  Zn20  1  0.246410  0.658190  0.811080  1.0  0.8832
  Zn  Zn21  1  0.031160  0.857340  0.908520  1.0  0.8484
  Zn  Zn22  1  0.451930  0.360790  0.571400  1.0  0.8605
  Zn  Zn23  1  0.253590  0.341810  0.311080  1.0  0.8866
  Zn  Zn24  1  0.468840  0.142660  0.408520  1.0  0.8483
  H  H25  1  0.031400  0.055700  0.541600  1.0  0.0816
  H  H26  1  0.059300  0.141500  0.502100  1.0  0.1168
  H  H27  1  0.128700  0.897800  0.473700  1.0  0.1255
  H  H28  1  0.099500  0.818700  0.514800  1.0  0.0883
  H  H29  1  0.093900  0.359800  0.467100  1.0  0.1127
  H  H30  1  0.065500  0.518400  0.458700  1.0  0.0931
  H  H31  1  0.066800  0.473200  0.374400  1.0  0.0904
  H  H32  1  0.095500  0.315700  0.380300  1.0  0.1162
  H  H33  1  0.193400  0.143100  0.364800  1.0  0.1147
  H  H34  1  0.228200  0.052600  0.327400  1.0  0.0882
  H  H35  1  0.189800  0.806400  0.365600  1.0  0.0833
  H  H36  1  0.155300  0.890800  0.404000  1.0  0.1263
  H  H37  1  0.333500  0.088800  0.772600  1.0  0.0809
  H  H38  1  0.344800  0.028200  0.725400  1.0  0.1208
  H  H39  1  0.197300  0.986500  0.720800  1.0  0.1214
  H  H40  1  0.191300  0.045000  0.767900  1.0  0.0884
  H  H41  1  0.412700  0.942200  0.671500  1.0  0.1107
  H  H42  1  0.487800  0.911600  0.650500  1.0  0.0969
  H  H43  1  0.427400  0.889600  0.572700  1.0  0.092
  H  H44  1  0.350000  0.915300  0.592400  1.0  0.11
  H  H45  1  0.229600  0.889200  0.588200  1.0  0.1144
  H  H46  1  0.158700  0.862100  0.562100  1.0  0.1014
  H  H47  1  0.078300  0.928300  0.631000  1.0  0.0996
  H  H48  1  0.147500  0.952900  0.658800  1.0  0.1165
  H  H49  1  0.468600  0.944300  0.041600  1.0  0.0811
  H  H50  1  0.440700  0.858500  0.002100  1.0  0.1168
  H  H51  1  0.371300  0.102200  0.973700  1.0  0.1256
  H  H52  1  0.400500  0.181300  0.014800  1.0  0.0876
  H  H53  1  0.406100  0.640200  0.967100  1.0  0.1133
  H  H54  1  0.434500  0.481600  0.958700  1.0  0.0925
  H  H55  1  0.433200  0.526800  0.874400  1.0  0.0903
  H  H56  1  0.404500  0.684300  0.880300  1.0  0.1164
  H  H57  1  0.306600  0.856900  0.864800  1.0  0.1142
  H  H58  1  0.271800  0.947400  0.827400  1.0  0.0879
  H  H59  1  0.310200  0.193600  0.865600  1.0  0.0824
  H  H60  1  0.344700  0.109200  0.904000  1.0  0.1261
  H  H61  1  0.166500  0.911200  0.272600  1.0  0.0813
  H  H62  1  0.155200  0.971800  0.225400  1.0  0.1207
  H  H63  1  0.302700  0.013500  0.220800  1.0  0.122
  H  H64  1  0.308700  0.955000  0.267900  1.0  0.0885
  H  H65  1  0.087300  0.057800  0.171500  1.0  0.1111
  H  H66  1  0.012200  0.088400  0.150500  1.0  0.0968
  H  H67  1  0.072600  0.110400  0.072700  1.0  0.0923
  H  H68  1  0.150000  0.084700  0.092400  1.0  0.1102
  H  H69  1  0.270400  0.110800  0.088200  1.0  0.1147
  H  H70  1  0.341300  0.137900  0.062100  1.0  0.1018
  H  H71  1  0.421700  0.071700  0.131000  1.0  0.0977
  H  H72  1  0.352500  0.047100  0.158800  1.0  0.1164
  H  H73  1  0.968600  0.555700  0.958400  1.0  0.081
  H  H74  1  0.940700  0.641500  0.997900  1.0  0.1164
  H  H75  1  0.871300  0.397800  0.026300  1.0  0.1254
  H  H76  1  0.900500  0.318700  0.985200  1.0  0.0879
  H  H77  1  0.906100  0.859800  0.032900  1.0  0.1127
  H  H78  1  0.934500  0.018400  0.041300  1.0  0.0921
  H  H79  1  0.933200  0.973200  0.125600  1.0  0.0904
  H  H80  1  0.904500  0.815700  0.119700  1.0  0.1166
  H  H81  1  0.806600  0.643100  0.135200  1.0  0.1148
  H  H82  1  0.771800  0.552600  0.172600  1.0  0.0868
  H  H83  1  0.810200  0.306400  0.134400  1.0  0.0834
  H  H84  1  0.844700  0.390800  0.096000  1.0  0.1257
  H  H85  1  0.666500  0.588800  0.727400  1.0  0.081
  H  H86  1  0.655200  0.528200  0.774600  1.0  0.1206
  H  H87  1  0.802700  0.486500  0.779200  1.0  0.1217
  H  H88  1  0.808700  0.545000  0.732100  1.0  0.0883
  H  H89  1  0.587300  0.442200  0.828500  1.0  0.1112
  H  H90  1  0.512200  0.411600  0.849500  1.0  0.0963
  H  H91  1  0.572600  0.389600  0.927300  1.0  0.0932
  H  H92  1  0.650000  0.415300  0.907600  1.0  0.1105
  H  H93  1  0.770400  0.389200  0.911800  1.0  0.1146
  H  H94  1  0.841300  0.362100  0.937900  1.0  0.1016
  H  H95  1  0.921700  0.428300  0.869000  1.0  0.0973
  H  H96  1  0.852500  0.452900  0.841200  1.0  0.1171
  H  H97  1  0.531400  0.444300  0.458400  1.0  0.081
  H  H98  1  0.559300  0.358500  0.497900  1.0  0.1165
  H  H99  1  0.628700  0.602200  0.526300  1.0  0.1249
  H  H100  1  0.599500  0.681300  0.485200  1.0  0.0878
  H  H101  1  0.593900  0.140200  0.532900  1.0  0.1128
  H  H102  1  0.565500  0.981600  0.541300  1.0  0.0925
  H  H103  1  0.566800  0.026800  0.625600  1.0  0.0907
  H  H104  1  0.595500  0.184300  0.619700  1.0  0.1163
  H  H105  1  0.693400  0.356900  0.635200  1.0  0.1145
  H  H106  1  0.728200  0.447400  0.672600  1.0  0.0869
  H  H107  1  0.689800  0.693600  0.634400  1.0  0.0824
  H  H108  1  0.655300  0.609200  0.596000  1.0  0.126
  H  H109  1  0.833500  0.411200  0.227400  1.0  0.0813
  H  H110  1  0.844800  0.471800  0.274600  1.0  0.1205
  H  H111  1  0.697300  0.513500  0.279200  1.0  0.1214
  H  H112  1  0.691300  0.455000  0.232100  1.0  0.0885
  H  H113  1  0.912700  0.557800  0.328500  1.0  0.1111
  H  H114  1  0.987800  0.588400  0.349500  1.0  0.097
  H  H115  1  0.927400  0.610400  0.427300  1.0  0.0929
  H  H116  1  0.850000  0.584700  0.407600  1.0  0.11
  H  H117  1  0.729600  0.610800  0.411800  1.0  0.1139
  H  H118  1  0.658700  0.637900  0.437900  1.0  0.1022
  H  H119  1  0.578300  0.571700  0.369000  1.0  0.0988
  H  H120  1  0.647500  0.547100  0.341200  1.0  0.1169
  H  H121  1  0.968600  0.944300  0.458400  1.0  0.0809
  H  H122  1  0.940700  0.858500  0.497900  1.0  0.1166
  H  H123  1  0.871300  0.102200  0.526300  1.0  0.1253
  H  H124  1  0.900500  0.181300  0.485200  1.0  0.0875
  H  H125  1  0.906100  0.640200  0.532900  1.0  0.1129
  H  H126  1  0.934500  0.481600  0.541300  1.0  0.0921
  H  H127  1  0.933200  0.526800  0.625600  1.0  0.0904
  H  H128  1  0.904500  0.684300  0.619700  1.0  0.1163
  H  H129  1  0.806600  0.856900  0.635200  1.0  0.1146
  H  H130  1  0.771800  0.947400  0.672600  1.0  0.0871
  H  H131  1  0.810200  0.193600  0.634400  1.0  0.0825
  H  H132  1  0.844700  0.109200  0.596000  1.0  0.1258
  H  H133  1  0.666500  0.911200  0.227400  1.0  0.0813
  H  H134  1  0.655200  0.971800  0.274600  1.0  0.1205
  H  H135  1  0.802700  0.013500  0.279200  1.0  0.1218
  H  H136  1  0.808700  0.955000  0.232100  1.0  0.0882
  H  H137  1  0.587300  0.057800  0.328500  1.0  0.1112
  H  H138  1  0.512200  0.088400  0.349500  1.0  0.0965
  H  H139  1  0.572600  0.110400  0.427300  1.0  0.0929
  H  H140  1  0.650000  0.084700  0.407600  1.0  0.1104
  H  H141  1  0.770400  0.110800  0.411800  1.0  0.1143
  H  H142  1  0.841300  0.137900  0.437900  1.0  0.1019
  H  H143  1  0.921700  0.071700  0.369000  1.0  0.0976
  H  H144  1  0.852500  0.047100  0.341200  1.0  0.1171
  H  H145  1  0.531400  0.055700  0.958400  1.0  0.0813
  H  H146  1  0.559300  0.141500  0.997900  1.0  0.1162
  H  H147  1  0.628700  0.897800  0.026300  1.0  0.125
  H  H148  1  0.599500  0.818700  0.985200  1.0  0.0886
  H  H149  1  0.593900  0.359800  0.032900  1.0  0.1127
  H  H150  1  0.565500  0.518400  0.041300  1.0  0.0927
  H  H151  1  0.566800  0.473200  0.125600  1.0  0.0906
  H  H152  1  0.595500  0.315700  0.119700  1.0  0.1164
  H  H153  1  0.693400  0.143100  0.135200  1.0  0.1147
  H  H154  1  0.728200  0.052600  0.172600  1.0  0.0869
  H  H155  1  0.689800  0.806400  0.134400  1.0  0.0834
  H  H156  1  0.655300  0.890800  0.096000  1.0  0.1257
  H  H157  1  0.833500  0.088800  0.727400  1.0  0.0814
  H  H158  1  0.844800  0.028200  0.774600  1.0  0.1205
  H  H159  1  0.697300  0.986500  0.779200  1.0  0.1215
  H  H160  1  0.691300  0.045000  0.732100  1.0  0.0885
  H  H161  1  0.912700  0.942200  0.828500  1.0  0.1111
  H  H162  1  0.987800  0.911600  0.849500  1.0  0.0968
  H  H163  1  0.927400  0.889600  0.927300  1.0  0.0933
  H  H164  1  0.850000  0.915300  0.907600  1.0  0.1101
  H  H165  1  0.729600  0.889200  0.911800  1.0  0.1142
  H  H166  1  0.658700  0.862100  0.937900  1.0  0.1013
  H  H167  1  0.578300  0.928300  0.869000  1.0  0.0987
  H  H168  1  0.647500  0.952900  0.841200  1.0  0.1168
  H  H169  1  0.031400  0.444300  0.041600  1.0  0.0812
  H  H170  1  0.059300  0.358500  0.002100  1.0  0.117
  H  H171  1  0.128700  0.602200  0.973700  1.0  0.1255
  H  H172  1  0.099500  0.681300  0.014800  1.0  0.0877
  H  H173  1  0.093900  0.140200  0.967100  1.0  0.1129
  H  H174  1  0.065500  0.981600  0.958700  1.0  0.0929
  H  H175  1  0.066800  0.026800  0.874400  1.0  0.0905
  H  H176  1  0.095500  0.184300  0.880300  1.0  0.1163
  H  H177  1  0.193400  0.356900  0.864800  1.0  0.1142
  H  H178  1  0.228200  0.447400  0.827400  1.0  0.0878
  H  H179  1  0.189800  0.693600  0.865600  1.0  0.0823
  H  H180  1  0.155300  0.609200  0.904000  1.0  0.1262
  H  H181  1  0.333500  0.411200  0.272600  1.0  0.0811
  H  H182  1  0.344800  0.471800  0.225400  1.0  0.1208
  H  H183  1  0.197300  0.513500  0.220800  1.0  0.1216
  H  H184  1  0.191300  0.455000  0.267900  1.0  0.0885
  H  H185  1  0.412700  0.557800  0.171500  1.0  0.1107
  H  H186  1  0.487800  0.588400  0.150500  1.0  0.0969
  H  H187  1  0.427400  0.610400  0.072700  1.0  0.0918
  H  H188  1  0.350000  0.584700  0.092400  1.0  0.1099
  H  H189  1  0.229600  0.610800  0.088200  1.0  0.1143
  H  H190  1  0.158700  0.637900  0.062100  1.0  0.1021
  H  H191  1  0.078300  0.571700  0.131000  1.0  0.0998
  H  H192  1  0.147500  0.547100  0.158800  1.0  0.1169
  H  H193  1  0.468600  0.555700  0.541600  1.0  0.0815
  H  H194  1  0.440700  0.641500  0.502100  1.0  0.1166
  H  H195  1  0.371300  0.397800  0.473700  1.0  0.1253
  H  H196  1  0.400500  0.318700  0.514800  1.0  0.0878
  H  H197  1  0.406100  0.859800  0.467100  1.0  0.1131
  H  H198  1  0.434500  0.018400  0.458700  1.0  0.0927
  H  H199  1  0.433200  0.973200  0.374400  1.0  0.0902
  H  H200  1  0.404500  0.815700  0.380300  1.0  0.1164
  H  H201  1  0.306600  0.643100  0.364800  1.0  0.1147
  H  H202  1  0.271800  0.552600  0.327400  1.0  0.088
  H  H203  1  0.310200  0.306400  0.365600  1.0  0.0833
  H  H204  1  0.344700  0.390800  0.404000  1.0  0.1263
  H  H205  1  0.166500  0.588800  0.772600  1.0  0.0809
  H  H206  1  0.155200  0.528200  0.725400  1.0  0.1208
  H  H207  1  0.302700  0.486500  0.720800  1.0  0.1216
  H  H208  1  0.308700  0.545000  0.767900  1.0  0.0886
  H  H209  1  0.087300  0.442200  0.671500  1.0  0.1109
  H  H210  1  0.012200  0.411600  0.650500  1.0  0.0968
  H  H211  1  0.072600  0.389600  0.572700  1.0  0.0924
  H  H212  1  0.150000  0.415300  0.592400  1.0  0.1103
  H  H213  1  0.270400  0.389200  0.588200  1.0  0.1148
  H  H214  1  0.341300  0.362100  0.562100  1.0  0.1015
  H  H215  1  0.421700  0.428300  0.631000  1.0  0.0975
  H  H216  1  0.352500  0.452900  0.658800  1.0  0.116
  C  C217  1  0.052000  0.023900  0.527850  1.0  0.1298
  C  C218  1  0.068000  0.074800  0.504340  1.0  -0.1418
  C  C219  1  0.097200  0.029800  0.483560  1.0  -0.1129
  C  C220  1  0.109100  0.931700  0.487520  1.0  -0.1407
  C  C221  1  0.091600  0.885700  0.512070  1.0  0.1513
  C  C222  1  0.113900  0.082400  0.456950  1.0  0.3447
  C  C223  1  0.113900  0.218700  0.429610  1.0  0.4103
  C  C224  1  0.148100  0.080700  0.412720  1.0  0.3685
  C  C225  1  0.098100  0.321300  0.424580  1.0  -0.0691
  C  C226  1  0.088600  0.381900  0.447700  1.0  -0.1159
  C  C227  1  0.071000  0.476300  0.442620  1.0  0.113
  C  C228  1  0.072000  0.449200  0.393600  1.0  0.1444
  C  C229  1  0.089500  0.355700  0.396840  1.0  -0.1671
  C  C230  1  0.170800  0.026500  0.388390  1.0  -0.1032
  C  C231  1  0.192500  0.073800  0.365450  1.0  -0.1261
  C  C232  1  0.213100  0.019400  0.343170  1.0  0.1391
  C  C233  1  0.190800  0.875800  0.365500  1.0  0.1396
  C  C234  1  0.170000  0.925400  0.388360  1.0  -0.1391
  C  C235  1  0.305600  0.069000  0.761700  1.0  0.1391
  C  C236  1  0.312800  0.033000  0.733470  1.0  -0.1557
  C  C237  1  0.272100  0.004700  0.717800  1.0  -0.1008
  C  C238  1  0.225700  0.008100  0.730930  1.0  -0.1349
  C  C239  1  0.222600  0.043600  0.758790  1.0  0.1331
  C  C240  1  0.277400  0.974300  0.686580  1.0  0.3467
  C  C241  1  0.323600  0.940600  0.647920  1.0  0.3876
  C  C242  1  0.241600  0.938700  0.643880  1.0  0.4286
  C  C243  1  0.372400  0.928800  0.634590  1.0  -0.0712
  C  C244  1  0.414700  0.929600  0.651170  1.0  -0.112
  C  C245  1  0.459400  0.912200  0.638520  1.0  0.1467
  C  C246  1  0.424100  0.898700  0.593140  1.0  0.1134
  C  C247  1  0.377900  0.914400  0.604830  1.0  -0.1061
  C  C248  1  0.196500  0.923600  0.626350  1.0  -0.1013
  C  C249  1  0.198700  0.896800  0.597440  1.0  -0.1179
  C  C250  1  0.156400  0.881100  0.582000  1.0  0.1241
  C  C251  1  0.109600  0.919200  0.622260  1.0  0.1365
  C  C252  1  0.150500  0.934700  0.638880  1.0  -0.1332
  C  C253  1  0.448000  0.976100  0.027850  1.0  0.1301
  C  C254  1  0.432000  0.925200  0.004340  1.0  -0.1409
  C  C255  1  0.402800  0.970200  0.983560  1.0  -0.113
  C  C256  1  0.390900  0.068300  0.987520  1.0  -0.1409
  C  C257  1  0.408400  0.114300  0.012070  1.0  0.1507
  C  C258  1  0.386100  0.917600  0.956950  1.0  0.3452
  C  C259  1  0.386100  0.781300  0.929610  1.0  0.4103
  C  C260  1  0.351900  0.919300  0.912720  1.0  0.3685
  C  C261  1  0.401900  0.678700  0.924580  1.0  -0.0685
  C  C262  1  0.411400  0.618100  0.947700  1.0  -0.1166
  C  C263  1  0.429000  0.523700  0.942620  1.0  0.1149
  C  C264  1  0.428000  0.550800  0.893600  1.0  0.1458
  C  C265  1  0.410500  0.644300  0.896840  1.0  -0.1656
  C  C266  1  0.329200  0.973500  0.888390  1.0  -0.103
  C  C267  1  0.307500  0.926200  0.865450  1.0  -0.1244
  C  C268  1  0.286900  0.980600  0.843170  1.0  0.1399
  C  C269  1  0.309200  0.124200  0.865500  1.0  0.1404
  C  C270  1  0.330000  0.074600  0.888360  1.0  -0.1392
  C  C271  1  0.194400  0.931000  0.261700  1.0  0.1413
  C  C272  1  0.187200  0.967000  0.233470  1.0  -0.1557
  C  C273  1  0.227900  0.995300  0.217800  1.0  -0.1004
  C  C274  1  0.274300  0.991900  0.230930  1.0  -0.1348
  C  C275  1  0.277400  0.956400  0.258790  1.0  0.1325
  C  C276  1  0.222600  0.025700  0.186580  1.0  0.3468
  C  C277  1  0.176400  0.059400  0.147920  1.0  0.3877
  C  C278  1  0.258400  0.061300  0.143880  1.0  0.4283
  C  C279  1  0.127600  0.071200  0.134590  1.0  -0.0714
  C  C280  1  0.085300  0.070400  0.151170  1.0  -0.1124
  C  C281  1  0.040600  0.087800  0.138520  1.0  0.1464
  C  C282  1  0.075900  0.101300  0.093140  1.0  0.1132
  C  C283  1  0.122100  0.085600  0.104830  1.0  -0.1066
  C  C284  1  0.303500  0.076400  0.126350  1.0  -0.101
  C  C285  1  0.301300  0.103200  0.097440  1.0  -0.1178
  C  C286  1  0.343600  0.118900  0.082000  1.0  0.1245
  C  C287  1  0.390400  0.080800  0.122260  1.0  0.1368
  C  C288  1  0.349500  0.065300  0.138880  1.0  -0.1334
  C  C289  1  0.948000  0.523900  0.972150  1.0  0.1304
  C  C290  1  0.932000  0.574800  0.995660  1.0  -0.1406
  C  C291  1  0.902800  0.529800  0.016440  1.0  -0.1124
  C  C292  1  0.890900  0.431700  0.012480  1.0  -0.1411
  C  C293  1  0.908400  0.385700  0.987930  1.0  0.1508
  C  C294  1  0.886100  0.582400  0.043050  1.0  0.3447
  C  C295  1  0.886100  0.718700  0.070390  1.0  0.4106
  C  C296  1  0.851900  0.580700  0.087280  1.0  0.3687
  C  C297  1  0.901900  0.821300  0.075420  1.0  -0.0683
  C  C298  1  0.911400  0.881900  0.052300  1.0  -0.1146
  C  C299  1  0.929000  0.976300  0.057380  1.0  0.1143
  C  C300  1  0.928000  0.949200  0.106400  1.0  0.1448
  C  C301  1  0.910500  0.855700  0.103160  1.0  -0.1665
  C  C302  1  0.829200  0.526500  0.111610  1.0  -0.103
  C  C303  1  0.807500  0.573800  0.134550  1.0  -0.1255
  C  C304  1  0.786900  0.519400  0.156830  1.0  0.1388
  C  C305  1  0.809200  0.375800  0.134500  1.0  0.1386
  C  C306  1  0.830000  0.425400  0.111640  1.0  -0.1388
  C  C307  1  0.694400  0.569000  0.738300  1.0  0.1406
  C  C308  1  0.687200  0.533000  0.766530  1.0  -0.1562
  C  C309  1  0.727900  0.504700  0.782200  1.0  -0.1006
  C  C310  1  0.774300  0.508100  0.769070  1.0  -0.1347
  C  C311  1  0.777400  0.543600  0.741210  1.0  0.1312
  C  C312  1  0.722600  0.474300  0.813420  1.0  0.3468
  C  C313  1  0.676400  0.440600  0.852080  1.0  0.3875
  C  C314  1  0.758400  0.438700  0.856120  1.0  0.4286
  C  C315  1  0.627600  0.428800  0.865410  1.0  -0.0708
  C  C316  1  0.585300  0.429600  0.848830  1.0  -0.1079
  C  C317  1  0.540600  0.412200  0.861480  1.0  0.147
  C  C318  1  0.575900  0.398700  0.906860  1.0  0.1123
  C  C319  1  0.622100  0.414400  0.895170  1.0  -0.1057
  C  C320  1  0.803500  0.423600  0.873650  1.0  -0.1012
  C  C321  1  0.801300  0.396800  0.902560  1.0  -0.1182
  C  C322  1  0.843600  0.381100  0.918000  1.0  0.1243
  C  C323  1  0.890400  0.419200  0.877740  1.0  0.1357
  C  C324  1  0.849500  0.434700  0.861120  1.0  -0.1334
  C  C325  1  0.552000  0.476100  0.472150  1.0  0.1298
  C  C326  1  0.568000  0.425200  0.495660  1.0  -0.141
  C  C327  1  0.597200  0.470200  0.516440  1.0  -0.1142
  C  C328  1  0.609100  0.568300  0.512480  1.0  -0.1408
  C  C329  1  0.591600  0.614300  0.487930  1.0  0.1515
  C  C330  1  0.613900  0.417600  0.543050  1.0  0.3442
  C  C331  1  0.613900  0.281300  0.570390  1.0  0.4099
  C  C332  1  0.648100  0.419300  0.587280  1.0  0.3688
  C  C333  1  0.598100  0.178700  0.575420  1.0  -0.0693
  C  C334  1  0.588600  0.118100  0.552300  1.0  -0.1147
  C  C335  1  0.571000  0.023700  0.557380  1.0  0.1137
  C  C336  1  0.572000  0.050800  0.606400  1.0  0.1451
  C  C337  1  0.589500  0.144300  0.603160  1.0  -0.1664
  C  C338  1  0.670800  0.473500  0.611610  1.0  -0.1035
  C  C339  1  0.692500  0.426200  0.634550  1.0  -0.1243
  C  C340  1  0.713100  0.480600  0.656830  1.0  0.139
  C  C341  1  0.690800  0.624200  0.634500  1.0  0.1405
  C  C342  1  0.670000  0.574600  0.611640  1.0  -0.139
  C  C343  1  0.805600  0.431000  0.238300  1.0  0.1391
  C  C344  1  0.812800  0.467000  0.266530  1.0  -0.1553
  C  C345  1  0.772100  0.495300  0.282200  1.0  -0.1006
  C  C346  1  0.725700  0.491900  0.269070  1.0  -0.1357
  C  C347  1  0.722600  0.456400  0.241210  1.0  0.1332
  C  C348  1  0.777400  0.525700  0.313420  1.0  0.3467
  C  C349  1  0.823600  0.559400  0.352080  1.0  0.3876
  C  C350  1  0.741600  0.561300  0.356120  1.0  0.4289
  C  C351  1  0.872400  0.571200  0.365410  1.0  -0.0709
  C  C352  1  0.914700  0.570400  0.348830  1.0  -0.1082
  C  C353  1  0.959400  0.587800  0.361480  1.0  0.1468
  C  C354  1  0.924100  0.601300  0.406860  1.0  0.1123
  C  C355  1  0.877900  0.585600  0.395170  1.0  -0.1074
  C  C356  1  0.696500  0.576400  0.373650  1.0  -0.1016
  C  C357  1  0.698700  0.603200  0.402560  1.0  -0.1173
  C  C358  1  0.656400  0.618900  0.418000  1.0  0.1231
  C  C359  1  0.609600  0.580800  0.377740  1.0  0.1368
  C  C360  1  0.650500  0.565300  0.361120  1.0  -0.1311
  C  C361  1  0.948000  0.976100  0.472150  1.0  0.13
  C  C362  1  0.932000  0.925200  0.495660  1.0  -0.1404
  C  C363  1  0.902800  0.970200  0.516440  1.0  -0.1127
  C  C364  1  0.890900  0.068300  0.512480  1.0  -0.1419
  C  C365  1  0.908400  0.114300  0.487930  1.0  0.151
  C  C366  1  0.886100  0.917600  0.543050  1.0  0.3446
  C  C367  1  0.886100  0.781300  0.570390  1.0  0.4102
  C  C368  1  0.851900  0.919300  0.587280  1.0  0.3688
  C  C369  1  0.901900  0.678700  0.575420  1.0  -0.0684
  C  C370  1  0.911400  0.618100  0.552300  1.0  -0.1143
  C  C371  1  0.929000  0.523700  0.557380  1.0  0.1144
  C  C372  1  0.928000  0.550800  0.606400  1.0  0.1459
  C  C373  1  0.910500  0.644300  0.603160  1.0  -0.1665
  C  C374  1  0.829200  0.973500  0.611610  1.0  -0.103
  C  C375  1  0.807500  0.926200  0.634550  1.0  -0.1238
  C  C376  1  0.786900  0.980600  0.656830  1.0  0.1397
  C  C377  1  0.809200  0.124200  0.634500  1.0  0.1402
  C  C378  1  0.830000  0.074600  0.611640  1.0  -0.1389
  C  C379  1  0.694400  0.931000  0.238300  1.0  0.1404
  C  C380  1  0.687200  0.967000  0.266530  1.0  -0.1563
  C  C381  1  0.727900  0.995300  0.282200  1.0  -0.1007
  C  C382  1  0.774300  0.991900  0.269070  1.0  -0.1351
  C  C383  1  0.777400  0.956400  0.241210  1.0  0.1317
  C  C384  1  0.722600  0.025700  0.313420  1.0  0.3467
  C  C385  1  0.676400  0.059400  0.352080  1.0  0.3876
  C  C386  1  0.758400  0.061300  0.356120  1.0  0.4287
  C  C387  1  0.627600  0.071200  0.365410  1.0  -0.0709
  C  C388  1  0.585300  0.070400  0.348830  1.0  -0.1078
  C  C389  1  0.540600  0.087800  0.361480  1.0  0.1469
  C  C390  1  0.575900  0.101300  0.406860  1.0  0.112
  C  C391  1  0.622100  0.085600  0.395170  1.0  -0.1057
  C  C392  1  0.803500  0.076400  0.373650  1.0  -0.1013
  C  C393  1  0.801300  0.103200  0.402560  1.0  -0.1182
  C  C394  1  0.843600  0.118900  0.418000  1.0  0.1235
  C  C395  1  0.890400  0.080800  0.377740  1.0  0.1358
  C  C396  1  0.849500  0.065300  0.361120  1.0  -0.1331
  C  C397  1  0.552000  0.023900  0.972150  1.0  0.1304
  C  C398  1  0.568000  0.074800  0.995660  1.0  -0.1416
  C  C399  1  0.597200  0.029800  0.016440  1.0  -0.1144
  C  C400  1  0.609100  0.931700  0.012480  1.0  -0.1402
  C  C401  1  0.591600  0.885700  0.987930  1.0  0.1514
  C  C402  1  0.613900  0.082400  0.043050  1.0  0.3443
  C  C403  1  0.613900  0.218700  0.070390  1.0  0.4103
  C  C404  1  0.648100  0.080700  0.087280  1.0  0.3688
  C  C405  1  0.598100  0.321300  0.075420  1.0  -0.069
  C  C406  1  0.588600  0.381900  0.052300  1.0  -0.115
  C  C407  1  0.571000  0.476300  0.057380  1.0  0.1142
  C  C408  1  0.572000  0.449200  0.106400  1.0  0.1444
  C  C409  1  0.589500  0.355700  0.103160  1.0  -0.1666
  C  C410  1  0.670800  0.026500  0.111610  1.0  -0.1034
  C  C411  1  0.692500  0.073800  0.134550  1.0  -0.1261
  C  C412  1  0.713100  0.019400  0.156830  1.0  0.1383
  C  C413  1  0.690800  0.875800  0.134500  1.0  0.1393
  C  C414  1  0.670000  0.925400  0.111640  1.0  -0.1389
  C  C415  1  0.805600  0.069000  0.738300  1.0  0.1389
  C  C416  1  0.812800  0.033000  0.766530  1.0  -0.1554
  C  C417  1  0.772100  0.004700  0.782200  1.0  -0.1005
  C  C418  1  0.725700  0.008100  0.769070  1.0  -0.1351
  C  C419  1  0.722600  0.043600  0.741210  1.0  0.1325
  C  C420  1  0.777400  0.974300  0.813420  1.0  0.3468
  C  C421  1  0.823600  0.940600  0.852080  1.0  0.3875
  C  C422  1  0.741600  0.938700  0.856120  1.0  0.4288
  C  C423  1  0.872400  0.928800  0.865410  1.0  -0.071
  C  C424  1  0.914700  0.929600  0.848830  1.0  -0.1084
  C  C425  1  0.959400  0.912200  0.861480  1.0  0.1466
  C  C426  1  0.924100  0.898700  0.906860  1.0  0.1127
  C  C427  1  0.877900  0.914400  0.895170  1.0  -0.1075
  C  C428  1  0.696500  0.923600  0.873650  1.0  -0.1015
  C  C429  1  0.698700  0.896800  0.902560  1.0  -0.1175
  C  C430  1  0.656400  0.881100  0.918000  1.0  0.1238
  C  C431  1  0.609600  0.919200  0.877740  1.0  0.1367
  C  C432  1  0.650500  0.934700  0.861120  1.0  -0.1317
  C  C433  1  0.052000  0.476100  0.027850  1.0  0.1297
  C  C434  1  0.068000  0.425200  0.004340  1.0  -0.1417
  C  C435  1  0.097200  0.470200  0.983560  1.0  -0.1126
  C  C436  1  0.109100  0.568300  0.987520  1.0  -0.1404
  C  C437  1  0.091600  0.614300  0.012070  1.0  0.1516
  C  C438  1  0.113900  0.417600  0.956950  1.0  0.3445
  C  C439  1  0.113900  0.281300  0.929610  1.0  0.4099
  C  C440  1  0.148100  0.419300  0.912720  1.0  0.3686
  C  C441  1  0.098100  0.178700  0.924580  1.0  -0.0695
  C  C442  1  0.088600  0.118100  0.947700  1.0  -0.1158
  C  C443  1  0.071000  0.023700  0.942620  1.0  0.1141
  C  C444  1  0.072000  0.050800  0.893600  1.0  0.1448
  C  C445  1  0.089500  0.144300  0.896840  1.0  -0.1669
  C  C446  1  0.170800  0.473500  0.888390  1.0  -0.1033
  C  C447  1  0.192500  0.426200  0.865450  1.0  -0.1248
  C  C448  1  0.213100  0.480600  0.843170  1.0  0.1392
  C  C449  1  0.190800  0.624200  0.865500  1.0  0.1407
  C  C450  1  0.170000  0.574600  0.888360  1.0  -0.1394
  C  C451  1  0.305600  0.431000  0.261700  1.0  0.1401
  C  C452  1  0.312800  0.467000  0.233470  1.0  -0.1555
  C  C453  1  0.272100  0.495300  0.217800  1.0  -0.1004
  C  C454  1  0.225700  0.491900  0.230930  1.0  -0.135
  C  C455  1  0.222600  0.456400  0.258790  1.0  0.134
  C  C456  1  0.277400  0.525700  0.186580  1.0  0.3467
  C  C457  1  0.323600  0.559400  0.147920  1.0  0.3876
  C  C458  1  0.241600  0.561300  0.143880  1.0  0.4287
  C  C459  1  0.372400  0.571200  0.134590  1.0  -0.0713
  C  C460  1  0.414700  0.570400  0.151170  1.0  -0.1118
  C  C461  1  0.459400  0.587800  0.138520  1.0  0.1469
  C  C462  1  0.424100  0.601300  0.093140  1.0  0.1133
  C  C463  1  0.377900  0.585600  0.104830  1.0  -0.106
  C  C464  1  0.196500  0.576400  0.126350  1.0  -0.1014
  C  C465  1  0.198700  0.603200  0.097440  1.0  -0.1178
  C  C466  1  0.156400  0.618900  0.082000  1.0  0.1243
  C  C467  1  0.109600  0.580800  0.122260  1.0  0.1367
  C  C468  1  0.150500  0.565300  0.138880  1.0  -0.1331
  C  C469  1  0.448000  0.523900  0.527850  1.0  0.1302
  C  C470  1  0.432000  0.574800  0.504340  1.0  -0.1409
  C  C471  1  0.402800  0.529800  0.483560  1.0  -0.1125
  C  C472  1  0.390900  0.431700  0.487520  1.0  -0.1411
  C  C473  1  0.408400  0.385700  0.512070  1.0  0.1507
  C  C474  1  0.386100  0.582400  0.456950  1.0  0.3453
  C  C475  1  0.386100  0.718700  0.429610  1.0  0.4106
  C  C476  1  0.351900  0.580700  0.412720  1.0  0.3683
  C  C477  1  0.401900  0.821300  0.424580  1.0  -0.0684
  C  C478  1  0.411400  0.881900  0.447700  1.0  -0.1167
  C  C479  1  0.429000  0.976300  0.442620  1.0  0.113
  C  C480  1  0.428000  0.949200  0.393600  1.0  0.1454
  C  C481  1  0.410500  0.855700  0.396840  1.0  -0.1654
  C  C482  1  0.329200  0.526500  0.388390  1.0  -0.1029
  C  C483  1  0.307500  0.573800  0.365450  1.0  -0.1256
  C  C484  1  0.286900  0.519400  0.343170  1.0  0.1397
  C  C485  1  0.309200  0.375800  0.365500  1.0  0.1388
  C  C486  1  0.330000  0.425400  0.388360  1.0  -0.1391
  C  C487  1  0.194400  0.569000  0.761700  1.0  0.1407
  C  C488  1  0.187200  0.533000  0.733470  1.0  -0.1557
  C  C489  1  0.227900  0.504700  0.717800  1.0  -0.1009
  C  C490  1  0.274300  0.508100  0.730930  1.0  -0.1347
  C  C491  1  0.277400  0.543600  0.758790  1.0  0.1319
  C  C492  1  0.222600  0.474300  0.686580  1.0  0.3469
  C  C493  1  0.176400  0.440600  0.647920  1.0  0.3876
  C  C494  1  0.258400  0.438700  0.643880  1.0  0.4283
  C  C495  1  0.127600  0.428800  0.634590  1.0  -0.0711
  C  C496  1  0.085300  0.429600  0.651170  1.0  -0.1126
  C  C497  1  0.040600  0.412200  0.638520  1.0  0.1466
  C  C498  1  0.075900  0.398700  0.593140  1.0  0.1131
  C  C499  1  0.122100  0.414400  0.604830  1.0  -0.1066
  C  C500  1  0.303500  0.423600  0.626350  1.0  -0.1009
  C  C501  1  0.301300  0.396800  0.597440  1.0  -0.1177
  C  C502  1  0.343600  0.381100  0.582000  1.0  0.1244
  C  C503  1  0.390400  0.419200  0.622260  1.0  0.1367
  C  C504  1  0.349500  0.434700  0.638880  1.0  -0.1334
  I  I505  1  0.981930  0.958650  0.597310  1.0  -0.3761
  I  I506  1  0.047430  0.676980  0.563540  1.0  -0.3733
  I  I507  1  0.194450  0.688380  0.303580  1.0  -0.3918
  I  I508  1  0.337530  0.827230  0.322240  1.0  -0.3125
  I  I509  1  0.077660  0.725260  0.367670  1.0  -0.3152
  I  I510  1  0.016640  0.723640  0.457710  1.0  -0.396
  I  I511  1  0.518070  0.041350  0.097310  1.0  -0.3758
  I  I512  1  0.452570  0.323020  0.063540  1.0  -0.3731
  I  I513  1  0.305550  0.311620  0.803580  1.0  -0.3912
  I  I514  1  0.162470  0.172770  0.822240  1.0  -0.3125
  I  I515  1  0.422340  0.274740  0.867670  1.0  -0.3155
  I  I516  1  0.483360  0.276360  0.957710  1.0  -0.3965
  I  I517  1  0.018070  0.458650  0.902690  1.0  -0.3771
  I  I518  1  0.952570  0.176980  0.936460  1.0  -0.3733
  I  I519  1  0.805550  0.188380  0.196420  1.0  -0.391
  I  I520  1  0.662470  0.327230  0.177760  1.0  -0.3122
  I  I521  1  0.922340  0.225260  0.132330  1.0  -0.3155
  I  I522  1  0.983360  0.223640  0.042290  1.0  -0.3961
  I  I523  1  0.481930  0.541350  0.402690  1.0  -0.3778
  I  I524  1  0.547430  0.823020  0.436460  1.0  -0.3735
  I  I525  1  0.694450  0.811620  0.696420  1.0  -0.3916
  I  I526  1  0.837530  0.672770  0.677760  1.0  -0.3136
  I  I527  1  0.577660  0.774740  0.632330  1.0  -0.3149
  I  I528  1  0.516640  0.776360  0.542290  1.0  -0.3957
  I  I529  1  0.018070  0.041350  0.402690  1.0  -0.3771
  I  I530  1  0.952570  0.323020  0.436460  1.0  -0.3733
  I  I531  1  0.805550  0.311620  0.696420  1.0  -0.3912
  I  I532  1  0.662470  0.172770  0.677760  1.0  -0.3123
  I  I533  1  0.922340  0.274740  0.632330  1.0  -0.3149
  I  I534  1  0.983360  0.276360  0.542290  1.0  -0.3961
  I  I535  1  0.481930  0.958650  0.902690  1.0  -0.3777
  I  I536  1  0.547430  0.676980  0.936460  1.0  -0.3735
  I  I537  1  0.694450  0.688380  0.196420  1.0  -0.3914
  I  I538  1  0.837530  0.827230  0.177760  1.0  -0.3135
  I  I539  1  0.577660  0.725260  0.132330  1.0  -0.3155
  I  I540  1  0.516640  0.723640  0.042290  1.0  -0.3958
  I  I541  1  0.981930  0.541350  0.097310  1.0  -0.3765
  I  I542  1  0.047430  0.823020  0.063540  1.0  -0.3732
  I  I543  1  0.194450  0.811620  0.803580  1.0  -0.3919
  I  I544  1  0.337530  0.672770  0.822240  1.0  -0.3127
  I  I545  1  0.077660  0.774740  0.867670  1.0  -0.3154
  I  I546  1  0.016640  0.776360  0.957710  1.0  -0.3961
  I  I547  1  0.518070  0.458650  0.597310  1.0  -0.3756
  I  I548  1  0.452570  0.176980  0.563540  1.0  -0.3733
  I  I549  1  0.305550  0.188380  0.303580  1.0  -0.391
  I  I550  1  0.162470  0.327230  0.322240  1.0  -0.3123
  I  I551  1  0.422340  0.225260  0.367670  1.0  -0.3153
  I  I552  1  0.483360  0.223640  0.457710  1.0  -0.3964
  N  N553  1  0.064100  0.929900  0.532400  1.0  -0.3138
  N  N554  1  0.102500  0.178300  0.455220  1.0  -0.3658
  N  N555  1  0.136600  0.173400  0.407560  1.0  -0.4068
  N  N556  1  0.137700  0.030500  0.437070  1.0  -0.4931
  N  N557  1  0.062100  0.508300  0.416150  1.0  -0.2857
  N  N558  1  0.212500  0.920900  0.343030  1.0  -0.3416
  N  N559  1  0.261700  0.076600  0.773900  1.0  -0.3215
  N  N560  1  0.322200  0.965500  0.676060  1.0  -0.4748
  N  N561  1  0.284600  0.927700  0.630650  1.0  -0.4841
  N  N562  1  0.235400  0.961200  0.671840  1.0  -0.5034
  N  N563  1  0.464300  0.896100  0.609890  1.0  -0.3231
  N  N564  1  0.111500  0.891600  0.594020  1.0  -0.355
  N  N565  1  0.435900  0.070100  0.032400  1.0  -0.3151
  N  N566  1  0.397500  0.821700  0.955220  1.0  -0.3639
  N  N567  1  0.363400  0.826600  0.907560  1.0  -0.4071
  N  N568  1  0.362300  0.969500  0.937070  1.0  -0.4951
  N  N569  1  0.437900  0.491700  0.916150  1.0  -0.2836
  N  N570  1  0.287500  0.079100  0.843030  1.0  -0.3405
  N  N571  1  0.238300  0.923400  0.273900  1.0  -0.3195
  N  N572  1  0.177800  0.034500  0.176060  1.0  -0.4759
  N  N573  1  0.215400  0.072300  0.130650  1.0  -0.4832
  N  N574  1  0.264600  0.038800  0.171840  1.0  -0.5028
  N  N575  1  0.035700  0.103900  0.109890  1.0  -0.3224
  N  N576  1  0.388500  0.108400  0.094020  1.0  -0.3578
  N  N577  1  0.935900  0.429900  0.967600  1.0  -0.3161
  N  N578  1  0.897500  0.678300  0.044780  1.0  -0.3654
  N  N579  1  0.863400  0.673400  0.092440  1.0  -0.4065
  N  N580  1  0.862300  0.530500  0.062930  1.0  -0.4938
  N  N581  1  0.937900  0.008300  0.083850  1.0  -0.2861
  N  N582  1  0.787500  0.420900  0.156970  1.0  -0.3407
  N  N583  1  0.738300  0.576600  0.726100  1.0  -0.3203
  N  N584  1  0.677800  0.465500  0.823940  1.0  -0.4747
  N  N585  1  0.715400  0.427700  0.869350  1.0  -0.4842
  N  N586  1  0.764600  0.461200  0.828160  1.0  -0.5028
  N  N587  1  0.535700  0.396100  0.890110  1.0  -0.3234
  N  N588  1  0.888500  0.391600  0.905980  1.0  -0.3576
  N  N589  1  0.564100  0.570100  0.467600  1.0  -0.3141
  N  N590  1  0.602500  0.321700  0.544780  1.0  -0.3664
  N  N591  1  0.636600  0.326600  0.592440  1.0  -0.4047
  N  N592  1  0.637700  0.469500  0.562930  1.0  -0.4946
  N  N593  1  0.562100  0.991700  0.583850  1.0  -0.2846
  N  N594  1  0.712500  0.579100  0.656970  1.0  -0.3418
  N  N595  1  0.761700  0.423400  0.226100  1.0  -0.3206
  N  N596  1  0.822200  0.534500  0.323940  1.0  -0.4743
  N  N597  1  0.784600  0.572300  0.369350  1.0  -0.4838
  N  N598  1  0.735400  0.538800  0.328160  1.0  -0.503
  N  N599  1  0.964300  0.603900  0.390110  1.0  -0.3251
  N  N600  1  0.611500  0.608400  0.405980  1.0  -0.355
  N  N601  1  0.935900  0.070100  0.467600  1.0  -0.3143
  N  N602  1  0.897500  0.821700  0.544780  1.0  -0.3648
  N  N603  1  0.863400  0.826600  0.592440  1.0  -0.4049
  N  N604  1  0.862300  0.969500  0.562930  1.0  -0.4949
  N  N605  1  0.937900  0.491700  0.583850  1.0  -0.2838
  N  N606  1  0.787500  0.079100  0.656970  1.0  -0.3421
  N  N607  1  0.738300  0.923400  0.226100  1.0  -0.3194
  N  N608  1  0.677800  0.034500  0.323940  1.0  -0.475
  N  N609  1  0.715400  0.072300  0.369350  1.0  -0.4839
  N  N610  1  0.764600  0.038800  0.328160  1.0  -0.503
  N  N611  1  0.535700  0.103900  0.390110  1.0  -0.3241
  N  N612  1  0.888500  0.108400  0.405980  1.0  -0.3577
  N  N613  1  0.564100  0.929900  0.967600  1.0  -0.3165
  N  N614  1  0.602500  0.178300  0.044780  1.0  -0.3661
  N  N615  1  0.636600  0.173400  0.092440  1.0  -0.4062
  N  N616  1  0.637700  0.030500  0.062930  1.0  -0.4931
  N  N617  1  0.562100  0.508300  0.083850  1.0  -0.286
  N  N618  1  0.712500  0.920900  0.156970  1.0  -0.3405
  N  N619  1  0.761700  0.076600  0.726100  1.0  -0.3209
  N  N620  1  0.822200  0.965500  0.823940  1.0  -0.474
  N  N621  1  0.784600  0.927700  0.869350  1.0  -0.484
  N  N622  1  0.735400  0.961200  0.828160  1.0  -0.5029
  N  N623  1  0.964300  0.896100  0.890110  1.0  -0.3238
  N  N624  1  0.611500  0.891600  0.905980  1.0  -0.3553
  N  N625  1  0.064100  0.570100  0.032400  1.0  -0.314
  N  N626  1  0.102500  0.321700  0.955220  1.0  -0.3653
  N  N627  1  0.136600  0.326600  0.907560  1.0  -0.4071
  N  N628  1  0.137700  0.469500  0.937070  1.0  -0.495
  N  N629  1  0.062100  0.991700  0.916150  1.0  -0.2845
  N  N630  1  0.212500  0.579100  0.843030  1.0  -0.3406
  N  N631  1  0.261700  0.423400  0.273900  1.0  -0.3205
  N  N632  1  0.322200  0.534500  0.176060  1.0  -0.4746
  N  N633  1  0.284600  0.572300  0.130650  1.0  -0.4833
  N  N634  1  0.235400  0.538800  0.171840  1.0  -0.5034
  N  N635  1  0.464300  0.603900  0.109890  1.0  -0.3239
  N  N636  1  0.111500  0.608400  0.094020  1.0  -0.3541
  N  N637  1  0.435900  0.429900  0.532400  1.0  -0.3147
  N  N638  1  0.397500  0.678300  0.455220  1.0  -0.3654
  N  N639  1  0.363400  0.673400  0.407560  1.0  -0.4068
  N  N640  1  0.362300  0.530500  0.437070  1.0  -0.4936
  N  N641  1  0.437900  0.008300  0.416150  1.0  -0.2856
  N  N642  1  0.287500  0.420900  0.343030  1.0  -0.3412
  N  N643  1  0.238300  0.576600  0.773900  1.0  -0.3209
  N  N644  1  0.177800  0.465500  0.676060  1.0  -0.4761
  N  N645  1  0.215400  0.427700  0.630650  1.0  -0.4841
  N  N646  1  0.264600  0.461200  0.671840  1.0  -0.5029
  N  N647  1  0.035700  0.396100  0.609890  1.0  -0.3224
  N  N648  1  0.388500  0.391600  0.594020  1.0  -0.3582
