# generated using pymatgen
data_VH4C8O5
_symmetry_space_group_name_H-M   'P 1'
_cell_length_a   15.11650000
_cell_length_b   15.11650000
_cell_length_c   12.03550000
_cell_angle_alpha   90.00000000
_cell_angle_beta   90.00000000
_cell_angle_gamma   90.00000000
_symmetry_Int_Tables_number   1
_chemical_formula_structural   VH4C8O5
_chemical_formula_sum   'V8 H32 C64 O40'
_cell_volume   2750.21492131
_cell_formula_units_Z   8
loop_
 _symmetry_equiv_pos_site_id
 _symmetry_equiv_pos_as_xyz
  1  'x, y, z'
loop_
 _atom_site_type_symbol
 _atom_site_label
 _atom_site_symmetry_multiplicity
 _atom_site_fract_x
 _atom_site_fract_y
 _atom_site_fract_z
 _atom_site_occupancy
 _atom_site_charge
  V  V1  1  0.691020  0.308980  0.500000  1.0  1.758
  V  V2  1  0.191020  0.808980  0.000000  1.0  1.758
  V  V3  1  0.808980  0.191020  0.000000  1.0  1.7551
  V  V4  1  0.308980  0.691020  0.500000  1.0  1.7551
  V  V5  1  0.691020  0.191020  0.750000  1.0  1.761
  V  V6  1  0.191020  0.691020  0.250000  1.0  1.761
  V  V7  1  0.808980  0.308980  0.250000  1.0  1.7526
  V  V8  1  0.308980  0.808980  0.750000  1.0  1.7526
  H  H9  1  0.573180  0.381620  0.907350  1.0  0.1041
  H  H10  1  0.073180  0.881620  0.407350  1.0  0.1041
  H  H11  1  0.926820  0.118380  0.407350  1.0  0.1043
  H  H12  1  0.426820  0.618380  0.907350  1.0  0.1043
  H  H13  1  0.618380  0.073180  0.157350  1.0  0.1044
  H  H14  1  0.118380  0.573180  0.657350  1.0  0.1044
  H  H15  1  0.881620  0.426820  0.657350  1.0  0.1039
  H  H16  1  0.381620  0.926820  0.157350  1.0  0.1039
  H  H17  1  0.926820  0.381620  0.842650  1.0  0.1049
  H  H18  1  0.426820  0.881620  0.342650  1.0  0.1049
  H  H19  1  0.573180  0.118380  0.342650  1.0  0.1054
  H  H20  1  0.073180  0.618380  0.842650  1.0  0.1054
  H  H21  1  0.881620  0.073180  0.592650  1.0  0.1051
  H  H22  1  0.381620  0.573180  0.092650  1.0  0.1051
  H  H23  1  0.618380  0.426820  0.092650  1.0  0.1054
  H  H24  1  0.118380  0.926820  0.592650  1.0  0.1054
  H  H25  1  0.806000  0.250000  0.625000  1.0  0.3789
  H  H26  1  0.306000  0.750000  0.125000  1.0  0.3789
  H  H27  1  0.694000  0.250000  0.125000  1.0  0.3792
  H  H28  1  0.194000  0.750000  0.625000  1.0  0.3792
  H  H29  1  0.750000  0.306000  0.875000  1.0  0.3833
  H  H30  1  0.250000  0.806000  0.375000  1.0  0.3833
  H  H31  1  0.750000  0.194000  0.375000  1.0  0.3841
  H  H32  1  0.250000  0.694000  0.875000  1.0  0.3841
  H  H33  1  0.500000  0.500000  0.626000  1.0  0.1094
  H  H34  1  0.000000  0.000000  0.126000  1.0  0.1112
  H  H35  1  0.500000  0.000000  0.876000  1.0  0.1094
  H  H36  1  0.000000  0.500000  0.376000  1.0  0.1094
  H  H37  1  0.000000  0.500000  0.124000  1.0  0.1086
  H  H38  1  0.500000  0.000000  0.624000  1.0  0.1086
  H  H39  1  0.000000  0.000000  0.874000  1.0  0.1103
  H  H40  1  0.500000  0.500000  0.374000  1.0  0.1086
  C  C41  1  0.593400  0.360900  0.707800  1.0  0.7075
  C  C42  1  0.547600  0.436300  0.760500  1.0  -0.0908
  C  C43  1  0.547600  0.433300  0.879600  1.0  -0.0744
  C  C44  1  0.093400  0.860900  0.207800  1.0  0.7075
  C  C45  1  0.047600  0.936300  0.260500  1.0  -0.0908
  C  C46  1  0.047600  0.933300  0.379600  1.0  -0.0744
  C  C47  1  0.906600  0.139100  0.207800  1.0  0.7099
  C  C48  1  0.952400  0.063700  0.260500  1.0  -0.087
  C  C49  1  0.952400  0.066700  0.379600  1.0  -0.0751
  C  C50  1  0.406600  0.639100  0.707800  1.0  0.7099
  C  C51  1  0.452400  0.563700  0.760500  1.0  -0.087
  C  C52  1  0.452400  0.566700  0.879600  1.0  -0.0751
  C  C53  1  0.639100  0.093400  0.957800  1.0  0.7059
  C  C54  1  0.563700  0.047600  0.010500  1.0  -0.0894
  C  C55  1  0.566700  0.047600  0.129600  1.0  -0.0749
  C  C56  1  0.139100  0.593400  0.457800  1.0  0.7059
  C  C57  1  0.063700  0.547600  0.510500  1.0  -0.0894
  C  C58  1  0.066700  0.547600  0.629600  1.0  -0.0749
  C  C59  1  0.860900  0.406600  0.457800  1.0  0.7072
  C  C60  1  0.936300  0.452400  0.510500  1.0  -0.0859
  C  C61  1  0.933300  0.452400  0.629600  1.0  -0.0762
  C  C62  1  0.360900  0.906600  0.957800  1.0  0.7072
  C  C63  1  0.436300  0.952400  0.010500  1.0  -0.0859
  C  C64  1  0.433300  0.952400  0.129600  1.0  -0.0762
  C  C65  1  0.906600  0.360900  0.042200  1.0  0.7091
  C  C66  1  0.952400  0.436300  0.989500  1.0  -0.0903
  C  C67  1  0.952400  0.433300  0.870400  1.0  -0.0759
  C  C68  1  0.406600  0.860900  0.542200  1.0  0.7091
  C  C69  1  0.452400  0.936300  0.489500  1.0  -0.0903
  C  C70  1  0.452400  0.933300  0.370400  1.0  -0.0759
  C  C71  1  0.593400  0.139100  0.542200  1.0  0.7086
  C  C72  1  0.547600  0.063700  0.489500  1.0  -0.087
  C  C73  1  0.547600  0.066700  0.370400  1.0  -0.0738
  C  C74  1  0.093400  0.639100  0.042200  1.0  0.7086
  C  C75  1  0.047600  0.563700  0.989500  1.0  -0.087
  C  C76  1  0.047600  0.566700  0.870400  1.0  -0.0738
  C  C77  1  0.860900  0.093400  0.792200  1.0  0.7078
  C  C78  1  0.936300  0.047600  0.739500  1.0  -0.0897
  C  C79  1  0.933300  0.047600  0.620400  1.0  -0.0763
  C  C80  1  0.360900  0.593400  0.292200  1.0  0.7078
  C  C81  1  0.436300  0.547600  0.239500  1.0  -0.0897
  C  C82  1  0.433300  0.547600  0.120400  1.0  -0.0763
  C  C83  1  0.639100  0.406600  0.292200  1.0  0.7056
  C  C84  1  0.563700  0.452400  0.239500  1.0  -0.0852
  C  C85  1  0.566700  0.452400  0.120400  1.0  -0.0753
  C  C86  1  0.139100  0.906600  0.792200  1.0  0.7056
  C  C87  1  0.063700  0.952400  0.739500  1.0  -0.0852
  C  C88  1  0.066700  0.952400  0.620400  1.0  -0.0753
  C  C89  1  0.500000  0.500000  0.703700  1.0  0.0363
  C  C90  1  0.500000  0.500000  0.936200  1.0  -0.0793
  C  C91  1  0.000000  0.000000  0.203700  1.0  0.037
  C  C92  1  0.000000  0.000000  0.436200  1.0  -0.0793
  C  C93  1  0.500000  0.000000  0.953700  1.0  0.0363
  C  C94  1  0.500000  0.000000  0.186200  1.0  -0.0793
  C  C95  1  0.000000  0.500000  0.453700  1.0  0.0363
  C  C96  1  0.000000  0.500000  0.686200  1.0  -0.0793
  C  C97  1  0.000000  0.500000  0.046300  1.0  0.0347
  C  C98  1  0.000000  0.500000  0.813800  1.0  -0.0786
  C  C99  1  0.500000  0.000000  0.546300  1.0  0.0347
  C  C100  1  0.500000  0.000000  0.313800  1.0  -0.0786
  C  C101  1  0.000000  0.000000  0.796300  1.0  0.0354
  C  C102  1  0.000000  0.000000  0.563800  1.0  -0.0786
  C  C103  1  0.500000  0.500000  0.296300  1.0  0.0347
  C  C104  1  0.500000  0.500000  0.063800  1.0  -0.0786
  O  O105  1  0.601900  0.287900  0.757100  1.0  -0.6016
  O  O106  1  0.619100  0.379300  0.608700  1.0  -0.6163
  O  O107  1  0.101900  0.787900  0.257100  1.0  -0.6016
  O  O108  1  0.119100  0.879300  0.108700  1.0  -0.6163
  O  O109  1  0.898100  0.212100  0.257100  1.0  -0.6004
  O  O110  1  0.880900  0.120700  0.108700  1.0  -0.6168
  O  O111  1  0.398100  0.712100  0.757100  1.0  -0.6004
  O  O112  1  0.380900  0.620700  0.608700  1.0  -0.6168
  O  O113  1  0.712100  0.101900  0.007100  1.0  -0.599
  O  O114  1  0.620700  0.119100  0.858700  1.0  -0.615
  O  O115  1  0.212100  0.601900  0.507100  1.0  -0.599
  O  O116  1  0.120700  0.619100  0.358700  1.0  -0.615
  O  O117  1  0.787900  0.398100  0.507100  1.0  -0.5998
  O  O118  1  0.879300  0.380900  0.358700  1.0  -0.6151
  O  O119  1  0.287900  0.898100  0.007100  1.0  -0.5998
  O  O120  1  0.379300  0.880900  0.858700  1.0  -0.6151
  O  O121  1  0.898100  0.287900  0.992900  1.0  -0.6003
  O  O122  1  0.880900  0.379300  0.141300  1.0  -0.6142
  O  O123  1  0.398100  0.787900  0.492900  1.0  -0.6003
  O  O124  1  0.380900  0.879300  0.641300  1.0  -0.6142
  O  O125  1  0.601900  0.212100  0.492900  1.0  -0.6028
  O  O126  1  0.619100  0.120700  0.641300  1.0  -0.615
  O  O127  1  0.101900  0.712100  0.992900  1.0  -0.6028
  O  O128  1  0.119100  0.620700  0.141300  1.0  -0.615
  O  O129  1  0.787900  0.101900  0.742900  1.0  -0.5999
  O  O130  1  0.879300  0.119100  0.891300  1.0  -0.6123
  O  O131  1  0.287900  0.601900  0.242900  1.0  -0.5999
  O  O132  1  0.379300  0.619100  0.391300  1.0  -0.6123
  O  O133  1  0.712100  0.398100  0.242900  1.0  -0.6004
  O  O134  1  0.620700  0.380900  0.391300  1.0  -0.6137
  O  O135  1  0.212100  0.898100  0.742900  1.0  -0.6004
  O  O136  1  0.120700  0.880900  0.891300  1.0  -0.6137
  O  O137  1  0.744400  0.250000  0.625000  1.0  -1.0714
  O  O138  1  0.244400  0.750000  0.125000  1.0  -1.0714
  O  O139  1  0.755600  0.250000  0.125000  1.0  -1.07
  O  O140  1  0.255600  0.750000  0.625000  1.0  -1.07
  O  O141  1  0.750000  0.244400  0.875000  1.0  -1.0704
  O  O142  1  0.250000  0.744400  0.375000  1.0  -1.0704
  O  O143  1  0.750000  0.255600  0.375000  1.0  -1.0738
  O  O144  1  0.250000  0.755600  0.875000  1.0  -1.0738
