# generated using pymatgen
data_VH4C8O5
_symmetry_space_group_name_H-M   'P 1'
_cell_length_a   15.10350000
_cell_length_b   15.10350000
_cell_length_c   12.02470000
_cell_angle_alpha   90.00000000
_cell_angle_beta   90.00000000
_cell_angle_gamma   90.00000000
_symmetry_Int_Tables_number   1
_chemical_formula_structural   VH4C8O5
_chemical_formula_sum   'V8 H32 C64 O40'
_cell_volume   2743.02300509
_cell_formula_units_Z   8
loop_
 _symmetry_equiv_pos_site_id
 _symmetry_equiv_pos_as_xyz
  1  'x, y, z'
loop_
 _atom_site_type_symbol
 _atom_site_label
 _atom_site_symmetry_multiplicity
 _atom_site_fract_x
 _atom_site_fract_y
 _atom_site_fract_z
 _atom_site_occupancy
 _atom_site_charge
  V  V1  1  0.691700  0.308300  0.500000  1.0  1.7545
  V  V2  1  0.191700  0.808300  0.000000  1.0  1.7545
  V  V3  1  0.808300  0.191700  0.000000  1.0  1.7521
  V  V4  1  0.308300  0.691700  0.500000  1.0  1.7521
  V  V5  1  0.691700  0.191700  0.750000  1.0  1.7572
  V  V6  1  0.191700  0.691700  0.250000  1.0  1.7572
  V  V7  1  0.808300  0.308300  0.250000  1.0  1.7503
  V  V8  1  0.308300  0.808300  0.750000  1.0  1.7503
  H  H9  1  0.573180  0.381620  0.907350  1.0  0.1013
  H  H10  1  0.073180  0.881620  0.407350  1.0  0.1013
  H  H11  1  0.926820  0.118380  0.407350  1.0  0.1012
  H  H12  1  0.426820  0.618380  0.907350  1.0  0.1012
  H  H13  1  0.618380  0.073180  0.157350  1.0  0.1019
  H  H14  1  0.118380  0.573180  0.657350  1.0  0.1019
  H  H15  1  0.881620  0.426820  0.657350  1.0  0.1015
  H  H16  1  0.381620  0.926820  0.157350  1.0  0.1015
  H  H17  1  0.926820  0.381620  0.842650  1.0  0.1018
  H  H18  1  0.426820  0.881620  0.342650  1.0  0.1018
  H  H19  1  0.573180  0.118380  0.342650  1.0  0.102
  H  H20  1  0.073180  0.618380  0.842650  1.0  0.102
  H  H21  1  0.881620  0.073180  0.592650  1.0  0.1021
  H  H22  1  0.381620  0.573180  0.092650  1.0  0.1021
  H  H23  1  0.618380  0.426820  0.092650  1.0  0.1025
  H  H24  1  0.118380  0.926820  0.592650  1.0  0.1025
  H  H25  1  0.806000  0.250000  0.625000  1.0  0.3876
  H  H26  1  0.306000  0.750000  0.125000  1.0  0.3876
  H  H27  1  0.694000  0.250000  0.125000  1.0  0.3872
  H  H28  1  0.194000  0.750000  0.625000  1.0  0.3872
  H  H29  1  0.750000  0.306000  0.875000  1.0  0.3908
  H  H30  1  0.250000  0.806000  0.375000  1.0  0.3908
  H  H31  1  0.750000  0.194000  0.375000  1.0  0.391
  H  H32  1  0.250000  0.694000  0.875000  1.0  0.391
  H  H33  1  0.500000  0.500000  0.626100  1.0  0.1086
  H  H34  1  0.000000  0.000000  0.126100  1.0  0.1081
  H  H35  1  0.500000  0.000000  0.876100  1.0  0.1086
  H  H36  1  0.000000  0.500000  0.376100  1.0  0.1086
  H  H37  1  0.000000  0.500000  0.123900  1.0  0.1083
  H  H38  1  0.500000  0.000000  0.623900  1.0  0.1083
  H  H39  1  0.000000  0.000000  0.873900  1.0  0.1077
  H  H40  1  0.500000  0.500000  0.373900  1.0  0.1083
  C  C41  1  0.591180  0.359940  0.701530  1.0  0.7076
  C  C42  1  0.544610  0.433930  0.760110  1.0  -0.0956
  C  C43  1  0.547330  0.433110  0.879250  1.0  -0.0861
  C  C44  1  0.091180  0.859940  0.201530  1.0  0.7076
  C  C45  1  0.044610  0.933930  0.260110  1.0  -0.0956
  C  C46  1  0.047330  0.933110  0.379250  1.0  -0.0861
  C  C47  1  0.908820  0.140060  0.201530  1.0  0.7089
  C  C48  1  0.955390  0.066070  0.260110  1.0  -0.0933
  C  C49  1  0.952670  0.066890  0.379250  1.0  -0.0852
  C  C50  1  0.408820  0.640060  0.701530  1.0  0.7089
  C  C51  1  0.455390  0.566070  0.760110  1.0  -0.0933
  C  C52  1  0.452670  0.566890  0.879250  1.0  -0.0852
  C  C53  1  0.640060  0.091180  0.951530  1.0  0.7063
  C  C54  1  0.566070  0.044610  0.010110  1.0  -0.0938
  C  C55  1  0.566890  0.047330  0.129250  1.0  -0.0859
  C  C56  1  0.140060  0.591180  0.451530  1.0  0.7063
  C  C57  1  0.066070  0.544610  0.510110  1.0  -0.0938
  C  C58  1  0.066890  0.547330  0.629250  1.0  -0.0859
  C  C59  1  0.859940  0.408820  0.451530  1.0  0.7061
  C  C60  1  0.933930  0.455390  0.510110  1.0  -0.0926
  C  C61  1  0.933110  0.452670  0.629250  1.0  -0.087
  C  C62  1  0.359940  0.908820  0.951530  1.0  0.7061
  C  C63  1  0.433930  0.955390  0.010110  1.0  -0.0926
  C  C64  1  0.433110  0.952670  0.129250  1.0  -0.087
  C  C65  1  0.908820  0.359940  0.048470  1.0  0.7088
  C  C66  1  0.955390  0.433930  0.989890  1.0  -0.0958
  C  C67  1  0.952670  0.433110  0.870750  1.0  -0.0868
  C  C68  1  0.408820  0.859940  0.548470  1.0  0.7088
  C  C69  1  0.455390  0.933930  0.489890  1.0  -0.0958
  C  C70  1  0.452670  0.933110  0.370750  1.0  -0.0868
  C  C71  1  0.591180  0.140060  0.548470  1.0  0.7085
  C  C72  1  0.544610  0.066070  0.489890  1.0  -0.0929
  C  C73  1  0.547330  0.066890  0.370750  1.0  -0.0856
  C  C74  1  0.091180  0.640060  0.048470  1.0  0.7085
  C  C75  1  0.044610  0.566070  0.989890  1.0  -0.0929
  C  C76  1  0.047330  0.566890  0.870750  1.0  -0.0856
  C  C77  1  0.859940  0.091180  0.798470  1.0  0.7071
  C  C78  1  0.933930  0.044610  0.739890  1.0  -0.0951
  C  C79  1  0.933110  0.047330  0.620750  1.0  -0.0874
  C  C80  1  0.359940  0.591180  0.298470  1.0  0.7071
  C  C81  1  0.433930  0.544610  0.239890  1.0  -0.0951
  C  C82  1  0.433110  0.547330  0.120750  1.0  -0.0874
  C  C83  1  0.640060  0.408820  0.298470  1.0  0.7057
  C  C84  1  0.566070  0.455390  0.239890  1.0  -0.0914
  C  C85  1  0.566890  0.452670  0.120750  1.0  -0.0865
  C  C86  1  0.140060  0.908820  0.798470  1.0  0.7057
  C  C87  1  0.066070  0.955390  0.739890  1.0  -0.0914
  C  C88  1  0.066890  0.952670  0.620750  1.0  -0.0865
  C  C89  1  0.500000  0.500000  0.703460  1.0  0.0274
  C  C90  1  0.500000  0.500000  0.936210  1.0  -0.0875
  C  C91  1  0.000000  0.000000  0.203460  1.0  0.0274
  C  C92  1  0.000000  0.000000  0.436210  1.0  -0.0875
  C  C93  1  0.500000  0.000000  0.953460  1.0  0.0274
  C  C94  1  0.500000  0.000000  0.186210  1.0  -0.0875
  C  C95  1  0.000000  0.500000  0.453460  1.0  0.0274
  C  C96  1  0.000000  0.500000  0.686210  1.0  -0.0875
  C  C97  1  0.000000  0.500000  0.046540  1.0  0.0252
  C  C98  1  0.000000  0.500000  0.813790  1.0  -0.0865
  C  C99  1  0.500000  0.000000  0.546540  1.0  0.0252
  C  C100  1  0.500000  0.000000  0.313790  1.0  -0.0865
  C  C101  1  0.000000  0.000000  0.796540  1.0  0.0252
  C  C102  1  0.000000  0.000000  0.563790  1.0  -0.0865
  C  C103  1  0.500000  0.500000  0.296540  1.0  0.0252
  C  C104  1  0.500000  0.500000  0.063790  1.0  -0.0865
  O  O105  1  0.601620  0.289700  0.755920  1.0  -0.6023
  O  O106  1  0.618040  0.380480  0.608720  1.0  -0.5822
  O  O107  1  0.101620  0.789700  0.255920  1.0  -0.6023
  O  O108  1  0.118040  0.880480  0.108720  1.0  -0.5822
  O  O109  1  0.898380  0.210300  0.255920  1.0  -0.6023
  O  O110  1  0.881960  0.119520  0.108720  1.0  -0.5842
  O  O111  1  0.398380  0.710300  0.755920  1.0  -0.6023
  O  O112  1  0.381960  0.619520  0.608720  1.0  -0.5842
  O  O113  1  0.710300  0.101620  0.005920  1.0  -0.6007
  O  O114  1  0.619520  0.118040  0.858720  1.0  -0.5827
  O  O115  1  0.210300  0.601620  0.505920  1.0  -0.6007
  O  O116  1  0.119520  0.618040  0.358720  1.0  -0.5827
  O  O117  1  0.789700  0.398380  0.505920  1.0  -0.6014
  O  O118  1  0.880480  0.381960  0.358720  1.0  -0.5818
  O  O119  1  0.289700  0.898380  0.005920  1.0  -0.6014
  O  O120  1  0.380480  0.881960  0.858720  1.0  -0.5818
  O  O121  1  0.898380  0.289700  0.994080  1.0  -0.6018
  O  O122  1  0.881960  0.380480  0.141280  1.0  -0.5819
  O  O123  1  0.398380  0.789700  0.494080  1.0  -0.6018
  O  O124  1  0.381960  0.880480  0.641280  1.0  -0.5819
  O  O125  1  0.601620  0.210300  0.494080  1.0  -0.6028
  O  O126  1  0.618040  0.119520  0.641280  1.0  -0.5822
  O  O127  1  0.101620  0.710300  0.994080  1.0  -0.6028
  O  O128  1  0.118040  0.619520  0.141280  1.0  -0.5822
  O  O129  1  0.789700  0.101620  0.744080  1.0  -0.6003
  O  O130  1  0.880480  0.118040  0.891280  1.0  -0.5813
  O  O131  1  0.289700  0.601620  0.244080  1.0  -0.6003
  O  O132  1  0.380480  0.618040  0.391280  1.0  -0.5813
  O  O133  1  0.710300  0.398380  0.244080  1.0  -0.6012
  O  O134  1  0.619520  0.381960  0.391280  1.0  -0.5819
  O  O135  1  0.210300  0.898380  0.744080  1.0  -0.6012
  O  O136  1  0.119520  0.881960  0.891280  1.0  -0.5819
  O  O137  1  0.744840  0.250000  0.625000  1.0  -1.0808
  O  O138  1  0.244840  0.750000  0.125000  1.0  -1.0808
  O  O139  1  0.755160  0.250000  0.125000  1.0  -1.078
  O  O140  1  0.255160  0.750000  0.625000  1.0  -1.078
  O  O141  1  0.750000  0.244840  0.875000  1.0  -1.0804
  O  O142  1  0.250000  0.744840  0.375000  1.0  -1.0804
  O  O143  1  0.750000  0.255160  0.375000  1.0  -1.083
  O  O144  1  0.250000  0.755160  0.875000  1.0  -1.083
