# generated using pymatgen
data_VH4C8O5
_symmetry_space_group_name_H-M   'P 1'
_cell_length_a   15.13180000
_cell_length_b   15.13180000
_cell_length_c   12.05230000
_cell_angle_alpha   90.00000000
_cell_angle_beta   90.00000000
_cell_angle_gamma   90.00000000
_symmetry_Int_Tables_number   1
_chemical_formula_structural   VH4C8O5
_chemical_formula_sum   'V8 H32 C64 O40'
_cell_volume   2759.63165760
_cell_formula_units_Z   8
loop_
 _symmetry_equiv_pos_site_id
 _symmetry_equiv_pos_as_xyz
  1  'x, y, z'
loop_
 _atom_site_type_symbol
 _atom_site_label
 _atom_site_symmetry_multiplicity
 _atom_site_fract_x
 _atom_site_fract_y
 _atom_site_fract_z
 _atom_site_occupancy
 _atom_site_charge
  V  V1  1  0.690570  0.309430  0.500000  1.0  1.6709
  V  V2  1  0.190570  0.809430  0.000000  1.0  1.6709
  V  V3  1  0.809430  0.190570  0.000000  1.0  1.6685
  V  V4  1  0.309430  0.690570  0.500000  1.0  1.6685
  V  V5  1  0.690570  0.190570  0.750000  1.0  1.6741
  V  V6  1  0.190570  0.690570  0.250000  1.0  1.6741
  V  V7  1  0.809430  0.309430  0.250000  1.0  1.6659
  V  V8  1  0.309430  0.809430  0.750000  1.0  1.6659
  H  H9  1  0.573180  0.381620  0.907350  1.0  0.1067
  H  H10  1  0.073180  0.881620  0.407350  1.0  0.1067
  H  H11  1  0.926820  0.118380  0.407350  1.0  0.1064
  H  H12  1  0.426820  0.618380  0.907350  1.0  0.1064
  H  H13  1  0.618380  0.073180  0.157350  1.0  0.1069
  H  H14  1  0.118380  0.573180  0.657350  1.0  0.1069
  H  H15  1  0.881620  0.426820  0.657350  1.0  0.1062
  H  H16  1  0.381620  0.926820  0.157350  1.0  0.1062
  H  H17  1  0.926820  0.381620  0.842650  1.0  0.1067
  H  H18  1  0.426820  0.881620  0.342650  1.0  0.1067
  H  H19  1  0.573180  0.118380  0.342650  1.0  0.1071
  H  H20  1  0.073180  0.618380  0.842650  1.0  0.1071
  H  H21  1  0.881620  0.073180  0.592650  1.0  0.107
  H  H22  1  0.381620  0.573180  0.092650  1.0  0.107
  H  H23  1  0.618380  0.426820  0.092650  1.0  0.1072
  H  H24  1  0.118380  0.926820  0.592650  1.0  0.1072
  H  H25  1  0.806000  0.250000  0.625000  1.0  0.4477
  H  H26  1  0.306000  0.750000  0.125000  1.0  0.4477
  H  H27  1  0.694000  0.250000  0.125000  1.0  0.4483
  H  H28  1  0.194000  0.750000  0.625000  1.0  0.4483
  H  H29  1  0.750000  0.306000  0.875000  1.0  0.45
  H  H30  1  0.250000  0.806000  0.375000  1.0  0.45
  H  H31  1  0.750000  0.194000  0.375000  1.0  0.4501
  H  H32  1  0.250000  0.694000  0.875000  1.0  0.4501
  H  H33  1  0.500000  0.500000  0.626700  1.0  0.1207
  H  H34  1  0.000000  0.000000  0.126700  1.0  0.1169
  H  H35  1  0.500000  0.000000  0.876700  1.0  0.1207
  H  H36  1  0.000000  0.500000  0.376700  1.0  0.1207
  H  H37  1  0.000000  0.500000  0.123300  1.0  0.1205
  H  H38  1  0.500000  0.000000  0.623300  1.0  0.1205
  H  H39  1  0.000000  0.000000  0.873300  1.0  0.1165
  H  H40  1  0.500000  0.500000  0.373300  1.0  0.1205
  C  C41  1  0.593040  0.360250  0.701790  1.0  0.7143
  C  C42  1  0.540000  0.430780  0.759900  1.0  -0.1614
  C  C43  1  0.541350  0.429570  0.879190  1.0  -0.0233
  C  C44  1  0.093040  0.860250  0.201790  1.0  0.7143
  C  C45  1  0.040000  0.930780  0.259900  1.0  -0.1614
  C  C46  1  0.041350  0.929570  0.379190  1.0  -0.0233
  C  C47  1  0.906960  0.139750  0.201790  1.0  0.7153
  C  C48  1  0.960000  0.069220  0.259900  1.0  -0.161
  C  C49  1  0.958650  0.070430  0.379190  1.0  -0.0244
  C  C50  1  0.406960  0.639750  0.701790  1.0  0.7153
  C  C51  1  0.460000  0.569220  0.759900  1.0  -0.161
  C  C52  1  0.458650  0.570430  0.879190  1.0  -0.0244
  C  C53  1  0.639750  0.093040  0.951790  1.0  0.714
  C  C54  1  0.569220  0.040000  0.009900  1.0  -0.1606
  C  C55  1  0.570430  0.041350  0.129190  1.0  -0.0216
  C  C56  1  0.139750  0.593040  0.451790  1.0  0.714
  C  C57  1  0.069220  0.540000  0.509900  1.0  -0.1606
  C  C58  1  0.070430  0.541350  0.629190  1.0  -0.0216
  C  C59  1  0.860250  0.406960  0.451790  1.0  0.7139
  C  C60  1  0.930780  0.460000  0.509900  1.0  -0.1602
  C  C61  1  0.929570  0.458650  0.629190  1.0  -0.024
  C  C62  1  0.360250  0.906960  0.951790  1.0  0.7139
  C  C63  1  0.430780  0.960000  0.009900  1.0  -0.1602
  C  C64  1  0.429570  0.958650  0.129190  1.0  -0.024
  C  C65  1  0.906960  0.360250  0.048210  1.0  0.7149
  C  C66  1  0.960000  0.430780  0.990100  1.0  -0.1612
  C  C67  1  0.958650  0.429570  0.870810  1.0  -0.0243
  C  C68  1  0.406960  0.860250  0.548210  1.0  0.7149
  C  C69  1  0.460000  0.930780  0.490100  1.0  -0.1612
  C  C70  1  0.458650  0.929570  0.370810  1.0  -0.0243
  C  C71  1  0.593040  0.139750  0.548210  1.0  0.7144
  C  C72  1  0.540000  0.069220  0.490100  1.0  -0.1613
  C  C73  1  0.541350  0.070430  0.370810  1.0  -0.024
  C  C74  1  0.093040  0.639750  0.048210  1.0  0.7144
  C  C75  1  0.040000  0.569220  0.990100  1.0  -0.1613
  C  C76  1  0.041350  0.570430  0.870810  1.0  -0.024
  C  C77  1  0.860250  0.093040  0.798210  1.0  0.7139
  C  C78  1  0.930780  0.040000  0.740100  1.0  -0.1607
  C  C79  1  0.929570  0.041350  0.620810  1.0  -0.0237
  C  C80  1  0.360250  0.593040  0.298210  1.0  0.7139
  C  C81  1  0.430780  0.540000  0.240100  1.0  -0.1607
  C  C82  1  0.429570  0.541350  0.120810  1.0  -0.0237
  C  C83  1  0.639750  0.406960  0.298210  1.0  0.7134
  C  C84  1  0.569220  0.460000  0.240100  1.0  -0.1604
  C  C85  1  0.570430  0.458650  0.120810  1.0  -0.0222
  C  C86  1  0.139750  0.906960  0.798210  1.0  0.7134
  C  C87  1  0.069220  0.960000  0.740100  1.0  -0.1604
  C  C88  1  0.070430  0.958650  0.620810  1.0  -0.0222
  C  C89  1  0.500000  0.500000  0.703840  1.0  0.0031
  C  C90  1  0.500000  0.500000  0.935880  1.0  -0.0899
  C  C91  1  0.000000  0.000000  0.203840  1.0  0.0031
  C  C92  1  0.000000  0.000000  0.435880  1.0  -0.0899
  C  C93  1  0.500000  0.000000  0.953840  1.0  0.0031
  C  C94  1  0.500000  0.000000  0.185880  1.0  -0.0899
  C  C95  1  0.000000  0.500000  0.453840  1.0  0.0031
  C  C96  1  0.000000  0.500000  0.685880  1.0  -0.0899
  C  C97  1  0.000000  0.500000  0.046160  1.0  0.0023
  C  C98  1  0.000000  0.500000  0.814120  1.0  -0.0892
  C  C99  1  0.500000  0.000000  0.546160  1.0  0.0023
  C  C100  1  0.500000  0.000000  0.314120  1.0  -0.0892
  C  C101  1  0.000000  0.000000  0.796160  1.0  0.0023
  C  C102  1  0.000000  0.000000  0.564120  1.0  -0.0892
  C  C103  1  0.500000  0.500000  0.296160  1.0  0.0023
  C  C104  1  0.500000  0.500000  0.064120  1.0  -0.0892
  O  O105  1  0.601050  0.289810  0.758140  1.0  -0.5974
  O  O106  1  0.618650  0.379720  0.609100  1.0  -0.5765
  O  O107  1  0.101050  0.789810  0.258140  1.0  -0.5974
  O  O108  1  0.118650  0.879720  0.109100  1.0  -0.5765
  O  O109  1  0.898950  0.210190  0.258140  1.0  -0.5975
  O  O110  1  0.881350  0.120280  0.109100  1.0  -0.5787
  O  O111  1  0.398950  0.710190  0.758140  1.0  -0.5975
  O  O112  1  0.381350  0.620280  0.609100  1.0  -0.5787
  O  O113  1  0.710190  0.101050  0.008140  1.0  -0.5968
  O  O114  1  0.620280  0.118650  0.859100  1.0  -0.5758
  O  O115  1  0.210190  0.601050  0.508140  1.0  -0.5968
  O  O116  1  0.120280  0.618650  0.359100  1.0  -0.5758
  O  O117  1  0.789810  0.398950  0.508140  1.0  -0.5972
  O  O118  1  0.879720  0.381350  0.359100  1.0  -0.5757
  O  O119  1  0.289810  0.898950  0.008140  1.0  -0.5972
  O  O120  1  0.379720  0.881350  0.859100  1.0  -0.5757
  O  O121  1  0.898950  0.289810  0.991860  1.0  -0.5976
  O  O122  1  0.881350  0.379720  0.140900  1.0  -0.5775
  O  O123  1  0.398950  0.789810  0.491860  1.0  -0.5976
  O  O124  1  0.381350  0.879720  0.640900  1.0  -0.5775
  O  O125  1  0.601050  0.210190  0.491860  1.0  -0.5976
  O  O126  1  0.618650  0.120280  0.640900  1.0  -0.5762
  O  O127  1  0.101050  0.710190  0.991860  1.0  -0.5976
  O  O128  1  0.118650  0.620280  0.140900  1.0  -0.5762
  O  O129  1  0.789810  0.101050  0.741860  1.0  -0.5961
  O  O130  1  0.879720  0.118650  0.890900  1.0  -0.5751
  O  O131  1  0.289810  0.601050  0.241860  1.0  -0.5961
  O  O132  1  0.379720  0.618650  0.390900  1.0  -0.5751
  O  O133  1  0.710190  0.398950  0.241860  1.0  -0.5981
  O  O134  1  0.620280  0.381350  0.390900  1.0  -0.5752
  O  O135  1  0.210190  0.898950  0.741860  1.0  -0.5981
  O  O136  1  0.120280  0.881350  0.890900  1.0  -0.5752
  O  O137  1  0.748300  0.250000  0.625000  1.0  -1.0775
  O  O138  1  0.248300  0.750000  0.125000  1.0  -1.0775
  O  O139  1  0.751700  0.250000  0.125000  1.0  -1.0758
  O  O140  1  0.251700  0.750000  0.625000  1.0  -1.0758
  O  O141  1  0.750000  0.248300  0.875000  1.0  -1.0779
  O  O142  1  0.250000  0.748300  0.375000  1.0  -1.0779
  O  O143  1  0.750000  0.251700  0.375000  1.0  -1.0803
  O  O144  1  0.250000  0.751700  0.875000  1.0  -1.0803
