# generated using pymatgen
data_VH4C8O5
_symmetry_space_group_name_H-M   'P 1'
_cell_length_a   15.09550000
_cell_length_b   15.09550000
_cell_length_c   12.01750000
_cell_angle_alpha   90.00000000
_cell_angle_beta   90.00000000
_cell_angle_gamma   90.00000000
_symmetry_Int_Tables_number   1
_chemical_formula_structural   VH4C8O5
_chemical_formula_sum   'V8 H32 C64 O40'
_cell_volume   2738.47724010
_cell_formula_units_Z   8
loop_
 _symmetry_equiv_pos_site_id
 _symmetry_equiv_pos_as_xyz
  1  'x, y, z'
loop_
 _atom_site_type_symbol
 _atom_site_label
 _atom_site_symmetry_multiplicity
 _atom_site_fract_x
 _atom_site_fract_y
 _atom_site_fract_z
 _atom_site_occupancy
 _atom_site_charge
  V  V1  1  0.692160  0.307840  0.500000  1.0  1.7557
  V  V2  1  0.192160  0.807840  0.000000  1.0  1.7557
  V  V3  1  0.807840  0.192160  0.000000  1.0  1.7536
  V  V4  1  0.307840  0.692160  0.500000  1.0  1.7536
  V  V5  1  0.692160  0.192160  0.750000  1.0  1.758
  V  V6  1  0.192160  0.692160  0.250000  1.0  1.758
  V  V7  1  0.807840  0.307840  0.250000  1.0  1.752
  V  V8  1  0.307840  0.807840  0.750000  1.0  1.752
  H  H9  1  0.573180  0.381620  0.907350  1.0  0.1034
  H  H10  1  0.073180  0.881620  0.407350  1.0  0.1034
  H  H11  1  0.926820  0.118380  0.407350  1.0  0.1038
  H  H12  1  0.426820  0.618380  0.907350  1.0  0.1038
  H  H13  1  0.618380  0.073180  0.157350  1.0  0.1043
  H  H14  1  0.118380  0.573180  0.657350  1.0  0.1043
  H  H15  1  0.881620  0.426820  0.657350  1.0  0.104
  H  H16  1  0.381620  0.926820  0.157350  1.0  0.104
  H  H17  1  0.926820  0.381620  0.842650  1.0  0.1041
  H  H18  1  0.426820  0.881620  0.342650  1.0  0.1041
  H  H19  1  0.573180  0.118380  0.342650  1.0  0.1046
  H  H20  1  0.073180  0.618380  0.842650  1.0  0.1046
  H  H21  1  0.881620  0.073180  0.592650  1.0  0.1046
  H  H22  1  0.381620  0.573180  0.092650  1.0  0.1046
  H  H23  1  0.618380  0.426820  0.092650  1.0  0.1051
  H  H24  1  0.118380  0.926820  0.592650  1.0  0.1051
  H  H25  1  0.806000  0.250000  0.625000  1.0  0.421
  H  H26  1  0.306000  0.750000  0.125000  1.0  0.421
  H  H27  1  0.694000  0.250000  0.125000  1.0  0.4209
  H  H28  1  0.194000  0.750000  0.625000  1.0  0.4209
  H  H29  1  0.750000  0.306000  0.875000  1.0  0.4245
  H  H30  1  0.250000  0.806000  0.375000  1.0  0.4245
  H  H31  1  0.750000  0.194000  0.375000  1.0  0.424
  H  H32  1  0.250000  0.694000  0.875000  1.0  0.424
  H  H33  1  0.500000  0.500000  0.626000  1.0  0.1092
  H  H34  1  0.000000  0.000000  0.126000  1.0  0.1101
  H  H35  1  0.500000  0.000000  0.876000  1.0  0.1092
  H  H36  1  0.000000  0.500000  0.376000  1.0  0.1092
  H  H37  1  0.000000  0.500000  0.124000  1.0  0.109
  H  H38  1  0.500000  0.000000  0.624000  1.0  0.109
  H  H39  1  0.000000  0.000000  0.874000  1.0  0.1098
  H  H40  1  0.500000  0.500000  0.374000  1.0  0.109
  C  C41  1  0.592200  0.360200  0.700300  1.0  0.6977
  C  C42  1  0.543400  0.433200  0.760100  1.0  -0.1064
  C  C43  1  0.547600  0.433200  0.879400  1.0  -0.088
  C  C44  1  0.092200  0.860200  0.200300  1.0  0.6977
  C  C45  1  0.043400  0.933200  0.260100  1.0  -0.1064
  C  C46  1  0.047600  0.933200  0.379400  1.0  -0.088
  C  C47  1  0.907800  0.139800  0.200300  1.0  0.699
  C  C48  1  0.956600  0.066800  0.260100  1.0  -0.1071
  C  C49  1  0.952400  0.066800  0.379400  1.0  -0.0878
  C  C50  1  0.407800  0.639800  0.700300  1.0  0.699
  C  C51  1  0.456600  0.566800  0.760100  1.0  -0.1071
  C  C52  1  0.452400  0.566800  0.879400  1.0  -0.0878
  C  C53  1  0.639800  0.092200  0.950300  1.0  0.6961
  C  C54  1  0.566800  0.043400  0.010100  1.0  -0.1046
  C  C55  1  0.566800  0.047600  0.129400  1.0  -0.0868
  C  C56  1  0.139800  0.592200  0.450300  1.0  0.6961
  C  C57  1  0.066800  0.543400  0.510100  1.0  -0.1046
  C  C58  1  0.066800  0.547600  0.629400  1.0  -0.0868
  C  C59  1  0.860200  0.407800  0.450300  1.0  0.6959
  C  C60  1  0.933200  0.456600  0.510100  1.0  -0.1059
  C  C61  1  0.933200  0.452400  0.629400  1.0  -0.0888
  C  C62  1  0.360200  0.907800  0.950300  1.0  0.6959
  C  C63  1  0.433200  0.956600  0.010100  1.0  -0.1059
  C  C64  1  0.433200  0.952400  0.129400  1.0  -0.0888
  C  C65  1  0.907800  0.360200  0.049700  1.0  0.6984
  C  C66  1  0.956600  0.433200  0.989900  1.0  -0.1064
  C  C67  1  0.952400  0.433200  0.870600  1.0  -0.0886
  C  C68  1  0.407800  0.860200  0.549700  1.0  0.6984
  C  C69  1  0.456600  0.933200  0.489900  1.0  -0.1064
  C  C70  1  0.452400  0.933200  0.370600  1.0  -0.0886
  C  C71  1  0.592200  0.139800  0.549700  1.0  0.6984
  C  C72  1  0.543400  0.066800  0.489900  1.0  -0.1072
  C  C73  1  0.547600  0.066800  0.370600  1.0  -0.0875
  C  C74  1  0.092200  0.639800  0.049700  1.0  0.6984
  C  C75  1  0.043400  0.566800  0.989900  1.0  -0.1072
  C  C76  1  0.047600  0.566800  0.870600  1.0  -0.0875
  C  C77  1  0.860200  0.092200  0.799700  1.0  0.6959
  C  C78  1  0.933200  0.043400  0.739900  1.0  -0.1054
  C  C79  1  0.933200  0.047600  0.620600  1.0  -0.0886
  C  C80  1  0.360200  0.592200  0.299700  1.0  0.6959
  C  C81  1  0.433200  0.543400  0.239900  1.0  -0.1054
  C  C82  1  0.433200  0.547600  0.120600  1.0  -0.0886
  C  C83  1  0.639800  0.407800  0.299700  1.0  0.6958
  C  C84  1  0.566800  0.456600  0.239900  1.0  -0.1054
  C  C85  1  0.566800  0.452400  0.120600  1.0  -0.0874
  C  C86  1  0.139800  0.907800  0.799700  1.0  0.6958
  C  C87  1  0.066800  0.956600  0.739900  1.0  -0.1054
  C  C88  1  0.066800  0.952400  0.620600  1.0  -0.0874
  C  C89  1  0.500000  0.500000  0.703300  1.0  0.0261
  C  C90  1  0.500000  0.500000  0.936200  1.0  -0.0669
  C  C91  1  0.000000  0.000000  0.203300  1.0  0.0261
  C  C92  1  0.000000  0.000000  0.436200  1.0  -0.0669
  C  C93  1  0.500000  0.000000  0.953300  1.0  0.0261
  C  C94  1  0.500000  0.000000  0.186200  1.0  -0.0669
  C  C95  1  0.000000  0.500000  0.453300  1.0  0.0261
  C  C96  1  0.000000  0.500000  0.686200  1.0  -0.0669
  C  C97  1  0.000000  0.500000  0.046700  1.0  0.0249
  C  C98  1  0.000000  0.500000  0.813800  1.0  -0.066
  C  C99  1  0.500000  0.000000  0.546700  1.0  0.0249
  C  C100  1  0.500000  0.000000  0.313800  1.0  -0.066
  C  C101  1  0.000000  0.000000  0.796700  1.0  0.0249
  C  C102  1  0.000000  0.000000  0.563800  1.0  -0.066
  C  C103  1  0.500000  0.500000  0.296700  1.0  0.0249
  C  C104  1  0.500000  0.500000  0.063800  1.0  -0.066
  O  O105  1  0.601010  0.290630  0.757500  1.0  -0.6177
  O  O106  1  0.617770  0.380080  0.609080  1.0  -0.5718
  O  O107  1  0.101010  0.790630  0.257500  1.0  -0.6177
  O  O108  1  0.117770  0.880080  0.109080  1.0  -0.5718
  O  O109  1  0.898990  0.209370  0.257500  1.0  -0.6184
  O  O110  1  0.882230  0.119920  0.109080  1.0  -0.5737
  O  O111  1  0.398990  0.709370  0.757500  1.0  -0.6184
  O  O112  1  0.382230  0.619920  0.609080  1.0  -0.5737
  O  O113  1  0.709370  0.101010  0.007500  1.0  -0.6173
  O  O114  1  0.619920  0.117770  0.859080  1.0  -0.5704
  O  O115  1  0.209370  0.601010  0.507500  1.0  -0.6173
  O  O116  1  0.119920  0.617770  0.359080  1.0  -0.5704
  O  O117  1  0.790630  0.398990  0.507500  1.0  -0.6185
  O  O118  1  0.880080  0.382230  0.359080  1.0  -0.5703
  O  O119  1  0.290630  0.898990  0.007500  1.0  -0.6185
  O  O120  1  0.380080  0.882230  0.859080  1.0  -0.5703
  O  O121  1  0.898990  0.290630  0.992500  1.0  -0.6184
  O  O122  1  0.882230  0.380080  0.140920  1.0  -0.572
  O  O123  1  0.398990  0.790630  0.492500  1.0  -0.6184
  O  O124  1  0.382230  0.880080  0.640920  1.0  -0.572
  O  O125  1  0.601010  0.209370  0.492500  1.0  -0.6182
  O  O126  1  0.617770  0.119920  0.640920  1.0  -0.571
  O  O127  1  0.101010  0.709370  0.992500  1.0  -0.6182
  O  O128  1  0.117770  0.619920  0.140920  1.0  -0.571
  O  O129  1  0.790630  0.101010  0.742500  1.0  -0.6175
  O  O130  1  0.880080  0.117770  0.890920  1.0  -0.5692
  O  O131  1  0.290630  0.601010  0.242500  1.0  -0.6175
  O  O132  1  0.380080  0.617770  0.390920  1.0  -0.5692
  O  O133  1  0.709370  0.398990  0.242500  1.0  -0.6189
  O  O134  1  0.619920  0.382230  0.390920  1.0  -0.5694
  O  O135  1  0.209370  0.898990  0.742500  1.0  -0.6189
  O  O136  1  0.119920  0.882230  0.890920  1.0  -0.5694
  O  O137  1  0.745900  0.250000  0.625000  1.0  -1.0829
  O  O138  1  0.245900  0.750000  0.125000  1.0  -1.0829
  O  O139  1  0.754100  0.250000  0.125000  1.0  -1.0804
  O  O140  1  0.254100  0.750000  0.625000  1.0  -1.0804
  O  O141  1  0.750000  0.245900  0.875000  1.0  -1.0822
  O  O142  1  0.250000  0.745900  0.375000  1.0  -1.0822
  O  O143  1  0.750000  0.254100  0.375000  1.0  -1.0843
  O  O144  1  0.250000  0.754100  0.875000  1.0  -1.0843
