# generated using pymatgen
data_VH4C8O5
_symmetry_space_group_name_H-M   'P 1'
_cell_length_a   15.14230000
_cell_length_b   15.14230000
_cell_length_c   12.04490000
_cell_angle_alpha   90.00000000
_cell_angle_beta   90.00000000
_cell_angle_gamma   90.00000000
_symmetry_Int_Tables_number   1
_chemical_formula_structural   VH4C8O5
_chemical_formula_sum   'V8 H32 C64 O40'
_cell_volume   2761.76607877
_cell_formula_units_Z   8
loop_
 _symmetry_equiv_pos_site_id
 _symmetry_equiv_pos_as_xyz
  1  'x, y, z'
loop_
 _atom_site_type_symbol
 _atom_site_label
 _atom_site_symmetry_multiplicity
 _atom_site_fract_x
 _atom_site_fract_y
 _atom_site_fract_z
 _atom_site_occupancy
 _atom_site_charge
  V  V1  1  0.689350  0.310650  0.500000  1.0  1.6678
  V  V2  1  0.189350  0.810650  0.000000  1.0  1.6678
  V  V3  1  0.810650  0.189350  0.000000  1.0  1.6635
  V  V4  1  0.310650  0.689350  0.500000  1.0  1.6635
  V  V5  1  0.689350  0.189350  0.750000  1.0  1.6694
  V  V6  1  0.189350  0.689350  0.250000  1.0  1.6694
  V  V7  1  0.810650  0.310650  0.250000  1.0  1.6626
  V  V8  1  0.310650  0.810650  0.750000  1.0  1.6626
  H  H9  1  0.573180  0.381620  0.907350  1.0  0.1024
  H  H10  1  0.073180  0.881620  0.407350  1.0  0.1024
  H  H11  1  0.926820  0.118380  0.407350  1.0  0.1025
  H  H12  1  0.426820  0.618380  0.907350  1.0  0.1025
  H  H13  1  0.618380  0.073180  0.157350  1.0  0.1031
  H  H14  1  0.118380  0.573180  0.657350  1.0  0.1031
  H  H15  1  0.881620  0.426820  0.657350  1.0  0.1024
  H  H16  1  0.381620  0.926820  0.157350  1.0  0.1024
  H  H17  1  0.926820  0.381620  0.842650  1.0  0.1026
  H  H18  1  0.426820  0.881620  0.342650  1.0  0.1026
  H  H19  1  0.573180  0.118380  0.342650  1.0  0.1035
  H  H20  1  0.073180  0.618380  0.842650  1.0  0.1035
  H  H21  1  0.881620  0.073180  0.592650  1.0  0.1033
  H  H22  1  0.381620  0.573180  0.092650  1.0  0.1033
  H  H23  1  0.618380  0.426820  0.092650  1.0  0.1039
  H  H24  1  0.118380  0.926820  0.592650  1.0  0.1039
  H  H25  1  0.806000  0.250000  0.625000  1.0  0.3972
  H  H26  1  0.306000  0.750000  0.125000  1.0  0.3972
  H  H27  1  0.694000  0.250000  0.125000  1.0  0.3988
  H  H28  1  0.194000  0.750000  0.625000  1.0  0.3988
  H  H29  1  0.750000  0.306000  0.875000  1.0  0.4022
  H  H30  1  0.250000  0.806000  0.375000  1.0  0.4022
  H  H31  1  0.750000  0.194000  0.375000  1.0  0.4042
  H  H32  1  0.250000  0.694000  0.875000  1.0  0.4042
  H  H33  1  0.500000  0.500000  0.631000  1.0  0.1048
  H  H34  1  0.000000  0.000000  0.131000  1.0  0.1047
  H  H35  1  0.500000  0.000000  0.881000  1.0  0.1048
  H  H36  1  0.000000  0.500000  0.381000  1.0  0.1048
  H  H37  1  0.000000  0.500000  0.119000  1.0  0.1041
  H  H38  1  0.500000  0.000000  0.619000  1.0  0.1041
  H  H39  1  0.000000  0.000000  0.869000  1.0  0.104
  H  H40  1  0.500000  0.500000  0.369000  1.0  0.1041
  C  C41  1  0.592500  0.360100  0.706900  1.0  0.7217
  C  C42  1  0.541000  0.432000  0.762400  1.0  -0.1316
  C  C43  1  0.545800  0.432700  0.881600  1.0  -0.0567
  C  C44  1  0.092500  0.860100  0.206900  1.0  0.7217
  C  C45  1  0.041000  0.932000  0.262400  1.0  -0.1316
  C  C46  1  0.045800  0.932700  0.381600  1.0  -0.0567
  C  C47  1  0.907500  0.139900  0.206900  1.0  0.7224
  C  C48  1  0.959000  0.068000  0.262400  1.0  -0.1314
  C  C49  1  0.954200  0.067300  0.381600  1.0  -0.0564
  C  C50  1  0.407500  0.639900  0.706900  1.0  0.7224
  C  C51  1  0.459000  0.568000  0.762400  1.0  -0.1314
  C  C52  1  0.454200  0.567300  0.881600  1.0  -0.0564
  C  C53  1  0.639900  0.092500  0.956900  1.0  0.7196
  C  C54  1  0.568000  0.041000  0.012400  1.0  -0.1308
  C  C55  1  0.567300  0.045800  0.131600  1.0  -0.0567
  C  C56  1  0.139900  0.592500  0.456900  1.0  0.7196
  C  C57  1  0.068000  0.541000  0.512400  1.0  -0.1308
  C  C58  1  0.067300  0.545800  0.631600  1.0  -0.0567
  C  C59  1  0.860100  0.407500  0.456900  1.0  0.7197
  C  C60  1  0.932000  0.459000  0.512400  1.0  -0.1299
  C  C61  1  0.932700  0.454200  0.631600  1.0  -0.0574
  C  C62  1  0.360100  0.907500  0.956900  1.0  0.7197
  C  C63  1  0.432000  0.959000  0.012400  1.0  -0.1299
  C  C64  1  0.432700  0.954200  0.131600  1.0  -0.0574
  C  C65  1  0.907500  0.360100  0.043100  1.0  0.7211
  C  C66  1  0.959000  0.432000  0.987600  1.0  -0.1321
  C  C67  1  0.954200  0.432700  0.868400  1.0  -0.0577
  C  C68  1  0.407500  0.860100  0.543100  1.0  0.7211
  C  C69  1  0.459000  0.932000  0.487600  1.0  -0.1321
  C  C70  1  0.454200  0.932700  0.368400  1.0  -0.0577
  C  C71  1  0.592500  0.139900  0.543100  1.0  0.7218
  C  C72  1  0.541000  0.068000  0.487600  1.0  -0.1316
  C  C73  1  0.545800  0.067300  0.368400  1.0  -0.0562
  C  C74  1  0.092500  0.639900  0.043100  1.0  0.7218
  C  C75  1  0.041000  0.568000  0.987600  1.0  -0.1316
  C  C76  1  0.045800  0.567300  0.868400  1.0  -0.0562
  C  C77  1  0.860100  0.092500  0.793100  1.0  0.7191
  C  C78  1  0.932000  0.041000  0.737600  1.0  -0.1304
  C  C79  1  0.932700  0.045800  0.618400  1.0  -0.0578
  C  C80  1  0.360100  0.592500  0.293100  1.0  0.7191
  C  C81  1  0.432000  0.541000  0.237600  1.0  -0.1304
  C  C82  1  0.432700  0.545800  0.118400  1.0  -0.0578
  C  C83  1  0.639900  0.407500  0.293100  1.0  0.7186
  C  C84  1  0.568000  0.459000  0.237600  1.0  -0.1313
  C  C85  1  0.567300  0.454200  0.118400  1.0  -0.0568
  C  C86  1  0.139900  0.907500  0.793100  1.0  0.7186
  C  C87  1  0.068000  0.959000  0.737600  1.0  -0.1313
  C  C88  1  0.067300  0.954200  0.618400  1.0  -0.0568
  C  C89  1  0.500000  0.500000  0.708000  1.0  0.0003
  C  C90  1  0.500000  0.500000  0.937100  1.0  -0.034
  C  C91  1  0.000000  0.000000  0.208000  1.0  0.0003
  C  C92  1  0.000000  0.000000  0.437100  1.0  -0.034
  C  C93  1  0.500000  0.000000  0.958000  1.0  0.0003
  C  C94  1  0.500000  0.000000  0.187100  1.0  -0.034
  C  C95  1  0.000000  0.500000  0.458000  1.0  0.0003
  C  C96  1  0.000000  0.500000  0.687100  1.0  -0.034
  C  C97  1  0.000000  0.500000  0.042000  1.0  -0.0014
  C  C98  1  0.000000  0.500000  0.812900  1.0  -0.0341
  C  C99  1  0.500000  0.000000  0.542000  1.0  -0.0014
  C  C100  1  0.500000  0.000000  0.312900  1.0  -0.0341
  C  C101  1  0.000000  0.000000  0.792000  1.0  -0.0014
  C  C102  1  0.000000  0.000000  0.562900  1.0  -0.0341
  C  C103  1  0.500000  0.500000  0.292000  1.0  -0.0014
  C  C104  1  0.500000  0.500000  0.062900  1.0  -0.0341
  O  O105  1  0.602200  0.290600  0.761500  1.0  -0.5895
  O  O106  1  0.622500  0.380700  0.614200  1.0  -0.5857
  O  O107  1  0.102200  0.790600  0.261500  1.0  -0.5895
  O  O108  1  0.122500  0.880700  0.114200  1.0  -0.5857
  O  O109  1  0.897800  0.209400  0.261500  1.0  -0.5896
  O  O110  1  0.877500  0.119300  0.114200  1.0  -0.586
  O  O111  1  0.397800  0.709400  0.761500  1.0  -0.5896
  O  O112  1  0.377500  0.619300  0.614200  1.0  -0.586
  O  O113  1  0.709400  0.102200  0.011500  1.0  -0.5884
  O  O114  1  0.619300  0.122500  0.864200  1.0  -0.5833
  O  O115  1  0.209400  0.602200  0.511500  1.0  -0.5884
  O  O116  1  0.119300  0.622500  0.364200  1.0  -0.5833
  O  O117  1  0.790600  0.397800  0.511500  1.0  -0.5901
  O  O118  1  0.880700  0.377500  0.364200  1.0  -0.5838
  O  O119  1  0.290600  0.897800  0.011500  1.0  -0.5901
  O  O120  1  0.380700  0.877500  0.864200  1.0  -0.5838
  O  O121  1  0.897800  0.290600  0.988500  1.0  -0.5882
  O  O122  1  0.877500  0.380700  0.135800  1.0  -0.5865
  O  O123  1  0.397800  0.790600  0.488500  1.0  -0.5882
  O  O124  1  0.377500  0.880700  0.635800  1.0  -0.5865
  O  O125  1  0.602200  0.209400  0.488500  1.0  -0.5903
  O  O126  1  0.622500  0.119300  0.635800  1.0  -0.5858
  O  O127  1  0.102200  0.709400  0.988500  1.0  -0.5903
  O  O128  1  0.122500  0.619300  0.135800  1.0  -0.5858
  O  O129  1  0.790600  0.102200  0.738500  1.0  -0.5877
  O  O130  1  0.880700  0.122500  0.885800  1.0  -0.5841
  O  O131  1  0.290600  0.602200  0.238500  1.0  -0.5877
  O  O132  1  0.380700  0.622500  0.385800  1.0  -0.5841
  O  O133  1  0.709400  0.397800  0.238500  1.0  -0.5907
  O  O134  1  0.619300  0.377500  0.385800  1.0  -0.584
  O  O135  1  0.209400  0.897800  0.738500  1.0  -0.5907
  O  O136  1  0.119300  0.877500  0.885800  1.0  -0.584
  O  O137  1  0.743900  0.250000  0.625000  1.0  -1.0574
  O  O138  1  0.243900  0.750000  0.125000  1.0  -1.0574
  O  O139  1  0.756100  0.250000  0.125000  1.0  -1.0577
  O  O140  1  0.256100  0.750000  0.625000  1.0  -1.0577
  O  O141  1  0.750000  0.243900  0.875000  1.0  -1.0576
  O  O142  1  0.250000  0.743900  0.375000  1.0  -1.0576
  O  O143  1  0.750000  0.256100  0.375000  1.0  -1.0617
  O  O144  1  0.250000  0.756100  0.875000  1.0  -1.0617
