# generated using pymatgen
data_ZnH8C12(IN2)2
_symmetry_space_group_name_H-M   'P 1'
_cell_length_a   13.70730000
_cell_length_b   27.87300000
_cell_length_c   45.85200000
_cell_angle_alpha   90.00000000
_cell_angle_beta   90.00000000
_cell_angle_gamma   90.00000000
_symmetry_Int_Tables_number   1
_chemical_formula_structural   ZnH8C12(IN2)2
_chemical_formula_sum   'Zn24 H192 C288 I48 N96'
_cell_volume   17518.37894461
_cell_formula_units_Z   24
loop_
 _symmetry_equiv_pos_site_id
 _symmetry_equiv_pos_as_xyz
  1  'x, y, z'
loop_
 _atom_site_type_symbol
 _atom_site_label
 _atom_site_symmetry_multiplicity
 _atom_site_fract_x
 _atom_site_fract_y
 _atom_site_fract_z
 _atom_site_occupancy
 _atom_site_charge
  Zn  Zn1  1  0.161870  0.942350  0.429830  1.0  0.8748
  Zn  Zn2  1  0.142670  0.755520  0.689080  1.0  0.8874
  Zn  Zn3  1  0.350740  0.972140  0.586740  1.0  0.8425
  Zn  Zn4  1  0.838130  0.557650  0.929830  1.0  0.8748
  Zn  Zn5  1  0.857330  0.744480  0.189080  1.0  0.8849
  Zn  Zn6  1  0.649260  0.527860  0.086740  1.0  0.8426
  Zn  Zn7  1  0.661870  0.057650  0.070170  1.0  0.8768
  Zn  Zn8  1  0.642670  0.244480  0.810920  1.0  0.8864
  Zn  Zn9  1  0.850740  0.027860  0.913260  1.0  0.8424
  Zn  Zn10  1  0.338130  0.442350  0.570170  1.0  0.8738
  Zn  Zn11  1  0.357330  0.255520  0.310920  1.0  0.8861
  Zn  Zn12  1  0.149260  0.472140  0.413260  1.0  0.8426
  Zn  Zn13  1  0.838130  0.057650  0.570170  1.0  0.8765
  Zn  Zn14  1  0.857330  0.244480  0.310920  1.0  0.8848
  Zn  Zn15  1  0.649260  0.027860  0.413260  1.0  0.8426
  Zn  Zn16  1  0.161870  0.442350  0.070170  1.0  0.8752
  Zn  Zn17  1  0.142670  0.255520  0.810920  1.0  0.8874
  Zn  Zn18  1  0.350740  0.472140  0.913260  1.0  0.8433
  Zn  Zn19  1  0.338130  0.942350  0.929830  1.0  0.8736
  Zn  Zn20  1  0.357330  0.755520  0.189080  1.0  0.8862
  Zn  Zn21  1  0.149260  0.972140  0.086740  1.0  0.8425
  Zn  Zn22  1  0.661870  0.557650  0.429830  1.0  0.875
  Zn  Zn23  1  0.642670  0.744480  0.689080  1.0  0.8865
  Zn  Zn24  1  0.850740  0.527860  0.586740  1.0  0.8418
  H  H25  1  0.961800  0.960700  0.455000  1.0  0.0855
  H  H26  1  0.868100  0.941000  0.495400  1.0  0.1201
  H  H27  1  0.103200  0.873300  0.529300  1.0  0.1267
  H  H28  1  0.191400  0.896200  0.488700  1.0  0.0951
  H  H29  1  0.657400  0.935100  0.530700  1.0  0.1155
  H  H30  1  0.500400  0.964000  0.538300  1.0  0.0946
  H  H31  1  0.500000  0.913600  0.619000  1.0  0.0951
  H  H32  1  0.656300  0.884200  0.613400  1.0  0.1246
  H  H33  1  0.844900  0.818500  0.637500  1.0  0.1215
  H  H34  1  0.932100  0.782000  0.674400  1.0  0.0846
  H  H35  1  0.180800  0.809900  0.635800  1.0  0.0867
  H  H36  1  0.101300  0.846000  0.596800  1.0  0.1239
  H  H37  1  0.919200  0.665000  0.228200  1.0  0.0945
  H  H38  1  0.981200  0.653700  0.275000  1.0  0.1159
  H  H39  1  0.031300  0.796200  0.279600  1.0  0.1189
  H  H40  1  0.972800  0.803200  0.231900  1.0  0.0925
  H  H41  1  0.079200  0.585200  0.330000  1.0  0.1218
  H  H42  1  0.107600  0.512400  0.353200  1.0  0.0886
  H  H43  1  0.117200  0.575300  0.429900  1.0  0.0859
  H  H44  1  0.094800  0.650000  0.408700  1.0  0.1183
  H  H45  1  0.125200  0.765100  0.412600  1.0  0.1213
  H  H46  1  0.156600  0.835100  0.438200  1.0  0.0958
  H  H47  1  0.087100  0.914200  0.370200  1.0  0.0934
  H  H48  1  0.059900  0.846300  0.341800  1.0  0.1241
  H  H49  1  0.038200  0.539300  0.955000  1.0  0.0859
  H  H50  1  0.131900  0.559000  0.995400  1.0  0.1199
  H  H51  1  0.896800  0.626700  0.029300  1.0  0.127
  H  H52  1  0.808600  0.603800  0.988700  1.0  0.0946
  H  H53  1  0.342600  0.564900  0.030700  1.0  0.115
  H  H54  1  0.499600  0.536000  0.038300  1.0  0.0949
  H  H55  1  0.500000  0.586400  0.119000  1.0  0.0947
  H  H56  1  0.343700  0.615800  0.113400  1.0  0.1244
  H  H57  1  0.155100  0.681500  0.137500  1.0  0.1198
  H  H58  1  0.067900  0.718000  0.174400  1.0  0.0841
  H  H59  1  0.819200  0.690100  0.135800  1.0  0.0881
  H  H60  1  0.898700  0.654000  0.096800  1.0  0.124
  H  H61  1  0.080800  0.835000  0.728200  1.0  0.0944
  H  H62  1  0.018800  0.846300  0.775000  1.0  0.1161
  H  H63  1  0.968700  0.703800  0.779600  1.0  0.1187
  H  H64  1  0.027200  0.696800  0.731900  1.0  0.0941
  H  H65  1  0.920800  0.914800  0.830000  1.0  0.1216
  H  H66  1  0.892400  0.987600  0.853200  1.0  0.0887
  H  H67  1  0.882800  0.924700  0.929900  1.0  0.086
  H  H68  1  0.905200  0.850000  0.908700  1.0  0.1186
  H  H69  1  0.874800  0.734900  0.912600  1.0  0.1211
  H  H70  1  0.843400  0.664900  0.938200  1.0  0.0965
  H  H71  1  0.912900  0.585800  0.870200  1.0  0.0934
  H  H72  1  0.940100  0.653700  0.841800  1.0  0.1239
  H  H73  1  0.461800  0.039300  0.045000  1.0  0.0865
  H  H74  1  0.368100  0.059000  0.004600  1.0  0.1201
  H  H75  1  0.603200  0.126700  0.970700  1.0  0.1269
  H  H76  1  0.691400  0.103800  0.011300  1.0  0.0954
  H  H77  1  0.157400  0.064900  0.969300  1.0  0.1155
  H  H78  1  0.000400  0.036000  0.961700  1.0  0.0956
  H  H79  1  0.000000  0.086400  0.881000  1.0  0.0949
  H  H80  1  0.156300  0.115800  0.886600  1.0  0.1244
  H  H81  1  0.344900  0.181500  0.862500  1.0  0.1215
  H  H82  1  0.432100  0.218000  0.825600  1.0  0.0837
  H  H83  1  0.680800  0.190100  0.864200  1.0  0.0869
  H  H84  1  0.601300  0.154000  0.903200  1.0  0.1243
  H  H85  1  0.419200  0.335000  0.271800  1.0  0.0939
  H  H86  1  0.481200  0.346300  0.225000  1.0  0.1163
  H  H87  1  0.531300  0.203800  0.220400  1.0  0.1188
  H  H88  1  0.472800  0.196800  0.268100  1.0  0.0943
  H  H89  1  0.579200  0.414800  0.170000  1.0  0.1208
  H  H90  1  0.607600  0.487600  0.146800  1.0  0.0895
  H  H91  1  0.617200  0.424700  0.070100  1.0  0.0854
  H  H92  1  0.594800  0.350000  0.091300  1.0  0.1183
  H  H93  1  0.625200  0.234900  0.087400  1.0  0.121
  H  H94  1  0.656600  0.164900  0.061800  1.0  0.0961
  H  H95  1  0.587100  0.085800  0.129800  1.0  0.094
  H  H96  1  0.559900  0.153700  0.158200  1.0  0.1242
  H  H97  1  0.538200  0.460700  0.545000  1.0  0.0861
  H  H98  1  0.631900  0.441000  0.504600  1.0  0.12
  H  H99  1  0.396800  0.373300  0.470700  1.0  0.1271
  H  H100  1  0.308600  0.396200  0.511300  1.0  0.0946
  H  H101  1  0.842600  0.435100  0.469300  1.0  0.1153
  H  H102  1  0.999600  0.464000  0.461700  1.0  0.0955
  H  H103  1  0.000000  0.413600  0.381000  1.0  0.0956
  H  H104  1  0.843700  0.384200  0.386600  1.0  0.1244
  H  H105  1  0.655100  0.318500  0.362500  1.0  0.1198
  H  H106  1  0.567900  0.282000  0.325600  1.0  0.0842
  H  H107  1  0.319200  0.309900  0.364200  1.0  0.088
  H  H108  1  0.398700  0.346000  0.403200  1.0  0.1241
  H  H109  1  0.580800  0.165000  0.771800  1.0  0.0942
  H  H110  1  0.518800  0.153700  0.725000  1.0  0.1159
  H  H111  1  0.468700  0.296200  0.720400  1.0  0.1193
  H  H112  1  0.527200  0.303200  0.768100  1.0  0.0926
  H  H113  1  0.420800  0.085200  0.670000  1.0  0.121
  H  H114  1  0.392400  0.012400  0.646800  1.0  0.0894
  H  H115  1  0.382800  0.075300  0.570100  1.0  0.085
  H  H116  1  0.405200  0.150000  0.591300  1.0  0.1183
  H  H117  1  0.374800  0.265100  0.587400  1.0  0.121
  H  H118  1  0.343400  0.335100  0.561800  1.0  0.0961
  H  H119  1  0.412900  0.414200  0.629800  1.0  0.0936
  H  H120  1  0.440100  0.346300  0.658200  1.0  0.1241
  H  H121  1  0.038200  0.039300  0.545000  1.0  0.0864
  H  H122  1  0.131900  0.059000  0.504600  1.0  0.1202
  H  H123  1  0.896800  0.126700  0.470700  1.0  0.1273
  H  H124  1  0.808600  0.103800  0.511300  1.0  0.0949
  H  H125  1  0.342600  0.064900  0.469300  1.0  0.1153
  H  H126  1  0.499600  0.036000  0.461700  1.0  0.0956
  H  H127  1  0.500000  0.086400  0.381000  1.0  0.0955
  H  H128  1  0.343700  0.115800  0.386600  1.0  0.1245
  H  H129  1  0.155100  0.181500  0.362500  1.0  0.1198
  H  H130  1  0.067900  0.218000  0.325600  1.0  0.0839
  H  H131  1  0.819200  0.190100  0.364200  1.0  0.0881
  H  H132  1  0.898700  0.154000  0.403200  1.0  0.1243
  H  H133  1  0.080800  0.335000  0.771800  1.0  0.0938
  H  H134  1  0.018800  0.346300  0.725000  1.0  0.1163
  H  H135  1  0.968700  0.203800  0.720400  1.0  0.1188
  H  H136  1  0.027200  0.196800  0.768100  1.0  0.0943
  H  H137  1  0.920800  0.414800  0.670000  1.0  0.1209
  H  H138  1  0.892400  0.487600  0.646800  1.0  0.0892
  H  H139  1  0.882800  0.424700  0.570100  1.0  0.0852
  H  H140  1  0.905200  0.350000  0.591300  1.0  0.1183
  H  H141  1  0.874800  0.234900  0.587400  1.0  0.121
  H  H142  1  0.843400  0.164900  0.561800  1.0  0.0963
  H  H143  1  0.912900  0.085800  0.629800  1.0  0.0939
  H  H144  1  0.940100  0.153700  0.658200  1.0  0.1242
  H  H145  1  0.961800  0.460700  0.045000  1.0  0.0862
  H  H146  1  0.868100  0.441000  0.004600  1.0  0.1201
  H  H147  1  0.103200  0.373300  0.970700  1.0  0.1268
  H  H148  1  0.191400  0.396200  0.011300  1.0  0.095
  H  H149  1  0.657400  0.435100  0.969300  1.0  0.1154
  H  H150  1  0.500400  0.464000  0.961700  1.0  0.0955
  H  H151  1  0.500000  0.413600  0.881000  1.0  0.0951
  H  H152  1  0.656300  0.384200  0.886600  1.0  0.1245
  H  H153  1  0.844900  0.318500  0.862500  1.0  0.1215
  H  H154  1  0.932100  0.282000  0.825600  1.0  0.084
  H  H155  1  0.180800  0.309900  0.864200  1.0  0.0867
  H  H156  1  0.101300  0.346000  0.903200  1.0  0.124
  H  H157  1  0.919200  0.165000  0.271800  1.0  0.0945
  H  H158  1  0.981200  0.153700  0.225000  1.0  0.116
  H  H159  1  0.031300  0.296200  0.220400  1.0  0.1192
  H  H160  1  0.972800  0.303200  0.268100  1.0  0.0925
  H  H161  1  0.079200  0.085200  0.170000  1.0  0.121
  H  H162  1  0.107600  0.012400  0.146800  1.0  0.0896
  H  H163  1  0.117200  0.075300  0.070100  1.0  0.0851
  H  H164  1  0.094800  0.150000  0.091300  1.0  0.1183
  H  H165  1  0.125200  0.265100  0.087400  1.0  0.1208
  H  H166  1  0.156600  0.335100  0.061800  1.0  0.0958
  H  H167  1  0.087100  0.414200  0.129800  1.0  0.0938
  H  H168  1  0.059900  0.346300  0.158200  1.0  0.1241
  H  H169  1  0.538200  0.960700  0.955000  1.0  0.0859
  H  H170  1  0.631900  0.941000  0.995400  1.0  0.12
  H  H171  1  0.396800  0.873300  0.029300  1.0  0.1272
  H  H172  1  0.308600  0.896200  0.988700  1.0  0.0944
  H  H173  1  0.842600  0.935100  0.030700  1.0  0.1152
  H  H174  1  0.999600  0.964000  0.038300  1.0  0.0947
  H  H175  1  0.000000  0.913600  0.119000  1.0  0.0952
  H  H176  1  0.843700  0.884200  0.113400  1.0  0.1243
  H  H177  1  0.655100  0.818500  0.137500  1.0  0.1199
  H  H178  1  0.567900  0.782000  0.174400  1.0  0.0844
  H  H179  1  0.319200  0.809900  0.135800  1.0  0.088
  H  H180  1  0.398700  0.846000  0.096800  1.0  0.1239
  H  H181  1  0.580800  0.665000  0.728200  1.0  0.0944
  H  H182  1  0.518800  0.653700  0.775000  1.0  0.1159
  H  H183  1  0.468700  0.796200  0.779600  1.0  0.1189
  H  H184  1  0.527200  0.803200  0.731900  1.0  0.0926
  H  H185  1  0.420800  0.585200  0.830000  1.0  0.1217
  H  H186  1  0.392400  0.512400  0.853200  1.0  0.0886
  H  H187  1  0.382800  0.575300  0.929900  1.0  0.0859
  H  H188  1  0.405200  0.650000  0.908700  1.0  0.1183
  H  H189  1  0.374800  0.765100  0.912600  1.0  0.1214
  H  H190  1  0.343400  0.835100  0.938200  1.0  0.0961
  H  H191  1  0.412900  0.914200  0.870200  1.0  0.0932
  H  H192  1  0.440100  0.846300  0.841800  1.0  0.1242
  H  H193  1  0.461800  0.539300  0.455000  1.0  0.0854
  H  H194  1  0.368100  0.559000  0.495400  1.0  0.12
  H  H195  1  0.603200  0.626700  0.529300  1.0  0.1264
  H  H196  1  0.691400  0.603800  0.488700  1.0  0.0954
  H  H197  1  0.157400  0.564900  0.530700  1.0  0.1154
  H  H198  1  0.000400  0.536000  0.538300  1.0  0.0946
  H  H199  1  0.000000  0.586400  0.619000  1.0  0.0946
  H  H200  1  0.156300  0.615800  0.613400  1.0  0.1244
  H  H201  1  0.344900  0.681500  0.637500  1.0  0.1215
  H  H202  1  0.432100  0.718000  0.674400  1.0  0.0841
  H  H203  1  0.680800  0.690100  0.635800  1.0  0.0868
  H  H204  1  0.601300  0.654000  0.596800  1.0  0.124
  H  H205  1  0.419200  0.835000  0.228200  1.0  0.0945
  H  H206  1  0.481200  0.846300  0.275000  1.0  0.1162
  H  H207  1  0.531300  0.703800  0.279600  1.0  0.1187
  H  H208  1  0.472800  0.696800  0.231900  1.0  0.0942
  H  H209  1  0.579200  0.914800  0.330000  1.0  0.1217
  H  H210  1  0.607600  0.987600  0.353200  1.0  0.0887
  H  H211  1  0.617200  0.924700  0.429900  1.0  0.0861
  H  H212  1  0.594800  0.850000  0.408700  1.0  0.1185
  H  H213  1  0.625200  0.734900  0.412600  1.0  0.1213
  H  H214  1  0.656600  0.664900  0.438200  1.0  0.0963
  H  H215  1  0.587100  0.585800  0.370200  1.0  0.0935
  H  H216  1  0.559900  0.653700  0.341800  1.0  0.1239
  C  C217  1  0.990600  0.942600  0.470340  1.0  0.121
  C  C218  1  0.934000  0.930500  0.494180  1.0  -0.126
  C  C219  1  0.974200  0.903300  0.516090  1.0  -0.0643
  C  C220  1  0.072600  0.890900  0.514130  1.0  -0.1382
  C  C221  1  0.124400  0.904700  0.489900  1.0  0.1473
  C  C222  1  0.917000  0.889600  0.542520  1.0  0.3489
  C  C223  1  0.776500  0.890500  0.568100  1.0  0.4103
  C  C224  1  0.911900  0.857600  0.587730  1.0  0.4004
  C  C225  1  0.674600  0.906600  0.571210  1.0  -0.1092
  C  C226  1  0.626500  0.930500  0.549080  1.0  -0.0988
  C  C227  1  0.532900  0.947900  0.553740  1.0  0.1339
  C  C228  1  0.532800  0.918400  0.600960  1.0  0.1357
  C  C229  1  0.625500  0.900600  0.597710  1.0  -0.1153
  C  C230  1  0.964000  0.835000  0.612430  1.0  -0.1051
  C  C231  1  0.914000  0.816500  0.636390  1.0  -0.1442
  C  C232  1  0.966700  0.795200  0.658340  1.0  0.1522
  C  C233  1  0.111600  0.811200  0.635810  1.0  0.1494
  C  C234  1  0.064800  0.832900  0.612480  1.0  -0.146
  C  C235  1  0.942000  0.692000  0.238870  1.0  0.1333
  C  C236  1  0.978500  0.685000  0.266820  1.0  -0.1323
  C  C237  1  0.010800  0.723800  0.282590  1.0  -0.0935
  C  C238  1  0.008600  0.768700  0.269440  1.0  -0.1412
  C  C239  1  0.972600  0.772600  0.241150  1.0  0.1304
  C  C240  1  0.041300  0.719100  0.313430  1.0  0.3805
  C  C241  1  0.074600  0.673400  0.353080  1.0  0.3912
  C  C242  1  0.077400  0.754200  0.356560  1.0  0.4247
  C  C243  1  0.086700  0.625700  0.367050  1.0  -0.1121
  C  C244  1  0.088500  0.584100  0.350480  1.0  -0.1621
  C  C245  1  0.104300  0.540800  0.364620  1.0  0.1335
  C  C246  1  0.110800  0.577400  0.409360  1.0  0.1315
  C  C247  1  0.097100  0.622100  0.396810  1.0  -0.1193
  C  C248  1  0.092000  0.798000  0.374280  1.0  -0.1017
  C  C249  1  0.118700  0.795400  0.403250  1.0  -0.1308
  C  C250  1  0.135800  0.837200  0.418430  1.0  0.135
  C  C251  1  0.096100  0.883500  0.378640  1.0  0.1293
  C  C252  1  0.079400  0.843300  0.361550  1.0  -0.1343
  C  C253  1  0.009400  0.557400  0.970340  1.0  0.1198
  C  C254  1  0.066000  0.569500  0.994180  1.0  -0.1241
  C  C255  1  0.025800  0.596700  0.016090  1.0  -0.0644
  C  C256  1  0.927400  0.609100  0.014130  1.0  -0.1382
  C  C257  1  0.875600  0.595300  0.989900  1.0  0.1477
  C  C258  1  0.083000  0.610400  0.042520  1.0  0.3489
  C  C259  1  0.223500  0.609500  0.068100  1.0  0.4107
  C  C260  1  0.088100  0.642400  0.087730  1.0  0.4002
  C  C261  1  0.325400  0.593400  0.071210  1.0  -0.1083
  C  C262  1  0.373500  0.569500  0.049080  1.0  -0.0986
  C  C263  1  0.467100  0.552100  0.053740  1.0  0.133
  C  C264  1  0.467200  0.581600  0.100960  1.0  0.1356
  C  C265  1  0.374500  0.599400  0.097710  1.0  -0.1161
  C  C266  1  0.036000  0.665000  0.112430  1.0  -0.1046
  C  C267  1  0.086000  0.683500  0.136390  1.0  -0.144
  C  C268  1  0.033300  0.704800  0.158340  1.0  0.1515
  C  C269  1  0.888400  0.688800  0.135810  1.0  0.1508
  C  C270  1  0.935200  0.667100  0.112480  1.0  -0.1471
  C  C271  1  0.058000  0.808000  0.738870  1.0  0.1332
  C  C272  1  0.021500  0.815000  0.766820  1.0  -0.1322
  C  C273  1  0.989200  0.776200  0.782590  1.0  -0.0929
  C  C274  1  0.991400  0.731300  0.769440  1.0  -0.1422
  C  C275  1  0.027400  0.727400  0.741150  1.0  0.1292
  C  C276  1  0.958700  0.780900  0.813430  1.0  0.3806
  C  C277  1  0.925400  0.826600  0.853080  1.0  0.3906
  C  C278  1  0.922600  0.745800  0.856560  1.0  0.4246
  C  C279  1  0.913300  0.874300  0.867050  1.0  -0.1122
  C  C280  1  0.911500  0.915900  0.850480  1.0  -0.163
  C  C281  1  0.895700  0.959200  0.864620  1.0  0.1334
  C  C282  1  0.889200  0.922600  0.909360  1.0  0.1311
  C  C283  1  0.902900  0.877900  0.896810  1.0  -0.1191
  C  C284  1  0.908000  0.702000  0.874280  1.0  -0.1016
  C  C285  1  0.881300  0.704600  0.903250  1.0  -0.1311
  C  C286  1  0.864200  0.662800  0.918430  1.0  0.1346
  C  C287  1  0.903900  0.616500  0.878640  1.0  0.1299
  C  C288  1  0.920600  0.656700  0.861550  1.0  -0.136
  C  C289  1  0.490600  0.057400  0.029660  1.0  0.1191
  C  C290  1  0.434000  0.069500  0.005820  1.0  -0.1267
  C  C291  1  0.474200  0.096700  0.983910  1.0  -0.0646
  C  C292  1  0.572600  0.109100  0.985870  1.0  -0.1371
  C  C293  1  0.624400  0.095300  0.010100  1.0  0.1478
  C  C294  1  0.417000  0.110400  0.957480  1.0  0.3494
  C  C295  1  0.276500  0.109500  0.931900  1.0  0.4105
  C  C296  1  0.411900  0.142400  0.912270  1.0  0.4001
  C  C297  1  0.174600  0.093400  0.928790  1.0  -0.1081
  C  C298  1  0.126500  0.069500  0.950920  1.0  -0.1
  C  C299  1  0.032900  0.052100  0.946260  1.0  0.1333
  C  C300  1  0.032800  0.081600  0.899040  1.0  0.1351
  C  C301  1  0.125500  0.099400  0.902290  1.0  -0.1158
  C  C302  1  0.464000  0.165000  0.887570  1.0  -0.1054
  C  C303  1  0.414000  0.183500  0.863610  1.0  -0.1445
  C  C304  1  0.466700  0.204800  0.841660  1.0  0.1521
  C  C305  1  0.611600  0.188800  0.864190  1.0  0.1494
  C  C306  1  0.564800  0.167100  0.887520  1.0  -0.146
  C  C307  1  0.442000  0.308000  0.261130  1.0  0.1325
  C  C308  1  0.478500  0.315000  0.233180  1.0  -0.1317
  C  C309  1  0.510800  0.276200  0.217410  1.0  -0.0924
  C  C310  1  0.508600  0.231300  0.230560  1.0  -0.1413
  C  C311  1  0.472600  0.227400  0.258850  1.0  0.13
  C  C312  1  0.541300  0.280900  0.186570  1.0  0.3812
  C  C313  1  0.574600  0.326600  0.146920  1.0  0.3908
  C  C314  1  0.577400  0.245800  0.143440  1.0  0.4246
  C  C315  1  0.586700  0.374300  0.132950  1.0  -0.112
  C  C316  1  0.588500  0.415900  0.149520  1.0  -0.164
  C  C317  1  0.604300  0.459200  0.135380  1.0  0.1335
  C  C318  1  0.610800  0.422600  0.090640  1.0  0.1318
  C  C319  1  0.597100  0.377900  0.103190  1.0  -0.1191
  C  C320  1  0.592000  0.202000  0.125720  1.0  -0.1017
  C  C321  1  0.618700  0.204600  0.096750  1.0  -0.1322
  C  C322  1  0.635800  0.162800  0.081570  1.0  0.1347
  C  C323  1  0.596100  0.116500  0.121360  1.0  0.131
  C  C324  1  0.579400  0.156700  0.138450  1.0  -0.1365
  C  C325  1  0.509400  0.442600  0.529660  1.0  0.1197
  C  C326  1  0.566000  0.430500  0.505820  1.0  -0.1247
  C  C327  1  0.525800  0.403300  0.483910  1.0  -0.0641
  C  C328  1  0.427400  0.390900  0.485870  1.0  -0.1383
  C  C329  1  0.375600  0.404700  0.510100  1.0  0.1474
  C  C330  1  0.583000  0.389600  0.457480  1.0  0.3491
  C  C331  1  0.723500  0.390500  0.431900  1.0  0.4107
  C  C332  1  0.588100  0.357600  0.412270  1.0  0.3999
  C  C333  1  0.825400  0.406600  0.428790  1.0  -0.1091
  C  C334  1  0.873500  0.430500  0.450920  1.0  -0.0995
  C  C335  1  0.967100  0.447900  0.446260  1.0  0.1338
  C  C336  1  0.967200  0.418400  0.399040  1.0  0.1344
  C  C337  1  0.874500  0.400600  0.402290  1.0  -0.1163
  C  C338  1  0.536000  0.335000  0.387570  1.0  -0.1048
  C  C339  1  0.586000  0.316500  0.363610  1.0  -0.1445
  C  C340  1  0.533300  0.295200  0.341660  1.0  0.1512
  C  C341  1  0.388400  0.311200  0.364190  1.0  0.1509
  C  C342  1  0.435200  0.332900  0.387520  1.0  -0.1478
  C  C343  1  0.558000  0.192000  0.761130  1.0  0.1328
  C  C344  1  0.521500  0.185000  0.733180  1.0  -0.1327
  C  C345  1  0.489200  0.223800  0.717410  1.0  -0.0926
  C  C346  1  0.491400  0.268700  0.730560  1.0  -0.1415
  C  C347  1  0.527400  0.272600  0.758850  1.0  0.1301
  C  C348  1  0.458700  0.219100  0.686570  1.0  0.3813
  C  C349  1  0.425400  0.173400  0.646920  1.0  0.3908
  C  C350  1  0.422600  0.254200  0.643440  1.0  0.4245
  C  C351  1  0.413300  0.125700  0.632950  1.0  -0.1123
  C  C352  1  0.411500  0.084100  0.649520  1.0  -0.1638
  C  C353  1  0.395700  0.040800  0.635380  1.0  0.1345
  C  C354  1  0.389200  0.077400  0.590640  1.0  0.1327
  C  C355  1  0.402900  0.122100  0.603190  1.0  -0.1183
  C  C356  1  0.408000  0.298000  0.625720  1.0  -0.1015
  C  C357  1  0.381300  0.295400  0.596750  1.0  -0.1302
  C  C358  1  0.364200  0.337200  0.581570  1.0  0.1351
  C  C359  1  0.403900  0.383500  0.621360  1.0  0.1306
  C  C360  1  0.420600  0.343300  0.638450  1.0  -0.1363
  C  C361  1  0.009400  0.057400  0.529660  1.0  0.1196
  C  C362  1  0.066000  0.069500  0.505820  1.0  -0.1248
  C  C363  1  0.025800  0.096700  0.483910  1.0  -0.0644
  C  C364  1  0.927400  0.109100  0.485870  1.0  -0.1375
  C  C365  1  0.875600  0.095300  0.510100  1.0  0.1477
  C  C366  1  0.083000  0.110400  0.457480  1.0  0.3494
  C  C367  1  0.223500  0.109500  0.431900  1.0  0.4108
  C  C368  1  0.088100  0.142400  0.412270  1.0  0.3999
  C  C369  1  0.325400  0.093400  0.428790  1.0  -0.1083
  C  C370  1  0.373500  0.069500  0.450920  1.0  -0.0995
  C  C371  1  0.467100  0.052100  0.446260  1.0  0.1339
  C  C372  1  0.467200  0.081600  0.399040  1.0  0.1344
  C  C373  1  0.374500  0.099400  0.402290  1.0  -0.1162
  C  C374  1  0.036000  0.165000  0.387570  1.0  -0.1049
  C  C375  1  0.086000  0.183500  0.363610  1.0  -0.1445
  C  C376  1  0.033300  0.204800  0.341660  1.0  0.1518
  C  C377  1  0.888400  0.188800  0.364190  1.0  0.1508
  C  C378  1  0.935200  0.167100  0.387520  1.0  -0.1474
  C  C379  1  0.058000  0.308000  0.761130  1.0  0.1324
  C  C380  1  0.021500  0.315000  0.733180  1.0  -0.132
  C  C381  1  0.989200  0.276200  0.717410  1.0  -0.0922
  C  C382  1  0.991400  0.231300  0.730560  1.0  -0.1418
  C  C383  1  0.027400  0.227400  0.758850  1.0  0.1294
  C  C384  1  0.958700  0.280900  0.686570  1.0  0.3812
  C  C385  1  0.925400  0.326600  0.646920  1.0  0.3905
  C  C386  1  0.922600  0.245800  0.643440  1.0  0.4245
  C  C387  1  0.913300  0.374300  0.632950  1.0  -0.1121
  C  C388  1  0.911500  0.415900  0.649520  1.0  -0.1639
  C  C389  1  0.895700  0.459200  0.635380  1.0  0.1334
  C  C390  1  0.889200  0.422600  0.590640  1.0  0.1328
  C  C391  1  0.902900  0.377900  0.603190  1.0  -0.1181
  C  C392  1  0.908000  0.202000  0.625720  1.0  -0.1017
  C  C393  1  0.881300  0.204600  0.596750  1.0  -0.1318
  C  C394  1  0.864200  0.162800  0.581570  1.0  0.135
  C  C395  1  0.903900  0.116500  0.621360  1.0  0.1308
  C  C396  1  0.920600  0.156700  0.638450  1.0  -0.1366
  C  C397  1  0.990600  0.442600  0.029660  1.0  0.119
  C  C398  1  0.934000  0.430500  0.005820  1.0  -0.1261
  C  C399  1  0.974200  0.403300  0.983910  1.0  -0.0642
  C  C400  1  0.072600  0.390900  0.985870  1.0  -0.1381
  C  C401  1  0.124400  0.404700  0.010100  1.0  0.1475
  C  C402  1  0.917000  0.389600  0.957480  1.0  0.3492
  C  C403  1  0.776500  0.390500  0.931900  1.0  0.4103
  C  C404  1  0.911900  0.357600  0.912270  1.0  0.4001
  C  C405  1  0.674600  0.406600  0.928790  1.0  -0.1092
  C  C406  1  0.626500  0.430500  0.950920  1.0  -0.1002
  C  C407  1  0.532900  0.447900  0.946260  1.0  0.1332
  C  C408  1  0.532800  0.418400  0.899040  1.0  0.135
  C  C409  1  0.625500  0.400600  0.902290  1.0  -0.1159
  C  C410  1  0.964000  0.335000  0.887570  1.0  -0.1053
  C  C411  1  0.914000  0.316500  0.863610  1.0  -0.1446
  C  C412  1  0.966700  0.295200  0.841660  1.0  0.1518
  C  C413  1  0.111600  0.311200  0.864190  1.0  0.1495
  C  C414  1  0.064800  0.332900  0.887520  1.0  -0.1466
  C  C415  1  0.942000  0.192000  0.261130  1.0  0.1341
  C  C416  1  0.978500  0.185000  0.233180  1.0  -0.1319
  C  C417  1  0.010800  0.223800  0.217410  1.0  -0.0927
  C  C418  1  0.008600  0.268700  0.230560  1.0  -0.1406
  C  C419  1  0.972600  0.272600  0.258850  1.0  0.1301
  C  C420  1  0.041300  0.219100  0.186570  1.0  0.3812
  C  C421  1  0.074600  0.173400  0.146920  1.0  0.3912
  C  C422  1  0.077400  0.254200  0.143440  1.0  0.4245
  C  C423  1  0.086700  0.125700  0.132950  1.0  -0.1122
  C  C424  1  0.088500  0.084100  0.149520  1.0  -0.1642
  C  C425  1  0.104300  0.040800  0.135380  1.0  0.1339
  C  C426  1  0.110800  0.077400  0.090640  1.0  0.1316
  C  C427  1  0.097100  0.122100  0.103190  1.0  -0.119
  C  C428  1  0.092000  0.298000  0.125720  1.0  -0.1015
  C  C429  1  0.118700  0.295400  0.096750  1.0  -0.1313
  C  C430  1  0.135800  0.337200  0.081570  1.0  0.1349
  C  C431  1  0.096100  0.383500  0.121360  1.0  0.1303
  C  C432  1  0.079400  0.343300  0.138450  1.0  -0.1364
  C  C433  1  0.509400  0.942600  0.970340  1.0  0.1203
  C  C434  1  0.566000  0.930500  0.994180  1.0  -0.1241
  C  C435  1  0.525800  0.903300  0.016090  1.0  -0.0644
  C  C436  1  0.427400  0.890900  0.014130  1.0  -0.1383
  C  C437  1  0.375600  0.904700  0.989900  1.0  0.1473
  C  C438  1  0.583000  0.889600  0.042520  1.0  0.3488
  C  C439  1  0.723500  0.890500  0.068100  1.0  0.4107
  C  C440  1  0.588100  0.857600  0.087730  1.0  0.4002
  C  C441  1  0.825400  0.906600  0.071210  1.0  -0.1091
  C  C442  1  0.873500  0.930500  0.049080  1.0  -0.0984
  C  C443  1  0.967100  0.947900  0.053740  1.0  0.1334
  C  C444  1  0.967200  0.918400  0.100960  1.0  0.1359
  C  C445  1  0.874500  0.900600  0.097710  1.0  -0.1161
  C  C446  1  0.536000  0.835000  0.112430  1.0  -0.1042
  C  C447  1  0.586000  0.816500  0.136390  1.0  -0.144
  C  C448  1  0.533300  0.795200  0.158340  1.0  0.1517
  C  C449  1  0.388400  0.811200  0.135810  1.0  0.151
  C  C450  1  0.435200  0.832900  0.112480  1.0  -0.1471
  C  C451  1  0.558000  0.692000  0.738870  1.0  0.1316
  C  C452  1  0.521500  0.685000  0.766820  1.0  -0.1332
  C  C453  1  0.489200  0.723800  0.782590  1.0  -0.0932
  C  C454  1  0.491400  0.768700  0.769440  1.0  -0.1419
  C  C455  1  0.527400  0.772600  0.741150  1.0  0.1302
  C  C456  1  0.458700  0.719100  0.813430  1.0  0.3806
  C  C457  1  0.425400  0.673400  0.853080  1.0  0.3909
  C  C458  1  0.422600  0.754200  0.856560  1.0  0.4247
  C  C459  1  0.413300  0.625700  0.867050  1.0  -0.1122
  C  C460  1  0.411500  0.584100  0.850480  1.0  -0.1622
  C  C461  1  0.395700  0.540800  0.864620  1.0  0.1339
  C  C462  1  0.389200  0.577400  0.909360  1.0  0.1313
  C  C463  1  0.402900  0.622100  0.896810  1.0  -0.1192
  C  C464  1  0.408000  0.798000  0.874280  1.0  -0.1017
  C  C465  1  0.381300  0.795400  0.903250  1.0  -0.1305
  C  C466  1  0.364200  0.837200  0.918430  1.0  0.1349
  C  C467  1  0.403900  0.883500  0.878640  1.0  0.1295
  C  C468  1  0.420600  0.843300  0.861550  1.0  -0.1355
  C  C469  1  0.490600  0.557400  0.470340  1.0  0.1208
  C  C470  1  0.434000  0.569500  0.494180  1.0  -0.1261
  C  C471  1  0.474200  0.596700  0.516090  1.0  -0.0643
  C  C472  1  0.572600  0.609100  0.514130  1.0  -0.1379
  C  C473  1  0.624400  0.595300  0.489900  1.0  0.1478
  C  C474  1  0.417000  0.610400  0.542520  1.0  0.3489
  C  C475  1  0.276500  0.609500  0.568100  1.0  0.4105
  C  C476  1  0.411900  0.642400  0.587730  1.0  0.4004
  C  C477  1  0.174600  0.593400  0.571210  1.0  -0.1081
  C  C478  1  0.126500  0.569500  0.549080  1.0  -0.099
  C  C479  1  0.032900  0.552100  0.553740  1.0  0.1335
  C  C480  1  0.032800  0.581600  0.600960  1.0  0.1352
  C  C481  1  0.125500  0.599400  0.597710  1.0  -0.1156
  C  C482  1  0.464000  0.665000  0.612430  1.0  -0.1054
  C  C483  1  0.414000  0.683500  0.636390  1.0  -0.1441
  C  C484  1  0.466700  0.704800  0.658340  1.0  0.1517
  C  C485  1  0.611600  0.688800  0.635810  1.0  0.1493
  C  C486  1  0.564800  0.667100  0.612480  1.0  -0.1458
  C  C487  1  0.442000  0.808000  0.238870  1.0  0.1335
  C  C488  1  0.478500  0.815000  0.266820  1.0  -0.1318
  C  C489  1  0.510800  0.776200  0.282590  1.0  -0.0933
  C  C490  1  0.508600  0.731300  0.269440  1.0  -0.1418
  C  C491  1  0.472600  0.727400  0.241150  1.0  0.13
  C  C492  1  0.541300  0.780900  0.313430  1.0  0.3805
  C  C493  1  0.574600  0.826600  0.353080  1.0  0.3909
  C  C494  1  0.577400  0.745800  0.356560  1.0  0.4246
  C  C495  1  0.586700  0.874300  0.367050  1.0  -0.1122
  C  C496  1  0.588500  0.915900  0.350480  1.0  -0.1629
  C  C497  1  0.604300  0.959200  0.364620  1.0  0.1331
  C  C498  1  0.610800  0.922600  0.409360  1.0  0.1316
  C  C499  1  0.597100  0.877900  0.396810  1.0  -0.1196
  C  C500  1  0.592000  0.702000  0.374280  1.0  -0.1017
  C  C501  1  0.618700  0.704600  0.403250  1.0  -0.1305
  C  C502  1  0.635800  0.662800  0.418430  1.0  0.1346
  C  C503  1  0.596100  0.616500  0.378640  1.0  0.1302
  C  C504  1  0.579400  0.656700  0.361550  1.0  -0.1345
  I  I505  1  0.080520  0.010770  0.402610  1.0  -0.3902
  I  I506  1  0.342610  0.932390  0.441320  1.0  -0.391
  I  I507  1  0.300860  0.802720  0.696380  1.0  -0.3515
  I  I508  1  0.150820  0.666590  0.676610  1.0  -0.3308
  I  I509  1  0.266500  0.922670  0.625990  1.0  -0.3462
  I  I510  1  0.275020  0.990040  0.537110  1.0  -0.3972
  I  I511  1  0.919480  0.489230  0.902610  1.0  -0.3918
  I  I512  1  0.657390  0.567610  0.941320  1.0  -0.3894
  I  I513  1  0.699140  0.697280  0.196380  1.0  -0.3519
  I  I514  1  0.849180  0.833410  0.176610  1.0  -0.3315
  I  I515  1  0.733500  0.577330  0.125990  1.0  -0.3464
  I  I516  1  0.724980  0.509960  0.037110  1.0  -0.3966
  I  I517  1  0.580520  0.989230  0.097390  1.0  -0.3897
  I  I518  1  0.842610  0.067610  0.058680  1.0  -0.3908
  I  I519  1  0.800860  0.197280  0.803620  1.0  -0.3508
  I  I520  1  0.650820  0.333410  0.823390  1.0  -0.3311
  I  I521  1  0.766500  0.077330  0.874010  1.0  -0.3485
  I  I522  1  0.775020  0.009960  0.962890  1.0  -0.3971
  I  I523  1  0.419480  0.510770  0.597390  1.0  -0.3914
  I  I524  1  0.157390  0.432390  0.558680  1.0  -0.3897
  I  I525  1  0.199140  0.302720  0.303620  1.0  -0.3519
  I  I526  1  0.349180  0.166590  0.323390  1.0  -0.3313
  I  I527  1  0.233500  0.422670  0.374010  1.0  -0.3489
  I  I528  1  0.224980  0.490040  0.462890  1.0  -0.3966
  I  I529  1  0.919480  0.989230  0.597390  1.0  -0.3912
  I  I530  1  0.657390  0.067610  0.558680  1.0  -0.3893
  I  I531  1  0.699140  0.197280  0.303620  1.0  -0.3516
  I  I532  1  0.849180  0.333410  0.323390  1.0  -0.3316
  I  I533  1  0.733500  0.077330  0.374010  1.0  -0.3482
  I  I534  1  0.724980  0.009960  0.462890  1.0  -0.3967
  I  I535  1  0.080520  0.510770  0.097390  1.0  -0.3898
  I  I536  1  0.342610  0.432390  0.058680  1.0  -0.3911
  I  I537  1  0.300860  0.302720  0.803620  1.0  -0.3512
  I  I538  1  0.150820  0.166590  0.823390  1.0  -0.331
  I  I539  1  0.266500  0.422670  0.874010  1.0  -0.3482
  I  I540  1  0.275020  0.490040  0.962890  1.0  -0.3971
  I  I541  1  0.419480  0.010770  0.902610  1.0  -0.3918
  I  I542  1  0.157390  0.932390  0.941320  1.0  -0.3896
  I  I543  1  0.199140  0.802720  0.196380  1.0  -0.3521
  I  I544  1  0.349180  0.666590  0.176610  1.0  -0.331
  I  I545  1  0.233500  0.922670  0.125990  1.0  -0.3468
  I  I546  1  0.224980  0.990040  0.037110  1.0  -0.3962
  I  I547  1  0.580520  0.489230  0.402610  1.0  -0.3902
  I  I548  1  0.842610  0.567610  0.441320  1.0  -0.3909
  I  I549  1  0.800860  0.697280  0.696380  1.0  -0.3512
  I  I550  1  0.650820  0.833410  0.676610  1.0  -0.3311
  I  I551  1  0.766500  0.577330  0.625990  1.0  -0.3465
  I  I552  1  0.775020  0.509960  0.537110  1.0  -0.3969
  N  N553  1  0.084900  0.929700  0.467880  1.0  -0.3247
  N  N554  1  0.822200  0.901700  0.543310  1.0  -0.4686
  N  N555  1  0.817100  0.867840  0.590810  1.0  -0.4797
  N  N556  1  0.965300  0.867600  0.564020  1.0  -0.3645
  N  N557  1  0.486600  0.942600  0.579520  1.0  -0.3405
  N  N558  1  0.063900  0.792200  0.658320  1.0  -0.3125
  N  N559  1  0.938000  0.735200  0.226660  1.0  -0.2948
  N  N560  1  0.051000  0.674640  0.324520  1.0  -0.4537
  N  N561  1  0.088100  0.711910  0.369920  1.0  -0.5
  N  N562  1  0.053800  0.759940  0.328500  1.0  -0.5547
  N  N563  1  0.115200  0.537040  0.393630  1.0  -0.3265
  N  N564  1  0.124400  0.880900  0.406500  1.0  -0.3328
  N  N565  1  0.915100  0.570300  0.967880  1.0  -0.3254
  N  N566  1  0.177800  0.598300  0.043310  1.0  -0.4679
  N  N567  1  0.182900  0.632160  0.090810  1.0  -0.4796
  N  N568  1  0.034700  0.632400  0.064020  1.0  -0.3634
  N  N569  1  0.513400  0.557400  0.079520  1.0  -0.3411
  N  N570  1  0.936100  0.707800  0.158320  1.0  -0.3136
  N  N571  1  0.062000  0.764800  0.726660  1.0  -0.2964
  N  N572  1  0.949000  0.825360  0.824520  1.0  -0.4531
  N  N573  1  0.911900  0.788090  0.869920  1.0  -0.4994
  N  N574  1  0.946200  0.740060  0.828500  1.0  -0.5539
  N  N575  1  0.884800  0.962960  0.893630  1.0  -0.3286
  N  N576  1  0.875600  0.619100  0.906500  1.0  -0.3304
  N  N577  1  0.584900  0.070300  0.032120  1.0  -0.3233
  N  N578  1  0.322200  0.098300  0.956690  1.0  -0.4697
  N  N579  1  0.317100  0.132160  0.909190  1.0  -0.4792
  N  N580  1  0.465300  0.132400  0.935980  1.0  -0.3647
  N  N581  1  0.986600  0.057400  0.920480  1.0  -0.3415
  N  N582  1  0.563900  0.207800  0.841680  1.0  -0.313
  N  N583  1  0.438000  0.264800  0.273340  1.0  -0.2952
  N  N584  1  0.551000  0.325360  0.175480  1.0  -0.454
  N  N585  1  0.588100  0.288090  0.130080  1.0  -0.4985
  N  N586  1  0.553800  0.240060  0.171500  1.0  -0.5539
  N  N587  1  0.615200  0.462960  0.106370  1.0  -0.3275
  N  N588  1  0.624400  0.119100  0.093500  1.0  -0.3295
  N  N589  1  0.415100  0.429700  0.532120  1.0  -0.3247
  N  N590  1  0.677800  0.401700  0.456690  1.0  -0.4691
  N  N591  1  0.682900  0.367840  0.409190  1.0  -0.4799
  N  N592  1  0.534700  0.367600  0.435980  1.0  -0.3644
  N  N593  1  0.013400  0.442600  0.420480  1.0  -0.3404
  N  N594  1  0.436100  0.292200  0.341680  1.0  -0.3138
  N  N595  1  0.562000  0.235200  0.773340  1.0  -0.2954
  N  N596  1  0.449000  0.174640  0.675480  1.0  -0.4535
  N  N597  1  0.411900  0.211910  0.630080  1.0  -0.4988
  N  N598  1  0.446200  0.259940  0.671500  1.0  -0.5554
  N  N599  1  0.384800  0.037040  0.606370  1.0  -0.3266
  N  N600  1  0.375600  0.380900  0.593500  1.0  -0.3322
  N  N601  1  0.915100  0.070300  0.532120  1.0  -0.324
  N  N602  1  0.177800  0.098300  0.456690  1.0  -0.4689
  N  N603  1  0.182900  0.132160  0.409190  1.0  -0.4792
  N  N604  1  0.034700  0.132400  0.435980  1.0  -0.3638
  N  N605  1  0.513400  0.057400  0.420480  1.0  -0.3409
  N  N606  1  0.936100  0.207800  0.341680  1.0  -0.3129
  N  N607  1  0.062000  0.264800  0.773340  1.0  -0.2956
  N  N608  1  0.949000  0.325360  0.675480  1.0  -0.4541
  N  N609  1  0.911900  0.288090  0.630080  1.0  -0.4985
  N  N610  1  0.946200  0.240060  0.671500  1.0  -0.5538
  N  N611  1  0.884800  0.462960  0.606370  1.0  -0.3269
  N  N612  1  0.875600  0.119100  0.593500  1.0  -0.3307
  N  N613  1  0.084900  0.429700  0.032120  1.0  -0.3244
  N  N614  1  0.822200  0.401700  0.956690  1.0  -0.4701
  N  N615  1  0.817100  0.367840  0.909190  1.0  -0.48
  N  N616  1  0.965300  0.367600  0.935980  1.0  -0.3649
  N  N617  1  0.486600  0.442600  0.920480  1.0  -0.3402
  N  N618  1  0.063900  0.292200  0.841680  1.0  -0.3135
  N  N619  1  0.938000  0.235200  0.273340  1.0  -0.2951
  N  N620  1  0.051000  0.174640  0.175480  1.0  -0.4537
  N  N621  1  0.088100  0.211910  0.130080  1.0  -0.4987
  N  N622  1  0.053800  0.259940  0.171500  1.0  -0.5556
  N  N623  1  0.115200  0.037040  0.106370  1.0  -0.3262
  N  N624  1  0.124400  0.380900  0.093500  1.0  -0.332
  N  N625  1  0.415100  0.929700  0.967880  1.0  -0.324
  N  N626  1  0.677800  0.901700  0.043310  1.0  -0.4678
  N  N627  1  0.682900  0.867840  0.090810  1.0  -0.4794
  N  N628  1  0.534700  0.867600  0.064020  1.0  -0.364
  N  N629  1  0.013400  0.942600  0.079520  1.0  -0.3407
  N  N630  1  0.436100  0.792200  0.158320  1.0  -0.3126
  N  N631  1  0.562000  0.735200  0.726660  1.0  -0.2959
  N  N632  1  0.449000  0.674640  0.824520  1.0  -0.4536
  N  N633  1  0.411900  0.711910  0.869920  1.0  -0.4995
  N  N634  1  0.446200  0.759940  0.828500  1.0  -0.5543
  N  N635  1  0.384800  0.537040  0.893630  1.0  -0.3269
  N  N636  1  0.375600  0.880900  0.906500  1.0  -0.333
  N  N637  1  0.584900  0.570300  0.467880  1.0  -0.3249
  N  N638  1  0.322200  0.598300  0.543310  1.0  -0.4685
  N  N639  1  0.317100  0.632160  0.590810  1.0  -0.4799
  N  N640  1  0.465300  0.632400  0.564020  1.0  -0.3642
  N  N641  1  0.986600  0.557400  0.579520  1.0  -0.3416
  N  N642  1  0.563900  0.707800  0.658320  1.0  -0.3134
  N  N643  1  0.438000  0.764800  0.226660  1.0  -0.2954
  N  N644  1  0.551000  0.825360  0.324520  1.0  -0.4528
  N  N645  1  0.588100  0.788090  0.369920  1.0  -0.5
  N  N646  1  0.553800  0.740060  0.328500  1.0  -0.5543
  N  N647  1  0.615200  0.962960  0.393630  1.0  -0.3292
  N  N648  1  0.624400  0.619100  0.406500  1.0  -0.3298
