# generated using pymatgen
data_ZnH8C12(IN2)2
_symmetry_space_group_name_H-M   'P 1'
_cell_length_a   27.56800000
_cell_length_b   13.72850000
_cell_length_c   45.83600000
_cell_angle_alpha   90.00000000
_cell_angle_beta   90.00000000
_cell_angle_gamma   90.00000000
_symmetry_Int_Tables_number   1
_chemical_formula_structural   ZnH8C12(IN2)2
_chemical_formula_sum   'Zn24 H192 C288 I48 N96'
_cell_volume   17347.42661277
_cell_formula_units_Z   24
loop_
 _symmetry_equiv_pos_site_id
 _symmetry_equiv_pos_as_xyz
  1  'x, y, z'
loop_
 _atom_site_type_symbol
 _atom_site_label
 _atom_site_symmetry_multiplicity
 _atom_site_fract_x
 _atom_site_fract_y
 _atom_site_fract_z
 _atom_site_occupancy
 _atom_site_charge
  Zn  Zn1  1  0.753240  0.657550  0.312200  1.0  0.8762
  Zn  Zn2  1  0.029800  0.361760  0.092050  1.0  0.8439
  Zn  Zn3  1  0.549540  0.359040  0.073720  1.0  0.8366
  Zn  Zn4  1  0.746760  0.342450  0.812200  1.0  0.8761
  Zn  Zn5  1  0.470200  0.638240  0.592050  1.0  0.8435
  Zn  Zn6  1  0.950460  0.640960  0.573720  1.0  0.8364
  Zn  Zn7  1  0.246760  0.157550  0.187800  1.0  0.8759
  Zn  Zn8  1  0.970200  0.861760  0.407950  1.0  0.8445
  Zn  Zn9  1  0.450460  0.859040  0.426280  1.0  0.8349
  Zn  Zn10  1  0.253240  0.842450  0.687800  1.0  0.8754
  Zn  Zn11  1  0.529800  0.138240  0.907950  1.0  0.8439
  Zn  Zn12  1  0.049540  0.140960  0.926280  1.0  0.8358
  Zn  Zn13  1  0.246760  0.342450  0.687800  1.0  0.8757
  Zn  Zn14  1  0.970200  0.638240  0.907950  1.0  0.8438
  Zn  Zn15  1  0.450460  0.640960  0.926280  1.0  0.8358
  Zn  Zn16  1  0.253240  0.657550  0.187800  1.0  0.8761
  Zn  Zn17  1  0.529800  0.361760  0.407950  1.0  0.8441
  Zn  Zn18  1  0.049540  0.359040  0.426280  1.0  0.8351
  Zn  Zn19  1  0.753240  0.842450  0.812200  1.0  0.8758
  Zn  Zn20  1  0.029800  0.138240  0.592050  1.0  0.844
  Zn  Zn21  1  0.549540  0.140960  0.573720  1.0  0.8363
  Zn  Zn22  1  0.746760  0.157550  0.312200  1.0  0.8761
  Zn  Zn23  1  0.470200  0.861760  0.092050  1.0  0.8441
  Zn  Zn24  1  0.950460  0.859040  0.073720  1.0  0.8365
  H  H25  1  0.691100  0.551100  0.267600  1.0  0.0921
  H  H26  1  0.698400  0.491600  0.220600  1.0  0.1214
  H  H27  1  0.844500  0.519400  0.227700  1.0  0.119
  H  H28  1  0.832800  0.577300  0.275200  1.0  0.0843
  H  H29  1  0.649800  0.458500  0.159800  1.0  0.1212
  H  H30  1  0.580700  0.433500  0.131900  1.0  0.0926
  H  H31  1  0.659500  0.365200  0.062800  1.0  0.1018
  H  H32  1  0.730400  0.392200  0.088400  1.0  0.1167
  H  H33  1  0.849800  0.416300  0.093000  1.0  0.121
  H  H34  1  0.926900  0.395300  0.073300  1.0  0.0889
  H  H35  1  0.987300  0.416500  0.151000  1.0  0.094
  H  H36  1  0.912100  0.444200  0.172500  1.0  0.115
  H  H37  1  0.811300  0.695800  0.365700  1.0  0.1003
  H  H38  1  0.847600  0.612200  0.404000  1.0  0.1143
  H  H39  1  0.805600  0.359100  0.367500  1.0  0.1152
  H  H40  1  0.771100  0.447900  0.329400  1.0  0.0847
  H  H41  1  0.969400  0.449100  0.543500  1.0  0.0844
  H  H42  1  0.944500  0.363400  0.503100  1.0  0.1219
  H  H43  1  0.876000  0.606400  0.474300  1.0  0.1264
  H  H44  1  0.903700  0.686300  0.515700  1.0  0.0873
  H  H45  1  0.939100  0.987700  0.459200  1.0  0.094
  H  H46  1  0.911900  0.146300  0.467700  1.0  0.1101
  H  H47  1  0.905400  0.188100  0.380400  1.0  0.1196
  H  H48  1  0.932400  0.030000  0.374500  1.0  0.0863
  H  H49  1  0.808900  0.448900  0.767600  1.0  0.0916
  H  H50  1  0.801600  0.508400  0.720600  1.0  0.1211
  H  H51  1  0.655500  0.480600  0.727700  1.0  0.1186
  H  H52  1  0.667200  0.422700  0.775200  1.0  0.0845
  H  H53  1  0.850200  0.541500  0.659800  1.0  0.1208
  H  H54  1  0.919300  0.566500  0.631900  1.0  0.092
  H  H55  1  0.840500  0.634800  0.562800  1.0  0.1021
  H  H56  1  0.769600  0.607800  0.588400  1.0  0.1166
  H  H57  1  0.650200  0.583700  0.593000  1.0  0.121
  H  H58  1  0.573100  0.604700  0.573300  1.0  0.089
  H  H59  1  0.512700  0.583500  0.651000  1.0  0.094
  H  H60  1  0.587900  0.555800  0.672500  1.0  0.1153
  H  H61  1  0.688700  0.304200  0.865700  1.0  0.0996
  H  H62  1  0.652400  0.387800  0.904000  1.0  0.1142
  H  H63  1  0.694400  0.640900  0.867500  1.0  0.1146
  H  H64  1  0.728900  0.552100  0.829400  1.0  0.0847
  H  H65  1  0.530600  0.550900  0.043500  1.0  0.0843
  H  H66  1  0.555500  0.636600  0.003100  1.0  0.1226
  H  H67  1  0.624000  0.393600  0.974300  1.0  0.1263
  H  H68  1  0.596300  0.313700  0.015700  1.0  0.088
  H  H69  1  0.560900  0.012300  0.959200  1.0  0.0943
  H  H70  1  0.588100  0.853700  0.967700  1.0  0.11
  H  H71  1  0.594600  0.811900  0.880400  1.0  0.1193
  H  H72  1  0.567600  0.970000  0.874500  1.0  0.0866
  H  H73  1  0.308900  0.051100  0.232400  1.0  0.0913
  H  H74  1  0.301600  0.991600  0.279400  1.0  0.1209
  H  H75  1  0.155500  0.019400  0.272300  1.0  0.1184
  H  H76  1  0.167200  0.077300  0.224800  1.0  0.0844
  H  H77  1  0.350200  0.958500  0.340200  1.0  0.1215
  H  H78  1  0.419300  0.933500  0.368100  1.0  0.0917
  H  H79  1  0.340500  0.865200  0.437200  1.0  0.1016
  H  H80  1  0.269600  0.892200  0.411600  1.0  0.117
  H  H81  1  0.150200  0.916300  0.407000  1.0  0.1212
  H  H82  1  0.073100  0.895300  0.426700  1.0  0.0898
  H  H83  1  0.012700  0.916500  0.349000  1.0  0.0933
  H  H84  1  0.087900  0.944200  0.327500  1.0  0.1155
  H  H85  1  0.188700  0.195800  0.134300  1.0  0.1
  H  H86  1  0.152400  0.112200  0.096000  1.0  0.1138
  H  H87  1  0.194400  0.859100  0.132500  1.0  0.1154
  H  H88  1  0.228900  0.947900  0.170600  1.0  0.0841
  H  H89  1  0.030600  0.949100  0.956500  1.0  0.0838
  H  H90  1  0.055500  0.863400  0.996900  1.0  0.1222
  H  H91  1  0.124000  0.106400  0.025700  1.0  0.1253
  H  H92  1  0.096300  0.186300  0.984300  1.0  0.0873
  H  H93  1  0.060900  0.487700  0.040800  1.0  0.0935
  H  H94  1  0.088100  0.646300  0.032300  1.0  0.1102
  H  H95  1  0.094600  0.688100  0.119600  1.0  0.1192
  H  H96  1  0.067600  0.530000  0.125500  1.0  0.0872
  H  H97  1  0.191100  0.948900  0.732400  1.0  0.0922
  H  H98  1  0.198400  0.008400  0.779400  1.0  0.121
  H  H99  1  0.344500  0.980600  0.772300  1.0  0.1187
  H  H100  1  0.332800  0.922700  0.724800  1.0  0.0847
  H  H101  1  0.149800  0.041500  0.840200  1.0  0.1216
  H  H102  1  0.080700  0.066500  0.868100  1.0  0.0923
  H  H103  1  0.159500  0.134800  0.937200  1.0  0.1015
  H  H104  1  0.230400  0.107800  0.911600  1.0  0.1164
  H  H105  1  0.349800  0.083700  0.907000  1.0  0.1209
  H  H106  1  0.426900  0.104700  0.926700  1.0  0.0895
  H  H107  1  0.487300  0.083500  0.849000  1.0  0.0938
  H  H108  1  0.412100  0.055800  0.827500  1.0  0.1152
  H  H109  1  0.311300  0.804200  0.634300  1.0  0.0996
  H  H110  1  0.347600  0.887800  0.596000  1.0  0.1136
  H  H111  1  0.305600  0.140900  0.632500  1.0  0.1146
  H  H112  1  0.271100  0.052100  0.670600  1.0  0.0841
  H  H113  1  0.469400  0.050900  0.456500  1.0  0.0836
  H  H114  1  0.444500  0.136600  0.496900  1.0  0.1222
  H  H115  1  0.376000  0.893600  0.525700  1.0  0.1259
  H  H116  1  0.403700  0.813700  0.484300  1.0  0.0876
  H  H117  1  0.439100  0.512300  0.540800  1.0  0.0931
  H  H118  1  0.411900  0.353700  0.532300  1.0  0.1098
  H  H119  1  0.405400  0.311900  0.619600  1.0  0.1194
  H  H120  1  0.432400  0.470000  0.625500  1.0  0.0868
  H  H121  1  0.308900  0.448900  0.732400  1.0  0.0913
  H  H122  1  0.301600  0.508400  0.779400  1.0  0.1207
  H  H123  1  0.155500  0.480600  0.772300  1.0  0.1184
  H  H124  1  0.167200  0.422700  0.724800  1.0  0.0844
  H  H125  1  0.350200  0.541500  0.840200  1.0  0.1214
  H  H126  1  0.419300  0.566500  0.868100  1.0  0.0916
  H  H127  1  0.340500  0.634800  0.937200  1.0  0.1013
  H  H128  1  0.269600  0.607800  0.911600  1.0  0.1168
  H  H129  1  0.150200  0.583700  0.907000  1.0  0.1211
  H  H130  1  0.073100  0.604700  0.926700  1.0  0.0893
  H  H131  1  0.012700  0.583500  0.849000  1.0  0.0934
  H  H132  1  0.087900  0.555800  0.827500  1.0  0.1154
  H  H133  1  0.188700  0.304200  0.634300  1.0  0.0995
  H  H134  1  0.152400  0.387800  0.596000  1.0  0.1135
  H  H135  1  0.194400  0.640900  0.632500  1.0  0.1146
  H  H136  1  0.228900  0.552100  0.670600  1.0  0.084
  H  H137  1  0.030600  0.550900  0.456500  1.0  0.084
  H  H138  1  0.055500  0.636600  0.496900  1.0  0.1225
  H  H139  1  0.124000  0.393600  0.525700  1.0  0.1255
  H  H140  1  0.096300  0.313700  0.484300  1.0  0.0881
  H  H141  1  0.060900  0.012300  0.540800  1.0  0.0937
  H  H142  1  0.088100  0.853700  0.532300  1.0  0.11
  H  H143  1  0.094600  0.811900  0.619600  1.0  0.1193
  H  H144  1  0.067600  0.970000  0.625500  1.0  0.087
  H  H145  1  0.191100  0.551100  0.232400  1.0  0.0922
  H  H146  1  0.198400  0.491600  0.279400  1.0  0.1212
  H  H147  1  0.344500  0.519400  0.272300  1.0  0.1187
  H  H148  1  0.332800  0.577300  0.224800  1.0  0.0848
  H  H149  1  0.149800  0.458500  0.340200  1.0  0.1215
  H  H150  1  0.080700  0.433500  0.368100  1.0  0.0921
  H  H151  1  0.159500  0.365200  0.437200  1.0  0.1013
  H  H152  1  0.230400  0.392200  0.411600  1.0  0.1167
  H  H153  1  0.349800  0.416300  0.407000  1.0  0.121
  H  H154  1  0.426900  0.395300  0.426700  1.0  0.0899
  H  H155  1  0.487300  0.416500  0.349000  1.0  0.0938
  H  H156  1  0.412100  0.444200  0.327500  1.0  0.1154
  H  H157  1  0.311300  0.695800  0.134300  1.0  0.1001
  H  H158  1  0.347600  0.612200  0.096000  1.0  0.1138
  H  H159  1  0.305600  0.359100  0.132500  1.0  0.1155
  H  H160  1  0.271100  0.447900  0.170600  1.0  0.0843
  H  H161  1  0.469400  0.449100  0.956500  1.0  0.0839
  H  H162  1  0.444500  0.363400  0.996900  1.0  0.122
  H  H163  1  0.376000  0.606400  0.025700  1.0  0.1256
  H  H164  1  0.403700  0.686300  0.984300  1.0  0.0872
  H  H165  1  0.439100  0.987700  0.040800  1.0  0.093
  H  H166  1  0.411900  0.146300  0.032300  1.0  0.11
  H  H167  1  0.405400  0.188100  0.119600  1.0  0.1191
  H  H168  1  0.432400  0.030000  0.125500  1.0  0.0869
  H  H169  1  0.691100  0.948900  0.767600  1.0  0.0925
  H  H170  1  0.698400  0.008400  0.720600  1.0  0.1215
  H  H171  1  0.844500  0.980600  0.727700  1.0  0.1191
  H  H172  1  0.832800  0.922700  0.775200  1.0  0.0846
  H  H173  1  0.649800  0.041500  0.659800  1.0  0.1215
  H  H174  1  0.580700  0.066500  0.631900  1.0  0.0927
  H  H175  1  0.659500  0.134800  0.562800  1.0  0.102
  H  H176  1  0.730400  0.107800  0.588400  1.0  0.1167
  H  H177  1  0.849800  0.083700  0.593000  1.0  0.1211
  H  H178  1  0.926900  0.104700  0.573300  1.0  0.0888
  H  H179  1  0.987300  0.083500  0.651000  1.0  0.0939
  H  H180  1  0.912100  0.055800  0.672500  1.0  0.1151
  H  H181  1  0.811300  0.804200  0.865700  1.0  0.0997
  H  H182  1  0.847600  0.887800  0.904000  1.0  0.1143
  H  H183  1  0.805600  0.140900  0.867500  1.0  0.1144
  H  H184  1  0.771100  0.052100  0.829400  1.0  0.0849
  H  H185  1  0.969400  0.050900  0.043500  1.0  0.0842
  H  H186  1  0.944500  0.136600  0.003100  1.0  0.122
  H  H187  1  0.876000  0.893600  0.974300  1.0  0.1262
  H  H188  1  0.903700  0.813700  0.015700  1.0  0.0877
  H  H189  1  0.939100  0.512300  0.959200  1.0  0.0938
  H  H190  1  0.911900  0.353700  0.967700  1.0  0.1099
  H  H191  1  0.905400  0.311900  0.880400  1.0  0.1197
  H  H192  1  0.932400  0.470000  0.874500  1.0  0.0862
  H  H193  1  0.808900  0.051100  0.267600  1.0  0.0913
  H  H194  1  0.801600  0.991600  0.220600  1.0  0.1209
  H  H195  1  0.655500  0.019400  0.227700  1.0  0.1186
  H  H196  1  0.667200  0.077300  0.275200  1.0  0.0841
  H  H197  1  0.850200  0.958500  0.159800  1.0  0.1205
  H  H198  1  0.919300  0.933500  0.131900  1.0  0.092
  H  H199  1  0.840500  0.865200  0.062800  1.0  0.1021
  H  H200  1  0.769600  0.892200  0.088400  1.0  0.1166
  H  H201  1  0.650200  0.916300  0.093000  1.0  0.121
  H  H202  1  0.573100  0.895300  0.073300  1.0  0.0892
  H  H203  1  0.512700  0.916500  0.151000  1.0  0.0939
  H  H204  1  0.587900  0.944200  0.172500  1.0  0.1152
  H  H205  1  0.688700  0.195800  0.365700  1.0  0.1001
  H  H206  1  0.652400  0.112200  0.404000  1.0  0.1143
  H  H207  1  0.694400  0.859100  0.367500  1.0  0.1153
  H  H208  1  0.728900  0.947900  0.329400  1.0  0.0845
  H  H209  1  0.530600  0.949100  0.543500  1.0  0.0843
  H  H210  1  0.555500  0.863400  0.503100  1.0  0.1225
  H  H211  1  0.624000  0.106400  0.474300  1.0  0.1263
  H  H212  1  0.596300  0.186300  0.515700  1.0  0.0872
  H  H213  1  0.560900  0.487700  0.459200  1.0  0.0944
  H  H214  1  0.588100  0.646300  0.467700  1.0  0.1103
  H  H215  1  0.594600  0.688100  0.380400  1.0  0.1193
  H  H216  1  0.567600  0.530000  0.374500  1.0  0.0867
  C  C217  1  0.722500  0.546300  0.259200  1.0  0.1294
  C  C218  1  0.726400  0.510800  0.231220  1.0  -0.1526
  C  C219  1  0.772300  0.503900  0.218920  1.0  -0.1128
  C  C220  1  0.812700  0.527000  0.235400  1.0  -0.1458
  C  C221  1  0.805300  0.561800  0.263640  1.0  0.1344
  C  C222  1  0.778100  0.476300  0.187620  1.0  0.3843
  C  C223  1  0.742600  0.440900  0.144570  1.0  0.4111
  C  C224  1  0.824300  0.443400  0.148550  1.0  0.386
  C  C225  1  0.698000  0.426700  0.126820  1.0  -0.1001
  C  C226  1  0.652400  0.439500  0.139950  1.0  -0.1339
  C  C227  1  0.611600  0.423600  0.123200  1.0  0.1321
  C  C228  1  0.657700  0.384200  0.082670  1.0  0.1281
  C  C229  1  0.700000  0.399800  0.097800  1.0  -0.1205
  C  C230  1  0.872600  0.432100  0.135020  1.0  -0.1125
  C  C231  1  0.877500  0.417100  0.105310  1.0  -0.1436
  C  C232  1  0.923600  0.403200  0.093850  1.0  0.1236
  C  C233  1  0.959100  0.416300  0.139110  1.0  0.1422
  C  C234  1  0.914300  0.432700  0.152080  1.0  -0.1242
  C  C235  1  0.810200  0.626600  0.366030  1.0  0.1268
  C  C236  1  0.831800  0.577000  0.388890  1.0  -0.0935
  C  C237  1  0.830500  0.477100  0.389720  1.0  -0.1294
  C  C238  1  0.807400  0.428200  0.367500  1.0  -0.1341
  C  C239  1  0.786600  0.481700  0.344940  1.0  0.1348
  C  C240  1  0.854600  0.423500  0.413700  1.0  0.376
  C  C241  1  0.889800  0.422400  0.457890  1.0  0.3634
  C  C242  1  0.888800  0.285300  0.430450  1.0  0.4179
  C  C243  1  0.949700  0.480800  0.529370  1.0  0.1307
  C  C244  1  0.935200  0.429600  0.505500  1.0  -0.1517
  C  C245  1  0.906800  0.475200  0.484570  1.0  -0.1245
  C  C246  1  0.894900  0.572700  0.488380  1.0  -0.1479
  C  C247  1  0.911300  0.619300  0.513140  1.0  0.1411
  C  C248  1  0.932800  0.029400  0.443100  1.0  0.1178
  C  C249  1  0.916000  0.123700  0.448300  1.0  -0.116
  C  C250  1  0.905300  0.184000  0.425060  1.0  -0.1019
  C  C251  1  0.912100  0.148600  0.396900  1.0  -0.1529
  C  C252  1  0.928800  0.054900  0.393700  1.0  0.1426
  C  C253  1  0.777500  0.453700  0.759200  1.0  0.1297
  C  C254  1  0.773600  0.489200  0.731220  1.0  -0.1523
  C  C255  1  0.727700  0.496100  0.718920  1.0  -0.1125
  C  C256  1  0.687300  0.473000  0.735400  1.0  -0.1464
  C  C257  1  0.694700  0.438200  0.763640  1.0  0.1354
  C  C258  1  0.721900  0.523700  0.687620  1.0  0.3846
  C  C259  1  0.757400  0.559100  0.644570  1.0  0.4109
  C  C260  1  0.675700  0.556600  0.648550  1.0  0.3861
  C  C261  1  0.802000  0.573300  0.626820  1.0  -0.1002
  C  C262  1  0.847600  0.560500  0.639950  1.0  -0.1332
  C  C263  1  0.888400  0.576400  0.623200  1.0  0.1319
  C  C264  1  0.842300  0.615800  0.582670  1.0  0.1282
  C  C265  1  0.800000  0.600200  0.597800  1.0  -0.1209
  C  C266  1  0.627400  0.567900  0.635020  1.0  -0.1126
  C  C267  1  0.622500  0.582900  0.605310  1.0  -0.1438
  C  C268  1  0.576400  0.596800  0.593850  1.0  0.1231
  C  C269  1  0.540900  0.583700  0.639110  1.0  0.142
  C  C270  1  0.585700  0.567300  0.652080  1.0  -0.1243
  C  C271  1  0.689800  0.373400  0.866030  1.0  0.1261
  C  C272  1  0.668200  0.423000  0.888890  1.0  -0.0933
  C  C273  1  0.669500  0.522900  0.889720  1.0  -0.129
  C  C274  1  0.692600  0.571800  0.867500  1.0  -0.1352
  C  C275  1  0.713400  0.518300  0.844940  1.0  0.1343
  C  C276  1  0.645400  0.576500  0.913700  1.0  0.3757
  C  C277  1  0.610200  0.577600  0.957890  1.0  0.3622
  C  C278  1  0.611200  0.714700  0.930450  1.0  0.4172
  C  C279  1  0.550300  0.519200  0.029370  1.0  0.1303
  C  C280  1  0.564800  0.570400  0.005500  1.0  -0.1502
  C  C281  1  0.593200  0.524800  0.984570  1.0  -0.1247
  C  C282  1  0.605100  0.427300  0.988380  1.0  -0.1468
  C  C283  1  0.588700  0.380700  0.013140  1.0  0.1427
  C  C284  1  0.567200  0.970600  0.943100  1.0  0.1144
  C  C285  1  0.584000  0.876300  0.948300  1.0  -0.1155
  C  C286  1  0.594700  0.816000  0.925060  1.0  -0.102
  C  C287  1  0.587900  0.851400  0.896900  1.0  -0.1533
  C  C288  1  0.571200  0.945100  0.893700  1.0  0.1416
  C  C289  1  0.277500  0.046300  0.240800  1.0  0.1291
  C  C290  1  0.273600  0.010800  0.268780  1.0  -0.1522
  C  C291  1  0.227700  0.003900  0.281080  1.0  -0.1125
  C  C292  1  0.187300  0.027000  0.264600  1.0  -0.147
  C  C293  1  0.194700  0.061800  0.236360  1.0  0.1345
  C  C294  1  0.221900  0.976300  0.312380  1.0  0.3844
  C  C295  1  0.257400  0.940900  0.355430  1.0  0.4111
  C  C296  1  0.175700  0.943400  0.351450  1.0  0.386
  C  C297  1  0.302000  0.926700  0.373180  1.0  -0.1002
  C  C298  1  0.347600  0.939500  0.360050  1.0  -0.1322
  C  C299  1  0.388400  0.923600  0.376800  1.0  0.1312
  C  C300  1  0.342300  0.884200  0.417330  1.0  0.1272
  C  C301  1  0.300000  0.899800  0.402200  1.0  -0.1208
  C  C302  1  0.127400  0.932100  0.364980  1.0  -0.1119
  C  C303  1  0.122500  0.917100  0.394690  1.0  -0.1434
  C  C304  1  0.076400  0.903200  0.406150  1.0  0.1211
  C  C305  1  0.040900  0.916300  0.360890  1.0  0.1421
  C  C306  1  0.085700  0.932700  0.347920  1.0  -0.122
  C  C307  1  0.189800  0.126600  0.133970  1.0  0.127
  C  C308  1  0.168200  0.077000  0.111110  1.0  -0.0928
  C  C309  1  0.169500  0.977100  0.110280  1.0  -0.1285
  C  C310  1  0.192600  0.928200  0.132500  1.0  -0.1347
  C  C311  1  0.213400  0.981700  0.155060  1.0  0.1348
  C  C312  1  0.145400  0.923500  0.086300  1.0  0.3759
  C  C313  1  0.110200  0.922400  0.042110  1.0  0.3619
  C  C314  1  0.111200  0.785300  0.069550  1.0  0.4168
  C  C315  1  0.050300  0.980800  0.970630  1.0  0.1309
  C  C316  1  0.064800  0.929600  0.994500  1.0  -0.1512
  C  C317  1  0.093200  0.975200  0.015430  1.0  -0.1262
  C  C318  1  0.105100  0.072700  0.011620  1.0  -0.1469
  C  C319  1  0.088700  0.119300  0.986860  1.0  0.1418
  C  C320  1  0.067200  0.529400  0.056900  1.0  0.1162
  C  C321  1  0.084000  0.623700  0.051700  1.0  -0.1135
  C  C322  1  0.094700  0.684000  0.074940  1.0  -0.1025
  C  C323  1  0.087900  0.648600  0.103100  1.0  -0.1522
  C  C324  1  0.071200  0.554900  0.106300  1.0  0.1431
  C  C325  1  0.222500  0.953700  0.740800  1.0  0.1293
  C  C326  1  0.226400  0.989200  0.768780  1.0  -0.1531
  C  C327  1  0.272300  0.996100  0.781080  1.0  -0.1125
  C  C328  1  0.312700  0.973000  0.764600  1.0  -0.1456
  C  C329  1  0.305300  0.938200  0.736360  1.0  0.1342
  C  C330  1  0.278100  0.023700  0.812380  1.0  0.3842
  C  C331  1  0.242600  0.059100  0.855430  1.0  0.4113
  C  C332  1  0.324300  0.056600  0.851450  1.0  0.3863
  C  C333  1  0.198000  0.073300  0.873180  1.0  -0.1001
  C  C334  1  0.152400  0.060500  0.860050  1.0  -0.1304
  C  C335  1  0.111600  0.076400  0.876800  1.0  0.1317
  C  C336  1  0.157700  0.115800  0.917330  1.0  0.1264
  C  C337  1  0.200000  0.100200  0.902200  1.0  -0.1195
  C  C338  1  0.372600  0.067900  0.864980  1.0  -0.1123
  C  C339  1  0.377500  0.082900  0.894690  1.0  -0.1447
  C  C340  1  0.423600  0.096800  0.906150  1.0  0.1219
  C  C341  1  0.459100  0.083700  0.860890  1.0  0.1419
  C  C342  1  0.414300  0.067300  0.847920  1.0  -0.1225
  C  C343  1  0.310200  0.873400  0.633970  1.0  0.1251
  C  C344  1  0.331800  0.923000  0.611110  1.0  -0.0929
  C  C345  1  0.330500  0.022900  0.610280  1.0  -0.1292
  C  C346  1  0.307400  0.071800  0.632500  1.0  -0.1352
  C  C347  1  0.286600  0.018300  0.655060  1.0  0.1342
  C  C348  1  0.354600  0.076500  0.586300  1.0  0.3762
  C  C349  1  0.389800  0.077600  0.542110  1.0  0.3631
  C  C350  1  0.388800  0.214700  0.569550  1.0  0.4187
  C  C351  1  0.449700  0.019200  0.470630  1.0  0.1313
  C  C352  1  0.435200  0.070400  0.494500  1.0  -0.1501
  C  C353  1  0.406800  0.024800  0.515430  1.0  -0.1248
  C  C354  1  0.394900  0.927300  0.511620  1.0  -0.148
  C  C355  1  0.411300  0.880700  0.486860  1.0  0.1427
  C  C356  1  0.432800  0.470600  0.556900  1.0  0.1165
  C  C357  1  0.416000  0.376300  0.551700  1.0  -0.1134
  C  C358  1  0.405300  0.316000  0.574940  1.0  -0.1016
  C  C359  1  0.412100  0.351400  0.603100  1.0  -0.1526
  C  C360  1  0.428800  0.445100  0.606300  1.0  0.1423
  C  C361  1  0.277500  0.453700  0.740800  1.0  0.1292
  C  C362  1  0.273600  0.489200  0.768780  1.0  -0.1524
  C  C363  1  0.227700  0.496100  0.781080  1.0  -0.1124
  C  C364  1  0.187300  0.473000  0.764600  1.0  -0.1473
  C  C365  1  0.194700  0.438200  0.736360  1.0  0.1345
  C  C366  1  0.221900  0.523700  0.812380  1.0  0.3844
  C  C367  1  0.257400  0.559100  0.855430  1.0  0.4112
  C  C368  1  0.175700  0.556600  0.851450  1.0  0.3862
  C  C369  1  0.302000  0.573300  0.873180  1.0  -0.1003
  C  C370  1  0.347600  0.560500  0.860050  1.0  -0.1318
  C  C371  1  0.388400  0.576400  0.876800  1.0  0.131
  C  C372  1  0.342300  0.615800  0.917330  1.0  0.1266
  C  C373  1  0.300000  0.600200  0.902200  1.0  -0.1211
  C  C374  1  0.127400  0.567900  0.864980  1.0  -0.1122
  C  C375  1  0.122500  0.582900  0.894690  1.0  -0.1433
  C  C376  1  0.076400  0.596800  0.906150  1.0  0.1214
  C  C377  1  0.040900  0.583700  0.860890  1.0  0.1423
  C  C378  1  0.085700  0.567300  0.847920  1.0  -0.1219
  C  C379  1  0.189800  0.373400  0.633970  1.0  0.1257
  C  C380  1  0.168200  0.423000  0.611110  1.0  -0.0928
  C  C381  1  0.169500  0.522900  0.610280  1.0  -0.1285
  C  C382  1  0.192600  0.571800  0.632500  1.0  -0.1354
  C  C383  1  0.213400  0.518300  0.655060  1.0  0.1343
  C  C384  1  0.145400  0.576500  0.586300  1.0  0.3759
  C  C385  1  0.110200  0.577600  0.542110  1.0  0.3619
  C  C386  1  0.111200  0.714700  0.569550  1.0  0.4174
  C  C387  1  0.050300  0.519200  0.470630  1.0  0.1313
  C  C388  1  0.064800  0.570400  0.494500  1.0  -0.1494
  C  C389  1  0.093200  0.524800  0.515430  1.0  -0.1266
  C  C390  1  0.105100  0.427300  0.511620  1.0  -0.1464
  C  C391  1  0.088700  0.380700  0.486860  1.0  0.1429
  C  C392  1  0.067200  0.970600  0.556900  1.0  0.1158
  C  C393  1  0.084000  0.876300  0.551700  1.0  -0.1138
  C  C394  1  0.094700  0.816000  0.574940  1.0  -0.102
  C  C395  1  0.087900  0.851400  0.603100  1.0  -0.1525
  C  C396  1  0.071200  0.945100  0.606300  1.0  0.1426
  C  C397  1  0.222500  0.546300  0.240800  1.0  0.1292
  C  C398  1  0.226400  0.510800  0.268780  1.0  -0.1529
  C  C399  1  0.272300  0.503900  0.281080  1.0  -0.1125
  C  C400  1  0.312700  0.527000  0.264600  1.0  -0.1456
  C  C401  1  0.305300  0.561800  0.236360  1.0  0.1342
  C  C402  1  0.278100  0.476300  0.312380  1.0  0.3842
  C  C403  1  0.242600  0.440900  0.355430  1.0  0.4113
  C  C404  1  0.324300  0.443400  0.351450  1.0  0.3861
  C  C405  1  0.198000  0.426700  0.373180  1.0  -0.0999
  C  C406  1  0.152400  0.439500  0.360050  1.0  -0.1311
  C  C407  1  0.111600  0.423600  0.376800  1.0  0.1318
  C  C408  1  0.157700  0.384200  0.417330  1.0  0.1269
  C  C409  1  0.200000  0.399800  0.402200  1.0  -0.1194
  C  C410  1  0.372600  0.432100  0.364980  1.0  -0.1122
  C  C411  1  0.377500  0.417100  0.394690  1.0  -0.1448
  C  C412  1  0.423600  0.403200  0.406150  1.0  0.1219
  C  C413  1  0.459100  0.416300  0.360890  1.0  0.1417
  C  C414  1  0.414300  0.432700  0.347920  1.0  -0.1226
  C  C415  1  0.310200  0.626600  0.133970  1.0  0.1267
  C  C416  1  0.331800  0.577000  0.111110  1.0  -0.0928
  C  C417  1  0.330500  0.477100  0.110280  1.0  -0.1293
  C  C418  1  0.307400  0.428200  0.132500  1.0  -0.1346
  C  C419  1  0.286600  0.481700  0.155060  1.0  0.135
  C  C420  1  0.354600  0.423500  0.086300  1.0  0.3762
  C  C421  1  0.389800  0.422400  0.042110  1.0  0.3632
  C  C422  1  0.388800  0.285300  0.069550  1.0  0.4179
  C  C423  1  0.449700  0.480800  0.970630  1.0  0.1309
  C  C424  1  0.435200  0.429600  0.994500  1.0  -0.1513
  C  C425  1  0.406800  0.475200  0.015430  1.0  -0.1246
  C  C426  1  0.394900  0.572700  0.011620  1.0  -0.1487
  C  C427  1  0.411300  0.619300  0.986860  1.0  0.1415
  C  C428  1  0.432800  0.029400  0.056900  1.0  0.1171
  C  C429  1  0.416000  0.123700  0.051700  1.0  -0.113
  C  C430  1  0.405300  0.184000  0.074940  1.0  -0.1019
  C  C431  1  0.412100  0.148600  0.103100  1.0  -0.1527
  C  C432  1  0.428800  0.054900  0.106300  1.0  0.1432
  C  C433  1  0.722500  0.953700  0.759200  1.0  0.1301
  C  C434  1  0.726400  0.989200  0.731220  1.0  -0.1525
  C  C435  1  0.772300  0.996100  0.718920  1.0  -0.1124
  C  C436  1  0.812700  0.973000  0.735400  1.0  -0.1459
  C  C437  1  0.805300  0.938200  0.763640  1.0  0.1352
  C  C438  1  0.778100  0.023700  0.687620  1.0  0.3843
  C  C439  1  0.742600  0.059100  0.644570  1.0  0.4111
  C  C440  1  0.824300  0.056600  0.648550  1.0  0.3862
  C  C441  1  0.698000  0.073300  0.626820  1.0  -0.1002
  C  C442  1  0.652400  0.060500  0.639950  1.0  -0.1337
  C  C443  1  0.611600  0.076400  0.623200  1.0  0.1322
  C  C444  1  0.657700  0.115800  0.582670  1.0  0.1283
  C  C445  1  0.700000  0.100200  0.597800  1.0  -0.1206
  C  C446  1  0.872600  0.067900  0.635020  1.0  -0.1125
  C  C447  1  0.877500  0.082900  0.605310  1.0  -0.1434
  C  C448  1  0.923600  0.096800  0.593850  1.0  0.1234
  C  C449  1  0.959100  0.083700  0.639110  1.0  0.1422
  C  C450  1  0.914300  0.067300  0.652080  1.0  -0.1239
  C  C451  1  0.810200  0.873400  0.866030  1.0  0.1256
  C  C452  1  0.831800  0.923000  0.888890  1.0  -0.0933
  C  C453  1  0.830500  0.022900  0.889720  1.0  -0.1297
  C  C454  1  0.807400  0.071800  0.867500  1.0  -0.1352
  C  C455  1  0.786600  0.018300  0.844940  1.0  0.1347
  C  C456  1  0.854600  0.076500  0.913700  1.0  0.376
  C  C457  1  0.889800  0.077600  0.957890  1.0  0.3633
  C  C458  1  0.888800  0.214700  0.930450  1.0  0.4186
  C  C459  1  0.949700  0.019200  0.029370  1.0  0.1302
  C  C460  1  0.935200  0.070400  0.005500  1.0  -0.1508
  C  C461  1  0.906800  0.024800  0.984570  1.0  -0.1245
  C  C462  1  0.894900  0.927300  0.988380  1.0  -0.1477
  C  C463  1  0.911300  0.880700  0.013140  1.0  0.1425
  C  C464  1  0.932800  0.470600  0.943100  1.0  0.115
  C  C465  1  0.916000  0.376300  0.948300  1.0  -0.1162
  C  C466  1  0.905300  0.316000  0.925060  1.0  -0.1016
  C  C467  1  0.912100  0.351400  0.896900  1.0  -0.1527
  C  C468  1  0.928800  0.445100  0.893700  1.0  0.1421
  C  C469  1  0.777500  0.046300  0.259200  1.0  0.1291
  C  C470  1  0.773600  0.010800  0.231220  1.0  -0.1521
  C  C471  1  0.727700  0.003900  0.218920  1.0  -0.113
  C  C472  1  0.687300  0.027000  0.235400  1.0  -0.1462
  C  C473  1  0.694700  0.061800  0.263640  1.0  0.1346
  C  C474  1  0.721900  0.976300  0.187620  1.0  0.3846
  C  C475  1  0.757400  0.940900  0.144570  1.0  0.4109
  C  C476  1  0.675700  0.943400  0.148550  1.0  0.3859
  C  C477  1  0.802000  0.926700  0.126820  1.0  -0.1001
  C  C478  1  0.847600  0.939500  0.139950  1.0  -0.1335
  C  C479  1  0.888400  0.923600  0.123200  1.0  0.132
  C  C480  1  0.842300  0.884200  0.082670  1.0  0.128
  C  C481  1  0.800000  0.899800  0.097800  1.0  -0.1206
  C  C482  1  0.627400  0.932100  0.135020  1.0  -0.1123
  C  C483  1  0.622500  0.917100  0.105310  1.0  -0.1439
  C  C484  1  0.576400  0.903200  0.093850  1.0  0.1232
  C  C485  1  0.540900  0.916300  0.139110  1.0  0.1422
  C  C486  1  0.585700  0.932700  0.152080  1.0  -0.1246
  C  C487  1  0.689800  0.126600  0.366030  1.0  0.127
  C  C488  1  0.668200  0.077000  0.388890  1.0  -0.0938
  C  C489  1  0.669500  0.977100  0.389720  1.0  -0.1286
  C  C490  1  0.692600  0.928200  0.367500  1.0  -0.1342
  C  C491  1  0.713400  0.981700  0.344940  1.0  0.1343
  C  C492  1  0.645400  0.923500  0.413700  1.0  0.3757
  C  C493  1  0.610200  0.922400  0.457890  1.0  0.3622
  C  C494  1  0.611200  0.785300  0.430450  1.0  0.4167
  C  C495  1  0.550300  0.980800  0.529370  1.0  0.1307
  C  C496  1  0.564800  0.929600  0.505500  1.0  -0.1519
  C  C497  1  0.593200  0.975200  0.484570  1.0  -0.1241
  C  C498  1  0.605100  0.072700  0.488380  1.0  -0.1467
  C  C499  1  0.588700  0.119300  0.513140  1.0  0.1418
  C  C500  1  0.567200  0.529400  0.443100  1.0  0.1168
  C  C501  1  0.584000  0.623700  0.448300  1.0  -0.1153
  C  C502  1  0.594700  0.684000  0.425060  1.0  -0.1026
  C  C503  1  0.587900  0.648600  0.396900  1.0  -0.1533
  C  C504  1  0.571200  0.554900  0.393700  1.0  0.1421
  I  I505  1  0.804790  0.810300  0.303920  1.0  -0.3944
  I  I506  1  0.663050  0.671930  0.323710  1.0  -0.3413
  I  I507  1  0.076660  0.281180  0.133190  1.0  -0.3405
  I  I508  1  0.015210  0.278620  0.042960  1.0  -0.3767
  I  I509  1  0.483030  0.452310  0.100410  1.0  -0.3943
  I  I510  1  0.550860  0.174950  0.066480  1.0  -0.3782
  I  I511  1  0.695210  0.189700  0.803920  1.0  -0.3952
  I  I512  1  0.836950  0.328070  0.823710  1.0  -0.3426
  I  I513  1  0.423340  0.718820  0.633190  1.0  -0.3408
  I  I514  1  0.484790  0.721380  0.542960  1.0  -0.3764
  I  I515  1  0.016970  0.547690  0.600410  1.0  -0.3945
  I  I516  1  0.949140  0.825050  0.566480  1.0  -0.378
  I  I517  1  0.195210  0.310300  0.196080  1.0  -0.3946
  I  I518  1  0.336950  0.171930  0.176280  1.0  -0.3431
  I  I519  1  0.923340  0.781180  0.366810  1.0  -0.3399
  I  I520  1  0.984790  0.778620  0.457040  1.0  -0.3769
  I  I521  1  0.516970  0.952310  0.399590  1.0  -0.3963
  I  I522  1  0.449140  0.674950  0.433520  1.0  -0.3781
  I  I523  1  0.304790  0.689700  0.696080  1.0  -0.395
  I  I524  1  0.163050  0.828070  0.676290  1.0  -0.3417
  I  I525  1  0.576660  0.218820  0.866810  1.0  -0.3396
  I  I526  1  0.515210  0.221380  0.957040  1.0  -0.3765
  I  I527  1  0.983030  0.047690  0.899590  1.0  -0.3958
  I  I528  1  0.050860  0.325050  0.933520  1.0  -0.3784
  I  I529  1  0.195210  0.189700  0.696080  1.0  -0.3952
  I  I530  1  0.336950  0.328070  0.676290  1.0  -0.3431
  I  I531  1  0.923340  0.718820  0.866810  1.0  -0.3407
  I  I532  1  0.984790  0.721380  0.957040  1.0  -0.3765
  I  I533  1  0.516970  0.547690  0.899590  1.0  -0.3963
  I  I534  1  0.449140  0.825050  0.933520  1.0  -0.3781
  I  I535  1  0.304790  0.810300  0.196080  1.0  -0.3946
  I  I536  1  0.163050  0.671930  0.176280  1.0  -0.3417
  I  I537  1  0.576660  0.281180  0.366810  1.0  -0.3412
  I  I538  1  0.515210  0.278620  0.457040  1.0  -0.3769
  I  I539  1  0.983030  0.452310  0.399590  1.0  -0.3958
  I  I540  1  0.050860  0.174950  0.433520  1.0  -0.3783
  I  I541  1  0.804790  0.689700  0.803920  1.0  -0.3949
  I  I542  1  0.663050  0.828070  0.823710  1.0  -0.3413
  I  I543  1  0.076660  0.218820  0.633190  1.0  -0.3396
  I  I544  1  0.015210  0.221380  0.542960  1.0  -0.3764
  I  I545  1  0.483030  0.047690  0.600410  1.0  -0.394
  I  I546  1  0.550860  0.325050  0.566480  1.0  -0.3782
  I  I547  1  0.695210  0.310300  0.303920  1.0  -0.3944
  I  I548  1  0.836950  0.171930  0.323710  1.0  -0.3426
  I  I549  1  0.423340  0.781180  0.133190  1.0  -0.3391
  I  I550  1  0.484790  0.778620  0.042960  1.0  -0.3767
  I  I551  1  0.016970  0.952310  0.100410  1.0  -0.3949
  I  I552  1  0.949140  0.674950  0.066480  1.0  -0.3781
  N  N553  1  0.761000  0.574400  0.275290  1.0  -0.3446
  N  N554  1  0.736800  0.463800  0.172450  1.0  -0.4993
  N  N555  1  0.785500  0.430100  0.131050  1.0  -0.4879
  N  N556  1  0.822700  0.466500  0.176890  1.0  -0.4715
  N  N557  1  0.613600  0.395000  0.095300  1.0  -0.3272
  N  N558  1  0.964100  0.400300  0.110560  1.0  -0.3171
  N  N559  1  0.787600  0.579400  0.344300  1.0  -0.3332
  N  N560  1  0.865900  0.473000  0.437810  1.0  -0.3467
  N  N561  1  0.901700  0.328000  0.455660  1.0  -0.3258
  N  N562  1  0.864900  0.329300  0.408810  1.0  -0.4057
  N  N563  1  0.937300  0.574300  0.533760  1.0  -0.3076
  N  N564  1  0.940100  0.996400  0.416200  1.0  -0.2959
  N  N565  1  0.739000  0.425600  0.775290  1.0  -0.3439
  N  N566  1  0.763200  0.536200  0.672450  1.0  -0.4981
  N  N567  1  0.714500  0.569900  0.631050  1.0  -0.4871
  N  N568  1  0.677300  0.533500  0.676890  1.0  -0.4718
  N  N569  1  0.886400  0.605000  0.595300  1.0  -0.3265
  N  N570  1  0.535900  0.599700  0.610560  1.0  -0.3175
  N  N571  1  0.712400  0.420600  0.844300  1.0  -0.3336
  N  N572  1  0.634100  0.527000  0.937810  1.0  -0.3458
  N  N573  1  0.598300  0.672000  0.955660  1.0  -0.3287
  N  N574  1  0.635100  0.670700  0.908810  1.0  -0.4045
  N  N575  1  0.562700  0.425700  0.033760  1.0  -0.3069
  N  N576  1  0.559900  0.003600  0.916200  1.0  -0.2972
  N  N577  1  0.239000  0.074400  0.224710  1.0  -0.3432
  N  N578  1  0.263200  0.963800  0.327550  1.0  -0.498
  N  N579  1  0.214500  0.930100  0.368950  1.0  -0.4881
  N  N580  1  0.177300  0.966500  0.323110  1.0  -0.4696
  N  N581  1  0.386400  0.895000  0.404700  1.0  -0.3264
  N  N582  1  0.035900  0.900300  0.389440  1.0  -0.3187
  N  N583  1  0.212400  0.079400  0.155700  1.0  -0.3329
  N  N584  1  0.134100  0.973000  0.062190  1.0  -0.3465
  N  N585  1  0.098300  0.828000  0.044340  1.0  -0.3283
  N  N586  1  0.135100  0.829300  0.091190  1.0  -0.4045
  N  N587  1  0.062700  0.074300  0.966240  1.0  -0.3079
  N  N588  1  0.059900  0.496400  0.083800  1.0  -0.2961
  N  N589  1  0.261000  0.925600  0.724710  1.0  -0.3436
  N  N590  1  0.236800  0.036200  0.827550  1.0  -0.4991
  N  N591  1  0.285500  0.069900  0.868950  1.0  -0.488
  N  N592  1  0.322700  0.033500  0.823110  1.0  -0.4702
  N  N593  1  0.113600  0.105000  0.904700  1.0  -0.3286
  N  N594  1  0.464100  0.099700  0.889440  1.0  -0.319
  N  N595  1  0.287600  0.920600  0.655700  1.0  -0.3329
  N  N596  1  0.365900  0.027000  0.562190  1.0  -0.346
  N  N597  1  0.401700  0.172000  0.544340  1.0  -0.3268
  N  N598  1  0.364900  0.170700  0.591190  1.0  -0.406
  N  N599  1  0.437300  0.925700  0.466240  1.0  -0.3098
  N  N600  1  0.440100  0.503600  0.583800  1.0  -0.2984
  N  N601  1  0.239000  0.425600  0.724710  1.0  -0.3435
  N  N602  1  0.263200  0.536200  0.827550  1.0  -0.4982
  N  N603  1  0.214500  0.569900  0.868950  1.0  -0.4879
  N  N604  1  0.177300  0.533500  0.823110  1.0  -0.4698
  N  N605  1  0.386400  0.605000  0.904700  1.0  -0.3268
  N  N606  1  0.035900  0.599700  0.889440  1.0  -0.3192
  N  N607  1  0.212400  0.420600  0.655700  1.0  -0.3323
  N  N608  1  0.134100  0.527000  0.562190  1.0  -0.346
  N  N609  1  0.098300  0.672000  0.544340  1.0  -0.3276
  N  N610  1  0.135100  0.670700  0.591190  1.0  -0.4054
  N  N611  1  0.062700  0.425700  0.466240  1.0  -0.3099
  N  N612  1  0.059900  0.003600  0.583800  1.0  -0.2978
  N  N613  1  0.261000  0.574400  0.224710  1.0  -0.343
  N  N614  1  0.236800  0.463800  0.327550  1.0  -0.4989
  N  N615  1  0.285500  0.430100  0.368950  1.0  -0.4881
  N  N616  1  0.322700  0.466500  0.323110  1.0  -0.4701
  N  N617  1  0.113600  0.395000  0.404700  1.0  -0.3286
  N  N618  1  0.464100  0.400300  0.389440  1.0  -0.3174
  N  N619  1  0.287600  0.579400  0.155700  1.0  -0.3338
  N  N620  1  0.365900  0.473000  0.062190  1.0  -0.3465
  N  N621  1  0.401700  0.328000  0.044340  1.0  -0.3265
  N  N622  1  0.364900  0.329300  0.091190  1.0  -0.4051
  N  N623  1  0.437300  0.574300  0.966240  1.0  -0.3082
  N  N624  1  0.440100  0.996400  0.083800  1.0  -0.296
  N  N625  1  0.761000  0.925600  0.775290  1.0  -0.3442
  N  N626  1  0.736800  0.036200  0.672450  1.0  -0.4993
  N  N627  1  0.785500  0.069900  0.631050  1.0  -0.4872
  N  N628  1  0.822700  0.033500  0.676890  1.0  -0.4715
  N  N629  1  0.613600  0.105000  0.595300  1.0  -0.3269
  N  N630  1  0.964100  0.099700  0.610560  1.0  -0.318
  N  N631  1  0.787600  0.920600  0.844300  1.0  -0.3339
  N  N632  1  0.865900  0.027000  0.937810  1.0  -0.3457
  N  N633  1  0.901700  0.172000  0.955660  1.0  -0.3274
  N  N634  1  0.864900  0.170700  0.908810  1.0  -0.4048
  N  N635  1  0.937300  0.925700  0.033760  1.0  -0.3075
  N  N636  1  0.940100  0.503600  0.916200  1.0  -0.2976
  N  N637  1  0.739000  0.074400  0.275290  1.0  -0.3447
  N  N638  1  0.763200  0.963800  0.172450  1.0  -0.4981
  N  N639  1  0.714500  0.930100  0.131050  1.0  -0.488
  N  N640  1  0.677300  0.966500  0.176890  1.0  -0.4718
  N  N641  1  0.886400  0.895000  0.095300  1.0  -0.3264
  N  N642  1  0.535900  0.900300  0.110560  1.0  -0.3181
  N  N643  1  0.712400  0.079400  0.344300  1.0  -0.3326
  N  N644  1  0.634100  0.973000  0.437810  1.0  -0.3469
  N  N645  1  0.598300  0.828000  0.455660  1.0  -0.3278
  N  N646  1  0.635100  0.829300  0.408810  1.0  -0.4054
  N  N647  1  0.562700  0.074300  0.533760  1.0  -0.3071
  N  N648  1  0.559900  0.496400  0.416200  1.0  -0.2961
