# generated using pymatgen
data_Zn4Mo12PH3C9O34
_symmetry_space_group_name_H-M   'P 1'
_cell_length_a   27.05840000
_cell_length_b   27.24480000
_cell_length_c   27.88020000
_cell_angle_alpha   90.00000000
_cell_angle_beta   90.00000000
_cell_angle_gamma   90.00000000
_symmetry_Int_Tables_number   1
_chemical_formula_structural   Zn4Mo12PH3C9O34
_chemical_formula_sum   'Zn32 Mo96 P8 H24 C72 O272'
_cell_volume   20553.30285354
_cell_formula_units_Z   8
loop_
 _symmetry_equiv_pos_site_id
 _symmetry_equiv_pos_as_xyz
  1  'x, y, z'
loop_
 _atom_site_type_symbol
 _atom_site_label
 _atom_site_symmetry_multiplicity
 _atom_site_fract_x
 _atom_site_fract_y
 _atom_site_fract_z
 _atom_site_occupancy
 _atom_site_charge
  Zn  Zn1  1  0.466760  0.992110  0.059930  1.0  0.985
  Zn  Zn2  1  0.433180  0.781740  0.990270  1.0  1.1086
  Zn  Zn3  1  0.421210  0.839970  0.202260  1.0  1.0154
  Zn  Zn4  1  0.613570  0.823070  0.086660  1.0  1.1117
  Zn  Zn5  1  0.033240  0.007890  0.559930  1.0  0.9843
  Zn  Zn6  1  0.066820  0.218260  0.490270  1.0  1.1078
  Zn  Zn7  1  0.078790  0.160030  0.702260  1.0  1.0169
  Zn  Zn8  1  0.886430  0.176930  0.586660  1.0  1.1114
  Zn  Zn9  1  0.533240  0.492110  0.440070  1.0  0.9835
  Zn  Zn10  1  0.566820  0.281740  0.509730  1.0  1.1076
  Zn  Zn11  1  0.578790  0.339970  0.297740  1.0  1.0169
  Zn  Zn12  1  0.386430  0.323070  0.413340  1.0  1.1107
  Zn  Zn13  1  0.966760  0.507890  0.940070  1.0  0.9827
  Zn  Zn14  1  0.933180  0.718260  0.009730  1.0  1.1066
  Zn  Zn15  1  0.921210  0.660030  0.797740  1.0  1.0165
  Zn  Zn16  1  0.113570  0.676930  0.913340  1.0  1.1122
  Zn  Zn17  1  0.533240  0.007890  0.940070  1.0  0.9827
  Zn  Zn18  1  0.566820  0.218260  0.009730  1.0  1.108
  Zn  Zn19  1  0.578790  0.160030  0.797740  1.0  1.0171
  Zn  Zn20  1  0.386430  0.176930  0.913340  1.0  1.1115
  Zn  Zn21  1  0.966760  0.992110  0.440070  1.0  0.9833
  Zn  Zn22  1  0.933180  0.781740  0.509730  1.0  1.1088
  Zn  Zn23  1  0.921210  0.839970  0.297740  1.0  1.0163
  Zn  Zn24  1  0.113570  0.823070  0.413340  1.0  1.1114
  Zn  Zn25  1  0.466760  0.507890  0.559930  1.0  0.9847
  Zn  Zn26  1  0.433180  0.718260  0.490270  1.0  1.1067
  Zn  Zn27  1  0.421210  0.660030  0.702260  1.0  1.0157
  Zn  Zn28  1  0.613570  0.676930  0.586660  1.0  1.1123
  Zn  Zn29  1  0.033240  0.492110  0.059930  1.0  0.9847
  Zn  Zn30  1  0.066820  0.281740  0.990270  1.0  1.1074
  Zn  Zn31  1  0.078790  0.339970  0.202260  1.0  1.0166
  Zn  Zn32  1  0.886430  0.323070  0.086660  1.0  1.1107
  Mo  Mo33  1  0.579090  0.928500  0.018750  1.0  1.262
  Mo  Mo34  1  0.579790  0.950350  0.109930  1.0  1.2347
  Mo  Mo35  1  0.533280  0.732210  0.052830  1.0  1.4309
  Mo  Mo36  1  0.532580  0.767980  0.171230  1.0  1.2289
  Mo  Mo37  1  0.422800  0.741460  0.111910  1.0  1.2643
  Mo  Mo38  1  0.467700  0.903610  0.960240  1.0  1.239
  Mo  Mo39  1  0.556080  0.813830  0.973700  1.0  1.44
  Mo  Mo40  1  0.357380  0.810560  0.094400  1.0  1.2036
  Mo  Mo41  1  0.552840  0.858250  0.198350  1.0  1.2331
  Mo  Mo42  1  0.384170  0.905530  0.007970  1.0  1.2505
  Mo  Mo43  1  0.374660  0.931610  0.127430  1.0  1.42
  Mo  Mo44  1  0.475540  0.956140  0.179750  1.0  1.4358
  Mo  Mo45  1  0.920910  0.071500  0.518750  1.0  1.26
  Mo  Mo46  1  0.920210  0.049650  0.609930  1.0  1.2362
  Mo  Mo47  1  0.966720  0.267790  0.552830  1.0  1.4325
  Mo  Mo48  1  0.967420  0.232020  0.671230  1.0  1.2346
  Mo  Mo49  1  0.077200  0.258540  0.611910  1.0  1.2671
  Mo  Mo50  1  0.032300  0.096390  0.460240  1.0  1.2363
  Mo  Mo51  1  0.943920  0.186170  0.473700  1.0  1.4417
  Mo  Mo52  1  0.142620  0.189440  0.594400  1.0  1.2013
  Mo  Mo53  1  0.947160  0.141750  0.698350  1.0  1.2327
  Mo  Mo54  1  0.115830  0.094470  0.507970  1.0  1.248
  Mo  Mo55  1  0.125340  0.068390  0.627430  1.0  1.4211
  Mo  Mo56  1  0.024460  0.043860  0.679750  1.0  1.4338
  Mo  Mo57  1  0.420910  0.428500  0.481250  1.0  1.2606
  Mo  Mo58  1  0.420210  0.450350  0.390070  1.0  1.2371
  Mo  Mo59  1  0.466720  0.232210  0.447170  1.0  1.4311
  Mo  Mo60  1  0.467420  0.267980  0.328770  1.0  1.2371
  Mo  Mo61  1  0.577200  0.241460  0.388090  1.0  1.2628
  Mo  Mo62  1  0.532300  0.403610  0.539760  1.0  1.2348
  Mo  Mo63  1  0.443920  0.313830  0.526300  1.0  1.4381
  Mo  Mo64  1  0.642620  0.310560  0.405600  1.0  1.2004
  Mo  Mo65  1  0.447160  0.358250  0.301650  1.0  1.234
  Mo  Mo66  1  0.615830  0.405530  0.492030  1.0  1.2479
  Mo  Mo67  1  0.625340  0.431610  0.372570  1.0  1.4335
  Mo  Mo68  1  0.524460  0.456140  0.320250  1.0  1.4359
  Mo  Mo69  1  0.079090  0.571500  0.981250  1.0  1.2595
  Mo  Mo70  1  0.079790  0.549650  0.890070  1.0  1.2349
  Mo  Mo71  1  0.033280  0.767790  0.947170  1.0  1.4283
  Mo  Mo72  1  0.032580  0.732020  0.828770  1.0  1.2312
  Mo  Mo73  1  0.922800  0.758540  0.888090  1.0  1.2657
  Mo  Mo74  1  0.967700  0.596390  0.039760  1.0  1.2351
  Mo  Mo75  1  0.056080  0.686170  0.026300  1.0  1.4369
  Mo  Mo76  1  0.857380  0.689440  0.905600  1.0  1.2038
  Mo  Mo77  1  0.052840  0.641750  0.801650  1.0  1.2334
  Mo  Mo78  1  0.884170  0.594470  0.992030  1.0  1.2499
  Mo  Mo79  1  0.874660  0.568390  0.872570  1.0  1.432
  Mo  Mo80  1  0.975540  0.543860  0.820250  1.0  1.4407
  Mo  Mo81  1  0.420910  0.071500  0.981250  1.0  1.2602
  Mo  Mo82  1  0.420210  0.049650  0.890070  1.0  1.2368
  Mo  Mo83  1  0.466720  0.267790  0.947170  1.0  1.4338
  Mo  Mo84  1  0.467420  0.232020  0.828770  1.0  1.2341
  Mo  Mo85  1  0.577200  0.258540  0.888090  1.0  1.2653
  Mo  Mo86  1  0.532300  0.096390  0.039760  1.0  1.2356
  Mo  Mo87  1  0.443920  0.186170  0.026300  1.0  1.4378
  Mo  Mo88  1  0.642620  0.189440  0.905600  1.0  1.2012
  Mo  Mo89  1  0.447160  0.141750  0.801650  1.0  1.2343
  Mo  Mo90  1  0.615830  0.094470  0.992030  1.0  1.2474
  Mo  Mo91  1  0.625340  0.068390  0.872570  1.0  1.4201
  Mo  Mo92  1  0.524460  0.043860  0.820250  1.0  1.4402
  Mo  Mo93  1  0.079090  0.928500  0.481250  1.0  1.2603
  Mo  Mo94  1  0.079790  0.950350  0.390070  1.0  1.2357
  Mo  Mo95  1  0.033280  0.732210  0.447170  1.0  1.432
  Mo  Mo96  1  0.032580  0.767980  0.328770  1.0  1.2335
  Mo  Mo97  1  0.922800  0.741460  0.388090  1.0  1.2635
  Mo  Mo98  1  0.967700  0.903610  0.539760  1.0  1.2342
  Mo  Mo99  1  0.056080  0.813830  0.526300  1.0  1.4364
  Mo  Mo100  1  0.857380  0.810560  0.405600  1.0  1.2035
  Mo  Mo101  1  0.052840  0.858250  0.301650  1.0  1.2332
  Mo  Mo102  1  0.884170  0.905530  0.492030  1.0  1.2501
  Mo  Mo103  1  0.874660  0.931610  0.372570  1.0  1.4203
  Mo  Mo104  1  0.975540  0.956140  0.320250  1.0  1.4373
  Mo  Mo105  1  0.579090  0.571500  0.518750  1.0  1.2602
  Mo  Mo106  1  0.579790  0.549650  0.609930  1.0  1.2339
  Mo  Mo107  1  0.533280  0.767790  0.552830  1.0  1.4283
  Mo  Mo108  1  0.532580  0.732020  0.671230  1.0  1.2335
  Mo  Mo109  1  0.422800  0.758540  0.611910  1.0  1.2674
  Mo  Mo110  1  0.467700  0.596390  0.460240  1.0  1.2386
  Mo  Mo111  1  0.556080  0.686170  0.473700  1.0  1.4395
  Mo  Mo112  1  0.357380  0.689440  0.594400  1.0  1.2039
  Mo  Mo113  1  0.552840  0.641750  0.698350  1.0  1.2331
  Mo  Mo114  1  0.384170  0.594470  0.507970  1.0  1.2513
  Mo  Mo115  1  0.374660  0.568390  0.627430  1.0  1.4328
  Mo  Mo116  1  0.475540  0.543860  0.679750  1.0  1.4329
  Mo  Mo117  1  0.920910  0.428500  0.018750  1.0  1.2612
  Mo  Mo118  1  0.920210  0.450350  0.109930  1.0  1.2368
  Mo  Mo119  1  0.966720  0.232210  0.052830  1.0  1.428
  Mo  Mo120  1  0.967420  0.267980  0.171230  1.0  1.2305
  Mo  Mo121  1  0.077200  0.241460  0.111910  1.0  1.2635
  Mo  Mo122  1  0.032300  0.403610  0.960240  1.0  1.2368
  Mo  Mo123  1  0.943920  0.313830  0.973700  1.0  1.4424
  Mo  Mo124  1  0.142620  0.310560  0.094400  1.0  1.2004
  Mo  Mo125  1  0.947160  0.358250  0.198350  1.0  1.2328
  Mo  Mo126  1  0.115830  0.405530  0.007970  1.0  1.2477
  Mo  Mo127  1  0.125340  0.431610  0.127430  1.0  1.4327
  Mo  Mo128  1  0.024460  0.456140  0.179750  1.0  1.4355
  P  P129  1  0.484910  0.859350  0.083280  1.0  1.5959
  P  P130  1  0.015090  0.140650  0.583280  1.0  1.5958
  P  P131  1  0.515090  0.359350  0.416720  1.0  1.596
  P  P132  1  0.984910  0.640650  0.916720  1.0  1.5961
  P  P133  1  0.515090  0.140650  0.916720  1.0  1.5961
  P  P134  1  0.984910  0.859350  0.416720  1.0  1.5961
  P  P135  1  0.484910  0.640650  0.583280  1.0  1.5959
  P  P136  1  0.015090  0.359350  0.083280  1.0  1.5959
  H  H137  1  0.890200  0.779700  0.150900  1.0  0.141
  H  H138  1  0.763700  0.776200  0.073200  1.0  0.1308
  H  H139  1  0.765000  0.851000  0.205000  1.0  0.1479
  H  H140  1  0.609800  0.220300  0.650900  1.0  0.1404
  H  H141  1  0.736300  0.223800  0.573200  1.0  0.1304
  H  H142  1  0.735000  0.149000  0.705000  1.0  0.1489
  H  H143  1  0.109800  0.279700  0.349100  1.0  0.1404
  H  H144  1  0.236300  0.276200  0.426800  1.0  0.1302
  H  H145  1  0.235000  0.351000  0.295000  1.0  0.1481
  H  H146  1  0.390200  0.720300  0.849100  1.0  0.1413
  H  H147  1  0.263700  0.723800  0.926800  1.0  0.1306
  H  H148  1  0.265000  0.649000  0.795000  1.0  0.1478
  H  H149  1  0.109800  0.220300  0.849100  1.0  0.1405
  H  H150  1  0.236300  0.223800  0.926800  1.0  0.1302
  H  H151  1  0.235000  0.149000  0.795000  1.0  0.1483
  H  H152  1  0.390200  0.779700  0.349100  1.0  0.1411
  H  H153  1  0.263700  0.776200  0.426800  1.0  0.1306
  H  H154  1  0.265000  0.851000  0.295000  1.0  0.1477
  H  H155  1  0.890200  0.720300  0.650900  1.0  0.1411
  H  H156  1  0.763700  0.723800  0.573200  1.0  0.131
  H  H157  1  0.765000  0.649000  0.705000  1.0  0.1482
  H  H158  1  0.609800  0.279700  0.150900  1.0  0.1405
  H  H159  1  0.736300  0.276200  0.073200  1.0  0.1302
  H  H160  1  0.735000  0.351000  0.205000  1.0  0.1491
  C  C161  1  0.705500  0.831100  0.127600  1.0  0.7107
  C  C162  1  0.831800  0.774200  0.105700  1.0  -0.0905
  C  C163  1  0.856600  0.746600  0.066800  1.0  0.7111
  C  C164  1  0.782600  0.826700  0.178000  1.0  -0.0133
  C  C165  1  0.757700  0.813700  0.134700  1.0  -0.0914
  C  C166  1  0.856300  0.787800  0.147200  1.0  0.0255
  C  C167  1  0.832000  0.813200  0.183900  1.0  -0.0849
  C  C168  1  0.781400  0.786800  0.100800  1.0  0.0221
  C  C169  1  0.856300  0.828400  0.230500  1.0  0.6478
  C  C170  1  0.794500  0.168900  0.627600  1.0  0.7117
  C  C171  1  0.668200  0.225800  0.605700  1.0  -0.0901
  C  C172  1  0.643400  0.253400  0.566800  1.0  0.7114
  C  C173  1  0.717400  0.173300  0.678000  1.0  -0.0115
  C  C174  1  0.742300  0.186300  0.634700  1.0  -0.0924
  C  C175  1  0.643700  0.212200  0.647200  1.0  0.0242
  C  C176  1  0.668000  0.186800  0.683900  1.0  -0.0848
  C  C177  1  0.718600  0.213200  0.600800  1.0  0.0221
  C  C178  1  0.643700  0.171600  0.730500  1.0  0.6478
  C  C179  1  0.294500  0.331100  0.372400  1.0  0.7113
  C  C180  1  0.168200  0.274200  0.394300  1.0  -0.0872
  C  C181  1  0.143400  0.246600  0.433200  1.0  0.7104
  C  C182  1  0.217400  0.326700  0.322000  1.0  -0.0114
  C  C183  1  0.242300  0.313700  0.365300  1.0  -0.0944
  C  C184  1  0.143700  0.287800  0.352800  1.0  0.0245
  C  C185  1  0.168000  0.313200  0.316100  1.0  -0.0847
  C  C186  1  0.218600  0.286800  0.399200  1.0  0.0196
  C  C187  1  0.143700  0.328400  0.269500  1.0  0.6465
  C  C188  1  0.205500  0.668900  0.872400  1.0  0.7115
  C  C189  1  0.331800  0.725800  0.894300  1.0  -0.0861
  C  C190  1  0.356600  0.753400  0.933200  1.0  0.7101
  C  C191  1  0.282600  0.673300  0.822000  1.0  -0.0103
  C  C192  1  0.257700  0.686300  0.865300  1.0  -0.0941
  C  C193  1  0.356300  0.712200  0.852800  1.0  0.0233
  C  C194  1  0.332000  0.686800  0.816100  1.0  -0.0842
  C  C195  1  0.281400  0.713200  0.899200  1.0  0.0176
  C  C196  1  0.356300  0.671600  0.769500  1.0  0.646
  C  C197  1  0.294500  0.168900  0.872400  1.0  0.7117
  C  C198  1  0.168200  0.225800  0.894300  1.0  -0.0908
  C  C199  1  0.143400  0.253400  0.933200  1.0  0.7103
  C  C200  1  0.217400  0.173300  0.822000  1.0  -0.0132
  C  C201  1  0.242300  0.186300  0.865300  1.0  -0.0923
  C  C202  1  0.143700  0.212200  0.852800  1.0  0.0244
  C  C203  1  0.168000  0.186800  0.816100  1.0  -0.0848
  C  C204  1  0.218600  0.213200  0.899200  1.0  0.0214
  C  C205  1  0.143700  0.171600  0.769500  1.0  0.6462
  C  C206  1  0.205500  0.831100  0.372400  1.0  0.7107
  C  C207  1  0.331800  0.774200  0.394300  1.0  -0.0911
  C  C208  1  0.356600  0.746600  0.433200  1.0  0.7102
  C  C209  1  0.282600  0.826700  0.322000  1.0  -0.014
  C  C210  1  0.257700  0.813700  0.365300  1.0  -0.0917
  C  C211  1  0.356300  0.787800  0.352800  1.0  0.0257
  C  C212  1  0.332000  0.813200  0.316100  1.0  -0.0842
  C  C213  1  0.281400  0.786800  0.399200  1.0  0.0205
  C  C214  1  0.356300  0.828400  0.269500  1.0  0.6463
  C  C215  1  0.705500  0.668900  0.627600  1.0  0.7115
  C  C216  1  0.831800  0.725800  0.605700  1.0  -0.0859
  C  C217  1  0.856600  0.753400  0.566800  1.0  0.711
  C  C218  1  0.782600  0.673300  0.678000  1.0  -0.0097
  C  C219  1  0.757700  0.686300  0.634700  1.0  -0.0939
  C  C220  1  0.856300  0.712200  0.647200  1.0  0.0259
  C  C221  1  0.832000  0.686800  0.683900  1.0  -0.0846
  C  C222  1  0.781400  0.713200  0.600800  1.0  0.0202
  C  C223  1  0.856300  0.671600  0.730500  1.0  0.6476
  C  C224  1  0.794500  0.331100  0.127600  1.0  0.7113
  C  C225  1  0.668200  0.274200  0.105700  1.0  -0.0862
  C  C226  1  0.643400  0.246600  0.066800  1.0  0.7115
  C  C227  1  0.717400  0.326700  0.178000  1.0  -0.0097
  C  C228  1  0.742300  0.313700  0.134700  1.0  -0.0946
  C  C229  1  0.643700  0.287800  0.147200  1.0  0.0219
  C  C230  1  0.668000  0.313200  0.183900  1.0  -0.0851
  C  C231  1  0.718600  0.286800  0.100800  1.0  0.0182
  C  C232  1  0.643700  0.328400  0.230500  1.0  0.648
  O  O233  1  0.605600  0.894000  0.074600  1.0  -0.8152
  O  O234  1  0.683600  0.811100  0.091600  1.0  -0.5579
  O  O235  1  0.904100  0.751200  0.064400  1.0  -0.5504
  O  O236  1  0.686400  0.860600  0.154800  1.0  -0.4123
  O  O237  1  0.903400  0.816100  0.233500  1.0  -0.5252
  O  O238  1  0.832100  0.721500  0.038800  1.0  -0.4342
  O  O239  1  0.834500  0.850500  0.261500  1.0  -0.4987
  O  O240  1  0.441900  0.948900  0.008600  1.0  -0.7311
  O  O241  1  0.471200  0.731200  0.161800  1.0  -0.6958
  O  O242  1  0.420800  0.852000  0.977500  1.0  -0.8021
  O  O243  1  0.532000  0.940700  0.964200  1.0  -0.825
  O  O244  1  0.509800  0.871400  0.033900  1.0  -0.7476
  O  O245  1  0.428900  0.871700  0.079200  1.0  -0.7401
  O  O246  1  0.600800  0.910600  0.169800  1.0  -0.744
  O  O247  1  0.597300  0.866500  0.983500  1.0  -0.6991
  O  O248  1  0.398200  0.795500  0.151200  1.0  -0.7631
  O  O249  1  0.492600  0.819300  0.201300  1.0  -0.7785
  O  O250  1  0.399500  0.771300  0.051500  1.0  -0.8087
  O  O251  1  0.509600  0.846100  0.938700  1.0  -0.6814
  O  O252  1  0.503500  0.767600  0.996300  1.0  -0.7701
  O  O253  1  0.340100  0.848700  0.032600  1.0  -0.6601
  O  O254  1  0.490800  0.804900  0.095400  1.0  -0.7376
  O  O255  1  0.419500  0.907900  0.179000  1.0  -0.8324
  O  O256  1  0.536200  0.970500  0.057600  1.0  -0.7214
  O  O257  1  0.437500  0.971500  0.120300  1.0  -0.7874
  O  O258  1  0.472000  0.709400  0.067200  1.0  -0.6701
  O  O259  1  0.580400  0.786700  0.036400  1.0  -0.8058
  O  O260  1  0.582300  0.815400  0.149400  1.0  -0.8261
  O  O261  1  0.361700  0.945500  0.064400  1.0  -0.7021
  O  O262  1  0.529800  0.984700  0.152200  1.0  -0.6913
  O  O263  1  0.508800  0.914100  0.218900  1.0  -0.6635
  O  O264  1  0.558600  0.730900  0.113000  1.0  -0.5991
  O  O265  1  0.343000  0.873700  0.129800  1.0  -0.6965
  O  O266  1  0.511000  0.890800  0.122600  1.0  -0.7409
  O  O267  1  0.894400  0.106000  0.574600  1.0  -0.8144
  O  O268  1  0.816400  0.188900  0.591600  1.0  -0.559
  O  O269  1  0.595900  0.248800  0.564400  1.0  -0.5504
  O  O270  1  0.813600  0.139400  0.654800  1.0  -0.4121
  O  O271  1  0.596600  0.183900  0.733500  1.0  -0.5276
  O  O272  1  0.667900  0.278500  0.538800  1.0  -0.4364
  O  O273  1  0.665500  0.149500  0.761500  1.0  -0.5002
  O  O274  1  0.058100  0.051100  0.508600  1.0  -0.7328
  O  O275  1  0.028800  0.268800  0.661800  1.0  -0.6897
  O  O276  1  0.079200  0.148000  0.477500  1.0  -0.8033
  O  O277  1  0.968000  0.059300  0.464200  1.0  -0.8238
  O  O278  1  0.990200  0.128600  0.533900  1.0  -0.747
  O  O279  1  0.071100  0.128300  0.579200  1.0  -0.7415
  O  O280  1  0.899200  0.089400  0.669800  1.0  -0.7462
  O  O281  1  0.902700  0.133500  0.483500  1.0  -0.6992
  O  O282  1  0.101800  0.204500  0.651200  1.0  -0.7618
  O  O283  1  0.007400  0.180700  0.701300  1.0  -0.7782
  O  O284  1  0.100500  0.228700  0.551500  1.0  -0.8092
  O  O285  1  0.990400  0.153900  0.438700  1.0  -0.6836
  O  O286  1  0.996500  0.232400  0.496300  1.0  -0.7729
  O  O287  1  0.159900  0.151300  0.532600  1.0  -0.6581
  O  O288  1  0.009200  0.195100  0.595400  1.0  -0.7367
  O  O289  1  0.080500  0.092100  0.679000  1.0  -0.8318
  O  O290  1  0.963800  0.029500  0.557600  1.0  -0.7212
  O  O291  1  0.062500  0.028500  0.620300  1.0  -0.7878
  O  O292  1  0.028000  0.290600  0.567200  1.0  -0.6603
  O  O293  1  0.919600  0.213300  0.536400  1.0  -0.8056
  O  O294  1  0.917700  0.184600  0.649400  1.0  -0.8281
  O  O295  1  0.138300  0.054500  0.564400  1.0  -0.7043
  O  O296  1  0.970200  0.015300  0.652200  1.0  -0.6991
  O  O297  1  0.991200  0.085900  0.718900  1.0  -0.6658
  O  O298  1  0.941400  0.269100  0.613000  1.0  -0.5927
  O  O299  1  0.157000  0.126300  0.629800  1.0  -0.6953
  O  O300  1  0.989000  0.109200  0.622600  1.0  -0.7391
  O  O301  1  0.394400  0.394000  0.425400  1.0  -0.8137
  O  O302  1  0.316400  0.311100  0.408400  1.0  -0.5578
  O  O303  1  0.095900  0.251200  0.435600  1.0  -0.5502
  O  O304  1  0.313600  0.360600  0.345200  1.0  -0.4148
  O  O305  1  0.096600  0.316100  0.266500  1.0  -0.5276
  O  O306  1  0.167900  0.221500  0.461200  1.0  -0.4363
  O  O307  1  0.165500  0.350500  0.238500  1.0  -0.4993
  O  O308  1  0.558100  0.448900  0.491400  1.0  -0.7343
  O  O309  1  0.528800  0.231200  0.338200  1.0  -0.6924
  O  O310  1  0.579200  0.352000  0.522500  1.0  -0.8033
  O  O311  1  0.468000  0.440700  0.535800  1.0  -0.8229
  O  O312  1  0.490200  0.371400  0.466100  1.0  -0.7485
  O  O313  1  0.571100  0.371700  0.420800  1.0  -0.7415
  O  O314  1  0.399200  0.410600  0.330200  1.0  -0.7483
  O  O315  1  0.402700  0.366500  0.516500  1.0  -0.697
  O  O316  1  0.601800  0.295500  0.348800  1.0  -0.7629
  O  O317  1  0.507400  0.319300  0.298700  1.0  -0.7858
  O  O318  1  0.600500  0.271300  0.448500  1.0  -0.8086
  O  O319  1  0.490400  0.346100  0.561300  1.0  -0.6711
  O  O320  1  0.496500  0.267600  0.503700  1.0  -0.7731
  O  O321  1  0.659900  0.348700  0.467400  1.0  -0.6589
  O  O322  1  0.509200  0.304900  0.404600  1.0  -0.7378
  O  O323  1  0.580500  0.407900  0.321000  1.0  -0.832
  O  O324  1  0.463800  0.470500  0.442400  1.0  -0.7225
  O  O325  1  0.562500  0.471500  0.379700  1.0  -0.7866
  O  O326  1  0.528000  0.209400  0.432800  1.0  -0.6726
  O  O327  1  0.419600  0.286700  0.463600  1.0  -0.8045
  O  O328  1  0.417700  0.315400  0.350600  1.0  -0.8257
  O  O329  1  0.638300  0.445500  0.435600  1.0  -0.7012
  O  O330  1  0.470200  0.484700  0.347800  1.0  -0.6936
  O  O331  1  0.491200  0.414100  0.281100  1.0  -0.6667
  O  O332  1  0.441400  0.230900  0.387000  1.0  -0.5985
  O  O333  1  0.657000  0.373700  0.370200  1.0  -0.6969
  O  O334  1  0.489000  0.390800  0.377400  1.0  -0.7366
  O  O335  1  0.105600  0.606000  0.925400  1.0  -0.8151
  O  O336  1  0.183600  0.688900  0.908400  1.0  -0.5584
  O  O337  1  0.404100  0.748800  0.935600  1.0  -0.5501
  O  O338  1  0.186400  0.639400  0.845200  1.0  -0.4145
  O  O339  1  0.403400  0.683900  0.766500  1.0  -0.5251
  O  O340  1  0.332100  0.778500  0.961200  1.0  -0.4318
  O  O341  1  0.334500  0.649500  0.738500  1.0  -0.5002
  O  O342  1  0.941900  0.551100  0.991400  1.0  -0.7333
  O  O343  1  0.971200  0.768800  0.838200  1.0  -0.6947
  O  O344  1  0.920800  0.648000  0.022500  1.0  -0.8044
  O  O345  1  0.032000  0.559300  0.035800  1.0  -0.8235
  O  O346  1  0.009800  0.628600  0.966100  1.0  -0.7493
  O  O347  1  0.928900  0.628300  0.920800  1.0  -0.7394
  O  O348  1  0.100800  0.589400  0.830200  1.0  -0.7457
  O  O349  1  0.097300  0.633500  0.016500  1.0  -0.6988
  O  O350  1  0.898200  0.704500  0.848800  1.0  -0.7641
  O  O351  1  0.992600  0.680700  0.798700  1.0  -0.7873
  O  O352  1  0.899500  0.728700  0.948500  1.0  -0.8106
  O  O353  1  0.009600  0.653900  0.061300  1.0  -0.6695
  O  O354  1  0.003500  0.732400  0.003700  1.0  -0.7712
  O  O355  1  0.840100  0.651300  0.967400  1.0  -0.659
  O  O356  1  0.990800  0.695100  0.904600  1.0  -0.7366
  O  O357  1  0.919500  0.592100  0.821000  1.0  -0.8315
  O  O358  1  0.036200  0.529500  0.942400  1.0  -0.721
  O  O359  1  0.937500  0.528500  0.879700  1.0  -0.7873
  O  O360  1  0.972000  0.790600  0.932800  1.0  -0.6712
  O  O361  1  0.080400  0.713300  0.963600  1.0  -0.8041
  O  O362  1  0.082300  0.684600  0.850600  1.0  -0.8253
  O  O363  1  0.861700  0.554500  0.935600  1.0  -0.7054
  O  O364  1  0.029800  0.515300  0.847800  1.0  -0.6954
  O  O365  1  0.008800  0.585900  0.781100  1.0  -0.6655
  O  O366  1  0.058600  0.769100  0.887000  1.0  -0.5965
  O  O367  1  0.843000  0.626300  0.870200  1.0  -0.6967
  O  O368  1  0.011000  0.609200  0.877400  1.0  -0.7378
  O  O369  1  0.394400  0.106000  0.925400  1.0  -0.8144
  O  O370  1  0.316400  0.188900  0.908400  1.0  -0.5583
  O  O371  1  0.095900  0.248800  0.935600  1.0  -0.5502
  O  O372  1  0.313600  0.139400  0.845200  1.0  -0.4145
  O  O373  1  0.096600  0.183900  0.766500  1.0  -0.5278
  O  O374  1  0.167900  0.278500  0.961200  1.0  -0.4379
  O  O375  1  0.165500  0.149500  0.738500  1.0  -0.5007
  O  O376  1  0.558100  0.051100  0.991400  1.0  -0.7347
  O  O377  1  0.528800  0.268800  0.838200  1.0  -0.6949
  O  O378  1  0.579200  0.148000  0.022500  1.0  -0.803
  O  O379  1  0.468000  0.059300  0.035800  1.0  -0.8227
  O  O380  1  0.490200  0.128600  0.966100  1.0  -0.7483
  O  O381  1  0.571100  0.128300  0.920800  1.0  -0.7412
  O  O382  1  0.399200  0.089400  0.830200  1.0  -0.7473
  O  O383  1  0.402700  0.133500  0.016500  1.0  -0.6974
  O  O384  1  0.601800  0.204500  0.848800  1.0  -0.7626
  O  O385  1  0.507400  0.180700  0.798700  1.0  -0.7864
  O  O386  1  0.600500  0.228700  0.948500  1.0  -0.8095
  O  O387  1  0.490400  0.153900  0.061300  1.0  -0.6709
  O  O388  1  0.496500  0.232400  0.003700  1.0  -0.7708
  O  O389  1  0.659900  0.151300  0.967400  1.0  -0.6588
  O  O390  1  0.509200  0.195100  0.904600  1.0  -0.7366
  O  O391  1  0.580500  0.092100  0.821000  1.0  -0.8314
  O  O392  1  0.463800  0.029500  0.942400  1.0  -0.7214
  O  O393  1  0.562500  0.028500  0.879700  1.0  -0.7877
  O  O394  1  0.528000  0.290600  0.932800  1.0  -0.6631
  O  O395  1  0.419600  0.213300  0.963600  1.0  -0.8043
  O  O396  1  0.417700  0.184600  0.850600  1.0  -0.8261
  O  O397  1  0.638300  0.054500  0.935600  1.0  -0.7056
  O  O398  1  0.470200  0.015300  0.847800  1.0  -0.6953
  O  O399  1  0.491200  0.085900  0.781100  1.0  -0.6641
  O  O400  1  0.441400  0.269100  0.887000  1.0  -0.5937
  O  O401  1  0.657000  0.126300  0.870200  1.0  -0.6961
  O  O402  1  0.489000  0.109200  0.877400  1.0  -0.7369
  O  O403  1  0.105600  0.894000  0.425400  1.0  -0.8156
  O  O404  1  0.183600  0.811100  0.408400  1.0  -0.5578
  O  O405  1  0.404100  0.751200  0.435600  1.0  -0.5504
  O  O406  1  0.186400  0.860600  0.345200  1.0  -0.4142
  O  O407  1  0.403400  0.816100  0.266500  1.0  -0.5254
  O  O408  1  0.332100  0.721500  0.461200  1.0  -0.4344
  O  O409  1  0.334500  0.850500  0.238500  1.0  -0.4994
  O  O410  1  0.941900  0.948900  0.491400  1.0  -0.7327
  O  O411  1  0.971200  0.731200  0.338200  1.0  -0.6923
  O  O412  1  0.920800  0.852000  0.522500  1.0  -0.8044
  O  O413  1  0.032000  0.940700  0.535800  1.0  -0.8233
  O  O414  1  0.009800  0.871400  0.466100  1.0  -0.7495
  O  O415  1  0.928900  0.871700  0.420800  1.0  -0.7397
  O  O416  1  0.100800  0.910600  0.330200  1.0  -0.7477
  O  O417  1  0.097300  0.866500  0.516500  1.0  -0.6984
  O  O418  1  0.898200  0.795500  0.348800  1.0  -0.7636
  O  O419  1  0.992600  0.819300  0.298700  1.0  -0.7868
  O  O420  1  0.899500  0.771300  0.448500  1.0  -0.8093
  O  O421  1  0.009600  0.846100  0.561300  1.0  -0.6698
  O  O422  1  0.003500  0.767600  0.503700  1.0  -0.7742
  O  O423  1  0.840100  0.848700  0.467400  1.0  -0.6586
  O  O424  1  0.990800  0.804900  0.404600  1.0  -0.7379
  O  O425  1  0.919500  0.907900  0.321000  1.0  -0.8318
  O  O426  1  0.036200  0.970500  0.442400  1.0  -0.7216
  O  O427  1  0.937500  0.971500  0.379700  1.0  -0.7906
  O  O428  1  0.972000  0.709400  0.432800  1.0  -0.6672
  O  O429  1  0.080400  0.786700  0.463600  1.0  -0.8042
  O  O430  1  0.082300  0.815400  0.350600  1.0  -0.8249
  O  O431  1  0.861700  0.945500  0.435600  1.0  -0.7015
  O  O432  1  0.029800  0.984700  0.347800  1.0  -0.6956
  O  O433  1  0.008800  0.914100  0.281100  1.0  -0.6683
  O  O434  1  0.058600  0.730900  0.387000  1.0  -0.5979
  O  O435  1  0.843000  0.873700  0.370200  1.0  -0.6969
  O  O436  1  0.011000  0.890800  0.377400  1.0  -0.7378
  O  O437  1  0.605600  0.606000  0.574600  1.0  -0.8149
  O  O438  1  0.683600  0.688900  0.591600  1.0  -0.5589
  O  O439  1  0.904100  0.748800  0.564400  1.0  -0.5501
  O  O440  1  0.686400  0.639400  0.654800  1.0  -0.4122
  O  O441  1  0.903400  0.683900  0.733500  1.0  -0.5257
  O  O442  1  0.832100  0.778500  0.538800  1.0  -0.4352
  O  O443  1  0.834500  0.649500  0.761500  1.0  -0.4991
  O  O444  1  0.441900  0.551100  0.508600  1.0  -0.7314
  O  O445  1  0.471200  0.768800  0.661800  1.0  -0.6902
  O  O446  1  0.420800  0.648000  0.477500  1.0  -0.8012
  O  O447  1  0.532000  0.559300  0.464200  1.0  -0.8258
  O  O448  1  0.509800  0.628600  0.533900  1.0  -0.7475
  O  O449  1  0.428900  0.628300  0.579200  1.0  -0.7398
  O  O450  1  0.600800  0.589400  0.669800  1.0  -0.7473
  O  O451  1  0.597300  0.633500  0.483500  1.0  -0.6997
  O  O452  1  0.398200  0.704500  0.651200  1.0  -0.763
  O  O453  1  0.492600  0.680700  0.701300  1.0  -0.7772
  O  O454  1  0.399500  0.728700  0.551500  1.0  -0.8101
  O  O455  1  0.509600  0.653900  0.438700  1.0  -0.682
  O  O456  1  0.503500  0.732400  0.496300  1.0  -0.7733
  O  O457  1  0.340100  0.651300  0.532600  1.0  -0.6602
  O  O458  1  0.490800  0.695100  0.595400  1.0  -0.7367
  O  O459  1  0.419500  0.592100  0.679000  1.0  -0.8331
  O  O460  1  0.536200  0.529500  0.557600  1.0  -0.7206
  O  O461  1  0.437500  0.528500  0.620300  1.0  -0.7864
  O  O462  1  0.472000  0.790600  0.567200  1.0  -0.6637
  O  O463  1  0.580400  0.713300  0.536400  1.0  -0.8053
  O  O464  1  0.582300  0.684600  0.649400  1.0  -0.8256
  O  O465  1  0.361700  0.554500  0.564400  1.0  -0.7048
  O  O466  1  0.529800  0.515300  0.652200  1.0  -0.6987
  O  O467  1  0.508800  0.585900  0.718900  1.0  -0.6658
  O  O468  1  0.558600  0.769100  0.613000  1.0  -0.5921
  O  O469  1  0.343000  0.626300  0.629800  1.0  -0.696
  O  O470  1  0.511000  0.609200  0.622600  1.0  -0.7401
  O  O471  1  0.894400  0.394000  0.074600  1.0  -0.8136
  O  O472  1  0.816400  0.311100  0.091600  1.0  -0.5582
  O  O473  1  0.595900  0.251200  0.064400  1.0  -0.5499
  O  O474  1  0.813600  0.360600  0.154800  1.0  -0.4126
  O  O475  1  0.596600  0.316100  0.233500  1.0  -0.5283
  O  O476  1  0.667900  0.221500  0.038800  1.0  -0.4318
  O  O477  1  0.665500  0.350500  0.261500  1.0  -0.4994
  O  O478  1  0.058100  0.448900  0.008600  1.0  -0.7329
  O  O479  1  0.028800  0.231200  0.161800  1.0  -0.6957
  O  O480  1  0.079200  0.352000  0.977500  1.0  -0.8043
  O  O481  1  0.968000  0.440700  0.964200  1.0  -0.8234
  O  O482  1  0.990200  0.371400  0.033900  1.0  -0.7471
  O  O483  1  0.071100  0.371700  0.079200  1.0  -0.7418
  O  O484  1  0.899200  0.410600  0.169800  1.0  -0.7434
  O  O485  1  0.902700  0.366500  0.983500  1.0  -0.6987
  O  O486  1  0.101800  0.295500  0.151200  1.0  -0.7625
  O  O487  1  0.007400  0.319300  0.201300  1.0  -0.7791
  O  O488  1  0.100500  0.271300  0.051500  1.0  -0.8081
  O  O489  1  0.990400  0.346100  0.938700  1.0  -0.6831
  O  O490  1  0.996500  0.267600  0.996300  1.0  -0.769
  O  O491  1  0.159900  0.348700  0.032600  1.0  -0.6582
  O  O492  1  0.009200  0.304900  0.095400  1.0  -0.7377
  O  O493  1  0.080500  0.407900  0.179000  1.0  -0.8309
  O  O494  1  0.963800  0.470500  0.057600  1.0  -0.7224
  O  O495  1  0.062500  0.471500  0.120300  1.0  -0.7843
  O  O496  1  0.028000  0.209400  0.067200  1.0  -0.6791
  O  O497  1  0.919600  0.286700  0.036400  1.0  -0.806
  O  O498  1  0.917700  0.315400  0.149400  1.0  -0.8281
  O  O499  1  0.138300  0.445500  0.064400  1.0  -0.7012
  O  O500  1  0.970200  0.484700  0.152200  1.0  -0.6912
  O  O501  1  0.991200  0.414100  0.218900  1.0  -0.6638
  O  O502  1  0.941400  0.230900  0.113000  1.0  -0.602
  O  O503  1  0.157000  0.373700  0.129800  1.0  -0.6961
  O  O504  1  0.989000  0.390800  0.122600  1.0  -0.7397
