# generated using pymatgen
data_Ag(C3N2)2
_symmetry_space_group_name_H-M   'P 1'
_cell_length_a   7.43400000
_cell_length_b   11.92700000
_cell_length_c   13.25500000
_cell_angle_alpha   90.00000000
_cell_angle_beta   90.00000000
_cell_angle_gamma   90.00000000
_symmetry_Int_Tables_number   1
_chemical_formula_structural   Ag(C3N2)2
_chemical_formula_sum   'Ag4 C24 N16'
_cell_volume   1175.25879009
_cell_formula_units_Z   4
loop_
 _symmetry_equiv_pos_site_id
 _symmetry_equiv_pos_as_xyz
  1  'x, y, z'
loop_
 _atom_site_type_symbol
 _atom_site_label
 _atom_site_symmetry_multiplicity
 _atom_site_fract_x
 _atom_site_fract_y
 _atom_site_fract_z
 _atom_site_occupancy
 _atom_site_charge
  Ag  Ag1  1  0.766170  0.750000  0.609990  1.0  0.4348
  Ag  Ag2  1  0.233830  0.250000  0.390010  1.0  0.4395
  Ag  Ag3  1  0.733830  0.250000  0.109990  1.0  0.4366
  Ag  Ag4  1  0.266170  0.750000  0.890010  1.0  0.4378
  C  C5  1  0.863000  0.449100  0.952000  1.0  0.0369
  C  C6  1  0.046100  0.457900  0.087100  1.0  0.228
  C  C7  1  0.900900  0.913800  0.815000  1.0  0.3272
  C  C8  1  0.137000  0.949100  0.048000  1.0  0.0336
  C  C9  1  0.953900  0.957900  0.912900  1.0  0.2281
  C  C10  1  0.099100  0.413800  0.185000  1.0  0.326
  C  C11  1  0.137000  0.550900  0.048000  1.0  0.037
  C  C12  1  0.953900  0.542100  0.912900  1.0  0.2287
  C  C13  1  0.099100  0.086200  0.185000  1.0  0.3257
  C  C14  1  0.863000  0.050900  0.952000  1.0  0.0365
  C  C15  1  0.046100  0.042100  0.087100  1.0  0.2267
  C  C16  1  0.900900  0.586200  0.815000  1.0  0.3271
  C  C17  1  0.599100  0.086200  0.315000  1.0  0.3261
  C  C18  1  0.637000  0.550900  0.452000  1.0  0.0351
  C  C19  1  0.453900  0.542100  0.587100  1.0  0.2271
  C  C20  1  0.400900  0.586200  0.685000  1.0  0.3266
  C  C21  1  0.363000  0.050900  0.548000  1.0  0.0349
  C  C22  1  0.546100  0.042100  0.412900  1.0  0.2288
  C  C23  1  0.400900  0.913800  0.685000  1.0  0.3265
  C  C24  1  0.363000  0.449100  0.548000  1.0  0.0375
  C  C25  1  0.546100  0.457900  0.412900  1.0  0.2296
  C  C26  1  0.599100  0.413800  0.315000  1.0  0.3265
  C  C27  1  0.637000  0.949100  0.452000  1.0  0.036
  C  C28  1  0.453900  0.957900  0.587100  1.0  0.2262
  N  N29  1  0.909700  0.407500  0.040600  1.0  -0.2973
  N  N30  1  0.856000  0.877400  0.741200  1.0  -0.5112
  N  N31  1  0.090300  0.907500  0.959400  1.0  -0.2962
  N  N32  1  0.144000  0.377400  0.258800  1.0  -0.5128
  N  N33  1  0.090300  0.592500  0.959400  1.0  -0.2975
  N  N34  1  0.144000  0.122600  0.258800  1.0  -0.5119
  N  N35  1  0.909700  0.092500  0.040600  1.0  -0.2977
  N  N36  1  0.856000  0.622600  0.741200  1.0  -0.5113
  N  N37  1  0.644000  0.122600  0.241200  1.0  -0.5113
  N  N38  1  0.590300  0.592500  0.540600  1.0  -0.2977
  N  N39  1  0.356000  0.622600  0.758800  1.0  -0.5116
  N  N40  1  0.409700  0.092500  0.459400  1.0  -0.2977
  N  N41  1  0.356000  0.877400  0.758800  1.0  -0.5121
  N  N42  1  0.409700  0.407500  0.459400  1.0  -0.2974
  N  N43  1  0.644000  0.377400  0.241200  1.0  -0.511
  N  N44  1  0.590300  0.907500  0.540600  1.0  -0.2965
