# generated using pymatgen
data_Zn4Mo12H3(C3O10)3
_symmetry_space_group_name_H-M   'P 1'
_cell_length_a   27.00830000
_cell_length_b   27.01210000
_cell_length_c   27.81610000
_cell_angle_alpha   90.00000000
_cell_angle_beta   90.00000000
_cell_angle_gamma   90.00000000
_symmetry_Int_Tables_number   1
_chemical_formula_structural   Zn4Mo12H3(C3O10)3
_chemical_formula_sum   'Zn32 Mo96 H24 C72 O240'
_cell_volume   20293.26080145
_cell_formula_units_Z   8
loop_
 _symmetry_equiv_pos_site_id
 _symmetry_equiv_pos_as_xyz
  1  'x, y, z'
loop_
 _atom_site_type_symbol
 _atom_site_label
 _atom_site_symmetry_multiplicity
 _atom_site_fract_x
 _atom_site_fract_y
 _atom_site_fract_z
 _atom_site_occupancy
 _atom_site_charge
  Zn  Zn1  1  0.994720  0.559480  0.027010  1.0  1.0208
  Zn  Zn2  1  0.852630  0.717090  0.070450  1.0  1.0034
  Zn  Zn3  1  0.821630  0.590150  0.886770  1.0  1.0398
  Zn  Zn4  1  0.779000  0.501550  0.069990  1.0  1.1217
  Zn  Zn5  1  0.505280  0.440520  0.527010  1.0  1.0219
  Zn  Zn6  1  0.647370  0.282910  0.570450  1.0  1.0038
  Zn  Zn7  1  0.678370  0.409850  0.386770  1.0  1.0424
  Zn  Zn8  1  0.721000  0.498450  0.569990  1.0  1.1216
  Zn  Zn9  1  0.005280  0.059480  0.472990  1.0  1.0213
  Zn  Zn10  1  0.147370  0.217090  0.429550  1.0  1.0037
  Zn  Zn11  1  0.178370  0.090150  0.613230  1.0  1.0422
  Zn  Zn12  1  0.221000  0.001550  0.430010  1.0  1.1214
  Zn  Zn13  1  0.494720  0.940520  0.972990  1.0  1.0219
  Zn  Zn14  1  0.352630  0.782910  0.929550  1.0  1.0034
  Zn  Zn15  1  0.321630  0.909850  0.113230  1.0  1.0425
  Zn  Zn16  1  0.279000  0.998450  0.930010  1.0  1.1213
  Zn  Zn17  1  0.005280  0.440520  0.972990  1.0  1.0222
  Zn  Zn18  1  0.147370  0.282910  0.929550  1.0  1.0038
  Zn  Zn19  1  0.178370  0.409850  0.113230  1.0  1.0432
  Zn  Zn20  1  0.221000  0.498450  0.930010  1.0  1.1212
  Zn  Zn21  1  0.494720  0.559480  0.472990  1.0  1.0211
  Zn  Zn22  1  0.352630  0.717090  0.429550  1.0  1.0034
  Zn  Zn23  1  0.321630  0.590150  0.613230  1.0  1.0414
  Zn  Zn24  1  0.279000  0.501550  0.430010  1.0  1.1214
  Zn  Zn25  1  0.994720  0.940520  0.527010  1.0  1.0216
  Zn  Zn26  1  0.852630  0.782910  0.570450  1.0  1.0035
  Zn  Zn27  1  0.821630  0.909850  0.386770  1.0  1.041
  Zn  Zn28  1  0.779000  0.998450  0.569990  1.0  1.1218
  Zn  Zn29  1  0.505280  0.059480  0.027010  1.0  1.021
  Zn  Zn30  1  0.647370  0.217090  0.070450  1.0  1.0038
  Zn  Zn31  1  0.678370  0.090150  0.886770  1.0  1.0413
  Zn  Zn32  1  0.721000  0.001550  0.069990  1.0  1.1218
  Mo  Mo33  1  0.899290  0.462970  0.033220  1.0  1.1929
  Mo  Mo34  1  0.906810  0.514170  0.112790  1.0  1.1351
  Mo  Mo35  1  0.940480  0.636200  0.115620  1.0  1.107
  Mo  Mo36  1  0.964580  0.685760  0.014600  1.0  1.1741
  Mo  Mo37  1  0.953150  0.610270  0.915610  1.0  1.1016
  Mo  Mo38  1  0.925510  0.517190  0.920960  1.0  1.1832
  Mo  Mo39  1  0.807070  0.480150  0.949050  1.0  1.1361
  Mo  Mo40  1  0.728910  0.565810  0.972660  1.0  0.9753
  Mo  Mo41  1  0.774650  0.683500  0.964880  1.0  1.0163
  Mo  Mo42  1  0.864910  0.706810  0.942200  1.0  1.1184
  Mo  Mo43  1  0.746180  0.629380  0.078550  1.0  0.9573
  Mo  Mo44  1  0.818310  0.610740  0.137880  1.0  1.1238
  Mo  Mo45  1  0.600710  0.537030  0.533220  1.0  1.1937
  Mo  Mo46  1  0.593190  0.485830  0.612790  1.0  1.1356
  Mo  Mo47  1  0.559520  0.363800  0.615620  1.0  1.1035
  Mo  Mo48  1  0.535420  0.314240  0.514600  1.0  1.1741
  Mo  Mo49  1  0.546850  0.389730  0.415610  1.0  1.1017
  Mo  Mo50  1  0.574490  0.482810  0.420960  1.0  1.1847
  Mo  Mo51  1  0.692930  0.519850  0.449050  1.0  1.136
  Mo  Mo52  1  0.771090  0.434190  0.472660  1.0  0.977
  Mo  Mo53  1  0.725350  0.316500  0.464880  1.0  1.0168
  Mo  Mo54  1  0.635090  0.293190  0.442200  1.0  1.1186
  Mo  Mo55  1  0.753820  0.370620  0.578550  1.0  0.9553
  Mo  Mo56  1  0.681690  0.389260  0.637880  1.0  1.1244
  Mo  Mo57  1  0.100710  0.962970  0.466780  1.0  1.1936
  Mo  Mo58  1  0.093190  0.014170  0.387210  1.0  1.1373
  Mo  Mo59  1  0.059520  0.136200  0.384380  1.0  1.1093
  Mo  Mo60  1  0.035420  0.185760  0.485400  1.0  1.1741
  Mo  Mo61  1  0.046850  0.110270  0.584390  1.0  1.1
  Mo  Mo62  1  0.074490  0.017190  0.579040  1.0  1.1821
  Mo  Mo63  1  0.192930  0.980150  0.550950  1.0  1.136
  Mo  Mo64  1  0.271090  0.065810  0.527340  1.0  0.9738
  Mo  Mo65  1  0.225350  0.183500  0.535120  1.0  1.0178
  Mo  Mo66  1  0.135090  0.206810  0.557800  1.0  1.1187
  Mo  Mo67  1  0.253820  0.129380  0.421450  1.0  0.9562
  Mo  Mo68  1  0.181690  0.110740  0.362120  1.0  1.1267
  Mo  Mo69  1  0.399290  0.037030  0.966780  1.0  1.1926
  Mo  Mo70  1  0.406810  0.985830  0.887210  1.0  1.1352
  Mo  Mo71  1  0.440480  0.863800  0.884380  1.0  1.1069
  Mo  Mo72  1  0.464580  0.814240  0.985400  1.0  1.1751
  Mo  Mo73  1  0.453150  0.889730  0.084390  1.0  1.1002
  Mo  Mo74  1  0.425510  0.982810  0.079040  1.0  1.1823
  Mo  Mo75  1  0.307070  0.019850  0.050950  1.0  1.135
  Mo  Mo76  1  0.228910  0.934190  0.027340  1.0  0.9803
  Mo  Mo77  1  0.274650  0.816500  0.035120  1.0  1.0157
  Mo  Mo78  1  0.364910  0.793190  0.057800  1.0  1.1166
  Mo  Mo79  1  0.246180  0.870620  0.921450  1.0  0.9576
  Mo  Mo80  1  0.318310  0.889260  0.862120  1.0  1.1285
  Mo  Mo81  1  0.100710  0.537030  0.966780  1.0  1.1934
  Mo  Mo82  1  0.093190  0.485830  0.887210  1.0  1.1367
  Mo  Mo83  1  0.059520  0.363800  0.884380  1.0  1.1092
  Mo  Mo84  1  0.035420  0.314240  0.985400  1.0  1.1745
  Mo  Mo85  1  0.046850  0.389730  0.084390  1.0  1.1001
  Mo  Mo86  1  0.074490  0.482810  0.079040  1.0  1.1827
  Mo  Mo87  1  0.192930  0.519850  0.050950  1.0  1.1355
  Mo  Mo88  1  0.271090  0.434190  0.027340  1.0  0.9736
  Mo  Mo89  1  0.225350  0.316500  0.035120  1.0  1.0164
  Mo  Mo90  1  0.135090  0.293190  0.057800  1.0  1.1173
  Mo  Mo91  1  0.253820  0.370620  0.921450  1.0  0.9561
  Mo  Mo92  1  0.181690  0.389260  0.862120  1.0  1.1274
  Mo  Mo93  1  0.399290  0.462970  0.466780  1.0  1.1929
  Mo  Mo94  1  0.406810  0.514170  0.387210  1.0  1.136
  Mo  Mo95  1  0.440480  0.636200  0.384380  1.0  1.1068
  Mo  Mo96  1  0.464580  0.685760  0.485400  1.0  1.1751
  Mo  Mo97  1  0.453150  0.610270  0.584390  1.0  1.1003
  Mo  Mo98  1  0.425510  0.517190  0.579040  1.0  1.1816
  Mo  Mo99  1  0.307070  0.480150  0.550950  1.0  1.1357
  Mo  Mo100  1  0.228910  0.565810  0.527340  1.0  0.9785
  Mo  Mo101  1  0.274650  0.683500  0.535120  1.0  1.0162
  Mo  Mo102  1  0.364910  0.706810  0.557800  1.0  1.1181
  Mo  Mo103  1  0.246180  0.629380  0.421450  1.0  0.9574
  Mo  Mo104  1  0.318310  0.610740  0.362120  1.0  1.1281
  Mo  Mo105  1  0.899290  0.037030  0.533220  1.0  1.193
  Mo  Mo106  1  0.906810  0.985830  0.612790  1.0  1.1354
  Mo  Mo107  1  0.940480  0.863800  0.615620  1.0  1.107
  Mo  Mo108  1  0.964580  0.814240  0.514600  1.0  1.1739
  Mo  Mo109  1  0.953150  0.889730  0.415610  1.0  1.102
  Mo  Mo110  1  0.925510  0.982810  0.420960  1.0  1.1836
  Mo  Mo111  1  0.807070  0.019850  0.449050  1.0  1.1355
  Mo  Mo112  1  0.728910  0.934190  0.472660  1.0  0.9752
  Mo  Mo113  1  0.774650  0.816500  0.464880  1.0  1.0163
  Mo  Mo114  1  0.864910  0.793190  0.442200  1.0  1.1178
  Mo  Mo115  1  0.746180  0.870620  0.578550  1.0  0.9576
  Mo  Mo116  1  0.818310  0.889260  0.637880  1.0  1.1239
  Mo  Mo117  1  0.600710  0.962970  0.033220  1.0  1.1934
  Mo  Mo118  1  0.593190  0.014170  0.112790  1.0  1.135
  Mo  Mo119  1  0.559520  0.136200  0.115620  1.0  1.103
  Mo  Mo120  1  0.535420  0.185760  0.014600  1.0  1.1738
  Mo  Mo121  1  0.546850  0.110270  0.915610  1.0  1.1013
  Mo  Mo122  1  0.574490  0.017190  0.920960  1.0  1.1843
  Mo  Mo123  1  0.692930  0.980150  0.949050  1.0  1.1362
  Mo  Mo124  1  0.771090  0.065810  0.972660  1.0  0.9783
  Mo  Mo125  1  0.725350  0.183500  0.964880  1.0  1.0174
  Mo  Mo126  1  0.635090  0.206810  0.942200  1.0  1.1191
  Mo  Mo127  1  0.753820  0.129380  0.078550  1.0  0.9557
  Mo  Mo128  1  0.681690  0.110740  0.137880  1.0  1.1243
  H  H129  1  0.698300  0.367900  0.109200  1.0  0.1559
  H  H130  1  0.629600  0.317300  0.228700  1.0  0.155
  H  H131  1  0.724400  0.433200  0.238000  1.0  0.1536
  H  H132  1  0.801700  0.632100  0.609200  1.0  0.1561
  H  H133  1  0.870400  0.682700  0.728700  1.0  0.1546
  H  H134  1  0.775600  0.566800  0.738000  1.0  0.154
  H  H135  1  0.301700  0.867900  0.390800  1.0  0.1563
  H  H136  1  0.370400  0.817300  0.271300  1.0  0.1543
  H  H137  1  0.275600  0.933200  0.262000  1.0  0.1535
  H  H138  1  0.198300  0.132100  0.890800  1.0  0.156
  H  H139  1  0.129600  0.182700  0.771300  1.0  0.1542
  H  H140  1  0.224400  0.066800  0.762000  1.0  0.1532
  H  H141  1  0.301700  0.632100  0.890800  1.0  0.1561
  H  H142  1  0.370400  0.682700  0.771300  1.0  0.1542
  H  H143  1  0.275600  0.566800  0.762000  1.0  0.1535
  H  H144  1  0.198300  0.367900  0.390800  1.0  0.1561
  H  H145  1  0.129600  0.317300  0.271300  1.0  0.1544
  H  H146  1  0.224400  0.433200  0.262000  1.0  0.1532
  H  H147  1  0.698300  0.132100  0.609200  1.0  0.156
  H  H148  1  0.629600  0.182700  0.728700  1.0  0.1546
  H  H149  1  0.724400  0.066800  0.738000  1.0  0.1536
  H  H150  1  0.801700  0.867900  0.109200  1.0  0.1559
  H  H151  1  0.870400  0.817300  0.228700  1.0  0.1547
  H  H152  1  0.775600  0.933200  0.238000  1.0  0.1539
  C  C153  1  0.714480  0.407760  0.169520  1.0  -0.1183
  C  C154  1  0.692610  0.369820  0.142810  1.0  0.0563
  C  C155  1  0.662600  0.334870  0.165000  1.0  -0.043
  C  C156  1  0.652440  0.339300  0.213940  1.0  0.0713
  C  C157  1  0.675600  0.375910  0.241460  1.0  -0.1129
  C  C158  1  0.707380  0.409240  0.219230  1.0  0.0639
  C  C159  1  0.745610  0.446650  0.145370  1.0  0.7041
  C  C160  1  0.641100  0.291640  0.137970  1.0  0.7202
  C  C161  1  0.665710  0.377970  0.294590  1.0  0.7153
  C  C162  1  0.785520  0.592240  0.669520  1.0  -0.1188
  C  C163  1  0.807390  0.630180  0.642810  1.0  0.0559
  C  C164  1  0.837400  0.665130  0.665000  1.0  -0.0422
  C  C165  1  0.847560  0.660700  0.713940  1.0  0.0719
  C  C166  1  0.824400  0.624090  0.741460  1.0  -0.1127
  C  C167  1  0.792620  0.590760  0.719230  1.0  0.065
  C  C168  1  0.754390  0.553350  0.645370  1.0  0.7053
  C  C169  1  0.858900  0.708360  0.637970  1.0  0.7214
  C  C170  1  0.834290  0.622030  0.794590  1.0  0.7154
  C  C171  1  0.285520  0.907760  0.330480  1.0  -0.1186
  C  C172  1  0.307390  0.869820  0.357190  1.0  0.0554
  C  C173  1  0.337400  0.834870  0.335000  1.0  -0.0432
  C  C174  1  0.347560  0.839300  0.286060  1.0  0.0718
  C  C175  1  0.324400  0.875910  0.258540  1.0  -0.1114
  C  C176  1  0.292620  0.909240  0.280770  1.0  0.0644
  C  C177  1  0.254390  0.946650  0.354630  1.0  0.7047
  C  C178  1  0.358900  0.791640  0.362030  1.0  0.7209
  C  C179  1  0.334290  0.877970  0.205410  1.0  0.7155
  C  C180  1  0.214480  0.092240  0.830480  1.0  -0.1187
  C  C181  1  0.192610  0.130180  0.857190  1.0  0.0561
  C  C182  1  0.162600  0.165130  0.835000  1.0  -0.0431
  C  C183  1  0.152440  0.160700  0.786060  1.0  0.0715
  C  C184  1  0.175600  0.124090  0.758540  1.0  -0.112
  C  C185  1  0.207380  0.090760  0.780770  1.0  0.0642
  C  C186  1  0.245610  0.053350  0.854630  1.0  0.7047
  C  C187  1  0.141100  0.208360  0.862030  1.0  0.7205
  C  C188  1  0.165710  0.122030  0.705410  1.0  0.7158
  C  C189  1  0.285520  0.592240  0.830480  1.0  -0.1188
  C  C190  1  0.307390  0.630180  0.857190  1.0  0.0554
  C  C191  1  0.337400  0.665130  0.835000  1.0  -0.0431
  C  C192  1  0.347560  0.660700  0.786060  1.0  0.072
  C  C193  1  0.324400  0.624090  0.758540  1.0  -0.1115
  C  C194  1  0.292620  0.590760  0.780770  1.0  0.0643
  C  C195  1  0.254390  0.553350  0.854630  1.0  0.7053
  C  C196  1  0.358900  0.708360  0.862030  1.0  0.7211
  C  C197  1  0.334290  0.622030  0.705410  1.0  0.7155
  C  C198  1  0.214480  0.407760  0.330480  1.0  -0.1186
  C  C199  1  0.192610  0.369820  0.357190  1.0  0.0561
  C  C200  1  0.162600  0.334870  0.335000  1.0  -0.0433
  C  C201  1  0.152440  0.339300  0.286060  1.0  0.0712
  C  C202  1  0.175600  0.375910  0.258540  1.0  -0.112
  C  C203  1  0.207380  0.409240  0.280770  1.0  0.0642
  C  C204  1  0.245610  0.446650  0.354630  1.0  0.7039
  C  C205  1  0.141100  0.291640  0.362030  1.0  0.7202
  C  C206  1  0.165710  0.377970  0.205410  1.0  0.7158
  C  C207  1  0.714480  0.092240  0.669520  1.0  -0.1185
  C  C208  1  0.692610  0.130180  0.642810  1.0  0.0562
  C  C209  1  0.662600  0.165130  0.665000  1.0  -0.0423
  C  C210  1  0.652440  0.160700  0.713940  1.0  0.0713
  C  C211  1  0.675600  0.124090  0.741460  1.0  -0.1129
  C  C212  1  0.707380  0.090760  0.719230  1.0  0.0651
  C  C213  1  0.745610  0.053350  0.645370  1.0  0.7048
  C  C214  1  0.641100  0.208360  0.637970  1.0  0.7208
  C  C215  1  0.665710  0.122030  0.794590  1.0  0.7153
  C  C216  1  0.785520  0.907760  0.169520  1.0  -0.1183
  C  C217  1  0.807390  0.869820  0.142810  1.0  0.056
  C  C218  1  0.837400  0.834870  0.165000  1.0  -0.0427
  C  C219  1  0.847560  0.839300  0.213940  1.0  0.0722
  C  C220  1  0.824400  0.875910  0.241460  1.0  -0.1127
  C  C221  1  0.792620  0.909240  0.219230  1.0  0.0639
  C  C222  1  0.754390  0.946650  0.145370  1.0  0.7047
  C  C223  1  0.858900  0.791640  0.137970  1.0  0.7209
  C  C224  1  0.834290  0.877970  0.294590  1.0  0.7154
  O  O225  1  0.741600  0.447900  0.098920  1.0  -0.5294
  O  O226  1  0.771960  0.474770  0.168840  1.0  -0.397
  O  O227  1  0.663830  0.280680  0.098110  1.0  -0.5337
  O  O228  1  0.606480  0.268610  0.153800  1.0  -0.4047
  O  O229  1  0.693300  0.407550  0.318630  1.0  -0.534
  O  O230  1  0.632780  0.351210  0.311800  1.0  -0.4322
  O  O231  1  0.948340  0.511240  0.055150  1.0  -0.7593
  O  O232  1  0.849570  0.485740  0.079660  1.0  -0.7781
  O  O233  1  0.936630  0.464050  0.970680  1.0  -0.7626
  O  O234  1  0.838670  0.443400  0.995000  1.0  -0.6768
  O  O235  1  0.949300  0.571370  0.130830  1.0  -0.6612
  O  O236  1  0.852750  0.544990  0.156830  1.0  -0.6372
  O  O237  1  0.882920  0.644160  0.149530  1.0  -0.6445
  O  O238  1  0.918440  0.689200  0.070380  1.0  -0.8084
  O  O239  1  0.977190  0.624260  0.053740  1.0  -0.7582
  O  O240  1  0.989140  0.653240  0.962480  1.0  -0.6574
  O  O241  1  0.923160  0.727200  0.981470  1.0  -0.6595
  O  O242  1  0.970740  0.557120  0.960000  1.0  -0.7477
  O  O243  1  0.892970  0.576090  0.893860  1.0  -0.8129
  O  O244  1  0.915100  0.673940  0.895530  1.0  -0.6023
  O  O245  1  0.858920  0.485360  0.907800  1.0  -0.6814
  O  O246  1  0.763680  0.507940  0.001950  1.0  -0.747
  O  O247  1  0.780920  0.545260  0.924680  1.0  -0.778
  O  O248  1  0.730540  0.627210  0.945200  1.0  -0.6376
  O  O249  1  0.709760  0.585810  0.032660  1.0  -0.6437
  O  O250  1  0.818970  0.657540  0.915440  1.0  -0.7686
  O  O251  1  0.827820  0.714800  0.002610  1.0  -0.7158
  O  O252  1  0.734940  0.684320  0.028370  1.0  -0.6539
  O  O253  1  0.774330  0.567000  0.101330  1.0  -0.7816
  O  O254  1  0.804150  0.668530  0.097360  1.0  -0.7263
  O  O255  1  0.758400  0.552100  0.598920  1.0  -0.5289
  O  O256  1  0.728040  0.525230  0.668840  1.0  -0.3962
  O  O257  1  0.836170  0.719320  0.598110  1.0  -0.5346
  O  O258  1  0.893520  0.731390  0.653800  1.0  -0.4046
  O  O259  1  0.806700  0.592450  0.818630  1.0  -0.5332
  O  O260  1  0.867220  0.648790  0.811800  1.0  -0.4312
  O  O261  1  0.551660  0.488760  0.555150  1.0  -0.7598
  O  O262  1  0.650430  0.514260  0.579660  1.0  -0.7761
  O  O263  1  0.563370  0.535950  0.470680  1.0  -0.7627
  O  O264  1  0.661330  0.556600  0.495000  1.0  -0.6777
  O  O265  1  0.550700  0.428630  0.630830  1.0  -0.6635
  O  O266  1  0.647250  0.455010  0.656830  1.0  -0.6388
  O  O267  1  0.617080  0.355840  0.649530  1.0  -0.6487
  O  O268  1  0.581560  0.310800  0.570380  1.0  -0.8097
  O  O269  1  0.522810  0.375740  0.553740  1.0  -0.7592
  O  O270  1  0.510860  0.346760  0.462480  1.0  -0.6568
  O  O271  1  0.576840  0.272800  0.481470  1.0  -0.6602
  O  O272  1  0.529260  0.442880  0.460000  1.0  -0.7452
  O  O273  1  0.607030  0.423910  0.393860  1.0  -0.8118
  O  O274  1  0.584900  0.326060  0.395530  1.0  -0.6037
  O  O275  1  0.641080  0.514640  0.407800  1.0  -0.6841
  O  O276  1  0.736320  0.492060  0.501950  1.0  -0.7454
  O  O277  1  0.719080  0.454740  0.424680  1.0  -0.7765
  O  O278  1  0.769460  0.372790  0.445200  1.0  -0.6403
  O  O279  1  0.790240  0.414190  0.532660  1.0  -0.6464
  O  O280  1  0.681030  0.342460  0.415440  1.0  -0.7689
  O  O281  1  0.672180  0.285200  0.502610  1.0  -0.7157
  O  O282  1  0.765060  0.315680  0.528370  1.0  -0.653
  O  O283  1  0.725670  0.433000  0.601330  1.0  -0.7813
  O  O284  1  0.695850  0.331470  0.597360  1.0  -0.7256
  O  O285  1  0.258400  0.947900  0.401080  1.0  -0.5293
  O  O286  1  0.228040  0.974770  0.331160  1.0  -0.3975
  O  O287  1  0.336170  0.780680  0.401890  1.0  -0.5333
  O  O288  1  0.393520  0.768610  0.346200  1.0  -0.4047
  O  O289  1  0.306700  0.907550  0.181370  1.0  -0.5345
  O  O290  1  0.367220  0.851210  0.188200  1.0  -0.4306
  O  O291  1  0.051660  0.011240  0.444850  1.0  -0.7598
  O  O292  1  0.150430  0.985740  0.420340  1.0  -0.7774
  O  O293  1  0.063370  0.964050  0.529320  1.0  -0.7639
  O  O294  1  0.161330  0.943400  0.505000  1.0  -0.6763
  O  O295  1  0.050700  0.071370  0.369170  1.0  -0.6604
  O  O296  1  0.147250  0.044990  0.343170  1.0  -0.6377
  O  O297  1  0.117080  0.144160  0.350470  1.0  -0.6467
  O  O298  1  0.081560  0.189200  0.429620  1.0  -0.8103
  O  O299  1  0.022810  0.124260  0.446260  1.0  -0.7594
  O  O300  1  0.010860  0.153240  0.537520  1.0  -0.657
  O  O301  1  0.076840  0.227200  0.518530  1.0  -0.6592
  O  O302  1  0.029260  0.057120  0.540000  1.0  -0.7453
  O  O303  1  0.107030  0.076090  0.606140  1.0  -0.8108
  O  O304  1  0.084900  0.173940  0.604470  1.0  -0.6023
  O  O305  1  0.141080  0.985360  0.592200  1.0  -0.683
  O  O306  1  0.236320  0.007940  0.498050  1.0  -0.7465
  O  O307  1  0.219080  0.045260  0.575320  1.0  -0.7763
  O  O308  1  0.269460  0.127210  0.554800  1.0  -0.6408
  O  O309  1  0.290240  0.085810  0.467340  1.0  -0.6415
  O  O310  1  0.181030  0.157540  0.584560  1.0  -0.7679
  O  O311  1  0.172180  0.214800  0.497390  1.0  -0.7155
  O  O312  1  0.265060  0.184320  0.471630  1.0  -0.6529
  O  O313  1  0.225670  0.067000  0.398670  1.0  -0.7827
  O  O314  1  0.195850  0.168530  0.402640  1.0  -0.7259
  O  O315  1  0.241600  0.052100  0.901080  1.0  -0.5292
  O  O316  1  0.271960  0.025230  0.831160  1.0  -0.3971
  O  O317  1  0.163830  0.219320  0.901890  1.0  -0.5324
  O  O318  1  0.106480  0.231390  0.846200  1.0  -0.4055
  O  O319  1  0.193300  0.092450  0.681370  1.0  -0.5342
  O  O320  1  0.132780  0.148790  0.688200  1.0  -0.4332
  O  O321  1  0.448340  0.988760  0.944850  1.0  -0.7597
  O  O322  1  0.349570  0.014260  0.920340  1.0  -0.777
  O  O323  1  0.436630  0.035950  0.029320  1.0  -0.7619
  O  O324  1  0.338670  0.056600  0.005000  1.0  -0.6766
  O  O325  1  0.449300  0.928630  0.869170  1.0  -0.6632
  O  O326  1  0.352750  0.955010  0.843170  1.0  -0.6381
  O  O327  1  0.382920  0.855840  0.850470  1.0  -0.6447
  O  O328  1  0.418440  0.810800  0.929620  1.0  -0.8089
  O  O329  1  0.477190  0.875740  0.946260  1.0  -0.7574
  O  O330  1  0.489140  0.846760  0.037520  1.0  -0.6584
  O  O331  1  0.423160  0.772800  0.018530  1.0  -0.6602
  O  O332  1  0.470740  0.942880  0.040000  1.0  -0.7459
  O  O333  1  0.392970  0.923910  0.106140  1.0  -0.8117
  O  O334  1  0.415100  0.826060  0.104470  1.0  -0.6034
  O  O335  1  0.358920  0.014640  0.092200  1.0  -0.683
  O  O336  1  0.263680  0.992060  0.998050  1.0  -0.7474
  O  O337  1  0.280920  0.954740  0.075320  1.0  -0.7802
  O  O338  1  0.230540  0.872790  0.054800  1.0  -0.6368
  O  O339  1  0.209760  0.914190  0.967340  1.0  -0.6486
  O  O340  1  0.318970  0.842460  0.084560  1.0  -0.7688
  O  O341  1  0.327820  0.785200  0.997390  1.0  -0.7163
  O  O342  1  0.234940  0.815680  0.971630  1.0  -0.6534
  O  O343  1  0.274330  0.933000  0.898670  1.0  -0.7815
  O  O344  1  0.304150  0.831470  0.902640  1.0  -0.7267
  O  O345  1  0.258400  0.552100  0.901080  1.0  -0.5289
  O  O346  1  0.228040  0.525230  0.831160  1.0  -0.3977
  O  O347  1  0.336170  0.719320  0.901890  1.0  -0.5334
  O  O348  1  0.393520  0.731390  0.846200  1.0  -0.4042
  O  O349  1  0.306700  0.592450  0.681370  1.0  -0.5332
  O  O350  1  0.367220  0.648790  0.688200  1.0  -0.4314
  O  O351  1  0.051660  0.488760  0.944850  1.0  -0.7594
  O  O352  1  0.150430  0.514260  0.920340  1.0  -0.7762
  O  O353  1  0.063370  0.535950  0.029320  1.0  -0.7626
  O  O354  1  0.161330  0.556600  0.005000  1.0  -0.6766
  O  O355  1  0.050700  0.428630  0.869170  1.0  -0.6612
  O  O356  1  0.147250  0.455010  0.843170  1.0  -0.6385
  O  O357  1  0.117080  0.355840  0.850470  1.0  -0.6462
  O  O358  1  0.081560  0.310800  0.929620  1.0  -0.8101
  O  O359  1  0.022810  0.375740  0.946260  1.0  -0.7591
  O  O360  1  0.010860  0.346760  0.037520  1.0  -0.6574
  O  O361  1  0.076840  0.272800  0.018530  1.0  -0.6605
  O  O362  1  0.029260  0.442880  0.040000  1.0  -0.745
  O  O363  1  0.107030  0.423910  0.106140  1.0  -0.8107
  O  O364  1  0.084900  0.326060  0.104470  1.0  -0.6033
  O  O365  1  0.141080  0.514640  0.092200  1.0  -0.6824
  O  O366  1  0.236320  0.492060  0.998050  1.0  -0.7461
  O  O367  1  0.219080  0.454740  0.075320  1.0  -0.7774
  O  O368  1  0.269460  0.372790  0.054800  1.0  -0.6408
  O  O369  1  0.290240  0.414190  0.967340  1.0  -0.6414
  O  O370  1  0.181030  0.342460  0.084560  1.0  -0.7683
  O  O371  1  0.172180  0.285200  0.997390  1.0  -0.7161
  O  O372  1  0.265060  0.315680  0.971630  1.0  -0.6526
  O  O373  1  0.225670  0.433000  0.898670  1.0  -0.782
  O  O374  1  0.195850  0.331470  0.902640  1.0  -0.726
  O  O375  1  0.241600  0.447900  0.401080  1.0  -0.5295
  O  O376  1  0.271960  0.474770  0.331160  1.0  -0.3971
  O  O377  1  0.163830  0.280680  0.401890  1.0  -0.5322
  O  O378  1  0.106480  0.268610  0.346200  1.0  -0.405
  O  O379  1  0.193300  0.407550  0.181370  1.0  -0.535
  O  O380  1  0.132780  0.351210  0.188200  1.0  -0.4327
  O  O381  1  0.448340  0.511240  0.444850  1.0  -0.7588
  O  O382  1  0.349570  0.485740  0.420340  1.0  -0.7783
  O  O383  1  0.436630  0.464050  0.529320  1.0  -0.7629
  O  O384  1  0.338670  0.443400  0.505000  1.0  -0.6755
  O  O385  1  0.449300  0.571370  0.369170  1.0  -0.6624
  O  O386  1  0.352750  0.544990  0.343170  1.0  -0.6377
  O  O387  1  0.382920  0.644160  0.350470  1.0  -0.645
  O  O388  1  0.418440  0.689200  0.429620  1.0  -0.809
  O  O389  1  0.477190  0.624260  0.446260  1.0  -0.7577
  O  O390  1  0.489140  0.653240  0.537520  1.0  -0.6577
  O  O391  1  0.423160  0.727200  0.518530  1.0  -0.6588
  O  O392  1  0.470740  0.557120  0.540000  1.0  -0.7472
  O  O393  1  0.392970  0.576090  0.606140  1.0  -0.8118
  O  O394  1  0.415100  0.673940  0.604470  1.0  -0.602
  O  O395  1  0.358920  0.485360  0.592200  1.0  -0.6832
  O  O396  1  0.263680  0.507940  0.498050  1.0  -0.7474
  O  O397  1  0.280920  0.545260  0.575320  1.0  -0.7791
  O  O398  1  0.230540  0.627210  0.554800  1.0  -0.6369
  O  O399  1  0.209760  0.585810  0.467340  1.0  -0.6469
  O  O400  1  0.318970  0.657540  0.584560  1.0  -0.7684
  O  O401  1  0.327820  0.714800  0.497390  1.0  -0.7162
  O  O402  1  0.234940  0.684320  0.471630  1.0  -0.6538
  O  O403  1  0.274330  0.567000  0.398670  1.0  -0.7821
  O  O404  1  0.304150  0.668530  0.402640  1.0  -0.7267
  O  O405  1  0.741600  0.052100  0.598920  1.0  -0.5293
  O  O406  1  0.771960  0.025230  0.668840  1.0  -0.3968
  O  O407  1  0.663830  0.219320  0.598110  1.0  -0.5332
  O  O408  1  0.606480  0.231390  0.653800  1.0  -0.4055
  O  O409  1  0.693300  0.092450  0.818630  1.0  -0.5332
  O  O410  1  0.632780  0.148790  0.811800  1.0  -0.433
  O  O411  1  0.948340  0.988760  0.555150  1.0  -0.7592
  O  O412  1  0.849570  0.014260  0.579660  1.0  -0.7768
  O  O413  1  0.936630  0.035950  0.470680  1.0  -0.7616
  O  O414  1  0.838670  0.056600  0.495000  1.0  -0.6779
  O  O415  1  0.949300  0.928630  0.630830  1.0  -0.6612
  O  O416  1  0.852750  0.955010  0.656830  1.0  -0.6373
  O  O417  1  0.882920  0.855840  0.649530  1.0  -0.6456
  O  O418  1  0.918440  0.810800  0.570380  1.0  -0.8087
  O  O419  1  0.977190  0.875740  0.553740  1.0  -0.7582
  O  O420  1  0.989140  0.846760  0.462480  1.0  -0.6575
  O  O421  1  0.923160  0.772800  0.481470  1.0  -0.66
  O  O422  1  0.970740  0.942880  0.460000  1.0  -0.7471
  O  O423  1  0.892970  0.923910  0.393860  1.0  -0.8131
  O  O424  1  0.915100  0.826060  0.395530  1.0  -0.6019
  O  O425  1  0.858920  0.014640  0.407800  1.0  -0.6844
  O  O426  1  0.763680  0.992060  0.501950  1.0  -0.7468
  O  O427  1  0.780920  0.954740  0.424680  1.0  -0.779
  O  O428  1  0.730540  0.872790  0.445200  1.0  -0.6376
  O  O429  1  0.709760  0.914190  0.532660  1.0  -0.6433
  O  O430  1  0.818970  0.842460  0.415440  1.0  -0.7689
  O  O431  1  0.827820  0.785200  0.502610  1.0  -0.7157
  O  O432  1  0.734940  0.815680  0.528370  1.0  -0.6536
  O  O433  1  0.774330  0.933000  0.601330  1.0  -0.7811
  O  O434  1  0.804150  0.831470  0.597360  1.0  -0.7263
  O  O435  1  0.758400  0.947900  0.098920  1.0  -0.5289
  O  O436  1  0.728040  0.974770  0.168840  1.0  -0.3964
  O  O437  1  0.836170  0.780680  0.098110  1.0  -0.5346
  O  O438  1  0.893520  0.768610  0.153800  1.0  -0.4048
  O  O439  1  0.806700  0.907550  0.318630  1.0  -0.5342
  O  O440  1  0.867220  0.851210  0.311800  1.0  -0.4301
  O  O441  1  0.551660  0.011240  0.055150  1.0  -0.7589
  O  O442  1  0.650430  0.985740  0.079660  1.0  -0.7773
  O  O443  1  0.563370  0.964050  0.970680  1.0  -0.7634
  O  O444  1  0.661330  0.943400  0.995000  1.0  -0.678
  O  O445  1  0.550700  0.071370  0.130830  1.0  -0.6634
  O  O446  1  0.647250  0.044990  0.156830  1.0  -0.6381
  O  O447  1  0.617080  0.144160  0.149530  1.0  -0.6481
  O  O448  1  0.581560  0.189200  0.070380  1.0  -0.8095
  O  O449  1  0.522810  0.124260  0.053740  1.0  -0.7591
  O  O450  1  0.510860  0.153240  0.962480  1.0  -0.6574
  O  O451  1  0.576840  0.227200  0.981470  1.0  -0.6599
  O  O452  1  0.529260  0.057120  0.960000  1.0  -0.7464
  O  O453  1  0.607030  0.076090  0.893860  1.0  -0.8117
  O  O454  1  0.584900  0.173940  0.895530  1.0  -0.6044
  O  O455  1  0.641080  0.985360  0.907800  1.0  -0.6814
  O  O456  1  0.736320  0.007940  0.001950  1.0  -0.7459
  O  O457  1  0.719080  0.045260  0.924680  1.0  -0.7752
  O  O458  1  0.769460  0.127210  0.945200  1.0  -0.6403
  O  O459  1  0.790240  0.085810  0.032660  1.0  -0.6477
  O  O460  1  0.681030  0.157540  0.915440  1.0  -0.7685
  O  O461  1  0.672180  0.214800  0.002610  1.0  -0.7153
  O  O462  1  0.765060  0.184320  0.028370  1.0  -0.6534
  O  O463  1  0.725670  0.067000  0.101330  1.0  -0.7821
  O  O464  1  0.695850  0.168530  0.097360  1.0  -0.7252
