# generated using pymatgen
data_AgH2(C3N2)2
_symmetry_space_group_name_H-M   'P 1'
_cell_length_a   6.84300000
_cell_length_b   10.97800000
_cell_length_c   12.68700000
_cell_angle_alpha   90.00000000
_cell_angle_beta   90.00000000
_cell_angle_gamma   90.00000000
_symmetry_Int_Tables_number   1
_chemical_formula_structural   AgH2(C3N2)2
_chemical_formula_sum   'Ag4 H8 C24 N16'
_cell_volume   953.07857390
_cell_formula_units_Z   4
loop_
 _symmetry_equiv_pos_site_id
 _symmetry_equiv_pos_as_xyz
  1  'x, y, z'
loop_
 _atom_site_type_symbol
 _atom_site_label
 _atom_site_symmetry_multiplicity
 _atom_site_fract_x
 _atom_site_fract_y
 _atom_site_fract_z
 _atom_site_occupancy
 _atom_site_charge
  Ag  Ag1  1  0.872130  0.250000  0.083280  1.0  0.4263
  Ag  Ag2  1  0.127870  0.750000  0.916720  1.0  0.4287
  Ag  Ag3  1  0.627870  0.750000  0.583280  1.0  0.427
  Ag  Ag4  1  0.372130  0.250000  0.416720  1.0  0.428
  H  H5  1  0.781000  0.912100  0.378700  1.0  0.1022
  H  H6  1  0.219000  0.412100  0.621300  1.0  0.1036
  H  H7  1  0.219000  0.087900  0.621300  1.0  0.1039
  H  H8  1  0.781000  0.587900  0.378700  1.0  0.1029
  H  H9  1  0.719000  0.087900  0.878700  1.0  0.1033
  H  H10  1  0.281000  0.587900  0.121300  1.0  0.1041
  H  H11  1  0.281000  0.912100  0.121300  1.0  0.1036
  H  H12  1  0.719000  0.412100  0.878700  1.0  0.103
  C  C13  1  0.986500  0.924100  0.706700  1.0  0.3284
  C  C14  1  0.992500  0.964100  0.598400  1.0  0.1574
  C  C15  1  0.873900  0.947800  0.432800  1.0  0.118
  C  C16  1  0.013500  0.424100  0.293300  1.0  0.329
  C  C17  1  0.007500  0.464100  0.401600  1.0  0.1607
  C  C18  1  0.126100  0.447800  0.567200  1.0  0.1185
  C  C19  1  0.013500  0.075900  0.293300  1.0  0.3291
  C  C20  1  0.007500  0.035900  0.401600  1.0  0.1612
  C  C21  1  0.126100  0.052200  0.567200  1.0  0.1173
  C  C22  1  0.986500  0.575900  0.706700  1.0  0.3285
  C  C23  1  0.992500  0.535900  0.598400  1.0  0.1575
  C  C24  1  0.873900  0.552200  0.432800  1.0  0.1175
  C  C25  1  0.513500  0.075900  0.206700  1.0  0.3286
  C  C26  1  0.507500  0.035900  0.098400  1.0  0.1583
  C  C27  1  0.626100  0.052200  0.932800  1.0  0.1182
  C  C28  1  0.486500  0.575900  0.793300  1.0  0.3289
  C  C29  1  0.492500  0.535900  0.901600  1.0  0.1606
  C  C30  1  0.373900  0.552200  0.067200  1.0  0.1165
  C  C31  1  0.486500  0.924100  0.793300  1.0  0.329
  C  C32  1  0.492500  0.964100  0.901600  1.0  0.1598
  C  C33  1  0.373900  0.947800  0.067200  1.0  0.1175
  C  C34  1  0.513500  0.424100  0.206700  1.0  0.3288
  C  C35  1  0.507500  0.464100  0.098400  1.0  0.1578
  C  C36  1  0.626100  0.447800  0.932800  1.0  0.118
  N  N37  1  0.984000  0.890200  0.791800  1.0  -0.5214
  N  N38  1  0.865200  0.910700  0.532500  1.0  -0.4042
  N  N39  1  0.016000  0.390200  0.208200  1.0  -0.5208
  N  N40  1  0.134800  0.410700  0.467500  1.0  -0.4031
  N  N41  1  0.016000  0.109800  0.208200  1.0  -0.5208
  N  N42  1  0.134800  0.089300  0.467500  1.0  -0.3988
  N  N43  1  0.984000  0.609800  0.791800  1.0  -0.5216
  N  N44  1  0.865200  0.589300  0.532500  1.0  -0.3994
  N  N45  1  0.516000  0.109800  0.291800  1.0  -0.5215
  N  N46  1  0.634800  0.089300  0.032500  1.0  -0.4055
  N  N47  1  0.484000  0.609800  0.708200  1.0  -0.5209
  N  N48  1  0.365200  0.589300  0.967500  1.0  -0.4055
  N  N49  1  0.484000  0.890200  0.708200  1.0  -0.5213
  N  N50  1  0.365200  0.910700  0.967500  1.0  -0.3986
  N  N51  1  0.516000  0.390200  0.291800  1.0  -0.5214
  N  N52  1  0.634800  0.410700  0.032500  1.0  -0.3968
