# generated using pymatgen
data_ZnH3(C3O2)3
_symmetry_space_group_name_H-M   'P 1'
_cell_length_a   9.50600000
_cell_length_b   15.48200000
_cell_length_c   12.49800000
_cell_angle_alpha   90.00000000
_cell_angle_beta   94.95400000
_cell_angle_gamma   90.00000000
_symmetry_Int_Tables_number   1
_chemical_formula_structural   ZnH3(C3O2)3
_chemical_formula_sum   'Zn4 H12 C36 O24'
_cell_volume   1832.48312256
_cell_formula_units_Z   4
loop_
 _symmetry_equiv_pos_site_id
 _symmetry_equiv_pos_as_xyz
  1  'x, y, z'
loop_
 _atom_site_type_symbol
 _atom_site_label
 _atom_site_symmetry_multiplicity
 _atom_site_fract_x
 _atom_site_fract_y
 _atom_site_fract_z
 _atom_site_occupancy
 _atom_site_charge
  Zn  Zn1  1  0.140140  0.083670  0.457190  1.0  1.075
  Zn  Zn2  1  0.359860  0.583670  0.042810  1.0  1.0749
  Zn  Zn3  1  0.859860  0.916330  0.542810  1.0  1.0749
  Zn  Zn4  1  0.640140  0.416330  0.957190  1.0  1.075
  H  H5  1  0.431100  0.944300  0.612400  1.0  0.1174
  H  H6  1  0.559100  0.757800  0.822000  1.0  0.1182
  H  H7  1  0.148800  0.820400  0.777900  1.0  0.1187
  H  H8  1  0.068900  0.444300  0.887600  1.0  0.117
  H  H9  1  0.940900  0.257800  0.678000  1.0  0.1187
  H  H10  1  0.351200  0.320400  0.722100  1.0  0.1183
  H  H11  1  0.568900  0.055700  0.387600  1.0  0.1176
  H  H12  1  0.440900  0.242200  0.178000  1.0  0.1188
  H  H13  1  0.851200  0.179600  0.222100  1.0  0.1184
  H  H14  1  0.931100  0.555700  0.112400  1.0  0.1176
  H  H15  1  0.059100  0.742200  0.322000  1.0  0.1181
  H  H16  1  0.648800  0.679600  0.277900  1.0  0.1184
  C  C17  1  0.271800  0.889800  0.685400  1.0  -0.1448
  C  C18  1  0.410200  0.902100  0.661600  1.0  0.0486
  C  C19  1  0.518300  0.851400  0.711600  1.0  -0.143
  C  C20  1  0.487000  0.790900  0.787900  1.0  0.0483
  C  C21  1  0.348400  0.779100  0.814100  1.0  -0.1585
  C  C22  1  0.241700  0.828400  0.761800  1.0  0.0414
  C  C23  1  0.152500  0.936000  0.620600  1.0  0.7537
  C  C24  1  0.666000  0.858500  0.675600  1.0  0.7052
  C  C25  1  0.312700  0.710300  0.892800  1.0  0.692
  C  C26  1  0.228200  0.389800  0.814600  1.0  -0.145
  C  C27  1  0.089800  0.402100  0.838400  1.0  0.0483
  C  C28  1  0.981700  0.351400  0.788400  1.0  -0.1426
  C  C29  1  0.013000  0.290900  0.712100  1.0  0.0479
  C  C30  1  0.151600  0.279100  0.685900  1.0  -0.1581
  C  C31  1  0.258300  0.328400  0.738200  1.0  0.0417
  C  C32  1  0.347500  0.436000  0.879400  1.0  0.7541
  C  C33  1  0.834000  0.358500  0.824400  1.0  0.7069
  C  C34  1  0.187300  0.210300  0.607200  1.0  0.6916
  C  C35  1  0.728200  0.110200  0.314600  1.0  -0.1447
  C  C36  1  0.589800  0.097900  0.338400  1.0  0.0491
  C  C37  1  0.481700  0.148600  0.288400  1.0  -0.1429
  C  C38  1  0.513000  0.209100  0.212100  1.0  0.0481
  C  C39  1  0.651600  0.220900  0.185900  1.0  -0.1575
  C  C40  1  0.758300  0.171600  0.238200  1.0  0.0415
  C  C41  1  0.847500  0.064000  0.379400  1.0  0.7533
  C  C42  1  0.334000  0.141500  0.324400  1.0  0.707
  C  C43  1  0.687300  0.289700  0.107200  1.0  0.6921
  C  C44  1  0.771800  0.610200  0.185400  1.0  -0.1451
  C  C45  1  0.910200  0.597900  0.161600  1.0  0.0492
  C  C46  1  0.018300  0.648600  0.211600  1.0  -0.1432
  C  C47  1  0.987000  0.709100  0.287900  1.0  0.0481
  C  C48  1  0.848400  0.720900  0.314100  1.0  -0.1587
  C  C49  1  0.741700  0.671600  0.261800  1.0  0.0413
  C  C50  1  0.652500  0.564000  0.120600  1.0  0.7531
  C  C51  1  0.166000  0.641500  0.175600  1.0  0.7051
  C  C52  1  0.812700  0.789700  0.392800  1.0  0.6921
  O  O53  1  0.186900  0.979600  0.543300  1.0  -0.6168
  O  O54  1  0.029200  0.923800  0.645300  1.0  -0.5957
  O  O55  1  0.189500  0.689400  0.899100  1.0  -0.4523
  O  O56  1  0.416300  0.675800  0.948300  1.0  -0.5757
  O  O57  1  0.751900  0.799600  0.698300  1.0  -0.4607
  O  O58  1  0.690400  0.922900  0.619200  1.0  -0.5739
  O  O59  1  0.313100  0.479600  0.956700  1.0  -0.6174
  O  O60  1  0.470800  0.423800  0.854700  1.0  -0.5947
  O  O61  1  0.310500  0.189400  0.600900  1.0  -0.4487
  O  O62  1  0.083700  0.175800  0.551700  1.0  -0.5749
  O  O63  1  0.748100  0.299600  0.801700  1.0  -0.4623
  O  O64  1  0.809600  0.422900  0.880800  1.0  -0.5744
  O  O65  1  0.813100  0.020400  0.456700  1.0  -0.618
  O  O66  1  0.970800  0.076200  0.354700  1.0  -0.5947
  O  O67  1  0.810500  0.310600  0.100900  1.0  -0.4485
  O  O68  1  0.583700  0.324200  0.051700  1.0  -0.5756
  O  O69  1  0.248100  0.200400  0.301700  1.0  -0.4616
  O  O70  1  0.309600  0.077100  0.380800  1.0  -0.5725
  O  O71  1  0.686900  0.520400  0.043300  1.0  -0.6168
  O  O72  1  0.529200  0.576200  0.145300  1.0  -0.596
  O  O73  1  0.689500  0.810600  0.399100  1.0  -0.4522
  O  O74  1  0.916300  0.824200  0.448300  1.0  -0.5756
  O  O75  1  0.251900  0.700400  0.198300  1.0  -0.4614
  O  O76  1  0.190400  0.577100  0.119200  1.0  -0.5714
