# generated using pymatgen
data_CoH3(C3O2)3
_symmetry_space_group_name_H-M   'P 1'
_cell_length_a   11.27900000
_cell_length_b   10.67900000
_cell_length_c   15.42800000
_cell_angle_alpha   90.00000000
_cell_angle_beta   95.27600000
_cell_angle_gamma   90.00000000
_symmetry_Int_Tables_number   1
_chemical_formula_structural   CoH3(C3O2)3
_chemical_formula_sum   'Co4 H12 C36 O24'
_cell_volume   1850.40558447
_cell_formula_units_Z   4
loop_
 _symmetry_equiv_pos_site_id
 _symmetry_equiv_pos_as_xyz
  1  'x, y, z'
loop_
 _atom_site_type_symbol
 _atom_site_label
 _atom_site_symmetry_multiplicity
 _atom_site_fract_x
 _atom_site_fract_y
 _atom_site_fract_z
 _atom_site_occupancy
 _atom_site_charge
  Co  Co1  1  0.849000  0.540340  0.011170  1.0  1.0116
  Co  Co2  1  0.651000  0.040340  0.488830  1.0  1.0118
  Co  Co3  1  0.151000  0.459660  0.988830  1.0  1.0113
  Co  Co4  1  0.349000  0.959660  0.511170  1.0  1.0116
  H  H5  1  0.186600  0.261700  0.228700  1.0  0.1313
  H  H6  1  0.010100  0.120000  0.420100  1.0  0.1253
  H  H7  1  0.834200  0.314600  0.226400  1.0  0.1317
  H  H8  1  0.313400  0.761700  0.271300  1.0  0.1313
  H  H9  1  0.489900  0.620000  0.079900  1.0  0.1252
  H  H10  1  0.665800  0.814600  0.273600  1.0  0.1318
  H  H11  1  0.813400  0.738300  0.771300  1.0  0.1314
  H  H12  1  0.989900  0.880000  0.579900  1.0  0.1253
  H  H13  1  0.165800  0.685400  0.773600  1.0  0.1321
  H  H14  1  0.686600  0.238300  0.728700  1.0  0.1313
  H  H15  1  0.510100  0.380000  0.920100  1.0  0.1252
  H  H16  1  0.334200  0.185400  0.726400  1.0  0.132
  C  C17  1  0.010800  0.299800  0.214100  1.0  -0.1414
  C  C18  1  0.115800  0.250400  0.254200  1.0  0.0582
  C  C19  1  0.116600  0.184400  0.331800  1.0  -0.1382
  C  C20  1  0.010200  0.166700  0.369200  1.0  0.0477
  C  C21  1  0.903500  0.217700  0.331600  1.0  -0.1425
  C  C22  1  0.904900  0.282400  0.253200  1.0  0.0476
  C  C23  1  0.009700  0.371500  0.129900  1.0  0.7304
  C  C24  1  0.232900  0.134800  0.374400  1.0  0.6969
  C  C25  1  0.788000  0.204800  0.373600  1.0  0.7178
  C  C26  1  0.489200  0.799800  0.285900  1.0  -0.1417
  C  C27  1  0.384200  0.750400  0.245800  1.0  0.0576
  C  C28  1  0.383400  0.684400  0.168200  1.0  -0.139
  C  C29  1  0.489800  0.666667  0.130800  1.0  0.0473
  C  C30  1  0.596500  0.717700  0.168400  1.0  -0.1414
  C  C31  1  0.595100  0.782400  0.246800  1.0  0.0487
  C  C32  1  0.490300  0.871500  0.370100  1.0  0.7312
  C  C33  1  0.267100  0.634800  0.125600  1.0  0.6975
  C  C34  1  0.712000  0.704800  0.126400  1.0  0.7184
  C  C35  1  0.989200  0.700200  0.785900  1.0  -0.1416
  C  C36  1  0.884200  0.749600  0.745800  1.0  0.0576
  C  C37  1  0.883400  0.815600  0.668200  1.0  -0.139
  C  C38  1  0.989800  0.833300  0.630800  1.0  0.0475
  C  C39  1  0.096500  0.782300  0.668400  1.0  -0.1412
  C  C40  1  0.095100  0.717600  0.746800  1.0  0.0492
  C  C41  1  0.990300  0.628500  0.870100  1.0  0.7309
  C  C42  1  0.767100  0.865200  0.625600  1.0  0.6977
  C  C43  1  0.212000  0.795200  0.626400  1.0  0.7185
  C  C44  1  0.510800  0.200200  0.714100  1.0  -0.1414
  C  C45  1  0.615800  0.249600  0.754200  1.0  0.0582
  C  C46  1  0.616600  0.315600  0.831800  1.0  -0.1382
  C  C47  1  0.510200  0.333333  0.869200  1.0  0.0473
  C  C48  1  0.403500  0.282300  0.831600  1.0  -0.1425
  C  C49  1  0.404900  0.217600  0.753200  1.0  0.0471
  C  C50  1  0.509700  0.128500  0.629900  1.0  0.7303
  C  C51  1  0.732900  0.365200  0.874400  1.0  0.6972
  C  C52  1  0.288000  0.295200  0.873600  1.0  0.718
  O  O53  1  0.911100  0.412600  0.096650  1.0  -0.6011
  O  O54  1  0.109800  0.387400  0.101180  1.0  -0.5717
  O  O55  1  0.227500  0.078700  0.447100  1.0  -0.5793
  O  O56  1  0.324500  0.150500  0.336400  1.0  -0.4803
  O  O57  1  0.786400  0.118900  0.431310  1.0  -0.5887
  O  O58  1  0.706200  0.279000  0.350900  1.0  -0.4568
  O  O59  1  0.588900  0.912600  0.403350  1.0  -0.6007
  O  O60  1  0.390200  0.887400  0.398820  1.0  -0.5711
  O  O61  1  0.272500  0.578700  0.052900  1.0  -0.5779
  O  O62  1  0.175500  0.650500  0.163600  1.0  -0.4821
  O  O63  1  0.713600  0.618900  0.068690  1.0  -0.5873
  O  O64  1  0.793800  0.779000  0.149100  1.0  -0.4568
  O  O65  1  0.088900  0.587400  0.903350  1.0  -0.6009
  O  O66  1  0.890200  0.612600  0.898820  1.0  -0.5716
  O  O67  1  0.772500  0.921300  0.552900  1.0  -0.5782
  O  O68  1  0.675500  0.849500  0.663600  1.0  -0.4816
  O  O69  1  0.213600  0.881100  0.568690  1.0  -0.5864
  O  O70  1  0.293800  0.721000  0.649100  1.0  -0.4592
  O  O71  1  0.411100  0.087400  0.596650  1.0  -0.6014
  O  O72  1  0.609800  0.112600  0.601180  1.0  -0.5722
  O  O73  1  0.727500  0.421300  0.947100  1.0  -0.579
  O  O74  1  0.824500  0.349500  0.836400  1.0  -0.4808
  O  O75  1  0.286400  0.381100  0.931310  1.0  -0.588
  O  O76  1  0.206200  0.221000  0.850900  1.0  -0.4574
