# generated using pymatgen
data_GdH6(C2O)6
_symmetry_space_group_name_H-M   'P 1'
_cell_length_a   10.68790000
_cell_length_b   10.68790000
_cell_length_c   18.67910000
_cell_angle_alpha   74.20530000
_cell_angle_beta   74.20530000
_cell_angle_gamma   64.70050000
_symmetry_Int_Tables_number   1
_chemical_formula_structural   GdH6(C2O)6
_chemical_formula_sum   'Gd4 H24 C48 O24'
_cell_volume   1826.20756095
_cell_formula_units_Z   4
loop_
 _symmetry_equiv_pos_site_id
 _symmetry_equiv_pos_as_xyz
  1  'x, y, z'
loop_
 _atom_site_type_symbol
 _atom_site_label
 _atom_site_symmetry_multiplicity
 _atom_site_fract_x
 _atom_site_fract_y
 _atom_site_fract_z
 _atom_site_occupancy
 _atom_site_charge
  Gd  Gd1  1  0.558090  0.438250  0.102180  1.0  2.2338
  Gd  Gd2  1  0.561750  0.441910  0.397820  1.0  2.2327
  Gd  Gd3  1  0.441910  0.561750  0.897820  1.0  2.2342
  Gd  Gd4  1  0.438250  0.558090  0.602180  1.0  2.234
  H  H5  1  0.471800  0.115400  0.229400  1.0  0.1039
  H  H6  1  0.536000  0.791200  0.089100  1.0  0.1079
  H  H7  1  0.378800  0.210600  0.438600  1.0  0.0975
  H  H8  1  0.368500  0.989700  0.492600  1.0  0.1085
  H  H9  1  0.441000  0.018800  0.884800  1.0  0.1039
  H  H10  1  0.464500  0.893700  0.283700  1.0  0.1089
  H  H11  1  0.884600  0.528200  0.270600  1.0  0.1038
  H  H12  1  0.208800  0.464000  0.410900  1.0  0.1075
  H  H13  1  0.789400  0.621200  0.061400  1.0  0.0971
  H  H14  1  0.010300  0.631500  0.007400  1.0  0.1089
  H  H15  1  0.981200  0.559000  0.615200  1.0  0.1038
  H  H16  1  0.106300  0.535500  0.216300  1.0  0.1096
  H  H17  1  0.528200  0.884600  0.770600  1.0  0.1033
  H  H18  1  0.464000  0.208800  0.910900  1.0  0.107
  H  H19  1  0.621200  0.789400  0.561400  1.0  0.0976
  H  H20  1  0.631500  0.010300  0.507400  1.0  0.1084
  H  H21  1  0.559000  0.981200  0.115200  1.0  0.1041
  H  H22  1  0.535500  0.106300  0.716300  1.0  0.1096
  H  H23  1  0.115400  0.471800  0.729400  1.0  0.104
  H  H24  1  0.791200  0.536000  0.589100  1.0  0.1083
  H  H25  1  0.210600  0.378800  0.938600  1.0  0.0979
  H  H26  1  0.989700  0.368500  0.992600  1.0  0.1091
  H  H27  1  0.018800  0.441000  0.384800  1.0  0.1042
  H  H28  1  0.893700  0.464500  0.783700  1.0  0.1089
  C  C29  1  0.444170  0.321170  0.294110  1.0  0.7777
  C  C30  1  0.486870  0.886250  0.984230  1.0  -0.1279
  C  C31  1  0.428740  0.183180  0.328880  1.0  -0.1633
  C  C32  1  0.452530  0.089330  0.282810  1.0  -0.0491
  C  C33  1  0.521540  0.875760  0.052890  1.0  -0.0546
  C  C34  1  0.396820  0.146100  0.407150  1.0  -0.0555
  C  C35  1  0.472200  0.765780  0.966130  1.0  0.7514
  C  C36  1  0.391350  0.014550  0.439210  1.0  -0.0459
  C  C37  1  0.465120  0.011120  0.931570  1.0  -0.0493
  C  C38  1  0.419290  0.919270  0.393370  1.0  -0.13
  C  C39  1  0.427010  0.772970  0.429400  1.0  0.8012
  C  C40  1  0.447990  0.957750  0.315070  1.0  -0.0515
  C  C41  1  0.678830  0.555830  0.205890  1.0  0.7769
  C  C42  1  0.113750  0.513130  0.515770  1.0  -0.1268
  C  C43  1  0.816820  0.571260  0.171120  1.0  -0.1621
  C  C44  1  0.910670  0.547470  0.217190  1.0  -0.0491
  C  C45  1  0.124240  0.478460  0.447110  1.0  -0.0542
  C  C46  1  0.853900  0.603180  0.092850  1.0  -0.0559
  C  C47  1  0.234220  0.527800  0.533870  1.0  0.7522
  C  C48  1  0.985450  0.608650  0.060790  1.0  -0.0489
  C  C49  1  0.988880  0.534880  0.568430  1.0  -0.0494
  C  C50  1  0.080730  0.580710  0.106630  1.0  -0.1304
  C  C51  1  0.227030  0.572990  0.070600  1.0  0.7972
  C  C52  1  0.042250  0.552010  0.184930  1.0  -0.0528
  C  C53  1  0.555830  0.678830  0.705890  1.0  0.7758
  C  C54  1  0.513130  0.113750  0.015770  1.0  -0.1282
  C  C55  1  0.571260  0.816820  0.671120  1.0  -0.163
  C  C56  1  0.547470  0.910670  0.717190  1.0  -0.0492
  C  C57  1  0.478460  0.124240  0.947110  1.0  -0.053
  C  C58  1  0.603180  0.853900  0.592850  1.0  -0.0554
  C  C59  1  0.527800  0.234220  0.033870  1.0  0.7526
  C  C60  1  0.608650  0.985450  0.560790  1.0  -0.0478
  C  C61  1  0.534880  0.988880  0.068430  1.0  -0.0498
  C  C62  1  0.580710  0.080730  0.606630  1.0  -0.1297
  C  C63  1  0.572990  0.227030  0.570600  1.0  0.8007
  C  C64  1  0.552010  0.042250  0.684930  1.0  -0.052
  C  C65  1  0.321170  0.444170  0.794110  1.0  0.7765
  C  C66  1  0.886250  0.486870  0.484230  1.0  -0.1277
  C  C67  1  0.183180  0.428740  0.828880  1.0  -0.1617
  C  C68  1  0.089330  0.452530  0.782810  1.0  -0.0491
  C  C69  1  0.875760  0.521540  0.552890  1.0  -0.0515
  C  C70  1  0.146100  0.396820  0.907150  1.0  -0.0571
  C  C71  1  0.765780  0.472200  0.466130  1.0  0.7511
  C  C72  1  0.014550  0.391350  0.939210  1.0  -0.0484
  C  C73  1  0.011120  0.465120  0.431570  1.0  -0.0487
  C  C74  1  0.919270  0.419290  0.893370  1.0  -0.1299
  C  C75  1  0.772970  0.427010  0.929400  1.0  0.7998
  C  C76  1  0.957750  0.447990  0.815070  1.0  -0.0524
  O  O77  1  0.471230  0.350770  0.224070  1.0  -0.753
  O  O78  1  0.510130  0.645550  0.007890  1.0  -0.8318
  O  O79  1  0.426470  0.400470  0.338900  1.0  -0.7409
  O  O80  1  0.422460  0.787800  0.907960  1.0  -0.6582
  O  O81  1  0.394300  0.747500  0.500480  1.0  -0.7711
  O  O82  1  0.468360  0.685380  0.386350  1.0  -0.7163
  O  O83  1  0.649230  0.528770  0.275930  1.0  -0.7512
  O  O84  1  0.354450  0.489870  0.492110  1.0  -0.8281
  O  O85  1  0.599530  0.573530  0.161100  1.0  -0.7449
  O  O86  1  0.212200  0.577540  0.592040  1.0  -0.6596
  O  O87  1  0.252500  0.605700  0.999520  1.0  -0.7659
  O  O88  1  0.314620  0.531640  0.113650  1.0  -0.713
  O  O89  1  0.528770  0.649230  0.775930  1.0  -0.7522
  O  O90  1  0.489870  0.354450  0.992110  1.0  -0.8317
  O  O91  1  0.573530  0.599530  0.661100  1.0  -0.7443
  O  O92  1  0.577540  0.212200  0.092040  1.0  -0.6559
  O  O93  1  0.605700  0.252500  0.499520  1.0  -0.7682
  O  O94  1  0.531640  0.314620  0.613650  1.0  -0.7154
  O  O95  1  0.350770  0.471230  0.724070  1.0  -0.7505
  O  O96  1  0.645550  0.510130  0.507890  1.0  -0.8286
  O  O97  1  0.400470  0.426470  0.838900  1.0  -0.7395
  O  O98  1  0.787800  0.422460  0.407960  1.0  -0.6604
  O  O99  1  0.747500  0.394300  0.000480  1.0  -0.7674
  O  O100  1  0.685380  0.468360  0.886350  1.0  -0.7123
