# generated using pymatgen
data_Eu2H15C30(N3O4)3
_symmetry_space_group_name_H-M   'P 1'
_cell_length_a   17.41640000
_cell_length_b   14.24530000
_cell_length_c   20.44240000
_cell_angle_alpha   90.00000000
_cell_angle_beta   114.51200000
_cell_angle_gamma   90.00000000
_symmetry_Int_Tables_number   1
_chemical_formula_structural   Eu2H15C30(N3O4)3
_chemical_formula_sum   'Eu8 H60 C120 N36 O48'
_cell_volume   4614.69834445
_cell_formula_units_Z   4
loop_
 _symmetry_equiv_pos_site_id
 _symmetry_equiv_pos_as_xyz
  1  'x, y, z'
loop_
 _atom_site_type_symbol
 _atom_site_label
 _atom_site_symmetry_multiplicity
 _atom_site_fract_x
 _atom_site_fract_y
 _atom_site_fract_z
 _atom_site_occupancy
 _atom_site_charge
  Eu  Eu1  1  0.207850  0.886920  0.203920  1.0  2.1311
  Eu  Eu2  1  0.707850  0.386920  0.703920  1.0  2.1311
  Eu  Eu3  1  0.292150  0.886920  0.796080  1.0  2.1324
  Eu  Eu4  1  0.792150  0.386920  0.296080  1.0  2.1324
  Eu  Eu5  1  0.792150  0.113080  0.796080  1.0  2.1327
  Eu  Eu6  1  0.292150  0.613080  0.296080  1.0  2.1327
  Eu  Eu7  1  0.707850  0.113080  0.203920  1.0  2.1319
  Eu  Eu8  1  0.207850  0.613080  0.703920  1.0  2.1319
  H  H9  1  0.507000  0.443600  0.238300  1.0  0.0904
  H  H10  1  0.256200  0.528500  0.099400  1.0  0.0908
  H  H11  1  0.288800  0.122900  0.219900  1.0  0.0852
  H  H12  1  0.288600  0.302900  0.180800  1.0  0.1146
  H  H13  1  0.343100  0.100100  0.054300  1.0  0.0857
  H  H14  1  0.485900  0.182500  0.158000  1.0  0.1117
  H  H15  1  0.157200  0.373100  0.029900  1.0  0.0719
  H  H16  1  0.007000  0.943600  0.738300  1.0  0.0904
  H  H17  1  0.756200  0.028500  0.599400  1.0  0.0908
  H  H18  1  0.788800  0.622900  0.719900  1.0  0.0852
  H  H19  1  0.788600  0.802900  0.680800  1.0  0.1146
  H  H20  1  0.843100  0.600100  0.554300  1.0  0.0857
  H  H21  1  0.985900  0.682500  0.658000  1.0  0.1117
  H  H22  1  0.657200  0.873100  0.529900  1.0  0.0719
  H  H23  1  0.993000  0.443600  0.761700  1.0  0.0906
  H  H24  1  0.243800  0.528500  0.900600  1.0  0.0912
  H  H25  1  0.211200  0.122900  0.780100  1.0  0.0852
  H  H26  1  0.211400  0.302900  0.819200  1.0  0.1149
  H  H27  1  0.156900  0.100100  0.945700  1.0  0.0854
  H  H28  1  0.014100  0.182500  0.842000  1.0  0.1115
  H  H29  1  0.342800  0.373100  0.970100  1.0  0.0719
  H  H30  1  0.493000  0.943600  0.261700  1.0  0.0906
  H  H31  1  0.743800  0.028500  0.400600  1.0  0.0912
  H  H32  1  0.711200  0.622900  0.280100  1.0  0.0852
  H  H33  1  0.711400  0.802900  0.319200  1.0  0.1149
  H  H34  1  0.656900  0.600100  0.445700  1.0  0.0854
  H  H35  1  0.514100  0.682500  0.342000  1.0  0.1115
  H  H36  1  0.842800  0.873100  0.470100  1.0  0.0719
  H  H37  1  0.493000  0.556400  0.761700  1.0  0.0901
  H  H38  1  0.743800  0.471500  0.900600  1.0  0.091
  H  H39  1  0.711200  0.877100  0.780100  1.0  0.0853
  H  H40  1  0.711400  0.697100  0.819200  1.0  0.1149
  H  H41  1  0.656900  0.899900  0.945700  1.0  0.0853
  H  H42  1  0.514100  0.817500  0.842000  1.0  0.1115
  H  H43  1  0.842800  0.626900  0.970100  1.0  0.0708
  H  H44  1  0.993000  0.056400  0.261700  1.0  0.0901
  H  H45  1  0.243800  0.971500  0.400600  1.0  0.091
  H  H46  1  0.211200  0.377100  0.280100  1.0  0.0853
  H  H47  1  0.211400  0.197100  0.319200  1.0  0.1149
  H  H48  1  0.156900  0.399900  0.445700  1.0  0.0853
  H  H49  1  0.014100  0.317500  0.342000  1.0  0.1115
  H  H50  1  0.342800  0.126900  0.470100  1.0  0.0708
  H  H51  1  0.007000  0.556400  0.238300  1.0  0.0905
  H  H52  1  0.756200  0.471500  0.099400  1.0  0.0908
  H  H53  1  0.788800  0.877100  0.219900  1.0  0.0853
  H  H54  1  0.788600  0.697100  0.180800  1.0  0.1144
  H  H55  1  0.843100  0.899900  0.054300  1.0  0.0852
  H  H56  1  0.985900  0.817500  0.158000  1.0  0.1113
  H  H57  1  0.657200  0.626900  0.029900  1.0  0.0729
  H  H58  1  0.507000  0.056400  0.738300  1.0  0.0905
  H  H59  1  0.256200  0.971500  0.599400  1.0  0.0908
  H  H60  1  0.288800  0.377100  0.719900  1.0  0.0853
  H  H61  1  0.288600  0.197100  0.680800  1.0  0.1144
  H  H62  1  0.343100  0.399900  0.554300  1.0  0.0852
  H  H63  1  0.485900  0.317500  0.658000  1.0  0.1113
  H  H64  1  0.157200  0.126900  0.529900  1.0  0.0729
  H  H65  1  0.250000  0.772100  0.000000  1.0  0.0889
  H  H66  1  0.750000  0.272100  0.500000  1.0  0.0889
  H  H67  1  0.750000  0.227900  0.000000  1.0  0.0886
  H  H68  1  0.250000  0.727900  0.500000  1.0  0.0886
  C  C69  1  0.357100  0.465700  0.241700  1.0  0.6906
  C  C70  1  0.474800  0.390000  0.219500  1.0  0.0237
  C  C71  1  0.393300  0.385600  0.213500  1.0  -0.1718
  C  C72  1  0.253700  0.561700  0.059400  1.0  -0.0758
  C  C73  1  0.292800  0.100000  0.178900  1.0  0.1405
  C  C74  1  0.253900  0.660100  0.060100  1.0  -0.1844
  C  C75  1  0.344200  0.305500  0.186200  1.0  -0.1253
  C  C76  1  0.322400  0.087500  0.088600  1.0  0.1356
  C  C77  1  0.462900  0.233600  0.171800  1.0  -0.0977
  C  C78  1  0.509400  0.314800  0.197300  1.0  -0.1546
  C  C79  1  0.258500  0.709200  0.126900  1.0  0.7614
  C  C80  1  0.381200  0.229800  0.167200  1.0  0.1447
  C  C81  1  0.600900  0.318000  0.208500  1.0  0.7138
  C  C82  1  0.199300  0.353400  0.016200  1.0  0.1594
  C  C83  1  0.857100  0.965700  0.741700  1.0  0.6906
  C  C84  1  0.974800  0.890000  0.719500  1.0  0.0237
  C  C85  1  0.893300  0.885600  0.713500  1.0  -0.1718
  C  C86  1  0.753700  0.061700  0.559400  1.0  -0.0758
  C  C87  1  0.792800  0.600000  0.678900  1.0  0.1405
  C  C88  1  0.753900  0.160100  0.560100  1.0  -0.1844
  C  C89  1  0.844200  0.805500  0.686200  1.0  -0.1253
  C  C90  1  0.822400  0.587500  0.588600  1.0  0.1356
  C  C91  1  0.962900  0.733600  0.671800  1.0  -0.0977
  C  C92  1  0.009400  0.814800  0.697300  1.0  -0.1546
  C  C93  1  0.758500  0.209200  0.626900  1.0  0.7614
  C  C94  1  0.881200  0.729800  0.667200  1.0  0.1447
  C  C95  1  0.100900  0.818000  0.708500  1.0  0.7138
  C  C96  1  0.699300  0.853400  0.516200  1.0  0.1594
  C  C97  1  0.142900  0.465700  0.758300  1.0  0.6908
  C  C98  1  0.025200  0.390000  0.780500  1.0  0.0234
  C  C99  1  0.106700  0.385600  0.786500  1.0  -0.1713
  C  C100  1  0.246300  0.561700  0.940600  1.0  -0.0763
  C  C101  1  0.207200  0.100000  0.821100  1.0  0.1398
  C  C102  1  0.246100  0.660100  0.939900  1.0  -0.1854
  C  C103  1  0.155800  0.305500  0.813800  1.0  -0.1259
  C  C104  1  0.177600  0.087500  0.911400  1.0  0.1369
  C  C105  1  0.037100  0.233600  0.828200  1.0  -0.0982
  C  C106  1  0.990600  0.314800  0.802700  1.0  -0.1551
  C  C107  1  0.241500  0.709200  0.873100  1.0  0.7604
  C  C108  1  0.118800  0.229800  0.832800  1.0  0.1446
  C  C109  1  0.899100  0.318000  0.791500  1.0  0.7131
  C  C110  1  0.300700  0.353400  0.983800  1.0  0.1618
  C  C111  1  0.642900  0.965700  0.258300  1.0  0.6908
  C  C112  1  0.525200  0.890000  0.280500  1.0  0.0234
  C  C113  1  0.606700  0.885600  0.286500  1.0  -0.1713
  C  C114  1  0.746300  0.061700  0.440600  1.0  -0.0763
  C  C115  1  0.707200  0.600000  0.321100  1.0  0.1398
  C  C116  1  0.746100  0.160100  0.439900  1.0  -0.1854
  C  C117  1  0.655800  0.805500  0.313800  1.0  -0.1259
  C  C118  1  0.677600  0.587500  0.411400  1.0  0.1369
  C  C119  1  0.537100  0.733600  0.328200  1.0  -0.0982
  C  C120  1  0.490600  0.814800  0.302700  1.0  -0.1551
  C  C121  1  0.741500  0.209200  0.373100  1.0  0.7604
  C  C122  1  0.618800  0.729800  0.332800  1.0  0.1446
  C  C123  1  0.399100  0.818000  0.291500  1.0  0.7131
  C  C124  1  0.800700  0.853400  0.483800  1.0  0.1618
  C  C125  1  0.642900  0.534300  0.758300  1.0  0.6903
  C  C126  1  0.525200  0.610000  0.780500  1.0  0.0236
  C  C127  1  0.606700  0.614400  0.786500  1.0  -0.1722
  C  C128  1  0.746300  0.438300  0.940600  1.0  -0.0763
  C  C129  1  0.707200  0.900000  0.821100  1.0  0.1396
  C  C130  1  0.746100  0.339900  0.939900  1.0  -0.1856
  C  C131  1  0.655800  0.694500  0.813800  1.0  -0.1259
  C  C132  1  0.677600  0.912500  0.911400  1.0  0.1377
  C  C133  1  0.537100  0.766400  0.828200  1.0  -0.0983
  C  C134  1  0.490600  0.685200  0.802700  1.0  -0.1548
  C  C135  1  0.741500  0.290800  0.873100  1.0  0.7603
  C  C136  1  0.618800  0.770200  0.832800  1.0  0.1444
  C  C137  1  0.399100  0.682000  0.791500  1.0  0.7139
  C  C138  1  0.800700  0.646600  0.983800  1.0  0.1616
  C  C139  1  0.142900  0.034300  0.258300  1.0  0.6903
  C  C140  1  0.025200  0.110000  0.280500  1.0  0.0236
  C  C141  1  0.106700  0.114400  0.286500  1.0  -0.1722
  C  C142  1  0.246300  0.938300  0.440600  1.0  -0.0763
  C  C143  1  0.207200  0.400000  0.321100  1.0  0.1396
  C  C144  1  0.246100  0.839900  0.439900  1.0  -0.1856
  C  C145  1  0.155800  0.194500  0.313800  1.0  -0.1259
  C  C146  1  0.177600  0.412500  0.411400  1.0  0.1377
  C  C147  1  0.037100  0.266400  0.328200  1.0  -0.0983
  C  C148  1  0.990600  0.185200  0.302700  1.0  -0.1548
  C  C149  1  0.241500  0.790800  0.373100  1.0  0.7603
  C  C150  1  0.118800  0.270200  0.332800  1.0  0.1444
  C  C151  1  0.899100  0.182000  0.291500  1.0  0.7139
  C  C152  1  0.300700  0.146600  0.483800  1.0  0.1616
  C  C153  1  0.857100  0.534300  0.241700  1.0  0.6908
  C  C154  1  0.974800  0.610000  0.219500  1.0  0.0245
  C  C155  1  0.893300  0.614400  0.213500  1.0  -0.1714
  C  C156  1  0.753700  0.438300  0.059400  1.0  -0.076
  C  C157  1  0.792800  0.900000  0.178900  1.0  0.1401
  C  C158  1  0.753900  0.339900  0.060100  1.0  -0.1845
  C  C159  1  0.844200  0.694500  0.186200  1.0  -0.1256
  C  C160  1  0.822400  0.912500  0.088600  1.0  0.1379
  C  C161  1  0.962900  0.766400  0.171800  1.0  -0.0988
  C  C162  1  0.009400  0.685200  0.197300  1.0  -0.1544
  C  C163  1  0.758500  0.290800  0.126900  1.0  0.7615
  C  C164  1  0.881200  0.770200  0.167200  1.0  0.1441
  C  C165  1  0.100900  0.682000  0.208500  1.0  0.7136
  C  C166  1  0.699300  0.646600  0.016200  1.0  0.1597
  C  C167  1  0.357100  0.034300  0.741700  1.0  0.6908
  C  C168  1  0.474800  0.110000  0.719500  1.0  0.0245
  C  C169  1  0.393300  0.114400  0.713500  1.0  -0.1714
  C  C170  1  0.253700  0.938300  0.559400  1.0  -0.076
  C  C171  1  0.292800  0.400000  0.678900  1.0  0.1401
  C  C172  1  0.253900  0.839900  0.560100  1.0  -0.1845
  C  C173  1  0.344200  0.194500  0.686200  1.0  -0.1256
  C  C174  1  0.322400  0.412500  0.588600  1.0  0.1379
  C  C175  1  0.462900  0.266400  0.671800  1.0  -0.0988
  C  C176  1  0.509400  0.185200  0.697300  1.0  -0.1544
  C  C177  1  0.258500  0.790800  0.626900  1.0  0.7615
  C  C178  1  0.381200  0.270200  0.667200  1.0  0.1441
  C  C179  1  0.600900  0.182000  0.708500  1.0  0.7136
  C  C180  1  0.199300  0.146600  0.516200  1.0  0.1597
  C  C181  1  0.250000  0.514600  0.000000  1.0  0.1348
  C  C182  1  0.250000  0.706800  0.000000  1.0  0.0114
  C  C183  1  0.750000  0.014600  0.500000  1.0  0.1348
  C  C184  1  0.750000  0.206800  0.500000  1.0  0.0114
  C  C185  1  0.750000  0.485400  0.000000  1.0  0.1348
  C  C186  1  0.750000  0.293200  0.000000  1.0  0.0139
  C  C187  1  0.250000  0.985400  0.500000  1.0  0.1348
  C  C188  1  0.250000  0.793200  0.500000  1.0  0.0139
  N  N189  1  0.259000  0.021500  0.147300  1.0  -0.2863
  N  N190  1  0.334300  0.143700  0.145100  1.0  0.0031
  N  N191  1  0.216300  0.267200  0.010500  1.0  -0.2741
  N  N192  1  0.278700  0.014000  0.088200  1.0  -0.2375
  N  N193  1  0.759000  0.521500  0.647300  1.0  -0.2863
  N  N194  1  0.834300  0.643700  0.645100  1.0  0.0031
  N  N195  1  0.716300  0.767200  0.510500  1.0  -0.2741
  N  N196  1  0.778700  0.514000  0.588200  1.0  -0.2375
  N  N197  1  0.241000  0.021500  0.852700  1.0  -0.2861
  N  N198  1  0.165700  0.143700  0.854900  1.0  0.0029
  N  N199  1  0.283700  0.267200  0.989500  1.0  -0.2756
  N  N200  1  0.221300  0.014000  0.911800  1.0  -0.2376
  N  N201  1  0.741000  0.521500  0.352700  1.0  -0.2861
  N  N202  1  0.665700  0.643700  0.354900  1.0  0.0029
  N  N203  1  0.783700  0.767200  0.489500  1.0  -0.2756
  N  N204  1  0.721300  0.514000  0.411800  1.0  -0.2376
  N  N205  1  0.741000  0.978500  0.852700  1.0  -0.2876
  N  N206  1  0.665700  0.856300  0.854900  1.0  0.0027
  N  N207  1  0.783700  0.732800  0.989500  1.0  -0.2756
  N  N208  1  0.721300  0.986000  0.911800  1.0  -0.2374
  N  N209  1  0.241000  0.478500  0.352700  1.0  -0.2876
  N  N210  1  0.165700  0.356300  0.354900  1.0  0.0027
  N  N211  1  0.283700  0.232800  0.489500  1.0  -0.2756
  N  N212  1  0.221300  0.486000  0.411800  1.0  -0.2374
  N  N213  1  0.759000  0.978500  0.147300  1.0  -0.2864
  N  N214  1  0.834300  0.856300  0.145100  1.0  0.0028
  N  N215  1  0.716300  0.732800  0.010500  1.0  -0.2763
  N  N216  1  0.778700  0.986000  0.088200  1.0  -0.237
  N  N217  1  0.259000  0.478500  0.647300  1.0  -0.2864
  N  N218  1  0.334300  0.356300  0.645100  1.0  0.0028
  N  N219  1  0.216300  0.232800  0.510500  1.0  -0.2763
  N  N220  1  0.278700  0.486000  0.588200  1.0  -0.237
  N  N221  1  0.250000  0.413100  0.000000  1.0  -0.0219
  N  N222  1  0.750000  0.913100  0.500000  1.0  -0.0219
  N  N223  1  0.750000  0.586900  0.000000  1.0  -0.0221
  N  N224  1  0.250000  0.086900  0.500000  1.0  -0.0221
  O  O225  1  0.641900  0.389500  0.235000  1.0  -0.6173
  O  O226  1  0.405700  0.529200  0.277200  1.0  -0.6782
  O  O227  1  0.279700  0.464000  0.227800  1.0  -0.6397
  O  O228  1  0.249800  0.797000  0.124900  1.0  -0.6588
  O  O229  1  0.627200  0.245900  0.187800  1.0  -0.7319
  O  O230  1  0.272300  0.659200  0.180600  1.0  -0.7296
  O  O231  1  0.141900  0.889500  0.735000  1.0  -0.6173
  O  O232  1  0.905700  0.029200  0.777200  1.0  -0.6782
  O  O233  1  0.779700  0.964000  0.727800  1.0  -0.6397
  O  O234  1  0.749800  0.297000  0.624900  1.0  -0.6588
  O  O235  1  0.127200  0.745900  0.687800  1.0  -0.7319
  O  O236  1  0.772300  0.159200  0.680600  1.0  -0.7296
  O  O237  1  0.858100  0.389500  0.765000  1.0  -0.6161
  O  O238  1  0.094300  0.529200  0.722800  1.0  -0.6767
  O  O239  1  0.220300  0.464000  0.772200  1.0  -0.6385
  O  O240  1  0.250200  0.797000  0.875100  1.0  -0.6586
  O  O241  1  0.872800  0.245900  0.812200  1.0  -0.7294
  O  O242  1  0.227700  0.659200  0.819400  1.0  -0.7288
  O  O243  1  0.358100  0.889500  0.265000  1.0  -0.6161
  O  O244  1  0.594300  0.029200  0.222800  1.0  -0.6767
  O  O245  1  0.720300  0.964000  0.272200  1.0  -0.6385
  O  O246  1  0.750200  0.297000  0.375100  1.0  -0.6586
  O  O247  1  0.372800  0.745900  0.312200  1.0  -0.7294
  O  O248  1  0.727700  0.159200  0.319400  1.0  -0.7288
  O  O249  1  0.358100  0.610500  0.765000  1.0  -0.6162
  O  O250  1  0.594300  0.470800  0.722800  1.0  -0.6775
  O  O251  1  0.720300  0.536000  0.772200  1.0  -0.6386
  O  O252  1  0.750200  0.203000  0.875100  1.0  -0.6579
  O  O253  1  0.372800  0.754100  0.812200  1.0  -0.7302
  O  O254  1  0.727700  0.340800  0.819400  1.0  -0.7286
  O  O255  1  0.858100  0.110500  0.265000  1.0  -0.6162
  O  O256  1  0.094300  0.970800  0.222800  1.0  -0.6775
  O  O257  1  0.220300  0.036000  0.272200  1.0  -0.6386
  O  O258  1  0.250200  0.703000  0.375100  1.0  -0.6579
  O  O259  1  0.872800  0.254100  0.312200  1.0  -0.7302
  O  O260  1  0.227700  0.840800  0.319400  1.0  -0.7286
  O  O261  1  0.141900  0.610500  0.235000  1.0  -0.6176
  O  O262  1  0.905700  0.470800  0.277200  1.0  -0.6796
  O  O263  1  0.779700  0.536000  0.227800  1.0  -0.64
  O  O264  1  0.749800  0.203000  0.124900  1.0  -0.6579
  O  O265  1  0.127200  0.754100  0.187800  1.0  -0.7324
  O  O266  1  0.772300  0.340800  0.180600  1.0  -0.7292
  O  O267  1  0.641900  0.110500  0.735000  1.0  -0.6176
  O  O268  1  0.405700  0.970800  0.777200  1.0  -0.6796
  O  O269  1  0.279700  0.036000  0.727800  1.0  -0.64
  O  O270  1  0.249800  0.703000  0.624900  1.0  -0.6579
  O  O271  1  0.627200  0.254100  0.687800  1.0  -0.7324
  O  O272  1  0.272300  0.840800  0.680600  1.0  -0.7292
