# generated using pymatgen
data_NiH18(C10N3)2
_symmetry_space_group_name_H-M   'P 1'
_cell_length_a   15.09580000
_cell_length_b   17.00710000
_cell_length_c   17.48420000
_cell_angle_alpha   90.00000000
_cell_angle_beta   90.00000000
_cell_angle_gamma   90.00000000
_symmetry_Int_Tables_number   1
_chemical_formula_structural   NiH18(C10N3)2
_chemical_formula_sum   'Ni8 H144 C160 N48'
_cell_volume   4488.81972782
_cell_formula_units_Z   8
loop_
 _symmetry_equiv_pos_site_id
 _symmetry_equiv_pos_as_xyz
  1  'x, y, z'
loop_
 _atom_site_type_symbol
 _atom_site_label
 _atom_site_symmetry_multiplicity
 _atom_site_fract_x
 _atom_site_fract_y
 _atom_site_fract_z
 _atom_site_occupancy
 _atom_site_charge
  Ni  Ni1  1  0.516600  0.931500  0.837100  1.0  0.1017
  Ni  Ni2  1  0.991900  0.433800  0.935400  1.0  0.0156
  Ni  Ni3  1  0.983400  0.931500  0.337100  1.0  0.1039
  Ni  Ni4  1  0.508100  0.433800  0.435400  1.0  0.0125
  Ni  Ni5  1  0.483400  0.068500  0.337100  1.0  0.1061
  Ni  Ni6  1  0.008100  0.566200  0.435400  1.0  0.0148
  Ni  Ni7  1  0.016600  0.068500  0.837100  1.0  0.104
  Ni  Ni8  1  0.491900  0.566200  0.935400  1.0  0.018
  H  H9  1  0.179300  0.090100  0.648100  1.0  0.2812
  H  H10  1  0.703000  0.257300  0.692700  1.0  0.2799
  H  H11  1  0.798300  0.752800  0.086200  1.0  0.2911
  H  H12  1  0.311500  0.609800  0.134200  1.0  0.2868
  H  H13  1  0.972400  0.060900  0.473100  1.0  0.0691
  H  H14  1  0.050400  0.097400  0.578800  1.0  0.1188
  H  H15  1  0.245200  0.948700  0.513600  1.0  0.1255
  H  H16  1  0.160700  0.917500  0.408900  1.0  0.0663
  H  H17  1  0.400800  0.072000  0.806600  1.0  0.0761
  H  H18  1  0.291300  0.118500  0.729000  1.0  0.1189
  H  H19  1  0.293100  0.910300  0.617100  1.0  0.1224
  H  H20  1  0.406000  0.871200  0.697300  1.0  0.0641
  H  H21  1  0.544900  0.036600  0.699200  1.0  0.0669
  H  H22  1  0.608900  0.152400  0.662600  1.0  0.1326
  H  H23  1  0.721800  0.165900  0.872500  1.0  0.1215
  H  H24  1  0.654400  0.048700  0.901200  1.0  0.0676
  H  H25  1  0.804700  0.373800  0.945700  1.0  0.0505
  H  H26  1  0.702600  0.298200  0.881400  1.0  0.1246
  H  H27  1  0.857800  0.312600  0.694100  1.0  0.1268
  H  H28  1  0.954900  0.388500  0.763500  1.0  0.0665
  H  H29  1  0.708100  0.879500  0.834100  1.0  0.0503
  H  H30  1  0.806600  0.800800  0.897600  1.0  0.1232
  H  H31  1  0.646400  0.814600  0.082900  1.0  0.1247
  H  H32  1  0.552300  0.891900  0.012200  1.0  0.0643
  H  H33  1  0.851800  0.552200  0.870600  1.0  0.0652
  H  H34  1  0.783800  0.668500  0.902200  1.0  0.1206
  H  H35  1  0.885300  0.643200  0.115000  1.0  0.1244
  H  H36  1  0.950800  0.530000  0.075700  1.0  0.0683
  H  H37  1  0.094800  0.583600  0.968600  1.0  0.075
  H  H38  1  0.198400  0.634400  0.050800  1.0  0.1257
  H  H39  1  0.216100  0.420100  0.150600  1.0  0.1205
  H  H40  1  0.109800  0.377100  0.065900  1.0  0.0624
  H  H41  1  0.525300  0.562200  0.301800  1.0  0.07
  H  H42  1  0.447500  0.605800  0.197700  1.0  0.127
  H  H43  1  0.248100  0.460500  0.259600  1.0  0.1248
  H  H44  1  0.331500  0.424100  0.362900  1.0  0.0599
  H  H45  1  0.320700  0.090100  0.148100  1.0  0.2812
  H  H46  1  0.797000  0.257300  0.192700  1.0  0.2794
  H  H47  1  0.701700  0.752800  0.586200  1.0  0.2913
  H  H48  1  0.188500  0.609800  0.634200  1.0  0.2855
  H  H49  1  0.527600  0.060900  0.973100  1.0  0.0691
  H  H50  1  0.449600  0.097400  0.078800  1.0  0.1187
  H  H51  1  0.254800  0.948700  0.013600  1.0  0.125
  H  H52  1  0.339300  0.917500  0.908900  1.0  0.066
  H  H53  1  0.099200  0.072000  0.306600  1.0  0.0763
  H  H54  1  0.208700  0.118500  0.229000  1.0  0.1184
  H  H55  1  0.206900  0.910300  0.117100  1.0  0.1228
  H  H56  1  0.094000  0.871200  0.197300  1.0  0.0636
  H  H57  1  0.955100  0.036600  0.199200  1.0  0.0672
  H  H58  1  0.891100  0.152400  0.162600  1.0  0.1325
  H  H59  1  0.778200  0.165900  0.372500  1.0  0.1217
  H  H60  1  0.845600  0.048700  0.401200  1.0  0.0705
  H  H61  1  0.695300  0.373800  0.445700  1.0  0.0507
  H  H62  1  0.797400  0.298200  0.381400  1.0  0.1248
  H  H63  1  0.642200  0.312600  0.194100  1.0  0.1271
  H  H64  1  0.545100  0.388500  0.263500  1.0  0.066
  H  H65  1  0.791900  0.879500  0.334100  1.0  0.0486
  H  H66  1  0.693400  0.800800  0.397600  1.0  0.1222
  H  H67  1  0.853600  0.814600  0.582900  1.0  0.1246
  H  H68  1  0.947700  0.891900  0.512200  1.0  0.0642
  H  H69  1  0.648200  0.552200  0.370600  1.0  0.0629
  H  H70  1  0.716200  0.668500  0.402200  1.0  0.1203
  H  H71  1  0.614700  0.643200  0.615000  1.0  0.1244
  H  H72  1  0.549200  0.530000  0.575700  1.0  0.0679
  H  H73  1  0.405200  0.583600  0.468600  1.0  0.0748
  H  H74  1  0.301600  0.634400  0.550800  1.0  0.1257
  H  H75  1  0.283900  0.420100  0.650600  1.0  0.1201
  H  H76  1  0.390200  0.377100  0.565900  1.0  0.0622
  H  H77  1  0.974700  0.562200  0.801800  1.0  0.0683
  H  H78  1  0.052500  0.605800  0.697700  1.0  0.127
  H  H79  1  0.251900  0.460500  0.759600  1.0  0.1251
  H  H80  1  0.168500  0.424100  0.862900  1.0  0.0602
  H  H81  1  0.820700  0.909900  0.148100  1.0  0.2822
  H  H82  1  0.297000  0.742700  0.192700  1.0  0.2786
  H  H83  1  0.201700  0.247200  0.586200  1.0  0.291
  H  H84  1  0.688500  0.390200  0.634200  1.0  0.2851
  H  H85  1  0.027600  0.939100  0.973100  1.0  0.0692
  H  H86  1  0.949600  0.902600  0.078800  1.0  0.1185
  H  H87  1  0.754800  0.051300  0.013600  1.0  0.1247
  H  H88  1  0.839300  0.082500  0.908900  1.0  0.0649
  H  H89  1  0.599200  0.928000  0.306600  1.0  0.0762
  H  H90  1  0.708700  0.881500  0.229000  1.0  0.1185
  H  H91  1  0.706900  0.089700  0.117100  1.0  0.1234
  H  H92  1  0.594000  0.128800  0.197300  1.0  0.0642
  H  H93  1  0.455100  0.963400  0.199200  1.0  0.067
  H  H94  1  0.391100  0.847600  0.162600  1.0  0.1324
  H  H95  1  0.278200  0.834100  0.372500  1.0  0.1214
  H  H96  1  0.345600  0.951300  0.401200  1.0  0.0712
  H  H97  1  0.195300  0.626200  0.445700  1.0  0.0517
  H  H98  1  0.297400  0.701800  0.381400  1.0  0.1247
  H  H99  1  0.142200  0.687400  0.194100  1.0  0.1272
  H  H100  1  0.045100  0.611500  0.263500  1.0  0.0663
  H  H101  1  0.291900  0.120500  0.334100  1.0  0.0508
  H  H102  1  0.193400  0.199200  0.397600  1.0  0.122
  H  H103  1  0.353600  0.185400  0.582900  1.0  0.1248
  H  H104  1  0.447700  0.108100  0.512200  1.0  0.0645
  H  H105  1  0.148200  0.447800  0.370600  1.0  0.0644
  H  H106  1  0.216200  0.331500  0.402200  1.0  0.1201
  H  H107  1  0.114700  0.356800  0.615000  1.0  0.1245
  H  H108  1  0.049200  0.470000  0.575700  1.0  0.0674
  H  H109  1  0.905200  0.416400  0.468600  1.0  0.0744
  H  H110  1  0.801600  0.365600  0.550800  1.0  0.1252
  H  H111  1  0.783900  0.579900  0.650600  1.0  0.1203
  H  H112  1  0.890200  0.622900  0.565900  1.0  0.0628
  H  H113  1  0.474700  0.437800  0.801800  1.0  0.0678
  H  H114  1  0.552500  0.394200  0.697700  1.0  0.1267
  H  H115  1  0.751900  0.539500  0.759600  1.0  0.125
  H  H116  1  0.668500  0.575900  0.862900  1.0  0.0591
  H  H117  1  0.679300  0.909900  0.648100  1.0  0.2818
  H  H118  1  0.203000  0.742700  0.692700  1.0  0.2788
  H  H119  1  0.298300  0.247200  0.086200  1.0  0.2907
  H  H120  1  0.811500  0.390200  0.134200  1.0  0.2853
  H  H121  1  0.472400  0.939100  0.473100  1.0  0.0691
  H  H122  1  0.550400  0.902600  0.578800  1.0  0.1182
  H  H123  1  0.745200  0.051300  0.513600  1.0  0.1252
  H  H124  1  0.660700  0.082500  0.408900  1.0  0.065
  H  H125  1  0.900800  0.928000  0.806600  1.0  0.076
  H  H126  1  0.791300  0.881500  0.729000  1.0  0.119
  H  H127  1  0.793100  0.089700  0.617100  1.0  0.1234
  H  H128  1  0.906000  0.128800  0.697300  1.0  0.0645
  H  H129  1  0.044900  0.963400  0.699200  1.0  0.0668
  H  H130  1  0.108900  0.847600  0.662600  1.0  0.1328
  H  H131  1  0.221800  0.834100  0.872500  1.0  0.1214
  H  H132  1  0.154400  0.951300  0.901200  1.0  0.0684
  H  H133  1  0.304700  0.626200  0.945700  1.0  0.0511
  H  H134  1  0.202600  0.701800  0.881400  1.0  0.1245
  H  H135  1  0.357800  0.687400  0.694100  1.0  0.1269
  H  H136  1  0.454900  0.611500  0.763500  1.0  0.0666
  H  H137  1  0.208100  0.120500  0.834100  1.0  0.0527
  H  H138  1  0.306600  0.199200  0.897600  1.0  0.123
  H  H139  1  0.146400  0.185400  0.082900  1.0  0.1248
  H  H140  1  0.052300  0.108100  0.012200  1.0  0.0646
  H  H141  1  0.351800  0.447800  0.870600  1.0  0.0658
  H  H142  1  0.283800  0.331500  0.902200  1.0  0.1202
  H  H143  1  0.385300  0.356800  0.115000  1.0  0.1241
  H  H144  1  0.450800  0.470000  0.075700  1.0  0.0679
  H  H145  1  0.594800  0.416400  0.968600  1.0  0.0744
  H  H146  1  0.698400  0.365600  0.050800  1.0  0.1253
  H  H147  1  0.716100  0.579900  0.150600  1.0  0.1208
  H  H148  1  0.609800  0.622900  0.065900  1.0  0.063
  H  H149  1  0.025300  0.437800  0.301800  1.0  0.069
  H  H150  1  0.947500  0.394200  0.197700  1.0  0.1268
  H  H151  1  0.748100  0.539500  0.259600  1.0  0.1246
  H  H152  1  0.831500  0.575900  0.362900  1.0  0.0592
  C  C153  1  0.027200  0.037500  0.481700  1.0  0.1348
  C  C154  1  0.073700  0.059900  0.545800  1.0  -0.3164
  C  C155  1  0.157400  0.025500  0.561500  1.0  0.2553
  C  C156  1  0.189800  0.971700  0.507300  1.0  -0.2922
  C  C157  1  0.137800  0.953100  0.444100  1.0  0.1386
  C  C158  1  0.378800  0.039200  0.768600  1.0  0.1345
  C  C159  1  0.312100  0.067400  0.722400  1.0  -0.294
  C  C160  1  0.275100  0.018900  0.665000  1.0  0.2429
  C  C161  1  0.313100  0.943900  0.655400  1.0  -0.2738
  C  C162  1  0.381400  0.920800  0.704500  1.0  0.1296
  C  C163  1  0.580100  0.063100  0.734400  1.0  0.1324
  C  C164  1  0.618600  0.133000  0.711600  1.0  -0.3141
  C  C165  1  0.673300  0.174900  0.763700  1.0  0.2632
  C  C166  1  0.686200  0.141300  0.836400  1.0  -0.2922
  C  C167  1  0.644400  0.070400  0.853100  1.0  0.144
  C  C168  1  0.816000  0.360600  0.895100  1.0  0.1333
  C  C169  1  0.754200  0.314300  0.856900  1.0  -0.291
  C  C170  1  0.770600  0.292400  0.781200  1.0  0.241
  C  C171  1  0.846600  0.323100  0.745400  1.0  -0.2965
  C  C172  1  0.904600  0.369100  0.787800  1.0  0.1449
  C  C173  1  0.694600  0.864400  0.883800  1.0  0.1465
  C  C174  1  0.754600  0.816900  0.921500  1.0  -0.2782
  C  C175  1  0.735200  0.793200  0.997600  1.0  0.2399
  C  C176  1  0.659100  0.825000  0.031900  1.0  -0.3036
  C  C177  1  0.602900  0.872000  0.988700  1.0  0.1374
  C  C178  1  0.860000  0.571700  0.919700  1.0  0.1451
  C  C179  1  0.818000  0.642100  0.938300  1.0  -0.3047
  C  C180  1  0.828300  0.672800  0.012800  1.0  0.2558
  C  C181  1  0.878700  0.627000  0.064600  1.0  -0.3161
  C  C182  1  0.917900  0.558500  0.040300  1.0  0.1446
  C  C183  1  0.119600  0.550700  0.005300  1.0  0.1419
  C  C184  1  0.182800  0.581600  0.054100  1.0  -0.2983
  C  C185  1  0.223600  0.532400  0.108900  1.0  0.2516
  C  C186  1  0.193400  0.454200  0.113800  1.0  -0.2878
  C  C187  1  0.128900  0.429000  0.062600  1.0  0.1364
  C  C188  1  0.469400  0.541200  0.292800  1.0  0.1314
  C  C189  1  0.423000  0.567800  0.229600  1.0  -0.2945
  C  C190  1  0.337900  0.536600  0.213800  1.0  0.2531
  C  C191  1  0.304300  0.481800  0.266300  1.0  -0.2942
  C  C192  1  0.355700  0.459700  0.328400  1.0  0.1428
  C  C193  1  0.472800  0.037500  0.981700  1.0  0.1342
  C  C194  1  0.426300  0.059900  0.045800  1.0  -0.314
  C  C195  1  0.342600  0.025500  0.061500  1.0  0.2526
  C  C196  1  0.310200  0.971700  0.007300  1.0  -0.2933
  C  C197  1  0.362200  0.953100  0.944100  1.0  0.14
  C  C198  1  0.121200  0.039200  0.268600  1.0  0.1343
  C  C199  1  0.187900  0.067400  0.222400  1.0  -0.2932
  C  C200  1  0.224900  0.018900  0.165000  1.0  0.2474
  C  C201  1  0.186900  0.943900  0.155400  1.0  -0.2687
  C  C202  1  0.118600  0.920800  0.204500  1.0  0.1276
  C  C203  1  0.919900  0.063100  0.234400  1.0  0.1319
  C  C204  1  0.881400  0.133000  0.211600  1.0  -0.3137
  C  C205  1  0.826700  0.174900  0.263700  1.0  0.2635
  C  C206  1  0.813800  0.141300  0.336400  1.0  -0.2918
  C  C207  1  0.855600  0.070400  0.353100  1.0  0.1442
  C  C208  1  0.684000  0.360600  0.395100  1.0  0.1302
  C  C209  1  0.745800  0.314300  0.356900  1.0  -0.2909
  C  C210  1  0.729400  0.292400  0.281200  1.0  0.2402
  C  C211  1  0.653400  0.323100  0.245400  1.0  -0.3007
  C  C212  1  0.595400  0.369100  0.287800  1.0  0.1462
  C  C213  1  0.805400  0.864400  0.383800  1.0  0.146
  C  C214  1  0.745400  0.816900  0.421500  1.0  -0.277
  C  C215  1  0.764800  0.793200  0.497600  1.0  0.239
  C  C216  1  0.840900  0.825000  0.531900  1.0  -0.2979
  C  C217  1  0.897100  0.872000  0.488700  1.0  0.1364
  C  C218  1  0.640000  0.571700  0.419700  1.0  0.1457
  C  C219  1  0.682000  0.642100  0.438300  1.0  -0.3058
  C  C220  1  0.671700  0.672800  0.512800  1.0  0.2586
  C  C221  1  0.621300  0.627000  0.564600  1.0  -0.3167
  C  C222  1  0.582100  0.558500  0.540300  1.0  0.1452
  C  C223  1  0.380400  0.550700  0.505300  1.0  0.1422
  C  C224  1  0.317200  0.581600  0.554100  1.0  -0.3008
  C  C225  1  0.276400  0.532400  0.608900  1.0  0.2511
  C  C226  1  0.306600  0.454200  0.613800  1.0  -0.2904
  C  C227  1  0.371100  0.429000  0.562600  1.0  0.1384
  C  C228  1  0.030600  0.541200  0.792800  1.0  0.1341
  C  C229  1  0.077000  0.567800  0.729600  1.0  -0.2958
  C  C230  1  0.162100  0.536600  0.713800  1.0  0.2576
  C  C231  1  0.195700  0.481800  0.766300  1.0  -0.2915
  C  C232  1  0.144300  0.459700  0.828400  1.0  0.1426
  C  C233  1  0.972800  0.962500  0.981700  1.0  0.1346
  C  C234  1  0.926300  0.940100  0.045800  1.0  -0.3114
  C  C235  1  0.842600  0.974500  0.061500  1.0  0.2555
  C  C236  1  0.810200  0.028300  0.007300  1.0  -0.2906
  C  C237  1  0.862200  0.046900  0.944100  1.0  0.142
  C  C238  1  0.621200  0.960800  0.268600  1.0  0.1339
  C  C239  1  0.687900  0.932600  0.222400  1.0  -0.2865
  C  C240  1  0.724900  0.981100  0.165000  1.0  0.2472
  C  C241  1  0.686900  0.056100  0.155400  1.0  -0.2727
  C  C242  1  0.618600  0.079200  0.204500  1.0  0.1286
  C  C243  1  0.419900  0.936900  0.234400  1.0  0.1321
  C  C244  1  0.381400  0.867000  0.211600  1.0  -0.3124
  C  C245  1  0.326700  0.825100  0.263700  1.0  0.2632
  C  C246  1  0.313800  0.858700  0.336400  1.0  -0.2917
  C  C247  1  0.355600  0.929600  0.353100  1.0  0.1445
  C  C248  1  0.184000  0.639400  0.395100  1.0  0.1297
  C  C249  1  0.245800  0.685700  0.356900  1.0  -0.2881
  C  C250  1  0.229400  0.707600  0.281200  1.0  0.24
  C  C251  1  0.153400  0.676900  0.245400  1.0  -0.3013
  C  C252  1  0.095400  0.630900  0.287800  1.0  0.1464
  C  C253  1  0.305400  0.135600  0.383800  1.0  0.147
  C  C254  1  0.245400  0.183100  0.421500  1.0  -0.2773
  C  C255  1  0.264800  0.206800  0.497600  1.0  0.239
  C  C256  1  0.340900  0.175000  0.531900  1.0  -0.3021
  C  C257  1  0.397100  0.128000  0.488700  1.0  0.1371
  C  C258  1  0.140000  0.428300  0.419700  1.0  0.1457
  C  C259  1  0.182000  0.357900  0.438300  1.0  -0.3051
  C  C260  1  0.171700  0.327200  0.512800  1.0  0.2588
  C  C261  1  0.121300  0.373000  0.564600  1.0  -0.3165
  C  C262  1  0.082100  0.441500  0.540300  1.0  0.1455
  C  C263  1  0.880400  0.449300  0.505300  1.0  0.1419
  C  C264  1  0.817200  0.418400  0.554100  1.0  -0.2983
  C  C265  1  0.776400  0.467600  0.608900  1.0  0.2517
  C  C266  1  0.806600  0.545800  0.613800  1.0  -0.2901
  C  C267  1  0.871100  0.571000  0.562600  1.0  0.1396
  C  C268  1  0.530600  0.458800  0.792800  1.0  0.1338
  C  C269  1  0.577000  0.432200  0.729600  1.0  -0.2954
  C  C270  1  0.662100  0.463400  0.713800  1.0  0.2577
  C  C271  1  0.695700  0.518200  0.766300  1.0  -0.2906
  C  C272  1  0.644300  0.540300  0.828400  1.0  0.1422
  C  C273  1  0.527200  0.962500  0.481700  1.0  0.1357
  C  C274  1  0.573700  0.940100  0.545800  1.0  -0.314
  C  C275  1  0.657400  0.974500  0.561500  1.0  0.2554
  C  C276  1  0.689800  0.028300  0.507300  1.0  -0.2918
  C  C277  1  0.637800  0.046900  0.444100  1.0  0.1385
  C  C278  1  0.878800  0.960800  0.768600  1.0  0.134
  C  C279  1  0.812100  0.932600  0.722400  1.0  -0.288
  C  C280  1  0.775100  0.981100  0.665000  1.0  0.247
  C  C281  1  0.813100  0.056100  0.655400  1.0  -0.2761
  C  C282  1  0.881400  0.079200  0.704500  1.0  0.1294
  C  C283  1  0.080100  0.936900  0.734400  1.0  0.133
  C  C284  1  0.118600  0.867000  0.711600  1.0  -0.3142
  C  C285  1  0.173300  0.825100  0.763700  1.0  0.2627
  C  C286  1  0.186200  0.858700  0.836400  1.0  -0.2921
  C  C287  1  0.144400  0.929600  0.853100  1.0  0.1442
  C  C288  1  0.316000  0.639400  0.895100  1.0  0.1342
  C  C289  1  0.254200  0.685700  0.856900  1.0  -0.2881
  C  C290  1  0.270600  0.707600  0.781200  1.0  0.2399
  C  C291  1  0.346600  0.676900  0.745400  1.0  -0.297
  C  C292  1  0.404600  0.630900  0.787800  1.0  0.1455
  C  C293  1  0.194600  0.135600  0.883800  1.0  0.1478
  C  C294  1  0.254600  0.183100  0.921500  1.0  -0.2784
  C  C295  1  0.235200  0.206800  0.997600  1.0  0.2399
  C  C296  1  0.159100  0.175000  0.031900  1.0  -0.3075
  C  C297  1  0.102900  0.128000  0.988700  1.0  0.1374
  C  C298  1  0.360000  0.428300  0.919700  1.0  0.145
  C  C299  1  0.318000  0.357900  0.938300  1.0  -0.3038
  C  C300  1  0.328300  0.327200  0.012800  1.0  0.2544
  C  C301  1  0.378700  0.373000  0.064600  1.0  -0.3155
  C  C302  1  0.417900  0.441500  0.040300  1.0  0.1451
  C  C303  1  0.619600  0.449300  0.005300  1.0  0.1398
  C  C304  1  0.682800  0.418400  0.054100  1.0  -0.296
  C  C305  1  0.723600  0.467600  0.108900  1.0  0.252
  C  C306  1  0.693400  0.545800  0.113800  1.0  -0.2881
  C  C307  1  0.628900  0.571000  0.062600  1.0  0.1363
  C  C308  1  0.969400  0.458800  0.292800  1.0  0.1317
  C  C309  1  0.923000  0.432200  0.229600  1.0  -0.293
  C  C310  1  0.837900  0.463400  0.213800  1.0  0.2558
  C  C311  1  0.804300  0.518200  0.266300  1.0  -0.2926
  C  C312  1  0.855700  0.540300  0.328400  1.0  0.1434
  N  N313  1  0.056000  0.983400  0.429900  1.0  -0.2805
  N  N314  1  0.201500  0.049000  0.626900  1.0  -0.3691
  N  N315  1  0.414200  0.965900  0.761800  1.0  -0.2843
  N  N316  1  0.590300  0.030600  0.805000  1.0  -0.2924
  N  N317  1  0.713700  0.243200  0.739000  1.0  -0.3897
  N  N318  1  0.892100  0.387500  0.862600  1.0  -0.2753
  N  N319  1  0.617200  0.890700  0.914100  1.0  -0.2917
  N  N320  1  0.788900  0.741000  0.039100  1.0  -0.39
  N  N321  1  0.911700  0.529700  0.967500  1.0  -0.287
  N  N322  1  0.092100  0.475000  0.008200  1.0  -0.2676
  N  N323  1  0.293300  0.564900  0.150500  1.0  -0.3754
  N  N324  1  0.438400  0.486200  0.342300  1.0  -0.2627
  N  N325  1  0.444000  0.983400  0.929900  1.0  -0.2778
  N  N326  1  0.298500  0.049000  0.126900  1.0  -0.3688
  N  N327  1  0.085800  0.965900  0.261800  1.0  -0.2859
  N  N328  1  0.909700  0.030600  0.305000  1.0  -0.2919
  N  N329  1  0.786300  0.243200  0.239000  1.0  -0.3894
  N  N330  1  0.607900  0.387500  0.362600  1.0  -0.2764
  N  N331  1  0.882800  0.890700  0.414100  1.0  -0.2913
  N  N332  1  0.711100  0.741000  0.539100  1.0  -0.391
  N  N333  1  0.588300  0.529700  0.467500  1.0  -0.2904
  N  N334  1  0.407900  0.475000  0.508200  1.0  -0.2666
  N  N335  1  0.206700  0.564900  0.650500  1.0  -0.3752
  N  N336  1  0.061600  0.486200  0.842300  1.0  -0.2655
  N  N337  1  0.944000  0.016600  0.929900  1.0  -0.2772
  N  N338  1  0.798500  0.951000  0.126900  1.0  -0.3693
  N  N339  1  0.585800  0.034100  0.261800  1.0  -0.2867
  N  N340  1  0.409700  0.969400  0.305000  1.0  -0.2923
  N  N341  1  0.286300  0.756800  0.239000  1.0  -0.3889
  N  N342  1  0.107900  0.612500  0.362600  1.0  -0.2768
  N  N343  1  0.382800  0.109300  0.414100  1.0  -0.2915
  N  N344  1  0.211100  0.259000  0.539100  1.0  -0.3899
  N  N345  1  0.088300  0.470300  0.467500  1.0  -0.2917
  N  N346  1  0.907900  0.525000  0.508200  1.0  -0.2676
  N  N347  1  0.706700  0.435100  0.650500  1.0  -0.3764
  N  N348  1  0.561600  0.513800  0.842300  1.0  -0.2645
  N  N349  1  0.556000  0.016600  0.429900  1.0  -0.2795
  N  N350  1  0.701500  0.951000  0.626900  1.0  -0.3694
  N  N351  1  0.914200  0.034100  0.761800  1.0  -0.2856
  N  N352  1  0.090300  0.969400  0.805000  1.0  -0.2918
  N  N353  1  0.213700  0.756800  0.739000  1.0  -0.3893
  N  N354  1  0.392100  0.612500  0.862600  1.0  -0.2751
  N  N355  1  0.117200  0.109300  0.914100  1.0  -0.2921
  N  N356  1  0.288900  0.259000  0.039100  1.0  -0.3896
  N  N357  1  0.411700  0.470300  0.967500  1.0  -0.2889
  N  N358  1  0.592100  0.525000  0.008200  1.0  -0.2678
  N  N359  1  0.793300  0.435100  0.150500  1.0  -0.3762
  N  N360  1  0.938400  0.513800  0.342300  1.0  -0.2621
