# generated using pymatgen
data_Ba7C24(NO18)2
_symmetry_space_group_name_H-M   'P 1'
_cell_length_a   7.27330000
_cell_length_b   10.60120000
_cell_length_c   17.93010000
_cell_angle_alpha   107.19500000
_cell_angle_beta   100.87100000
_cell_angle_gamma   90.00000000
_symmetry_Int_Tables_number   1
_chemical_formula_structural   Ba7C24(NO18)2
_chemical_formula_sum   'Ba7 C24 N2 O36'
_cell_volume   1294.72675058
_cell_formula_units_Z   1
loop_
 _symmetry_equiv_pos_site_id
 _symmetry_equiv_pos_as_xyz
  1  'x, y, z'
loop_
 _atom_site_type_symbol
 _atom_site_label
 _atom_site_symmetry_multiplicity
 _atom_site_fract_x
 _atom_site_fract_y
 _atom_site_fract_z
 _atom_site_occupancy
 _atom_site_charge
  Ba  Ba1  1  0.866380  0.256900  0.759060  1.0  1.5719
  Ba  Ba2  1  0.374020  0.005790  0.761640  1.0  1.6066
  Ba  Ba3  1  0.015770  0.016420  0.533040  1.0  1.5135
  Ba  Ba4  1  0.133620  0.497840  0.240940  1.0  1.5717
  Ba  Ba5  1  0.625980  0.244150  0.238360  1.0  1.607
  Ba  Ba6  1  0.984230  0.483380  0.466960  1.0  1.5137
  Ba  Ba7  1  0.000000  0.630620  0.000000  1.0  1.6679
  C  C8  1  0.123900  0.096600  0.899800  1.0  0.7215
  C  C9  1  0.043100  0.137200  0.972200  1.0  -0.1037
  C  C10  1  0.330200  0.269700  0.694200  1.0  0.7835
  C  C11  1  0.324100  0.402100  0.682200  1.0  -0.1315
  C  C12  1  0.311100  0.509100  0.674200  1.0  -0.1072
  C  C13  1  0.304300  0.642000  0.662600  1.0  0.7432
  C  C14  1  0.854800  0.926800  0.699600  1.0  0.7801
  C  C15  1  0.842400  0.786000  0.686800  1.0  -0.1068
  C  C16  1  0.833300  0.671100  0.676600  1.0  -0.098
  C  C17  1  0.837900  0.527900  0.663800  1.0  0.7162
  C  C18  1  0.663700  0.320500  0.913000  1.0  0.7886
  C  C19  1  0.544100  0.350100  0.974200  1.0  -0.1241
  C  C20  1  0.876100  0.196800  0.100200  1.0  0.7222
  C  C21  1  0.956900  0.165000  0.027800  1.0  -0.1049
  C  C22  1  0.669800  0.575500  0.305800  1.0  0.784
  C  C23  1  0.675900  0.719900  0.317800  1.0  -0.1312
  C  C24  1  0.688900  0.834900  0.325800  1.0  -0.1077
  C  C25  1  0.695700  0.979400  0.337400  1.0  0.7429
  C  C26  1  0.145200  0.227200  0.300400  1.0  0.7807
  C  C27  1  0.157600  0.099200  0.313200  1.0  -0.107
  C  C28  1  0.166700  0.994500  0.323400  1.0  -0.0991
  C  C29  1  0.162100  0.864100  0.336200  1.0  0.7171
  C  C30  1  0.336300  0.407500  0.087000  1.0  0.7881
  C  C31  1  0.455900  0.375900  0.025800  1.0  -0.1238
  N  N32  1  0.731600  0.749100  0.499400  1.0  0.7749
  N  N33  1  0.268400  0.249700  0.500600  1.0  0.7746
  O  O34  1  0.134600  0.174800  0.861600  1.0  -0.6293
  O  O35  1  0.184900  0.980400  0.885800  1.0  -0.6201
  O  O36  1  0.487500  0.230000  0.713600  1.0  -0.6774
  O  O37  1  0.180400  0.206900  0.685400  1.0  -0.7384
  O  O38  1  0.241900  0.648900  0.597000  1.0  -0.5305
  O  O39  1  0.347400  0.732500  0.726600  1.0  -0.6317
  O  O40  1  0.989000  0.973500  0.683600  1.0  -0.7142
  O  O41  1  0.721500  0.991000  0.726200  1.0  -0.7159
  O  O42  1  0.837800  0.489200  0.723800  1.0  -0.629
  O  O43  1  0.836300  0.450500  0.593000  1.0  -0.5587
  O  O44  1  0.656600  0.859000  0.521600  1.0  -0.4244
  O  O45  1  0.903400  0.750900  0.500400  1.0  -0.5549
  O  O46  1  0.640400  0.642400  0.482200  1.0  -0.4075
  O  O47  1  0.642900  0.201800  0.867200  1.0  -0.7219
  O  O48  1  0.773200  0.407700  0.913600  1.0  -0.7125
  O  O49  1  0.760900  0.202600  0.590000  1.0  -0.2073
  O  O50  1  0.327000  0.891900  0.594200  1.0  -0.2528
  O  O51  1  0.833100  0.582900  0.125800  1.0  -0.4407
  O  O52  1  0.865400  0.313200  0.138400  1.0  -0.627
  O  O53  1  0.815100  0.094600  0.114200  1.0  -0.6233
  O  O54  1  0.512500  0.516400  0.286400  1.0  -0.6766
  O  O55  1  0.819600  0.521500  0.314600  1.0  -0.7401
  O  O56  1  0.758100  0.051900  0.403000  1.0  -0.5316
  O  O57  1  0.652600  0.005900  0.273400  1.0  -0.6314
  O  O58  1  0.011000  0.289900  0.316400  1.0  -0.7137
  O  O59  1  0.278500  0.264800  0.273800  1.0  -0.7144
  O  O60  1  0.162200  0.765400  0.276200  1.0  -0.6274
  O  O61  1  0.163700  0.857500  0.407000  1.0  -0.5661
  O  O62  1  0.343400  0.337400  0.478400  1.0  -0.4198
  O  O63  1  0.096600  0.250500  0.499600  1.0  -0.5549
  O  O64  1  0.359600  0.160200  0.517800  1.0  -0.403
  O  O65  1  0.357100  0.334600  0.132800  1.0  -0.7169
  O  O66  1  0.226800  0.494100  0.086400  1.0  -0.7091
  O  O67  1  0.239100  0.612600  0.410000  1.0  -0.2073
  O  O68  1  0.673000  0.297700  0.405800  1.0  -0.2547
  O  O69  1  0.166900  0.457100  0.874200  1.0  -0.4404
