# generated using pymatgen
data_CoPO4
_symmetry_space_group_name_H-M   'P 1'
_cell_length_a   10.01030000
_cell_length_b   9.98960000
_cell_length_c   12.85200000
_cell_angle_alpha   90.00000000
_cell_angle_beta   91.11300000
_cell_angle_gamma   90.00000000
_symmetry_Int_Tables_number   1
_chemical_formula_structural   CoPO4
_chemical_formula_sum   'Co10 P10 O40'
_cell_volume   1284.94329610
_cell_formula_units_Z   10
loop_
 _symmetry_equiv_pos_site_id
 _symmetry_equiv_pos_as_xyz
  1  'x, y, z'
loop_
 _atom_site_type_symbol
 _atom_site_label
 _atom_site_symmetry_multiplicity
 _atom_site_fract_x
 _atom_site_fract_y
 _atom_site_fract_z
 _atom_site_occupancy
 _atom_site_charge
  Co  Co1  1  0.371100  0.049400  0.546300  1.0  1.0536
  Co  Co2  1  0.118300  0.800900  0.549700  1.0  1.1172
  Co  Co3  1  0.128900  0.043400  0.956000  1.0  1.0589
  Co  Co4  1  0.376100  0.793100  0.946500  1.0  1.1138
  Co  Co5  1  0.251600  0.905300  0.249000  1.0  0.9779
  Co  Co6  1  0.628900  0.549400  0.453700  1.0  1.0594
  Co  Co7  1  0.881700  0.300900  0.450300  1.0  1.115
  Co  Co8  1  0.871100  0.543400  0.044000  1.0  1.0545
  Co  Co9  1  0.623900  0.293100  0.053500  1.0  1.1175
  Co  Co10  1  0.748400  0.405300  0.751000  1.0  0.9779
  P  P11  1  0.113000  0.762300  0.062000  1.0  1.874
  P  P12  1  0.396800  0.055000  0.074600  1.0  1.9746
  P  P13  1  0.101100  0.060900  0.421700  1.0  1.9575
  P  P14  1  0.246800  0.935600  0.750200  1.0  1.8374
  P  P15  1  0.392800  0.778000  0.438400  1.0  1.9633
  P  P16  1  0.887000  0.262300  0.938000  1.0  1.876
  P  P17  1  0.603200  0.555000  0.925400  1.0  1.9804
  P  P18  1  0.898900  0.560900  0.578300  1.0  1.9623
  P  P19  1  0.753200  0.435600  0.249800  1.0  1.8372
  P  P20  1  0.607200  0.278000  0.561600  1.0  1.9639
  O  O21  1  0.298900  0.738600  0.525100  1.0  -0.7166
  O  O22  1  0.332800  0.759600  0.332600  1.0  -0.6951
  O  O23  1  0.483400  0.175200  0.084600  1.0  -0.8193
  O  O24  1  0.125300  0.896100  0.679700  1.0  -0.6982
  O  O25  1  0.440600  0.966600  0.984700  1.0  -0.7276
  O  O26  1  0.198300  0.107400  0.508100  1.0  -0.7611
  O  O27  1  0.297200  0.814500  0.809800  1.0  -0.7097
  O  O28  1  0.104300  0.817300  0.171100  1.0  -0.6999
  O  O29  1  0.359800  0.992600  0.685100  1.0  -0.7165
  O  O30  1  0.259300  0.719600  0.045200  1.0  -0.7373
  O  O31  1  0.436500  0.923400  0.450900  1.0  -0.7411
  O  O32  1  0.409500  0.975800  0.174600  1.0  -0.7036
  O  O33  1  0.170400  0.056800  0.319100  1.0  -0.7223
  O  O34  1  0.200700  0.046000  0.822400  1.0  -0.7233
  O  O35  1  0.069300  0.867200  0.982400  1.0  -0.7352
  O  O36  1  0.053400  0.920700  0.443800  1.0  -0.7194
  O  O37  1  0.517000  0.691900  0.453200  1.0  -0.9133
  O  O38  1  0.990300  0.158900  0.410500  1.0  -0.8085
  O  O39  1  0.023000  0.643200  0.048500  1.0  -0.8524
  O  O40  1  0.253200  0.101800  0.059100  1.0  -0.7354
  O  O41  1  0.701100  0.238600  0.474900  1.0  -0.7155
  O  O42  1  0.667200  0.259600  0.667400  1.0  -0.6956
  O  O43  1  0.516600  0.675200  0.915400  1.0  -0.8197
  O  O44  1  0.874700  0.396100  0.320300  1.0  -0.7003
  O  O45  1  0.559400  0.466600  0.015300  1.0  -0.7258
  O  O46  1  0.801700  0.607400  0.491900  1.0  -0.7628
  O  O47  1  0.702800  0.314500  0.190200  1.0  -0.7097
  O  O48  1  0.895700  0.317300  0.828900  1.0  -0.6989
  O  O49  1  0.640200  0.492600  0.314900  1.0  -0.7167
  O  O50  1  0.740700  0.219600  0.954800  1.0  -0.7369
  O  O51  1  0.563500  0.423400  0.549100  1.0  -0.7402
  O  O52  1  0.590500  0.475800  0.825400  1.0  -0.7031
  O  O53  1  0.829600  0.556800  0.680900  1.0  -0.7229
  O  O54  1  0.799300  0.546000  0.177600  1.0  -0.7229
  O  O55  1  0.930700  0.367200  0.017600  1.0  -0.7373
  O  O56  1  0.946600  0.420700  0.556200  1.0  -0.7194
  O  O57  1  0.483000  0.191900  0.546800  1.0  -0.911
  O  O58  1  0.009700  0.658900  0.589500  1.0  -0.8088
  O  O59  1  0.977000  0.143200  0.951500  1.0  -0.8529
  O  O60  1  0.746800  0.601800  0.940900  1.0  -0.7356
