# generated using pymatgen
data_CoPO4
_symmetry_space_group_name_H-M   'P 1'
_cell_length_a   9.99370000
_cell_length_b   9.99370000
_cell_length_c   12.85190000
_cell_angle_alpha   90.00000000
_cell_angle_beta   90.00000000
_cell_angle_gamma   90.00000000
_symmetry_Int_Tables_number   1
_chemical_formula_structural   CoPO4
_chemical_formula_sum   'Co10 P10 O40'
_cell_volume   1283.57117069
_cell_formula_units_Z   10
loop_
 _symmetry_equiv_pos_site_id
 _symmetry_equiv_pos_as_xyz
  1  'x, y, z'
loop_
 _atom_site_type_symbol
 _atom_site_label
 _atom_site_symmetry_multiplicity
 _atom_site_fract_x
 _atom_site_fract_y
 _atom_site_fract_z
 _atom_site_occupancy
 _atom_site_charge
  Co  Co1  1  0.878900  0.126100  0.298100  1.0  1.1307
  Co  Co2  1  0.121100  0.873900  0.298100  1.0  1.126
  Co  Co3  1  0.126100  0.121100  0.701900  1.0  1.1255
  Co  Co4  1  0.873900  0.878900  0.701900  1.0  1.1303
  Co  Co5  1  0.621100  0.626100  0.201900  1.0  1.1255
  Co  Co6  1  0.378900  0.373900  0.201900  1.0  1.1308
  Co  Co7  1  0.373900  0.621100  0.798100  1.0  1.1306
  Co  Co8  1  0.626100  0.378900  0.798100  1.0  1.1261
  Co  Co9  1  0.000000  0.000000  0.000000  1.0  0.9526
  Co  Co10  1  0.500000  0.500000  0.500000  1.0  0.9526
  P  P11  1  0.850100  0.861400  0.178400  1.0  1.8464
  P  P12  1  0.149900  0.138600  0.178400  1.0  1.8516
  P  P13  1  0.861400  0.149900  0.821600  1.0  1.8477
  P  P14  1  0.138600  0.850100  0.821600  1.0  1.8501
  P  P15  1  0.649900  0.361400  0.321600  1.0  1.8639
  P  P16  1  0.350100  0.638600  0.321600  1.0  1.8466
  P  P17  1  0.638600  0.649900  0.678400  1.0  1.8628
  P  P18  1  0.361400  0.350100  0.678400  1.0  1.8482
  P  P19  1  0.000000  0.000000  0.500000  1.0  1.7962
  P  P20  1  0.500000  0.500000  0.000000  1.0  1.7962
  O  O21  1  0.727800  0.777600  0.173200  1.0  -0.8044
  O  O22  1  0.922700  0.847900  0.075700  1.0  -0.7095
  O  O23  1  0.809600  0.010100  0.193300  1.0  -0.7209
  O  O24  1  0.880000  0.042600  0.433700  1.0  -0.708
  O  O25  1  0.058100  0.185700  0.264200  1.0  -0.7209
  O  O26  1  0.272200  0.222400  0.173200  1.0  -0.8041
  O  O27  1  0.077300  0.152100  0.075700  1.0  -0.7095
  O  O28  1  0.190400  0.989900  0.193300  1.0  -0.7225
  O  O29  1  0.120000  0.957400  0.433700  1.0  -0.7095
  O  O30  1  0.941900  0.814300  0.264200  1.0  -0.7237
  O  O31  1  0.777600  0.272200  0.826800  1.0  -0.8077
  O  O32  1  0.847900  0.077300  0.924300  1.0  -0.7063
  O  O33  1  0.010100  0.190400  0.806700  1.0  -0.7213
  O  O34  1  0.042600  0.120000  0.566300  1.0  -0.7107
  O  O35  1  0.185700  0.941900  0.735800  1.0  -0.7211
  O  O36  1  0.222400  0.727800  0.826800  1.0  -0.8065
  O  O37  1  0.152100  0.922700  0.924300  1.0  -0.7069
  O  O38  1  0.989900  0.809600  0.806700  1.0  -0.7227
  O  O39  1  0.957400  0.880000  0.566300  1.0  -0.7113
  O  O40  1  0.814300  0.058100  0.735800  1.0  -0.7214
  O  O41  1  0.772200  0.277600  0.326800  1.0  -0.8042
  O  O42  1  0.577300  0.347900  0.424300  1.0  -0.7105
  O  O43  1  0.690400  0.510100  0.306700  1.0  -0.7231
  O  O44  1  0.620000  0.542600  0.066300  1.0  -0.7098
  O  O45  1  0.441900  0.685700  0.235800  1.0  -0.7215
  O  O46  1  0.227800  0.722400  0.326800  1.0  -0.804
  O  O47  1  0.422700  0.652100  0.424300  1.0  -0.7111
  O  O48  1  0.309600  0.489900  0.306700  1.0  -0.7213
  O  O49  1  0.380000  0.457400  0.066300  1.0  -0.7085
  O  O50  1  0.558100  0.314300  0.235800  1.0  -0.7225
  O  O51  1  0.722400  0.772200  0.673200  1.0  -0.8077
  O  O52  1  0.652100  0.577300  0.575700  1.0  -0.7051
  O  O53  1  0.489900  0.690400  0.693300  1.0  -0.7216
  O  O54  1  0.457400  0.620000  0.933700  1.0  -0.7116
  O  O55  1  0.314300  0.441900  0.764200  1.0  -0.7212
  O  O56  1  0.277600  0.227800  0.673200  1.0  -0.8071
  O  O57  1  0.347900  0.422700  0.575700  1.0  -0.7057
  O  O58  1  0.510100  0.309600  0.693300  1.0  -0.7225
  O  O59  1  0.542600  0.380000  0.933700  1.0  -0.7107
  O  O60  1  0.685700  0.558100  0.764200  1.0  -0.7216
