# generated using pymatgen
data_CoPO4
_symmetry_space_group_name_H-M   'P 1'
_cell_length_a   10.08730000
_cell_length_b   10.08730000
_cell_length_c   12.93580000
_cell_angle_alpha   90.00000000
_cell_angle_beta   90.00000000
_cell_angle_gamma   90.00000000
_symmetry_Int_Tables_number   1
_chemical_formula_structural   CoPO4
_chemical_formula_sum   'Co10 P10 O40'
_cell_volume   1316.26449428
_cell_formula_units_Z   10
loop_
 _symmetry_equiv_pos_site_id
 _symmetry_equiv_pos_as_xyz
  1  'x, y, z'
loop_
 _atom_site_type_symbol
 _atom_site_label
 _atom_site_symmetry_multiplicity
 _atom_site_fract_x
 _atom_site_fract_y
 _atom_site_fract_z
 _atom_site_occupancy
 _atom_site_charge
  Co  Co1  1  0.881600  0.132400  0.298900  1.0  1.1267
  Co  Co2  1  0.118400  0.867600  0.298900  1.0  1.1228
  Co  Co3  1  0.132400  0.118400  0.701100  1.0  1.1231
  Co  Co4  1  0.867600  0.881600  0.701100  1.0  1.1275
  Co  Co5  1  0.618400  0.632400  0.201100  1.0  1.1226
  Co  Co6  1  0.381600  0.367600  0.201100  1.0  1.1277
  Co  Co7  1  0.367600  0.618400  0.798900  1.0  1.1273
  Co  Co8  1  0.632400  0.381600  0.798900  1.0  1.1232
  Co  Co9  1  0.000000  0.000000  0.000000  1.0  0.9783
  Co  Co10  1  0.500000  0.500000  0.500000  1.0  0.9783
  P  P11  1  0.844600  0.867900  0.183900  1.0  1.8461
  P  P12  1  0.155400  0.132100  0.183900  1.0  1.8486
  P  P13  1  0.867900  0.155400  0.816100  1.0  1.8489
  P  P14  1  0.132100  0.844600  0.816100  1.0  1.8492
  P  P15  1  0.655400  0.367900  0.316100  1.0  1.8751
  P  P16  1  0.344600  0.632100  0.316100  1.0  1.8465
  P  P17  1  0.632100  0.655400  0.683900  1.0  1.8746
  P  P18  1  0.367900  0.344600  0.683900  1.0  1.8488
  P  P19  1  0.000000  0.000000  0.500000  1.0  1.7501
  P  P20  1  0.500000  0.500000  0.000000  1.0  1.7501
  O  O21  1  0.720800  0.784800  0.188700  1.0  -0.8132
  O  O22  1  0.906200  0.857900  0.076100  1.0  -0.6896
  O  O23  1  0.807500  0.012300  0.203400  1.0  -0.7128
  O  O24  1  0.889500  0.062900  0.434200  1.0  -0.7168
  O  O25  1  0.058400  0.181500  0.264700  1.0  -0.7242
  O  O26  1  0.279200  0.215200  0.188700  1.0  -0.8169
  O  O27  1  0.093800  0.142100  0.076100  1.0  -0.6908
  O  O28  1  0.192500  0.987700  0.203400  1.0  -0.7152
  O  O29  1  0.110500  0.937100  0.434200  1.0  -0.7175
  O  O30  1  0.941600  0.818500  0.264700  1.0  -0.7258
  O  O31  1  0.784800  0.279200  0.811300  1.0  -0.8192
  O  O32  1  0.857900  0.093800  0.923900  1.0  -0.6887
  O  O33  1  0.012300  0.192500  0.796600  1.0  -0.7129
  O  O34  1  0.062900  0.110500  0.565800  1.0  -0.7181
  O  O35  1  0.181500  0.941600  0.735300  1.0  -0.7227
  O  O36  1  0.215200  0.720800  0.811300  1.0  -0.8182
  O  O37  1  0.142100  0.906200  0.923900  1.0  -0.6875
  O  O38  1  0.987700  0.807500  0.796600  1.0  -0.7141
  O  O39  1  0.937100  0.889500  0.565800  1.0  -0.7187
  O  O40  1  0.818500  0.058400  0.735300  1.0  -0.7234
  O  O41  1  0.779200  0.284800  0.311300  1.0  -0.8172
  O  O42  1  0.593800  0.357900  0.423900  1.0  -0.691
  O  O43  1  0.692500  0.512300  0.296600  1.0  -0.7144
  O  O44  1  0.610500  0.562900  0.065800  1.0  -0.7184
  O  O45  1  0.441600  0.681500  0.235300  1.0  -0.7262
  O  O46  1  0.220800  0.715200  0.311300  1.0  -0.813
  O  O47  1  0.406200  0.642100  0.423900  1.0  -0.6912
  O  O48  1  0.307500  0.487700  0.296600  1.0  -0.7135
  O  O49  1  0.389500  0.437100  0.065800  1.0  -0.717
  O  O50  1  0.558400  0.318500  0.235300  1.0  -0.7258
  O  O51  1  0.715200  0.779200  0.688700  1.0  -0.8183
  O  O52  1  0.642100  0.593800  0.576100  1.0  -0.6875
  O  O53  1  0.487700  0.692500  0.703400  1.0  -0.7128
  O  O54  1  0.437100  0.610500  0.934200  1.0  -0.7181
  O  O55  1  0.318500  0.441600  0.764700  1.0  -0.7224
  O  O56  1  0.284800  0.220800  0.688700  1.0  -0.8192
  O  O57  1  0.357900  0.406200  0.576100  1.0  -0.6871
  O  O58  1  0.512300  0.307500  0.703400  1.0  -0.7151
  O  O59  1  0.562900  0.389500  0.934200  1.0  -0.7187
  O  O60  1  0.681500  0.558400  0.764700  1.0  -0.7224
