# generated using pymatgen
data_CoPO4
_symmetry_space_group_name_H-M   'P 1'
_cell_length_a   10.03170000
_cell_length_b   10.03170000
_cell_length_c   12.88370000
_cell_angle_alpha   90.00000000
_cell_angle_beta   90.00000000
_cell_angle_gamma   90.00000000
_symmetry_Int_Tables_number   1
_chemical_formula_structural   CoPO4
_chemical_formula_sum   'Co10 P10 O40'
_cell_volume   1296.55121250
_cell_formula_units_Z   10
loop_
 _symmetry_equiv_pos_site_id
 _symmetry_equiv_pos_as_xyz
  1  'x, y, z'
loop_
 _atom_site_type_symbol
 _atom_site_label
 _atom_site_symmetry_multiplicity
 _atom_site_fract_x
 _atom_site_fract_y
 _atom_site_fract_z
 _atom_site_occupancy
 _atom_site_charge
  Co  Co1  1  0.875900  0.124600  0.297800  1.0  1.1141
  Co  Co2  1  0.124100  0.875400  0.297800  1.0  1.1125
  Co  Co3  1  0.124600  0.124100  0.702200  1.0  1.1123
  Co  Co4  1  0.875400  0.875900  0.702200  1.0  1.1146
  Co  Co5  1  0.624100  0.624600  0.202200  1.0  1.1124
  Co  Co6  1  0.375900  0.375400  0.202200  1.0  1.1147
  Co  Co7  1  0.375400  0.624100  0.797800  1.0  1.1139
  Co  Co8  1  0.624600  0.375900  0.797800  1.0  1.1126
  Co  Co9  1  0.000000  0.000000  0.000000  1.0  0.9929
  Co  Co10  1  0.500000  0.500000  0.500000  1.0  0.9929
  P  P11  1  0.852000  0.859000  0.179900  1.0  1.785
  P  P12  1  0.148000  0.141000  0.179900  1.0  1.7882
  P  P13  1  0.859000  0.148000  0.820100  1.0  1.7871
  P  P14  1  0.141000  0.852000  0.820100  1.0  1.7884
  P  P15  1  0.648000  0.359000  0.320100  1.0  1.8006
  P  P16  1  0.352000  0.641000  0.320100  1.0  1.785
  P  P17  1  0.641000  0.648000  0.679900  1.0  1.7991
  P  P18  1  0.359000  0.352000  0.679900  1.0  1.788
  P  P19  1  0.000000  0.000000  0.500000  1.0  1.9339
  P  P20  1  0.500000  0.500000  0.000000  1.0  1.9339
  O  O21  1  0.730000  0.768400  0.183000  1.0  -0.8475
  O  O22  1  0.917600  0.848000  0.076200  1.0  -0.6563
  O  O23  1  0.809100  0.007500  0.196600  1.0  -0.7246
  O  O24  1  0.887500  0.048100  0.432900  1.0  -0.71
  O  O25  1  0.054600  0.185800  0.266400  1.0  -0.6908
  O  O26  1  0.270000  0.231600  0.183000  1.0  -0.8487
  O  O27  1  0.082400  0.152000  0.076200  1.0  -0.6566
  O  O28  1  0.190900  0.992500  0.196600  1.0  -0.7273
  O  O29  1  0.112500  0.951900  0.432900  1.0  -0.7097
  O  O30  1  0.945400  0.814200  0.266400  1.0  -0.6927
  O  O31  1  0.768400  0.270000  0.817000  1.0  -0.8528
  O  O32  1  0.848000  0.082400  0.923800  1.0  -0.6545
  O  O33  1  0.007500  0.190900  0.803400  1.0  -0.7267
  O  O34  1  0.048100  0.112500  0.567100  1.0  -0.7116
  O  O35  1  0.185800  0.945400  0.733600  1.0  -0.6908
  O  O36  1  0.231600  0.730000  0.817000  1.0  -0.8523
  O  O37  1  0.152000  0.917600  0.923800  1.0  -0.6534
  O  O38  1  0.992500  0.809100  0.803400  1.0  -0.7277
  O  O39  1  0.951900  0.887500  0.567100  1.0  -0.714
  O  O40  1  0.814200  0.054600  0.733600  1.0  -0.6915
  O  O41  1  0.770000  0.268400  0.317000  1.0  -0.849
  O  O42  1  0.582400  0.348000  0.423800  1.0  -0.6577
  O  O43  1  0.690900  0.507500  0.303400  1.0  -0.7264
  O  O44  1  0.612500  0.548100  0.067100  1.0  -0.7102
  O  O45  1  0.445400  0.685800  0.233600  1.0  -0.6916
  O  O46  1  0.230000  0.731600  0.317000  1.0  -0.8476
  O  O47  1  0.417600  0.652000  0.423800  1.0  -0.6586
  O  O48  1  0.309100  0.492500  0.303400  1.0  -0.7253
  O  O49  1  0.387500  0.451900  0.067100  1.0  -0.7105
  O  O50  1  0.554600  0.314200  0.233600  1.0  -0.6928
  O  O51  1  0.731600  0.770000  0.683000  1.0  -0.8522
  O  O52  1  0.652000  0.582400  0.576200  1.0  -0.6525
  O  O53  1  0.492500  0.690900  0.696600  1.0  -0.7272
  O  O54  1  0.451900  0.612500  0.932900  1.0  -0.7127
  O  O55  1  0.314200  0.445400  0.766400  1.0  -0.6908
  O  O56  1  0.268400  0.230000  0.683000  1.0  -0.8528
  O  O57  1  0.348000  0.417600  0.576200  1.0  -0.6528
  O  O58  1  0.507500  0.309100  0.696600  1.0  -0.7279
  O  O59  1  0.548100  0.387500  0.932900  1.0  -0.7128
  O  O60  1  0.685800  0.554600  0.766400  1.0  -0.691
