# generated using pymatgen
data_CuH11C17(NO2)2
_symmetry_space_group_name_H-M   'P 1'
_cell_length_a   6.68630000
_cell_length_b   33.34000000
_cell_length_c   11.32500000
_cell_angle_alpha   90.00000000
_cell_angle_beta   107.15600000
_cell_angle_gamma   90.00000000
_symmetry_Int_Tables_number   1
_chemical_formula_structural   CuH11C17(NO2)2
_chemical_formula_sum   'Cu4 H44 C68 N8 O16'
_cell_volume   2412.25216602
_cell_formula_units_Z   4
loop_
 _symmetry_equiv_pos_site_id
 _symmetry_equiv_pos_as_xyz
  1  'x, y, z'
loop_
 _atom_site_type_symbol
 _atom_site_label
 _atom_site_symmetry_multiplicity
 _atom_site_fract_x
 _atom_site_fract_y
 _atom_site_fract_z
 _atom_site_occupancy
 _atom_site_charge
  Cu  Cu1  1  0.500000  0.000000  0.500000  1.0  0.9343
  Cu  Cu2  1  0.000000  0.500000  0.000000  1.0  0.9343
  Cu  Cu3  1  0.000000  0.000000  0.500000  1.0  0.3937
  Cu  Cu4  1  0.500000  0.500000  0.000000  1.0  0.3937
  H  H5  1  0.158500  0.741400  0.658500  1.0  0.1101
  H  H6  1  0.738700  0.773900  0.853500  1.0  0.115
  H  H7  1  0.688300  0.703600  0.907400  1.0  0.1144
  H  H8  1  0.666800  0.818500  0.653100  1.0  0.1141
  H  H9  1  0.606000  0.885200  0.592000  1.0  0.0871
  H  H10  1  0.038800  0.881000  0.648600  1.0  0.0962
  H  H11  1  0.099200  0.814200  0.713600  1.0  0.1071
  H  H12  1  0.545300  0.637400  0.829100  1.0  0.0914
  H  H13  1  0.380200  0.578100  0.853600  1.0  0.1011
  H  H14  1  0.822500  0.636000  0.757200  1.0  0.0965
  H  H15  1  0.993900  0.696300  0.747200  1.0  0.1139
  H  H16  1  0.341500  0.241400  0.841500  1.0  0.1094
  H  H17  1  0.761300  0.273900  0.646500  1.0  0.1156
  H  H18  1  0.811700  0.203600  0.592600  1.0  0.1147
  H  H19  1  0.833200  0.318500  0.846900  1.0  0.1132
  H  H20  1  0.894000  0.385200  0.908000  1.0  0.0858
  H  H21  1  0.461200  0.381000  0.851400  1.0  0.0962
  H  H22  1  0.400800  0.314200  0.786400  1.0  0.1068
  H  H23  1  0.954700  0.137400  0.670900  1.0  0.0917
  H  H24  1  0.119800  0.078100  0.646400  1.0  0.1005
  H  H25  1  0.677500  0.136000  0.742800  1.0  0.0966
  H  H26  1  0.506100  0.196300  0.752800  1.0  0.1141
  H  H27  1  0.841500  0.258600  0.341500  1.0  0.1092
  H  H28  1  0.261300  0.226100  0.146500  1.0  0.1153
  H  H29  1  0.311700  0.296400  0.092600  1.0  0.1145
  H  H30  1  0.333200  0.181500  0.346900  1.0  0.113
  H  H31  1  0.394000  0.114800  0.408000  1.0  0.0856
  H  H32  1  0.961200  0.119000  0.351400  1.0  0.0959
  H  H33  1  0.900800  0.185800  0.286400  1.0  0.1065
  H  H34  1  0.454700  0.362600  0.170900  1.0  0.0915
  H  H35  1  0.619800  0.421900  0.146400  1.0  0.1007
  H  H36  1  0.177500  0.364000  0.242800  1.0  0.0965
  H  H37  1  0.006100  0.303700  0.252800  1.0  0.1127
  H  H38  1  0.658500  0.758600  0.158500  1.0  0.1102
  H  H39  1  0.238700  0.726100  0.353500  1.0  0.1152
  H  H40  1  0.188300  0.796400  0.407400  1.0  0.1149
  H  H41  1  0.166800  0.681500  0.153100  1.0  0.1139
  H  H42  1  0.106000  0.614800  0.092000  1.0  0.0863
  H  H43  1  0.538800  0.619000  0.148600  1.0  0.0962
  H  H44  1  0.599200  0.685800  0.213600  1.0  0.107
  H  H45  1  0.045300  0.862600  0.329100  1.0  0.0911
  H  H46  1  0.880200  0.921900  0.353600  1.0  0.101
  H  H47  1  0.322500  0.864000  0.257200  1.0  0.0967
  H  H48  1  0.493900  0.803700  0.247200  1.0  0.1135
  C  C49  1  0.296300  0.740660  0.714000  1.0  0.0764
  C  C50  1  0.615700  0.758340  0.821600  1.0  -0.0739
  C  C51  1  0.588900  0.720120  0.851000  1.0  -0.0966
  C  C52  1  0.391600  0.810930  0.691000  1.0  0.1452
  C  C53  1  0.540400  0.831300  0.653900  1.0  -0.2111
  C  C54  1  0.503700  0.870780  0.617700  1.0  0.0008
  C  C55  1  0.319500  0.889580  0.618300  1.0  -0.1446
  C  C56  1  0.167700  0.868410  0.651500  1.0  -0.0398
  C  C57  1  0.202400  0.828820  0.689300  1.0  -0.1792
  C  C58  1  0.288300  0.933250  0.582300  1.0  0.7157
  C  C59  1  0.288600  0.672010  0.791400  1.0  0.1596
  C  C60  1  0.399000  0.637320  0.818700  1.0  -0.1499
  C  C61  1  0.300600  0.601960  0.831400  1.0  -0.0576
  C  C62  1  0.085600  0.601110  0.811800  1.0  -0.1635
  C  C63  1  0.970700  0.636490  0.776100  1.0  -0.0182
  C  C64  1  0.071300  0.672060  0.768200  1.0  -0.1766
  C  C65  1  0.977000  0.564260  0.837700  1.0  0.7061
  C  C66  1  0.203700  0.240660  0.786000  1.0  0.0769
  C  C67  1  0.884300  0.258340  0.678400  1.0  -0.0751
  C  C68  1  0.911100  0.220120  0.649000  1.0  -0.0941
  C  C69  1  0.108400  0.310930  0.809000  1.0  0.1448
  C  C70  1  0.959600  0.331300  0.846100  1.0  -0.2135
  C  C71  1  0.996300  0.370780  0.882300  1.0  -0.0011
  C  C72  1  0.180500  0.389580  0.881700  1.0  -0.1423
  C  C73  1  0.332300  0.368410  0.848500  1.0  -0.0384
  C  C74  1  0.297600  0.328820  0.810700  1.0  -0.1796
  C  C75  1  0.211700  0.433250  0.917700  1.0  0.7164
  C  C76  1  0.211400  0.172010  0.708600  1.0  0.1593
  C  C77  1  0.101000  0.137320  0.681300  1.0  -0.1519
  C  C78  1  0.199400  0.101960  0.668600  1.0  -0.0569
  C  C79  1  0.414400  0.101110  0.688200  1.0  -0.1608
  C  C80  1  0.529300  0.136490  0.723900  1.0  -0.0197
  C  C81  1  0.428700  0.172060  0.731800  1.0  -0.1753
  C  C82  1  0.523000  0.064260  0.662300  1.0  0.7108
  C  C83  1  0.703700  0.259340  0.286000  1.0  0.0769
  C  C84  1  0.384300  0.241660  0.178400  1.0  -0.0748
  C  C85  1  0.411100  0.279880  0.149000  1.0  -0.0924
  C  C86  1  0.608400  0.189070  0.309000  1.0  0.1446
  C  C87  1  0.459600  0.168700  0.346100  1.0  -0.2133
  C  C88  1  0.496300  0.129220  0.382300  1.0  -0.0008
  C  C89  1  0.680500  0.110420  0.381700  1.0  -0.1445
  C  C90  1  0.832300  0.131590  0.348500  1.0  -0.037
  C  C91  1  0.797600  0.171180  0.310700  1.0  -0.1786
  C  C92  1  0.711700  0.066750  0.417700  1.0  0.7157
  C  C93  1  0.711400  0.327990  0.208600  1.0  0.1597
  C  C94  1  0.601000  0.362680  0.181300  1.0  -0.152
  C  C95  1  0.699400  0.398040  0.168600  1.0  -0.0602
  C  C96  1  0.914400  0.398890  0.188200  1.0  -0.1635
  C  C97  1  0.029300  0.363510  0.223900  1.0  -0.0193
  C  C98  1  0.928700  0.327940  0.231800  1.0  -0.1752
  C  C99  1  0.023000  0.435740  0.162300  1.0  0.7037
  C  C100  1  0.796300  0.759340  0.214000  1.0  0.076
  C  C101  1  0.115700  0.741660  0.321600  1.0  -0.0731
  C  C102  1  0.088900  0.779880  0.351000  1.0  -0.0943
  C  C103  1  0.891600  0.689070  0.191000  1.0  0.1448
  C  C104  1  0.040400  0.668700  0.153900  1.0  -0.2116
  C  C105  1  0.003700  0.629220  0.117700  1.0  -0.0003
  C  C106  1  0.819500  0.610420  0.118300  1.0  -0.1418
  C  C107  1  0.667700  0.631590  0.151500  1.0  -0.0396
  C  C108  1  0.702400  0.671180  0.189300  1.0  -0.1784
  C  C109  1  0.788300  0.566750  0.082300  1.0  0.7156
  C  C110  1  0.788600  0.827990  0.291400  1.0  0.1595
  C  C111  1  0.899000  0.862680  0.318700  1.0  -0.1501
  C  C112  1  0.800600  0.898040  0.331400  1.0  -0.0623
  C  C113  1  0.585600  0.898890  0.311800  1.0  -0.1617
  C  C114  1  0.470700  0.863510  0.276100  1.0  -0.0179
  C  C115  1  0.571300  0.827940  0.268200  1.0  -0.1755
  C  C116  1  0.477000  0.935740  0.337700  1.0  0.7045
  N  N117  1  0.433800  0.770850  0.737400  1.0  0.0528
  N  N118  1  0.385200  0.709430  0.781800  1.0  0.0462
  N  N119  1  0.066200  0.270850  0.762600  1.0  0.0532
  N  N120  1  0.114800  0.209430  0.718200  1.0  0.0471
  N  N121  1  0.566200  0.229150  0.262600  1.0  0.0529
  N  N122  1  0.614800  0.290570  0.218200  1.0  0.0476
  N  N123  1  0.933800  0.729150  0.237400  1.0  0.053
  N  N124  1  0.885200  0.790570  0.281800  1.0  0.0468
  O  O125  1  0.451600  0.951890  0.584700  1.0  -0.6213
  O  O126  1  0.105600  0.946860  0.555800  1.0  -0.607
  O  O127  1  0.091700  0.534760  0.887300  1.0  -0.6206
  O  O128  1  0.781300  0.565320  0.810100  1.0  -0.5534
  O  O129  1  0.048400  0.451890  0.915300  1.0  -0.621
  O  O130  1  0.394400  0.446860  0.944200  1.0  -0.608
  O  O131  1  0.408300  0.034760  0.612700  1.0  -0.6204
  O  O132  1  0.718700  0.065320  0.689900  1.0  -0.5521
  O  O133  1  0.548400  0.048110  0.415300  1.0  -0.6223
  O  O134  1  0.894400  0.053140  0.444200  1.0  -0.6081
  O  O135  1  0.908300  0.465240  0.112700  1.0  -0.6207
  O  O136  1  0.218700  0.434680  0.189900  1.0  -0.5507
  O  O137  1  0.951600  0.548110  0.084700  1.0  -0.6203
  O  O138  1  0.605600  0.553140  0.055800  1.0  -0.6069
  O  O139  1  0.591700  0.965240  0.387300  1.0  -0.6214
  O  O140  1  0.281300  0.934680  0.310100  1.0  -0.5552
