# generated using pymatgen
data_CuH24(C6N)4
_symmetry_space_group_name_H-M   'P 1'
_cell_length_a   13.05700000
_cell_length_b   13.26390000
_cell_length_c   19.96600000
_cell_angle_alpha   82.15730000
_cell_angle_beta   73.90490000
_cell_angle_gamma   60.51470000
_symmetry_Int_Tables_number   1
_chemical_formula_structural   CuH24(C6N)4
_chemical_formula_sum   'Cu4 H96 C96 N16'
_cell_volume   2892.01004984
_cell_formula_units_Z   4
loop_
 _symmetry_equiv_pos_site_id
 _symmetry_equiv_pos_as_xyz
  1  'x, y, z'
loop_
 _atom_site_type_symbol
 _atom_site_label
 _atom_site_symmetry_multiplicity
 _atom_site_fract_x
 _atom_site_fract_y
 _atom_site_fract_z
 _atom_site_occupancy
 _atom_site_charge
  Cu  Cu1  1  0.500000  0.500000  0.500000  1.0  0.3365
  Cu  Cu2  1  0.000000  0.500000  0.000000  1.0  0.3365
  Cu  Cu3  1  0.000000  0.000000  0.000000  1.0  0.3354
  Cu  Cu4  1  0.000000  0.000000  0.500000  1.0  0.3365
  H  H5  1  0.510400  0.647400  0.600600  1.0  0.0868
  H  H6  1  0.630200  0.624400  0.673000  1.0  0.1097
  H  H7  1  0.807300  0.283800  0.639900  1.0  0.0926
  H  H8  1  0.687400  0.307000  0.567600  1.0  0.0907
  H  H9  1  0.826300  0.503600  0.701300  1.0  0.0889
  H  H10  1  0.882800  0.368800  0.699900  1.0  0.096
  H  H11  1  0.845400  0.218800  0.073300  1.0  0.0652
  H  H12  1  0.666900  0.387200  0.077000  1.0  0.1109
  H  H13  1  0.609900  0.255800  0.932000  1.0  0.0792
  H  H14  1  0.793300  0.093600  0.927900  1.0  0.0778
  H  H15  1  0.454000  0.437600  0.977600  1.0  0.0762
  H  H16  1  0.443100  0.453800  0.056200  1.0  0.0905
  H  H17  1  0.708200  0.438400  0.376500  1.0  0.0587
  H  H18  1  0.817000  0.515600  0.299700  1.0  0.1133
  H  H19  1  0.618400  0.808200  0.410100  1.0  0.0947
  H  H20  1  0.514800  0.722000  0.484500  1.0  0.0699
  H  H21  1  0.807100  0.700800  0.244800  1.0  0.0948
  H  H22  1  0.877800  0.693200  0.298500  1.0  0.1115
  H  H23  1  0.826800  0.911200  0.057200  1.0  0.061
  H  H24  1  0.726300  0.865400  0.158500  1.0  0.0952
  H  H25  1  0.886500  0.956800  0.262600  1.0  0.1059
  H  H26  1  0.976500  0.010000  0.157900  1.0  0.0608
  H  H27  1  0.657300  0.888800  0.293100  1.0  0.07
  H  H28  1  0.753800  0.879000  0.329700  1.0  0.0798
  H  H29  1  0.842200  0.647400  0.899400  1.0  0.0864
  H  H30  1  0.745400  0.624400  0.827000  1.0  0.1103
  H  H31  1  0.908900  0.283800  0.860100  1.0  0.0924
  H  H32  1  0.005600  0.307000  0.932400  1.0  0.0917
  H  H33  1  0.670100  0.503600  0.798700  1.0  0.0866
  H  H34  1  0.748400  0.368800  0.800100  1.0  0.0951
  H  H35  1  0.935800  0.218800  0.426700  1.0  0.0646
  H  H36  1  0.945900  0.387200  0.423000  1.0  0.111
  H  H37  1  0.134300  0.255800  0.568000  1.0  0.0789
  H  H38  1  0.113100  0.093600  0.572100  1.0  0.0775
  H  H39  1  0.108400  0.437600  0.522400  1.0  0.0766
  H  H40  1  0.103100  0.453800  0.443800  1.0  0.0914
  H  H41  1  0.853400  0.438400  0.123500  1.0  0.0592
  H  H42  1  0.667400  0.515600  0.200300  1.0  0.114
  H  H43  1  0.573400  0.808200  0.089900  1.0  0.0948
  H  H44  1  0.763200  0.722000  0.015500  1.0  0.0691
  H  H45  1  0.492100  0.700800  0.255200  1.0  0.0945
  H  H46  1  0.429000  0.693200  0.201500  1.0  0.1102
  H  H47  1  0.262000  0.911200  0.442800  1.0  0.0603
  H  H48  1  0.408300  0.865400  0.341500  1.0  0.0952
  H  H49  1  0.156700  0.956800  0.237400  1.0  0.1061
  H  H50  1  0.013500  0.010000  0.342100  1.0  0.0604
  H  H51  1  0.453900  0.888800  0.206900  1.0  0.0699
  H  H52  1  0.367200  0.879000  0.170300  1.0  0.0799
  H  H53  1  0.489600  0.352600  0.399400  1.0  0.0868
  H  H54  1  0.369800  0.375600  0.327000  1.0  0.1093
  H  H55  1  0.192700  0.716200  0.360100  1.0  0.093
  H  H56  1  0.312600  0.693000  0.432400  1.0  0.0909
  H  H57  1  0.173700  0.496400  0.298700  1.0  0.086
  H  H58  1  0.117200  0.631200  0.300100  1.0  0.0953
  H  H59  1  0.154600  0.781200  0.926700  1.0  0.0645
  H  H60  1  0.333100  0.612800  0.923000  1.0  0.1116
  H  H61  1  0.390100  0.744200  0.068000  1.0  0.0788
  H  H62  1  0.206700  0.906400  0.072100  1.0  0.077
  H  H63  1  0.546000  0.562400  0.022400  1.0  0.0765
  H  H64  1  0.556900  0.546200  0.943800  1.0  0.0916
  H  H65  1  0.291800  0.561600  0.623500  1.0  0.0571
  H  H66  1  0.183000  0.484400  0.700300  1.0  0.1132
  H  H67  1  0.381600  0.191800  0.589900  1.0  0.0948
  H  H68  1  0.485200  0.278000  0.515500  1.0  0.0694
  H  H69  1  0.192900  0.299200  0.755200  1.0  0.0954
  H  H70  1  0.122200  0.306800  0.701500  1.0  0.1108
  H  H71  1  0.173200  0.088800  0.942800  1.0  0.06
  H  H72  1  0.273700  0.134600  0.841500  1.0  0.0952
  H  H73  1  0.113500  0.043200  0.737400  1.0  0.1062
  H  H74  1  0.023500  0.990000  0.842100  1.0  0.0608
  H  H75  1  0.342700  0.111200  0.706900  1.0  0.0686
  H  H76  1  0.246200  0.121000  0.670300  1.0  0.0798
  H  H77  1  0.157800  0.352600  0.100600  1.0  0.086
  H  H78  1  0.254600  0.375600  0.173000  1.0  0.11
  H  H79  1  0.091100  0.716200  0.139900  1.0  0.0927
  H  H80  1  0.994400  0.693000  0.067600  1.0  0.0908
  H  H81  1  0.329900  0.496400  0.201300  1.0  0.0866
  H  H82  1  0.251600  0.631200  0.199900  1.0  0.0956
  H  H83  1  0.064200  0.781200  0.573300  1.0  0.0651
  H  H84  1  0.054100  0.612800  0.577000  1.0  0.1112
  H  H85  1  0.865700  0.744200  0.432000  1.0  0.0795
  H  H86  1  0.886900  0.906400  0.427900  1.0  0.0778
  H  H87  1  0.891600  0.562400  0.477600  1.0  0.0767
  H  H88  1  0.896900  0.546200  0.556200  1.0  0.0907
  H  H89  1  0.146600  0.561600  0.876500  1.0  0.0574
  H  H90  1  0.332600  0.484400  0.799700  1.0  0.1132
  H  H91  1  0.426600  0.191800  0.910100  1.0  0.0952
  H  H92  1  0.236800  0.278000  0.984500  1.0  0.07
  H  H93  1  0.507900  0.299200  0.744800  1.0  0.0946
  H  H94  1  0.571000  0.306800  0.798500  1.0  0.1117
  H  H95  1  0.738000  0.088800  0.557200  1.0  0.0609
  H  H96  1  0.591700  0.134600  0.658500  1.0  0.0955
  H  H97  1  0.843300  0.043200  0.762600  1.0  0.1059
  H  H98  1  0.986500  0.990000  0.657900  1.0  0.0609
  H  H99  1  0.546100  0.111200  0.793100  1.0  0.0696
  H  H100  1  0.632800  0.121000  0.829700  1.0  0.0798
  C  C101  1  0.570400  0.574000  0.608600  1.0  0.122
  C  C102  1  0.641800  0.560200  0.651600  1.0  -0.1699
  C  C103  1  0.730300  0.451800  0.663300  1.0  0.0985
  C  C104  1  0.747200  0.357400  0.632000  1.0  -0.1693
  C  C105  1  0.675800  0.371200  0.588900  1.0  0.1474
  C  C106  1  0.807000  0.440400  0.711300  1.0  -0.304
  C  C107  1  0.798700  0.227800  0.043000  1.0  0.1493
  C  C108  1  0.690100  0.328200  0.046700  1.0  -0.25
  C  C109  1  0.616300  0.340200  0.005000  1.0  0.1312
  C  C110  1  0.657400  0.250800  0.960800  1.0  -0.1612
  C  C111  1  0.768100  0.153400  0.958100  1.0  0.1255
  C  C112  1  0.493590  0.446420  0.009300  1.0  -0.2272
  C  C113  1  0.688600  0.514600  0.383000  1.0  0.1551
  C  C114  1  0.754600  0.560600  0.336400  1.0  -0.2358
  C  C115  1  0.728100  0.674000  0.344000  1.0  0.1102
  C  C116  1  0.637800  0.732800  0.401400  1.0  -0.231
  C  C117  1  0.575300  0.680400  0.446200  1.0  0.1626
  C  C118  1  0.797300  0.725800  0.290600  1.0  -0.2576
  C  C119  1  0.840500  0.919600  0.098900  1.0  0.1341
  C  C120  1  0.781500  0.889800  0.159700  1.0  -0.2021
  C  C121  1  0.802800  0.895400  0.223300  1.0  0.097
  C  C122  1  0.874300  0.944400  0.221400  1.0  -0.2344
  C  C123  1  0.929100  0.976000  0.157600  1.0  0.1483
  C  C124  1  0.743500  0.854200  0.289700  1.0  -0.2168
  C  C125  1  0.855600  0.574000  0.891400  1.0  0.1236
  C  C126  1  0.798000  0.560200  0.848400  1.0  -0.1694
  C  C127  1  0.817900  0.451800  0.836700  1.0  0.0983
  C  C128  1  0.895400  0.357400  0.868000  1.0  -0.1705
  C  C129  1  0.953000  0.371200  0.911100  1.0  0.1484
  C  C130  1  0.752600  0.440400  0.788700  1.0  -0.3097
  C  C131  1  0.973500  0.227800  0.457000  1.0  0.1484
  C  C132  1  0.981700  0.328200  0.453300  1.0  -0.2496
  C  C133  1  0.043500  0.340200  0.495000  1.0  0.1313
  C  C134  1  0.091800  0.250800  0.539200  1.0  -0.1647
  C  C135  1  0.078500  0.153400  0.541900  1.0  0.126
  C  C136  1  0.059990  0.446420  0.490700  1.0  -0.2278
  C  C137  1  0.796800  0.514600  0.117000  1.0  0.1555
  C  C138  1  0.684800  0.560600  0.163600  1.0  -0.2358
  C  C139  1  0.597900  0.674000  0.156000  1.0  0.1108
  C  C140  1  0.629400  0.732800  0.098600  1.0  -0.2324
  C  C141  1  0.744300  0.680400  0.053800  1.0  0.1642
  C  C142  1  0.476900  0.725800  0.209400  1.0  -0.2583
  C  C143  1  0.239900  0.919600  0.401100  1.0  0.1345
  C  C144  1  0.328700  0.889800  0.340300  1.0  -0.2035
  C  C145  1  0.301800  0.895400  0.276700  1.0  0.0965
  C  C146  1  0.181300  0.944400  0.278600  1.0  -0.2377
  C  C147  1  0.094900  0.976000  0.342400  1.0  0.1487
  C  C148  1  0.402300  0.854200  0.210300  1.0  -0.2158
  C  C149  1  0.429600  0.426000  0.391400  1.0  0.1237
  C  C150  1  0.358200  0.439800  0.348400  1.0  -0.176
  C  C151  1  0.269700  0.548200  0.336700  1.0  0.0978
  C  C152  1  0.252800  0.642600  0.368000  1.0  -0.1698
  C  C153  1  0.324200  0.628800  0.411100  1.0  0.148
  C  C154  1  0.193000  0.559600  0.288700  1.0  -0.3089
  C  C155  1  0.201300  0.772200  0.957000  1.0  0.1489
  C  C156  1  0.309900  0.671800  0.953300  1.0  -0.2506
  C  C157  1  0.383700  0.659800  0.995000  1.0  0.1312
  C  C158  1  0.342600  0.749200  0.039200  1.0  -0.1646
  C  C159  1  0.231900  0.846600  0.041900  1.0  0.1263
  C  C160  1  0.506410  0.553580  0.990700  1.0  -0.2265
  C  C161  1  0.311400  0.485400  0.617000  1.0  0.1564
  C  C162  1  0.245400  0.439400  0.663600  1.0  -0.2383
  C  C163  1  0.271900  0.326000  0.656000  1.0  0.1111
  C  C164  1  0.362200  0.267200  0.598600  1.0  -0.2324
  C  C165  1  0.424700  0.319600  0.553800  1.0  0.1646
  C  C166  1  0.202700  0.274200  0.709400  1.0  -0.2586
  C  C167  1  0.159500  0.080400  0.901100  1.0  0.1339
  C  C168  1  0.218500  0.110200  0.840300  1.0  -0.205
  C  C169  1  0.197200  0.104600  0.776700  1.0  0.0964
  C  C170  1  0.125700  0.055600  0.778600  1.0  -0.2387
  C  C171  1  0.070900  0.024000  0.842400  1.0  0.1488
  C  C172  1  0.256500  0.145800  0.710300  1.0  -0.2163
  C  C173  1  0.144400  0.426000  0.108600  1.0  0.1241
  C  C174  1  0.202000  0.439800  0.151600  1.0  -0.1782
  C  C175  1  0.182100  0.548200  0.163300  1.0  0.0981
  C  C176  1  0.104600  0.642600  0.132000  1.0  -0.1686
  C  C177  1  0.047000  0.628800  0.088900  1.0  0.1459
  C  C178  1  0.247400  0.559600  0.211300  1.0  -0.3047
  C  C179  1  0.026500  0.772200  0.543000  1.0  0.1496
  C  C180  1  0.018300  0.671800  0.546700  1.0  -0.2498
  C  C181  1  0.956500  0.659800  0.505000  1.0  0.1311
  C  C182  1  0.908200  0.749200  0.460800  1.0  -0.1622
  C  C183  1  0.921500  0.846600  0.458100  1.0  0.1269
  C  C184  1  0.940010  0.553580  0.509300  1.0  -0.2271
  C  C185  1  0.203200  0.485400  0.883000  1.0  0.155
  C  C186  1  0.315200  0.439400  0.836400  1.0  -0.2374
  C  C187  1  0.402100  0.326000  0.844000  1.0  0.1105
  C  C188  1  0.370600  0.267200  0.901400  1.0  -0.2311
  C  C189  1  0.255700  0.319600  0.946200  1.0  0.1642
  C  C190  1  0.523100  0.274200  0.790600  1.0  -0.257
  C  C191  1  0.760100  0.080400  0.598900  1.0  0.134
  C  C192  1  0.671300  0.110200  0.659700  1.0  -0.2034
  C  C193  1  0.698200  0.104600  0.723300  1.0  0.0977
  C  C194  1  0.818700  0.055600  0.721400  1.0  -0.2373
  C  C195  1  0.905100  0.024000  0.657600  1.0  0.1488
  C  C196  1  0.597700  0.145800  0.789700  1.0  -0.2163
  N  N197  1  0.587500  0.479400  0.577200  1.0  -0.3487
  N  N198  1  0.840270  0.142660  0.998000  1.0  -0.3297
  N  N199  1  0.598750  0.572700  0.436540  1.0  -0.3274
  N  N200  1  0.917280  0.960240  0.096890  1.0  -0.3202
  N  N201  1  0.933100  0.479400  0.922800  1.0  -0.3478
  N  N202  1  0.017070  0.142660  0.502000  1.0  -0.3296
  N  N203  1  0.828550  0.572700  0.063460  1.0  -0.3264
  N  N204  1  0.122480  0.960240  0.403110  1.0  -0.3195
  N  N205  1  0.412500  0.520600  0.422800  1.0  -0.3473
  N  N206  1  0.159730  0.857340  0.002000  1.0  -0.3288
  N  N207  1  0.401250  0.427300  0.563460  1.0  -0.3267
  N  N208  1  0.082720  0.039760  0.903110  1.0  -0.3197
  N  N209  1  0.066900  0.520600  0.077200  1.0  -0.3487
  N  N210  1  0.982930  0.857340  0.498000  1.0  -0.3292
  N  N211  1  0.171450  0.427300  0.936540  1.0  -0.3275
  N  N212  1  0.877520  0.039760  0.596890  1.0  -0.3209
