# generated using pymatgen
data_Er3H12C24O13
_symmetry_space_group_name_H-M   'P 1'
_cell_length_a   10.28460000
_cell_length_b   10.28460000
_cell_length_c   20.02770000
_cell_angle_alpha   90.00000000
_cell_angle_beta   90.00000000
_cell_angle_gamma   120.00000000
_symmetry_Int_Tables_number   1
_chemical_formula_structural   Er3H12C24O13
_chemical_formula_sum   'Er6 H24 C48 O26'
_cell_volume   1834.57942974
_cell_formula_units_Z   2
loop_
 _symmetry_equiv_pos_site_id
 _symmetry_equiv_pos_as_xyz
  1  'x, y, z'
loop_
 _atom_site_type_symbol
 _atom_site_label
 _atom_site_symmetry_multiplicity
 _atom_site_fract_x
 _atom_site_fract_y
 _atom_site_fract_z
 _atom_site_occupancy
 _atom_site_charge
  Er  Er1  1  0.746830  0.585300  0.750000  1.0  1.5595
  Er  Er2  1  0.414700  0.161530  0.750000  1.0  1.5563
  Er  Er3  1  0.838470  0.253170  0.750000  1.0  1.5581
  Er  Er4  1  0.253170  0.414700  0.250000  1.0  1.5608
  Er  Er5  1  0.585300  0.838470  0.250000  1.0  1.5596
  Er  Er6  1  0.161530  0.746830  0.250000  1.0  1.5552
  H  H7  1  0.416800  0.247700  0.521900  1.0  0.1104
  H  H8  1  0.429200  0.330200  0.412300  1.0  0.1149
  H  H9  1  0.752300  0.169100  0.521900  1.0  0.1118
  H  H10  1  0.669800  0.099000  0.412300  1.0  0.1147
  H  H11  1  0.830900  0.583200  0.521900  1.0  0.1109
  H  H12  1  0.901000  0.570800  0.412300  1.0  0.1147
  H  H13  1  0.583200  0.752300  0.021900  1.0  0.1106
  H  H14  1  0.570800  0.669800  0.912300  1.0  0.1156
  H  H15  1  0.247700  0.830900  0.021900  1.0  0.1115
  H  H16  1  0.330200  0.901000  0.912300  1.0  0.1147
  H  H17  1  0.169100  0.416800  0.021900  1.0  0.1113
  H  H18  1  0.099000  0.429200  0.912300  1.0  0.1151
  H  H19  1  0.583200  0.752300  0.478100  1.0  0.1109
  H  H20  1  0.570800  0.669800  0.587700  1.0  0.1157
  H  H21  1  0.247700  0.830900  0.478100  1.0  0.1117
  H  H22  1  0.330200  0.901000  0.587700  1.0  0.115
  H  H23  1  0.169100  0.416800  0.478100  1.0  0.1114
  H  H24  1  0.099000  0.429200  0.587700  1.0  0.1151
  H  H25  1  0.416800  0.247700  0.978100  1.0  0.1105
  H  H26  1  0.429200  0.330200  0.087700  1.0  0.1152
  H  H27  1  0.752300  0.169100  0.978100  1.0  0.1121
  H  H28  1  0.669800  0.099000  0.087700  1.0  0.1147
  H  H29  1  0.830900  0.583200  0.978100  1.0  0.1111
  H  H30  1  0.901000  0.570800  0.087700  1.0  0.1149
  C  C31  1  0.489800  0.396400  0.635400  1.0  0.7305
  C  C32  1  0.495100  0.451600  0.565000  1.0  -0.1089
  C  C33  1  0.451300  0.350700  0.513200  1.0  -0.0592
  C  C34  1  0.458000  0.399700  0.448100  1.0  -0.0474
  C  C35  1  0.603600  0.093400  0.635400  1.0  0.7291
  C  C36  1  0.548400  0.043500  0.565000  1.0  -0.1091
  C  C37  1  0.649300  0.100600  0.513200  1.0  -0.0565
  C  C38  1  0.600300  0.058300  0.448100  1.0  -0.0472
  C  C39  1  0.906600  0.510200  0.635400  1.0  0.7263
  C  C40  1  0.956500  0.504900  0.565000  1.0  -0.1079
  C  C41  1  0.899400  0.548700  0.513200  1.0  -0.0569
  C  C42  1  0.941700  0.542000  0.448100  1.0  -0.0469
  C  C43  1  0.510200  0.603600  0.135400  1.0  0.7292
  C  C44  1  0.504900  0.548400  0.065000  1.0  -0.1098
  C  C45  1  0.548700  0.649300  0.013200  1.0  -0.0591
  C  C46  1  0.542000  0.600300  0.948100  1.0  -0.0468
  C  C47  1  0.396400  0.906600  0.135400  1.0  0.7279
  C  C48  1  0.451600  0.956500  0.065000  1.0  -0.1079
  C  C49  1  0.350700  0.899400  0.013200  1.0  -0.0562
  C  C50  1  0.399700  0.941700  0.948100  1.0  -0.0453
  C  C51  1  0.093400  0.489800  0.135400  1.0  0.7263
  C  C52  1  0.043500  0.495100  0.065000  1.0  -0.1091
  C  C53  1  0.100600  0.451300  0.013200  1.0  -0.0568
  C  C54  1  0.058300  0.458000  0.948100  1.0  -0.0461
  C  C55  1  0.510200  0.603600  0.364600  1.0  0.7273
  C  C56  1  0.504900  0.548400  0.435000  1.0  -0.1092
  C  C57  1  0.548700  0.649300  0.486800  1.0  -0.0595
  C  C58  1  0.542000  0.600300  0.551900  1.0  -0.0461
  C  C59  1  0.396400  0.906600  0.364600  1.0  0.7279
  C  C60  1  0.451600  0.956500  0.435000  1.0  -0.1091
  C  C61  1  0.350700  0.899400  0.486800  1.0  -0.0565
  C  C62  1  0.399700  0.941700  0.551900  1.0  -0.045
  C  C63  1  0.093400  0.489800  0.364600  1.0  0.7241
  C  C64  1  0.043500  0.495100  0.435000  1.0  -0.1095
  C  C65  1  0.100600  0.451300  0.486800  1.0  -0.0568
  C  C66  1  0.058300  0.458000  0.551900  1.0  -0.0459
  C  C67  1  0.489800  0.396400  0.864600  1.0  0.7312
  C  C68  1  0.495100  0.451600  0.935000  1.0  -0.1103
  C  C69  1  0.451300  0.350700  0.986800  1.0  -0.059
  C  C70  1  0.458000  0.399700  0.051900  1.0  -0.0469
  C  C71  1  0.603600  0.093400  0.864600  1.0  0.7257
  C  C72  1  0.548400  0.043500  0.935000  1.0  -0.1089
  C  C73  1  0.649300  0.100600  0.986800  1.0  -0.0569
  C  C74  1  0.600300  0.058300  0.051900  1.0  -0.0462
  C  C75  1  0.906600  0.510200  0.864600  1.0  0.7247
  C  C76  1  0.956500  0.504900  0.935000  1.0  -0.1086
  C  C77  1  0.899400  0.548700  0.986800  1.0  -0.0571
  C  C78  1  0.941700  0.542000  0.051900  1.0  -0.0469
  O  O79  1  0.542600  0.496100  0.681100  1.0  -0.7468
  O  O80  1  0.437900  0.262500  0.645400  1.0  -0.5714
  O  O81  1  0.503900  0.046500  0.681100  1.0  -0.7443
  O  O82  1  0.737500  0.175400  0.645400  1.0  -0.5701
  O  O83  1  0.953500  0.457400  0.681100  1.0  -0.7448
  O  O84  1  0.824600  0.562100  0.645400  1.0  -0.5698
  O  O85  1  0.457400  0.503900  0.181100  1.0  -0.7454
  O  O86  1  0.562100  0.737500  0.145400  1.0  -0.5742
  O  O87  1  0.496100  0.953500  0.181100  1.0  -0.7437
  O  O88  1  0.262500  0.824600  0.145400  1.0  -0.5694
  O  O89  1  0.046500  0.542600  0.181100  1.0  -0.7414
  O  O90  1  0.175400  0.437900  0.145400  1.0  -0.5702
  O  O91  1  0.457400  0.503900  0.318900  1.0  -0.7461
  O  O92  1  0.562100  0.737500  0.354600  1.0  -0.5734
  O  O93  1  0.496100  0.953500  0.318900  1.0  -0.7449
  O  O94  1  0.262500  0.824600  0.354600  1.0  -0.5698
  O  O95  1  0.046500  0.542600  0.318900  1.0  -0.7426
  O  O96  1  0.175400  0.437900  0.354600  1.0  -0.5705
  O  O97  1  0.542600  0.496100  0.818900  1.0  -0.7467
  O  O98  1  0.437900  0.262500  0.854600  1.0  -0.5724
  O  O99  1  0.503900  0.046500  0.818900  1.0  -0.7442
  O  O100  1  0.737500  0.175400  0.854600  1.0  -0.57
  O  O101  1  0.953500  0.457400  0.818900  1.0  -0.745
  O  O102  1  0.824600  0.562100  0.854600  1.0  -0.5695
  O  O103  1  0.666667  0.333333  0.750000  1.0  -1.2261
  O  O104  1  0.333333  0.666667  0.250000  1.0  -1.2261
