# generated using pymatgen
data_Zn9H18(C27O19)2
_symmetry_space_group_name_H-M   'P 1'
_cell_length_a   23.38360000
_cell_length_b   23.38360000
_cell_length_c   23.38360000
_cell_angle_alpha   90.00000000
_cell_angle_beta   90.00000000
_cell_angle_gamma   90.00000000
_symmetry_Int_Tables_number   1
_chemical_formula_structural   Zn9H18(C27O19)2
_chemical_formula_sum   'Zn36 H72 C216 O152'
_cell_volume   12785.98292458
_cell_formula_units_Z   4
loop_
 _symmetry_equiv_pos_site_id
 _symmetry_equiv_pos_as_xyz
  1  'x, y, z'
loop_
 _atom_site_type_symbol
 _atom_site_label
 _atom_site_symmetry_multiplicity
 _atom_site_fract_x
 _atom_site_fract_y
 _atom_site_fract_z
 _atom_site_occupancy
 _atom_site_charge
  Zn  Zn1  1  0.320860  0.737220  0.206900  1.0  1.0965
  Zn  Zn2  1  0.820860  0.237220  0.706900  1.0  1.0965
  Zn  Zn3  1  0.679140  0.262780  0.206900  1.0  1.096
  Zn  Zn4  1  0.179140  0.762780  0.706900  1.0  1.096
  Zn  Zn5  1  0.679140  0.737220  0.793100  1.0  1.0967
  Zn  Zn6  1  0.179140  0.237220  0.293100  1.0  1.0967
  Zn  Zn7  1  0.320860  0.262780  0.793100  1.0  1.097
  Zn  Zn8  1  0.820860  0.762780  0.293100  1.0  1.097
  Zn  Zn9  1  0.206900  0.320860  0.737220  1.0  1.097
  Zn  Zn10  1  0.706900  0.820860  0.237220  1.0  1.097
  Zn  Zn11  1  0.206900  0.679140  0.262780  1.0  1.0969
  Zn  Zn12  1  0.706900  0.179140  0.762780  1.0  1.0969
  Zn  Zn13  1  0.793100  0.679140  0.737220  1.0  1.0971
  Zn  Zn14  1  0.293100  0.179140  0.237220  1.0  1.0971
  Zn  Zn15  1  0.793100  0.320860  0.262780  1.0  1.0973
  Zn  Zn16  1  0.293100  0.820860  0.762780  1.0  1.0973
  Zn  Zn17  1  0.737220  0.206900  0.320860  1.0  1.0983
  Zn  Zn18  1  0.237220  0.706900  0.820860  1.0  1.0983
  Zn  Zn19  1  0.262780  0.206900  0.679140  1.0  1.0977
  Zn  Zn20  1  0.762780  0.706900  0.179140  1.0  1.0977
  Zn  Zn21  1  0.737220  0.793100  0.679140  1.0  1.098
  Zn  Zn22  1  0.237220  0.293100  0.179140  1.0  1.098
  Zn  Zn23  1  0.262780  0.793100  0.320860  1.0  1.0981
  Zn  Zn24  1  0.762780  0.293100  0.820860  1.0  1.0981
  Zn  Zn25  1  0.500000  0.000000  0.936240  1.0  1.1299
  Zn  Zn26  1  0.000000  0.500000  0.436240  1.0  1.1299
  Zn  Zn27  1  0.500000  0.000000  0.063760  1.0  1.131
  Zn  Zn28  1  0.000000  0.500000  0.563760  1.0  1.131
  Zn  Zn29  1  0.936240  0.500000  0.000000  1.0  1.1348
  Zn  Zn30  1  0.436240  0.000000  0.500000  1.0  1.1348
  Zn  Zn31  1  0.063760  0.500000  0.000000  1.0  1.1345
  Zn  Zn32  1  0.563760  0.000000  0.500000  1.0  1.1345
  Zn  Zn33  1  0.000000  0.936240  0.500000  1.0  1.135
  Zn  Zn34  1  0.500000  0.436240  0.000000  1.0  1.135
  Zn  Zn35  1  0.000000  0.063760  0.500000  1.0  1.1349
  Zn  Zn36  1  0.500000  0.563760  0.000000  1.0  1.1349
  H  H37  1  0.366000  0.876800  0.911000  1.0  0.1213
  H  H38  1  0.380800  0.857900  0.083300  1.0  0.125
  H  H39  1  0.265300  0.761700  0.993700  1.0  0.1309
  H  H40  1  0.866000  0.376800  0.411000  1.0  0.1213
  H  H41  1  0.880800  0.357900  0.583300  1.0  0.125
  H  H42  1  0.765300  0.261700  0.493700  1.0  0.1309
  H  H43  1  0.634000  0.123200  0.911000  1.0  0.1214
  H  H44  1  0.619200  0.142100  0.083300  1.0  0.125
  H  H45  1  0.734700  0.238300  0.993700  1.0  0.1311
  H  H46  1  0.134000  0.623200  0.411000  1.0  0.1214
  H  H47  1  0.119200  0.642100  0.583300  1.0  0.125
  H  H48  1  0.234700  0.738300  0.493700  1.0  0.1311
  H  H49  1  0.634000  0.876800  0.089000  1.0  0.1211
  H  H50  1  0.619200  0.857900  0.916700  1.0  0.1242
  H  H51  1  0.734700  0.761700  0.006300  1.0  0.1308
  H  H52  1  0.134000  0.376800  0.589000  1.0  0.1211
  H  H53  1  0.119200  0.357900  0.416700  1.0  0.1242
  H  H54  1  0.234700  0.261700  0.506300  1.0  0.1308
  H  H55  1  0.366000  0.123200  0.089000  1.0  0.1213
  H  H56  1  0.380800  0.142100  0.916700  1.0  0.1245
  H  H57  1  0.265300  0.238300  0.006300  1.0  0.1308
  H  H58  1  0.866000  0.623200  0.589000  1.0  0.1213
  H  H59  1  0.880800  0.642100  0.416700  1.0  0.1245
  H  H60  1  0.765300  0.738300  0.506300  1.0  0.1308
  H  H61  1  0.911000  0.366000  0.876800  1.0  0.1204
  H  H62  1  0.083300  0.380800  0.857900  1.0  0.1241
  H  H63  1  0.993700  0.265300  0.761700  1.0  0.1311
  H  H64  1  0.411000  0.866000  0.376800  1.0  0.1204
  H  H65  1  0.583300  0.880800  0.357900  1.0  0.1241
  H  H66  1  0.493700  0.765300  0.261700  1.0  0.1311
  H  H67  1  0.911000  0.634000  0.123200  1.0  0.1201
  H  H68  1  0.083300  0.619200  0.142100  1.0  0.1239
  H  H69  1  0.993700  0.734700  0.238300  1.0  0.1308
  H  H70  1  0.411000  0.134000  0.623200  1.0  0.1201
  H  H71  1  0.583300  0.119200  0.642100  1.0  0.1239
  H  H72  1  0.493700  0.234700  0.738300  1.0  0.1308
  H  H73  1  0.089000  0.634000  0.876800  1.0  0.1205
  H  H74  1  0.916700  0.619200  0.857900  1.0  0.1241
  H  H75  1  0.006300  0.734700  0.761700  1.0  0.1306
  H  H76  1  0.589000  0.134000  0.376800  1.0  0.1205
  H  H77  1  0.416700  0.119200  0.357900  1.0  0.1241
  H  H78  1  0.506300  0.234700  0.261700  1.0  0.1306
  H  H79  1  0.089000  0.366000  0.123200  1.0  0.12
  H  H80  1  0.916700  0.380800  0.142100  1.0  0.1243
  H  H81  1  0.006300  0.265300  0.238300  1.0  0.1311
  H  H82  1  0.589000  0.866000  0.623200  1.0  0.12
  H  H83  1  0.416700  0.880800  0.642100  1.0  0.1243
  H  H84  1  0.506300  0.765300  0.738300  1.0  0.1311
  H  H85  1  0.876800  0.911000  0.366000  1.0  0.1195
  H  H86  1  0.857900  0.083300  0.380800  1.0  0.1244
  H  H87  1  0.761700  0.993700  0.265300  1.0  0.1306
  H  H88  1  0.376800  0.411000  0.866000  1.0  0.1195
  H  H89  1  0.357900  0.583300  0.880800  1.0  0.1244
  H  H90  1  0.261700  0.493700  0.765300  1.0  0.1306
  H  H91  1  0.123200  0.911000  0.634000  1.0  0.1192
  H  H92  1  0.142100  0.083300  0.619200  1.0  0.1244
  H  H93  1  0.238300  0.993700  0.734700  1.0  0.1302
  H  H94  1  0.623200  0.411000  0.134000  1.0  0.1192
  H  H95  1  0.642100  0.583300  0.119200  1.0  0.1244
  H  H96  1  0.738300  0.493700  0.234700  1.0  0.1302
  H  H97  1  0.876800  0.089000  0.634000  1.0  0.1194
  H  H98  1  0.857900  0.916700  0.619200  1.0  0.1244
  H  H99  1  0.761700  0.006300  0.734700  1.0  0.1305
  H  H100  1  0.376800  0.589000  0.134000  1.0  0.1194
  H  H101  1  0.357900  0.416700  0.119200  1.0  0.1244
  H  H102  1  0.261700  0.506300  0.234700  1.0  0.1305
  H  H103  1  0.123200  0.089000  0.366000  1.0  0.1193
  H  H104  1  0.142100  0.916700  0.380800  1.0  0.124
  H  H105  1  0.238300  0.006300  0.265300  1.0  0.1305
  H  H106  1  0.623200  0.589000  0.866000  1.0  0.1193
  H  H107  1  0.642100  0.416700  0.880800  1.0  0.124
  H  H108  1  0.738300  0.506300  0.765300  1.0  0.1305
  C  C109  1  0.378600  0.877000  0.997200  1.0  -0.1102
  C  C110  1  0.353700  0.860000  0.945900  1.0  0.0296
  C  C111  1  0.421300  0.922100  0.000100  1.0  0.7338
  C  C112  1  0.363200  0.848200  0.048000  1.0  -0.0305
  C  C113  1  0.320900  0.804300  0.045400  1.0  -0.1112
  C  C114  1  0.294200  0.790200  0.994900  1.0  -0.03
  C  C115  1  0.311100  0.819100  0.945300  1.0  -0.1312
  C  C116  1  0.303100  0.778700  0.100500  1.0  0.6013
  C  C117  1  0.288500  0.801500  0.886400  1.0  0.7254
  C  C118  1  0.878600  0.377000  0.497200  1.0  -0.1102
  C  C119  1  0.853700  0.360000  0.445900  1.0  0.0296
  C  C120  1  0.921300  0.422100  0.500100  1.0  0.7338
  C  C121  1  0.863200  0.348200  0.548000  1.0  -0.0305
  C  C122  1  0.820900  0.304300  0.545400  1.0  -0.1112
  C  C123  1  0.794200  0.290200  0.494900  1.0  -0.03
  C  C124  1  0.811100  0.319100  0.445300  1.0  -0.1312
  C  C125  1  0.803100  0.278700  0.600500  1.0  0.6013
  C  C126  1  0.788500  0.301500  0.386400  1.0  0.7254
  C  C127  1  0.621400  0.123000  0.997200  1.0  -0.1098
  C  C128  1  0.646300  0.140000  0.945900  1.0  0.0295
  C  C129  1  0.578700  0.077900  0.000100  1.0  0.7353
  C  C130  1  0.636800  0.151800  0.048000  1.0  -0.0308
  C  C131  1  0.679100  0.195700  0.045400  1.0  -0.1112
  C  C132  1  0.705800  0.209800  0.994900  1.0  -0.0281
  C  C133  1  0.688900  0.180900  0.945300  1.0  -0.1308
  C  C134  1  0.696900  0.221300  0.100500  1.0  0.6013
  C  C135  1  0.711500  0.198500  0.886400  1.0  0.7252
  C  C136  1  0.121400  0.623000  0.497200  1.0  -0.1098
  C  C137  1  0.146300  0.640000  0.445900  1.0  0.0295
  C  C138  1  0.078700  0.577900  0.500100  1.0  0.7353
  C  C139  1  0.136800  0.651800  0.548000  1.0  -0.0308
  C  C140  1  0.179100  0.695700  0.545400  1.0  -0.1112
  C  C141  1  0.205800  0.709800  0.494900  1.0  -0.0281
  C  C142  1  0.188900  0.680900  0.445300  1.0  -0.1308
  C  C143  1  0.196900  0.721300  0.600500  1.0  0.6013
  C  C144  1  0.211500  0.698500  0.386400  1.0  0.7252
  C  C145  1  0.621400  0.877000  0.002800  1.0  -0.1097
  C  C146  1  0.646300  0.860000  0.054100  1.0  0.0286
  C  C147  1  0.578700  0.922100  0.999900  1.0  0.7355
  C  C148  1  0.636800  0.848200  0.952000  1.0  -0.0292
  C  C149  1  0.679100  0.804300  0.954600  1.0  -0.1108
  C  C150  1  0.705800  0.790200  0.005100  1.0  -0.0284
  C  C151  1  0.688900  0.819100  0.054700  1.0  -0.1304
  C  C152  1  0.696900  0.778700  0.899500  1.0  0.6013
  C  C153  1  0.711500  0.801500  0.113600  1.0  0.7263
  C  C154  1  0.121400  0.377000  0.502800  1.0  -0.1097
  C  C155  1  0.146300  0.360000  0.554100  1.0  0.0286
  C  C156  1  0.078700  0.422100  0.499900  1.0  0.7355
  C  C157  1  0.136800  0.348200  0.452000  1.0  -0.0292
  C  C158  1  0.179100  0.304300  0.454600  1.0  -0.1108
  C  C159  1  0.205800  0.290200  0.505100  1.0  -0.0284
  C  C160  1  0.188900  0.319100  0.554700  1.0  -0.1304
  C  C161  1  0.196900  0.278700  0.399500  1.0  0.6013
  C  C162  1  0.211500  0.301500  0.613600  1.0  0.7263
  C  C163  1  0.378600  0.123000  0.002800  1.0  -0.1097
  C  C164  1  0.353700  0.140000  0.054100  1.0  0.0304
  C  C165  1  0.421300  0.077900  0.999900  1.0  0.7335
  C  C166  1  0.363200  0.151800  0.952000  1.0  -0.0301
  C  C167  1  0.320900  0.195700  0.954600  1.0  -0.1112
  C  C168  1  0.294200  0.209800  0.005100  1.0  -0.03
  C  C169  1  0.311100  0.180900  0.054700  1.0  -0.1306
  C  C170  1  0.303100  0.221300  0.899500  1.0  0.6014
  C  C171  1  0.288500  0.198500  0.113600  1.0  0.7256
  C  C172  1  0.878600  0.623000  0.502800  1.0  -0.1097
  C  C173  1  0.853700  0.640000  0.554100  1.0  0.0304
  C  C174  1  0.921300  0.577900  0.499900  1.0  0.7335
  C  C175  1  0.863200  0.651800  0.452000  1.0  -0.0301
  C  C176  1  0.820900  0.695700  0.454600  1.0  -0.1112
  C  C177  1  0.794200  0.709800  0.505100  1.0  -0.03
  C  C178  1  0.811100  0.680900  0.554700  1.0  -0.1306
  C  C179  1  0.803100  0.721300  0.399500  1.0  0.6014
  C  C180  1  0.788500  0.698500  0.613600  1.0  0.7256
  C  C181  1  0.997200  0.378600  0.877000  1.0  -0.1103
  C  C182  1  0.945900  0.353700  0.860000  1.0  0.0303
  C  C183  1  0.000100  0.421300  0.922100  1.0  0.7364
  C  C184  1  0.048000  0.363200  0.848200  1.0  -0.0294
  C  C185  1  0.045400  0.320900  0.804300  1.0  -0.1094
  C  C186  1  0.994900  0.294200  0.790200  1.0  -0.0318
  C  C187  1  0.945300  0.311100  0.819100  1.0  -0.1299
  C  C188  1  0.100500  0.303100  0.778700  1.0  0.5995
  C  C189  1  0.886400  0.288500  0.801500  1.0  0.7255
  C  C190  1  0.497200  0.878600  0.377000  1.0  -0.1103
  C  C191  1  0.445900  0.853700  0.360000  1.0  0.0303
  C  C192  1  0.500100  0.921300  0.422100  1.0  0.7364
  C  C193  1  0.548000  0.863200  0.348200  1.0  -0.0294
  C  C194  1  0.545400  0.820900  0.304300  1.0  -0.1094
  C  C195  1  0.494900  0.794200  0.290200  1.0  -0.0318
  C  C196  1  0.445300  0.811100  0.319100  1.0  -0.1299
  C  C197  1  0.600500  0.803100  0.278700  1.0  0.5995
  C  C198  1  0.386400  0.788500  0.301500  1.0  0.7255
  C  C199  1  0.997200  0.621400  0.123000  1.0  -0.1102
  C  C200  1  0.945900  0.646300  0.140000  1.0  0.0302
  C  C201  1  0.000100  0.578700  0.077900  1.0  0.7368
  C  C202  1  0.048000  0.636800  0.151800  1.0  -0.0296
  C  C203  1  0.045400  0.679100  0.195700  1.0  -0.1094
  C  C204  1  0.994900  0.705800  0.209800  1.0  -0.0323
  C  C205  1  0.945300  0.688900  0.180900  1.0  -0.1296
  C  C206  1  0.100500  0.696900  0.221300  1.0  0.5995
  C  C207  1  0.886400  0.711500  0.198500  1.0  0.725
  C  C208  1  0.497200  0.121400  0.623000  1.0  -0.1102
  C  C209  1  0.445900  0.146300  0.640000  1.0  0.0302
  C  C210  1  0.500100  0.078700  0.577900  1.0  0.7368
  C  C211  1  0.548000  0.136800  0.651800  1.0  -0.0296
  C  C212  1  0.545400  0.179100  0.695700  1.0  -0.1094
  C  C213  1  0.494900  0.205800  0.709800  1.0  -0.0323
  C  C214  1  0.445300  0.188900  0.680900  1.0  -0.1296
  C  C215  1  0.600500  0.196900  0.721300  1.0  0.5995
  C  C216  1  0.386400  0.211500  0.698500  1.0  0.725
  C  C217  1  0.002800  0.621400  0.877000  1.0  -0.1105
  C  C218  1  0.054100  0.646300  0.860000  1.0  0.0299
  C  C219  1  0.999900  0.578700  0.922100  1.0  0.7363
  C  C220  1  0.952000  0.636800  0.848200  1.0  -0.0302
  C  C221  1  0.954600  0.679100  0.804300  1.0  -0.1094
  C  C222  1  0.005100  0.705800  0.790200  1.0  -0.0319
  C  C223  1  0.054700  0.688900  0.819100  1.0  -0.1297
  C  C224  1  0.899500  0.696900  0.778700  1.0  0.5991
  C  C225  1  0.113600  0.711500  0.801500  1.0  0.7248
  C  C226  1  0.502800  0.121400  0.377000  1.0  -0.1105
  C  C227  1  0.554100  0.146300  0.360000  1.0  0.0299
  C  C228  1  0.499900  0.078700  0.422100  1.0  0.7363
  C  C229  1  0.452000  0.136800  0.348200  1.0  -0.0302
  C  C230  1  0.454600  0.179100  0.304300  1.0  -0.1094
  C  C231  1  0.505100  0.205800  0.290200  1.0  -0.0319
  C  C232  1  0.554700  0.188900  0.319100  1.0  -0.1297
  C  C233  1  0.399500  0.196900  0.278700  1.0  0.5991
  C  C234  1  0.613600  0.211500  0.301500  1.0  0.7248
  C  C235  1  0.002800  0.378600  0.123000  1.0  -0.11
  C  C236  1  0.054100  0.353700  0.140000  1.0  0.03
  C  C237  1  0.999900  0.421300  0.077900  1.0  0.7363
  C  C238  1  0.952000  0.363200  0.151800  1.0  -0.0297
  C  C239  1  0.954600  0.320900  0.195700  1.0  -0.1092
  C  C240  1  0.005100  0.294200  0.209800  1.0  -0.0322
  C  C241  1  0.054700  0.311100  0.180900  1.0  -0.1298
  C  C242  1  0.899500  0.303100  0.221300  1.0  0.5999
  C  C243  1  0.113600  0.288500  0.198500  1.0  0.726
  C  C244  1  0.502800  0.878600  0.623000  1.0  -0.11
  C  C245  1  0.554100  0.853700  0.640000  1.0  0.03
  C  C246  1  0.499900  0.921300  0.577900  1.0  0.7363
  C  C247  1  0.452000  0.863200  0.651800  1.0  -0.0297
  C  C248  1  0.454600  0.820900  0.695700  1.0  -0.1092
  C  C249  1  0.505100  0.794200  0.709800  1.0  -0.0322
  C  C250  1  0.554700  0.811100  0.680900  1.0  -0.1298
  C  C251  1  0.399500  0.803100  0.721300  1.0  0.5999
  C  C252  1  0.613600  0.788500  0.698500  1.0  0.726
  C  C253  1  0.877000  0.997200  0.378600  1.0  -0.1105
  C  C254  1  0.860000  0.945900  0.353700  1.0  0.0312
  C  C255  1  0.922100  0.000100  0.421300  1.0  0.7344
  C  C256  1  0.848200  0.048000  0.363200  1.0  -0.0285
  C  C257  1  0.804300  0.045400  0.320900  1.0  -0.1101
  C  C258  1  0.790200  0.994900  0.294200  1.0  -0.031
  C  C259  1  0.819100  0.945300  0.311100  1.0  -0.1302
  C  C260  1  0.778700  0.100500  0.303100  1.0  0.5998
  C  C261  1  0.801500  0.886400  0.288500  1.0  0.7241
  C  C262  1  0.377000  0.497200  0.878600  1.0  -0.1105
  C  C263  1  0.360000  0.445900  0.853700  1.0  0.0312
  C  C264  1  0.422100  0.500100  0.921300  1.0  0.7344
  C  C265  1  0.348200  0.548000  0.863200  1.0  -0.0285
  C  C266  1  0.304300  0.545400  0.820900  1.0  -0.1101
  C  C267  1  0.290200  0.494900  0.794200  1.0  -0.031
  C  C268  1  0.319100  0.445300  0.811100  1.0  -0.1302
  C  C269  1  0.278700  0.600500  0.803100  1.0  0.5998
  C  C270  1  0.301500  0.386400  0.788500  1.0  0.7241
  C  C271  1  0.123000  0.997200  0.621400  1.0  -0.11
  C  C272  1  0.140000  0.945900  0.646300  1.0  0.0301
  C  C273  1  0.077900  0.000100  0.578700  1.0  0.7357
  C  C274  1  0.151800  0.048000  0.636800  1.0  -0.0293
  C  C275  1  0.195700  0.045400  0.679100  1.0  -0.1102
  C  C276  1  0.209800  0.994900  0.705800  1.0  -0.0296
  C  C277  1  0.180900  0.945300  0.688900  1.0  -0.1307
  C  C278  1  0.221300  0.100500  0.696900  1.0  0.6006
  C  C279  1  0.198500  0.886400  0.711500  1.0  0.7246
  C  C280  1  0.623000  0.497200  0.121400  1.0  -0.11
  C  C281  1  0.640000  0.445900  0.146300  1.0  0.0301
  C  C282  1  0.577900  0.500100  0.078700  1.0  0.7357
  C  C283  1  0.651800  0.548000  0.136800  1.0  -0.0293
  C  C284  1  0.695700  0.545400  0.179100  1.0  -0.1102
  C  C285  1  0.709800  0.494900  0.205800  1.0  -0.0296
  C  C286  1  0.680900  0.445300  0.188900  1.0  -0.1307
  C  C287  1  0.721300  0.600500  0.196900  1.0  0.6006
  C  C288  1  0.698500  0.386400  0.211500  1.0  0.7246
  C  C289  1  0.877000  0.002800  0.621400  1.0  -0.1103
  C  C290  1  0.860000  0.054100  0.646300  1.0  0.0301
  C  C291  1  0.922100  0.999900  0.578700  1.0  0.7351
  C  C292  1  0.848200  0.952000  0.636800  1.0  -0.0296
  C  C293  1  0.804300  0.954600  0.679100  1.0  -0.11
  C  C294  1  0.790200  0.005100  0.705800  1.0  -0.0316
  C  C295  1  0.819100  0.054700  0.688900  1.0  -0.1313
  C  C296  1  0.778700  0.899500  0.696900  1.0  0.6005
  C  C297  1  0.801500  0.113600  0.711500  1.0  0.7236
  C  C298  1  0.377000  0.502800  0.121400  1.0  -0.1103
  C  C299  1  0.360000  0.554100  0.146300  1.0  0.0301
  C  C300  1  0.422100  0.499900  0.078700  1.0  0.7351
  C  C301  1  0.348200  0.452000  0.136800  1.0  -0.0296
  C  C302  1  0.304300  0.454600  0.179100  1.0  -0.11
  C  C303  1  0.290200  0.505100  0.205800  1.0  -0.0316
  C  C304  1  0.319100  0.554700  0.188900  1.0  -0.1313
  C  C305  1  0.278700  0.399500  0.196900  1.0  0.6005
  C  C306  1  0.301500  0.613600  0.211500  1.0  0.7236
  C  C307  1  0.123000  0.002800  0.378600  1.0  -0.11
  C  C308  1  0.140000  0.054100  0.353700  1.0  0.0294
  C  C309  1  0.077900  0.999900  0.421300  1.0  0.7347
  C  C310  1  0.151800  0.952000  0.363200  1.0  -0.0299
  C  C311  1  0.195700  0.954600  0.320900  1.0  -0.1099
  C  C312  1  0.209800  0.005100  0.294200  1.0  -0.0311
  C  C313  1  0.180900  0.054700  0.311100  1.0  -0.13
  C  C314  1  0.221300  0.899500  0.303100  1.0  0.5994
  C  C315  1  0.198500  0.113600  0.288500  1.0  0.7243
  C  C316  1  0.623000  0.502800  0.878600  1.0  -0.11
  C  C317  1  0.640000  0.554100  0.853700  1.0  0.0294
  C  C318  1  0.577900  0.499900  0.921300  1.0  0.7347
  C  C319  1  0.651800  0.452000  0.863200  1.0  -0.0299
  C  C320  1  0.695700  0.454600  0.820900  1.0  -0.1099
  C  C321  1  0.709800  0.505100  0.794200  1.0  -0.0311
  C  C322  1  0.680900  0.554700  0.811100  1.0  -0.13
  C  C323  1  0.721300  0.399500  0.803100  1.0  0.5994
  C  C324  1  0.698500  0.613600  0.788500  1.0  0.7243
  O  O325  1  0.437700  0.944100  0.953100  1.0  -0.632
  O  O326  1  0.443800  0.934100  0.047600  1.0  -0.6179
  O  O327  1  0.333600  0.785400  0.142800  1.0  -0.5697
  O  O328  1  0.304600  0.830200  0.843100  1.0  -0.5939
  O  O329  1  0.257600  0.757800  0.885900  1.0  -0.5872
  O  O330  1  0.268500  0.735700  0.099400  1.0  -0.4571
  O  O331  1  0.937700  0.444100  0.453100  1.0  -0.632
  O  O332  1  0.943800  0.434100  0.547600  1.0  -0.6179
  O  O333  1  0.833600  0.285400  0.642800  1.0  -0.5697
  O  O334  1  0.804600  0.330200  0.343100  1.0  -0.5939
  O  O335  1  0.757600  0.257800  0.385900  1.0  -0.5872
  O  O336  1  0.768500  0.235700  0.599400  1.0  -0.4571
  O  O337  1  0.562300  0.055900  0.953100  1.0  -0.6327
  O  O338  1  0.556200  0.065900  0.047600  1.0  -0.6176
  O  O339  1  0.666400  0.214600  0.142800  1.0  -0.5693
  O  O340  1  0.695400  0.169800  0.843100  1.0  -0.5943
  O  O341  1  0.742400  0.242200  0.885900  1.0  -0.5885
  O  O342  1  0.731500  0.264300  0.099400  1.0  -0.4575
  O  O343  1  0.062300  0.555900  0.453100  1.0  -0.6327
  O  O344  1  0.056200  0.565900  0.547600  1.0  -0.6176
  O  O345  1  0.166400  0.714600  0.642800  1.0  -0.5693
  O  O346  1  0.195400  0.669800  0.343100  1.0  -0.5943
  O  O347  1  0.242400  0.742200  0.385900  1.0  -0.5885
  O  O348  1  0.231500  0.764300  0.599400  1.0  -0.4575
  O  O349  1  0.562300  0.944100  0.046900  1.0  -0.6325
  O  O350  1  0.556200  0.934100  0.952400  1.0  -0.6181
  O  O351  1  0.666400  0.785400  0.857200  1.0  -0.5699
  O  O352  1  0.695400  0.830200  0.156900  1.0  -0.5947
  O  O353  1  0.742400  0.757800  0.114100  1.0  -0.587
  O  O354  1  0.731500  0.735700  0.900600  1.0  -0.4586
  O  O355  1  0.062300  0.444100  0.546900  1.0  -0.6325
  O  O356  1  0.056200  0.434100  0.452400  1.0  -0.6181
  O  O357  1  0.166400  0.285400  0.357200  1.0  -0.5699
  O  O358  1  0.195400  0.330200  0.656900  1.0  -0.5947
  O  O359  1  0.242400  0.257800  0.614100  1.0  -0.587
  O  O360  1  0.231500  0.235700  0.400600  1.0  -0.4586
  O  O361  1  0.437700  0.055900  0.046900  1.0  -0.6318
  O  O362  1  0.443800  0.065900  0.952400  1.0  -0.6191
  O  O363  1  0.333600  0.214600  0.857200  1.0  -0.5704
  O  O364  1  0.304600  0.169800  0.156900  1.0  -0.5936
  O  O365  1  0.257600  0.242200  0.114100  1.0  -0.5882
  O  O366  1  0.268500  0.264300  0.900600  1.0  -0.4582
  O  O367  1  0.937700  0.555900  0.546900  1.0  -0.6318
  O  O368  1  0.943800  0.565900  0.452400  1.0  -0.6191
  O  O369  1  0.833600  0.714600  0.357200  1.0  -0.5704
  O  O370  1  0.804600  0.669800  0.656900  1.0  -0.5936
  O  O371  1  0.757600  0.742200  0.614100  1.0  -0.5882
  O  O372  1  0.768500  0.764300  0.400600  1.0  -0.4582
  O  O373  1  0.953100  0.437700  0.944100  1.0  -0.6327
  O  O374  1  0.047600  0.443800  0.934100  1.0  -0.618
  O  O375  1  0.142800  0.333600  0.785400  1.0  -0.5718
  O  O376  1  0.843100  0.304600  0.830200  1.0  -0.5934
  O  O377  1  0.885900  0.257600  0.757800  1.0  -0.5882
  O  O378  1  0.099400  0.268500  0.735700  1.0  -0.4635
  O  O379  1  0.453100  0.937700  0.444100  1.0  -0.6327
  O  O380  1  0.547600  0.943800  0.434100  1.0  -0.618
  O  O381  1  0.642800  0.833600  0.285400  1.0  -0.5718
  O  O382  1  0.343100  0.804600  0.330200  1.0  -0.5934
  O  O383  1  0.385900  0.757600  0.257800  1.0  -0.5882
  O  O384  1  0.599400  0.768500  0.235700  1.0  -0.4635
  O  O385  1  0.953100  0.562300  0.055900  1.0  -0.6325
  O  O386  1  0.047600  0.556200  0.065900  1.0  -0.6183
  O  O387  1  0.142800  0.666400  0.214600  1.0  -0.5701
  O  O388  1  0.843100  0.695400  0.169800  1.0  -0.5931
  O  O389  1  0.885900  0.742400  0.242200  1.0  -0.5881
  O  O390  1  0.099400  0.731500  0.264300  1.0  -0.4639
  O  O391  1  0.453100  0.062300  0.555900  1.0  -0.6325
  O  O392  1  0.547600  0.056200  0.565900  1.0  -0.6183
  O  O393  1  0.642800  0.166400  0.714600  1.0  -0.5701
  O  O394  1  0.343100  0.195400  0.669800  1.0  -0.5931
  O  O395  1  0.385900  0.242400  0.742200  1.0  -0.5881
  O  O396  1  0.599400  0.231500  0.764300  1.0  -0.4639
  O  O397  1  0.046900  0.562300  0.944100  1.0  -0.6319
  O  O398  1  0.952400  0.556200  0.934100  1.0  -0.6181
  O  O399  1  0.857200  0.666400  0.785400  1.0  -0.5698
  O  O400  1  0.156900  0.695400  0.830200  1.0  -0.5929
  O  O401  1  0.114100  0.742400  0.757800  1.0  -0.589
  O  O402  1  0.900600  0.731500  0.735700  1.0  -0.4622
  O  O403  1  0.546900  0.062300  0.444100  1.0  -0.6319
  O  O404  1  0.452400  0.056200  0.434100  1.0  -0.6181
  O  O405  1  0.357200  0.166400  0.285400  1.0  -0.5698
  O  O406  1  0.656900  0.195400  0.330200  1.0  -0.5929
  O  O407  1  0.614100  0.242400  0.257800  1.0  -0.589
  O  O408  1  0.400600  0.231500  0.235700  1.0  -0.4622
  O  O409  1  0.046900  0.437700  0.055900  1.0  -0.6313
  O  O410  1  0.952400  0.443800  0.065900  1.0  -0.6181
  O  O411  1  0.857200  0.333600  0.214600  1.0  -0.5708
  O  O412  1  0.156900  0.304600  0.169800  1.0  -0.5926
  O  O413  1  0.114100  0.257600  0.242200  1.0  -0.5879
  O  O414  1  0.900600  0.268500  0.264300  1.0  -0.4641
  O  O415  1  0.546900  0.937700  0.555900  1.0  -0.6313
  O  O416  1  0.452400  0.943800  0.565900  1.0  -0.6181
  O  O417  1  0.357200  0.833600  0.714600  1.0  -0.5708
  O  O418  1  0.656900  0.804600  0.669800  1.0  -0.5926
  O  O419  1  0.614100  0.757600  0.742200  1.0  -0.5879
  O  O420  1  0.400600  0.768500  0.764300  1.0  -0.4641
  O  O421  1  0.944100  0.953100  0.437700  1.0  -0.6301
  O  O422  1  0.934100  0.047600  0.443800  1.0  -0.618
  O  O423  1  0.785400  0.142800  0.333600  1.0  -0.5708
  O  O424  1  0.830200  0.843100  0.304600  1.0  -0.5957
  O  O425  1  0.757800  0.885900  0.257600  1.0  -0.5867
  O  O426  1  0.735700  0.099400  0.268500  1.0  -0.4621
  O  O427  1  0.444100  0.453100  0.937700  1.0  -0.6301
  O  O428  1  0.434100  0.547600  0.943800  1.0  -0.618
  O  O429  1  0.285400  0.642800  0.833600  1.0  -0.5708
  O  O430  1  0.330200  0.343100  0.804600  1.0  -0.5957
  O  O431  1  0.257800  0.385900  0.757600  1.0  -0.5867
  O  O432  1  0.235700  0.599400  0.768500  1.0  -0.4621
  O  O433  1  0.055900  0.953100  0.562300  1.0  -0.6304
  O  O434  1  0.065900  0.047600  0.556200  1.0  -0.6185
  O  O435  1  0.214600  0.142800  0.666400  1.0  -0.5717
  O  O436  1  0.169800  0.843100  0.695400  1.0  -0.5954
  O  O437  1  0.242200  0.885900  0.742400  1.0  -0.5867
  O  O438  1  0.264300  0.099400  0.731500  1.0  -0.4611
  O  O439  1  0.555900  0.453100  0.062300  1.0  -0.6304
  O  O440  1  0.565900  0.547600  0.056200  1.0  -0.6185
  O  O441  1  0.714600  0.642800  0.166400  1.0  -0.5717
  O  O442  1  0.669800  0.343100  0.195400  1.0  -0.5954
  O  O443  1  0.742200  0.385900  0.242400  1.0  -0.5867
  O  O444  1  0.764300  0.599400  0.231500  1.0  -0.4611
  O  O445  1  0.944100  0.046900  0.562300  1.0  -0.6305
  O  O446  1  0.934100  0.952400  0.556200  1.0  -0.6185
  O  O447  1  0.785400  0.857200  0.666400  1.0  -0.5705
  O  O448  1  0.830200  0.156900  0.695400  1.0  -0.5951
  O  O449  1  0.757800  0.114100  0.742400  1.0  -0.5868
  O  O450  1  0.735700  0.900600  0.731500  1.0  -0.4608
  O  O451  1  0.444100  0.546900  0.062300  1.0  -0.6305
  O  O452  1  0.434100  0.452400  0.056200  1.0  -0.6185
  O  O453  1  0.285400  0.357200  0.166400  1.0  -0.5705
  O  O454  1  0.330200  0.656900  0.195400  1.0  -0.5951
  O  O455  1  0.257800  0.614100  0.242400  1.0  -0.5868
  O  O456  1  0.235700  0.400600  0.231500  1.0  -0.4608
  O  O457  1  0.055900  0.046900  0.437700  1.0  -0.63
  O  O458  1  0.065900  0.952400  0.443800  1.0  -0.6178
  O  O459  1  0.214600  0.857200  0.333600  1.0  -0.5699
  O  O460  1  0.169800  0.156900  0.304600  1.0  -0.5959
  O  O461  1  0.242200  0.114100  0.257600  1.0  -0.5866
  O  O462  1  0.264300  0.900600  0.268500  1.0  -0.4604
  O  O463  1  0.555900  0.546900  0.937700  1.0  -0.63
  O  O464  1  0.565900  0.452400  0.943800  1.0  -0.6178
  O  O465  1  0.714600  0.357200  0.833600  1.0  -0.5699
  O  O466  1  0.669800  0.656900  0.804600  1.0  -0.5959
  O  O467  1  0.742200  0.614100  0.757600  1.0  -0.5866
  O  O468  1  0.764300  0.400600  0.768500  1.0  -0.4604
  O  O469  1  0.249900  0.750100  0.249900  1.0  -0.7685
  O  O470  1  0.749900  0.250100  0.749900  1.0  -0.7685
  O  O471  1  0.750100  0.249900  0.249900  1.0  -0.7678
  O  O472  1  0.250100  0.749900  0.749900  1.0  -0.7678
  O  O473  1  0.750100  0.750100  0.750100  1.0  -0.7688
  O  O474  1  0.250100  0.250100  0.250100  1.0  -0.7688
  O  O475  1  0.249900  0.249900  0.750100  1.0  -0.7692
  O  O476  1  0.749900  0.749900  0.250100  1.0  -0.7692
