# generated using pymatgen
data_Zn3H6C18O13
_symmetry_space_group_name_H-M   'P 1'
_cell_length_a   20.49680000
_cell_length_b   20.49680000
_cell_length_c   17.81830000
_cell_angle_alpha   90.00000000
_cell_angle_beta   90.00000000
_cell_angle_gamma   90.00000000
_symmetry_Int_Tables_number   1
_chemical_formula_structural   Zn3H6C18O13
_chemical_formula_sum   'Zn24 H48 C144 O104'
_cell_volume   7485.80299650
_cell_formula_units_Z   8
loop_
 _symmetry_equiv_pos_site_id
 _symmetry_equiv_pos_as_xyz
  1  'x, y, z'
loop_
 _atom_site_type_symbol
 _atom_site_label
 _atom_site_symmetry_multiplicity
 _atom_site_fract_x
 _atom_site_fract_y
 _atom_site_fract_z
 _atom_site_occupancy
 _atom_site_charge
  Zn  Zn1  1  0.257720  0.119060  0.859420  1.0  1.0592
  Zn  Zn2  1  0.757720  0.619060  0.359420  1.0  1.0592
  Zn  Zn3  1  0.742280  0.880940  0.859420  1.0  1.0583
  Zn  Zn4  1  0.242280  0.380940  0.359420  1.0  1.0583
  Zn  Zn5  1  0.880940  0.257720  0.859420  1.0  1.0589
  Zn  Zn6  1  0.380940  0.757720  0.359420  1.0  1.0589
  Zn  Zn7  1  0.119060  0.742280  0.859420  1.0  1.0584
  Zn  Zn8  1  0.619060  0.242280  0.359420  1.0  1.0584
  Zn  Zn9  1  0.257720  0.880940  0.359420  1.0  1.0586
  Zn  Zn10  1  0.757720  0.380940  0.859420  1.0  1.0586
  Zn  Zn11  1  0.742280  0.119060  0.359420  1.0  1.0588
  Zn  Zn12  1  0.242280  0.619060  0.859420  1.0  1.0588
  Zn  Zn13  1  0.880940  0.742280  0.359420  1.0  1.0583
  Zn  Zn14  1  0.380940  0.242280  0.859420  1.0  1.0583
  Zn  Zn15  1  0.119060  0.257720  0.359420  1.0  1.059
  Zn  Zn16  1  0.619060  0.757720  0.859420  1.0  1.059
  Zn  Zn17  1  0.344430  0.155570  0.713670  1.0  1.0676
  Zn  Zn18  1  0.655570  0.844430  0.713670  1.0  1.0688
  Zn  Zn19  1  0.155570  0.344430  0.213670  1.0  1.0688
  Zn  Zn20  1  0.844430  0.344430  0.713670  1.0  1.0671
  Zn  Zn21  1  0.155570  0.655570  0.713670  1.0  1.0691
  Zn  Zn22  1  0.344430  0.844430  0.213670  1.0  1.0671
  Zn  Zn23  1  0.655570  0.155570  0.213670  1.0  1.0691
  Zn  Zn24  1  0.844430  0.655570  0.213670  1.0  1.0676
  H  H25  1  0.179600  0.209800  0.593200  1.0  0.1251
  H  H26  1  0.007300  0.309200  0.605900  1.0  0.1311
  H  H27  1  0.086000  0.226900  0.793400  1.0  0.1297
  H  H28  1  0.679600  0.709800  0.093200  1.0  0.1251
  H  H29  1  0.507300  0.809200  0.105900  1.0  0.1311
  H  H30  1  0.586000  0.726900  0.293400  1.0  0.1297
  H  H31  1  0.820400  0.790200  0.593200  1.0  0.1254
  H  H32  1  0.992700  0.690800  0.605900  1.0  0.1312
  H  H33  1  0.914000  0.773100  0.793400  1.0  0.1296
  H  H34  1  0.320400  0.290200  0.093200  1.0  0.1254
  H  H35  1  0.492700  0.190800  0.105900  1.0  0.1312
  H  H36  1  0.414000  0.273100  0.293400  1.0  0.1296
  H  H37  1  0.790200  0.179600  0.593200  1.0  0.1243
  H  H38  1  0.690800  0.007300  0.605900  1.0  0.1325
  H  H39  1  0.773100  0.086000  0.793400  1.0  0.1295
  H  H40  1  0.290200  0.679600  0.093200  1.0  0.1243
  H  H41  1  0.190800  0.507300  0.105900  1.0  0.1325
  H  H42  1  0.273100  0.586000  0.293400  1.0  0.1295
  H  H43  1  0.209800  0.820400  0.593200  1.0  0.1245
  H  H44  1  0.309200  0.992700  0.605900  1.0  0.1324
  H  H45  1  0.226900  0.914000  0.793400  1.0  0.1298
  H  H46  1  0.709800  0.320400  0.093200  1.0  0.1245
  H  H47  1  0.809200  0.492700  0.105900  1.0  0.1324
  H  H48  1  0.726900  0.414000  0.293400  1.0  0.1298
  H  H49  1  0.179600  0.790200  0.093200  1.0  0.1253
  H  H50  1  0.007300  0.690800  0.105900  1.0  0.1314
  H  H51  1  0.086000  0.773100  0.293400  1.0  0.1294
  H  H52  1  0.679600  0.290200  0.593200  1.0  0.1253
  H  H53  1  0.507300  0.190800  0.605900  1.0  0.1314
  H  H54  1  0.586000  0.273100  0.793400  1.0  0.1294
  H  H55  1  0.820400  0.209800  0.093200  1.0  0.1253
  H  H56  1  0.992700  0.309200  0.105900  1.0  0.131
  H  H57  1  0.914000  0.226900  0.293400  1.0  0.1299
  H  H58  1  0.320400  0.709800  0.593200  1.0  0.1253
  H  H59  1  0.492700  0.809200  0.605900  1.0  0.131
  H  H60  1  0.414000  0.726900  0.793400  1.0  0.1299
  H  H61  1  0.790200  0.820400  0.093200  1.0  0.1246
  H  H62  1  0.690800  0.992700  0.105900  1.0  0.1326
  H  H63  1  0.773100  0.914000  0.293400  1.0  0.1297
  H  H64  1  0.290200  0.320400  0.593200  1.0  0.1246
  H  H65  1  0.190800  0.492700  0.605900  1.0  0.1326
  H  H66  1  0.273100  0.414000  0.793400  1.0  0.1297
  H  H67  1  0.209800  0.179600  0.093200  1.0  0.1248
  H  H68  1  0.309200  0.007300  0.105900  1.0  0.1324
  H  H69  1  0.226900  0.086000  0.293400  1.0  0.1298
  H  H70  1  0.709800  0.679600  0.593200  1.0  0.1248
  H  H71  1  0.809200  0.507300  0.605900  1.0  0.1324
  H  H72  1  0.726900  0.586000  0.793400  1.0  0.1298
  C  C73  1  0.142100  0.215500  0.698900  1.0  -0.1291
  C  C74  1  0.143700  0.226200  0.622200  1.0  -0.0054
  C  C75  1  0.094300  0.260800  0.587300  1.0  -0.1106
  C  C76  1  0.040900  0.283900  0.629700  1.0  0.0201
  C  C77  1  0.037500  0.270300  0.706500  1.0  -0.1323
  C  C78  1  0.088000  0.236300  0.740700  1.0  0.005
  C  C79  1  0.197500  0.180100  0.736500  1.0  0.7204
  C  C80  1  0.092500  0.271900  0.504000  1.0  0.7161
  C  C81  1  0.978600  0.289700  0.749000  1.0  0.7363
  C  C82  1  0.642100  0.715500  0.198900  1.0  -0.1291
  C  C83  1  0.643700  0.726200  0.122200  1.0  -0.0054
  C  C84  1  0.594300  0.760800  0.087300  1.0  -0.1106
  C  C85  1  0.540900  0.783900  0.129700  1.0  0.0201
  C  C86  1  0.537500  0.770300  0.206500  1.0  -0.1323
  C  C87  1  0.588000  0.736300  0.240700  1.0  0.005
  C  C88  1  0.697500  0.680100  0.236500  1.0  0.7204
  C  C89  1  0.592500  0.771900  0.004000  1.0  0.7161
  C  C90  1  0.478600  0.789700  0.249000  1.0  0.7363
  C  C91  1  0.857900  0.784500  0.698900  1.0  -0.1291
  C  C92  1  0.856300  0.773800  0.622200  1.0  -0.004
  C  C93  1  0.905700  0.739200  0.587300  1.0  -0.1104
  C  C94  1  0.959100  0.716100  0.629700  1.0  0.0206
  C  C95  1  0.962500  0.729700  0.706500  1.0  -0.1328
  C  C96  1  0.912000  0.763700  0.740700  1.0  0.005
  C  C97  1  0.802500  0.819900  0.736500  1.0  0.7203
  C  C98  1  0.907500  0.728100  0.504000  1.0  0.7156
  C  C99  1  0.021400  0.710300  0.749000  1.0  0.7369
  C  C100  1  0.357900  0.284500  0.198900  1.0  -0.1291
  C  C101  1  0.356300  0.273800  0.122200  1.0  -0.004
  C  C102  1  0.405700  0.239200  0.087300  1.0  -0.1104
  C  C103  1  0.459100  0.216100  0.129700  1.0  0.0206
  C  C104  1  0.462500  0.229700  0.206500  1.0  -0.1328
  C  C105  1  0.412000  0.263700  0.240700  1.0  0.005
  C  C106  1  0.302500  0.319900  0.236500  1.0  0.7203
  C  C107  1  0.407500  0.228100  0.004000  1.0  0.7156
  C  C108  1  0.521400  0.210300  0.249000  1.0  0.7369
  C  C109  1  0.784500  0.142100  0.698900  1.0  -0.1304
  C  C110  1  0.773800  0.143700  0.622200  1.0  -0.0035
  C  C111  1  0.739200  0.094300  0.587300  1.0  -0.1106
  C  C112  1  0.716100  0.040900  0.629700  1.0  0.0194
  C  C113  1  0.729700  0.037500  0.706500  1.0  -0.1328
  C  C114  1  0.763700  0.088000  0.740700  1.0  0.0058
  C  C115  1  0.819900  0.197500  0.736500  1.0  0.7216
  C  C116  1  0.728100  0.092500  0.504000  1.0  0.7151
  C  C117  1  0.710300  0.978600  0.749000  1.0  0.7379
  C  C118  1  0.284500  0.642100  0.198900  1.0  -0.1304
  C  C119  1  0.273800  0.643700  0.122200  1.0  -0.0035
  C  C120  1  0.239200  0.594300  0.087300  1.0  -0.1106
  C  C121  1  0.216100  0.540900  0.129700  1.0  0.0194
  C  C122  1  0.229700  0.537500  0.206500  1.0  -0.1328
  C  C123  1  0.263700  0.588000  0.240700  1.0  0.0058
  C  C124  1  0.319900  0.697500  0.236500  1.0  0.7216
  C  C125  1  0.228100  0.592500  0.004000  1.0  0.7151
  C  C126  1  0.210300  0.478600  0.249000  1.0  0.7379
  C  C127  1  0.215500  0.857900  0.698900  1.0  -0.1295
  C  C128  1  0.226200  0.856300  0.622200  1.0  -0.0028
  C  C129  1  0.260800  0.905700  0.587300  1.0  -0.1106
  C  C130  1  0.283900  0.959100  0.629700  1.0  0.0205
  C  C131  1  0.270300  0.962500  0.706500  1.0  -0.1325
  C  C132  1  0.236300  0.912000  0.740700  1.0  0.0043
  C  C133  1  0.180100  0.802500  0.736500  1.0  0.7211
  C  C134  1  0.271900  0.907500  0.504000  1.0  0.7151
  C  C135  1  0.289700  0.021400  0.749000  1.0  0.7383
  C  C136  1  0.715500  0.357900  0.198900  1.0  -0.1295
  C  C137  1  0.726200  0.356300  0.122200  1.0  -0.0028
  C  C138  1  0.760800  0.405700  0.087300  1.0  -0.1106
  C  C139  1  0.783900  0.459100  0.129700  1.0  0.0205
  C  C140  1  0.770300  0.462500  0.206500  1.0  -0.1325
  C  C141  1  0.736300  0.412000  0.240700  1.0  0.0043
  C  C142  1  0.680100  0.302500  0.236500  1.0  0.7211
  C  C143  1  0.771900  0.407500  0.004000  1.0  0.7151
  C  C144  1  0.789700  0.521400  0.249000  1.0  0.7383
  C  C145  1  0.142100  0.784500  0.198900  1.0  -0.1291
  C  C146  1  0.143700  0.773800  0.122200  1.0  -0.0046
  C  C147  1  0.094300  0.739200  0.087300  1.0  -0.111
  C  C148  1  0.040900  0.716100  0.129700  1.0  0.0194
  C  C149  1  0.037500  0.729700  0.206500  1.0  -0.1324
  C  C150  1  0.088000  0.763700  0.240700  1.0  0.0046
  C  C151  1  0.197500  0.819900  0.236500  1.0  0.7207
  C  C152  1  0.092500  0.728100  0.004000  1.0  0.7164
  C  C153  1  0.978600  0.710300  0.249000  1.0  0.7368
  C  C154  1  0.642100  0.284500  0.698900  1.0  -0.1291
  C  C155  1  0.643700  0.273800  0.622200  1.0  -0.0046
  C  C156  1  0.594300  0.239200  0.587300  1.0  -0.111
  C  C157  1  0.540900  0.216100  0.629700  1.0  0.0194
  C  C158  1  0.537500  0.229700  0.706500  1.0  -0.1324
  C  C159  1  0.588000  0.263700  0.740700  1.0  0.0046
  C  C160  1  0.697500  0.319900  0.736500  1.0  0.7207
  C  C161  1  0.592500  0.228100  0.504000  1.0  0.7164
  C  C162  1  0.478600  0.210300  0.749000  1.0  0.7368
  C  C163  1  0.857900  0.215500  0.198900  1.0  -0.1297
  C  C164  1  0.856300  0.226200  0.122200  1.0  -0.0042
  C  C165  1  0.905700  0.260800  0.087300  1.0  -0.1103
  C  C166  1  0.959100  0.283900  0.129700  1.0  0.0211
  C  C167  1  0.962500  0.270300  0.206500  1.0  -0.1331
  C  C168  1  0.912000  0.236300  0.240700  1.0  0.0054
  C  C169  1  0.802500  0.180100  0.236500  1.0  0.7209
  C  C170  1  0.907500  0.271900  0.004000  1.0  0.7155
  C  C171  1  0.021400  0.289700  0.249000  1.0  0.7361
  C  C172  1  0.357900  0.715500  0.698900  1.0  -0.1297
  C  C173  1  0.356300  0.726200  0.622200  1.0  -0.0042
  C  C174  1  0.405700  0.760800  0.587300  1.0  -0.1103
  C  C175  1  0.459100  0.783900  0.629700  1.0  0.0211
  C  C176  1  0.462500  0.770300  0.706500  1.0  -0.1331
  C  C177  1  0.412000  0.736300  0.740700  1.0  0.0054
  C  C178  1  0.302500  0.680100  0.736500  1.0  0.7209
  C  C179  1  0.407500  0.771900  0.504000  1.0  0.7155
  C  C180  1  0.521400  0.789700  0.749000  1.0  0.7361
  C  C181  1  0.784500  0.857900  0.198900  1.0  -0.1299
  C  C182  1  0.773800  0.856300  0.122200  1.0  -0.0029
  C  C183  1  0.739200  0.905700  0.087300  1.0  -0.11
  C  C184  1  0.716100  0.959100  0.129700  1.0  0.0194
  C  C185  1  0.729700  0.962500  0.206500  1.0  -0.1326
  C  C186  1  0.763700  0.912000  0.240700  1.0  0.0054
  C  C187  1  0.819900  0.802500  0.236500  1.0  0.7208
  C  C188  1  0.728100  0.907500  0.004000  1.0  0.7154
  C  C189  1  0.710300  0.021400  0.249000  1.0  0.7384
  C  C190  1  0.284500  0.357900  0.698900  1.0  -0.1299
  C  C191  1  0.273800  0.356300  0.622200  1.0  -0.0029
  C  C192  1  0.239200  0.405700  0.587300  1.0  -0.11
  C  C193  1  0.216100  0.459100  0.629700  1.0  0.0194
  C  C194  1  0.229700  0.462500  0.706500  1.0  -0.1326
  C  C195  1  0.263700  0.412000  0.740700  1.0  0.0054
  C  C196  1  0.319900  0.302500  0.736500  1.0  0.7208
  C  C197  1  0.228100  0.407500  0.504000  1.0  0.7154
  C  C198  1  0.210300  0.521400  0.749000  1.0  0.7384
  C  C199  1  0.215500  0.142100  0.198900  1.0  -0.1299
  C  C200  1  0.226200  0.143700  0.122200  1.0  -0.0033
  C  C201  1  0.260800  0.094300  0.087300  1.0  -0.1109
  C  C202  1  0.283900  0.040900  0.129700  1.0  0.0201
  C  C203  1  0.270300  0.037500  0.206500  1.0  -0.1325
  C  C204  1  0.236300  0.088000  0.240700  1.0  0.0049
  C  C205  1  0.180100  0.197500  0.236500  1.0  0.7221
  C  C206  1  0.271900  0.092500  0.004000  1.0  0.7148
  C  C207  1  0.289700  0.978600  0.249000  1.0  0.7378
  C  C208  1  0.715500  0.642100  0.698900  1.0  -0.1299
  C  C209  1  0.726200  0.643700  0.622200  1.0  -0.0033
  C  C210  1  0.760800  0.594300  0.587300  1.0  -0.1109
  C  C211  1  0.783900  0.540900  0.629700  1.0  0.0201
  C  C212  1  0.770300  0.537500  0.706500  1.0  -0.1325
  C  C213  1  0.736300  0.588000  0.740700  1.0  0.0049
  C  C214  1  0.680100  0.697500  0.736500  1.0  0.7221
  C  C215  1  0.771900  0.592500  0.504000  1.0  0.7148
  C  C216  1  0.789700  0.478600  0.749000  1.0  0.7378
  O  O217  1  0.242010  0.159700  0.697000  1.0  -0.5873
  O  O218  1  0.192160  0.173100  0.807190  1.0  -0.5671
  O  O219  1  0.130100  0.236600  0.464400  1.0  -0.5884
  O  O220  1  0.054300  0.310900  0.476800  1.0  -0.5013
  O  O221  1  0.945650  0.337560  0.723100  1.0  -0.6079
  O  O222  1  0.965710  0.257200  0.807900  1.0  -0.5566
  O  O223  1  0.742010  0.659700  0.197000  1.0  -0.5873
  O  O224  1  0.692160  0.673100  0.307190  1.0  -0.5671
  O  O225  1  0.630100  0.736600  0.964400  1.0  -0.5884
  O  O226  1  0.554300  0.810900  0.976800  1.0  -0.5013
  O  O227  1  0.445650  0.837560  0.223100  1.0  -0.6079
  O  O228  1  0.465710  0.757200  0.307900  1.0  -0.5566
  O  O229  1  0.757990  0.840300  0.697000  1.0  -0.5874
  O  O230  1  0.807840  0.826900  0.807190  1.0  -0.5666
  O  O231  1  0.869900  0.763400  0.464400  1.0  -0.5899
  O  O232  1  0.945700  0.689100  0.476800  1.0  -0.4997
  O  O233  1  0.054350  0.662440  0.723100  1.0  -0.6066
  O  O234  1  0.034290  0.742800  0.807900  1.0  -0.5579
  O  O235  1  0.257990  0.340300  0.197000  1.0  -0.5874
  O  O236  1  0.307840  0.326900  0.307190  1.0  -0.5666
  O  O237  1  0.369900  0.263400  0.964400  1.0  -0.5899
  O  O238  1  0.445700  0.189100  0.976800  1.0  -0.4997
  O  O239  1  0.554350  0.162440  0.223100  1.0  -0.6066
  O  O240  1  0.534290  0.242800  0.307900  1.0  -0.5579
  O  O241  1  0.840300  0.242010  0.697000  1.0  -0.5892
  O  O242  1  0.826900  0.192160  0.807190  1.0  -0.5659
  O  O243  1  0.763400  0.130100  0.464400  1.0  -0.5907
  O  O244  1  0.689100  0.054300  0.476800  1.0  -0.5003
  O  O245  1  0.662440  0.945650  0.723100  1.0  -0.6081
  O  O246  1  0.742800  0.965710  0.807900  1.0  -0.5576
  O  O247  1  0.340300  0.742010  0.197000  1.0  -0.5892
  O  O248  1  0.326900  0.692160  0.307190  1.0  -0.5659
  O  O249  1  0.263400  0.630100  0.964400  1.0  -0.5907
  O  O250  1  0.189100  0.554300  0.976800  1.0  -0.5003
  O  O251  1  0.162440  0.445650  0.223100  1.0  -0.6081
  O  O252  1  0.242800  0.465710  0.307900  1.0  -0.5576
  O  O253  1  0.159700  0.757990  0.697000  1.0  -0.5889
  O  O254  1  0.173100  0.807840  0.807190  1.0  -0.5659
  O  O255  1  0.236600  0.869900  0.464400  1.0  -0.5885
  O  O256  1  0.310900  0.945700  0.476800  1.0  -0.4992
  O  O257  1  0.337560  0.054350  0.723100  1.0  -0.607
  O  O258  1  0.257200  0.034290  0.807900  1.0  -0.5554
  O  O259  1  0.659700  0.257990  0.197000  1.0  -0.5889
  O  O260  1  0.673100  0.307840  0.307190  1.0  -0.5659
  O  O261  1  0.736600  0.369900  0.964400  1.0  -0.5885
  O  O262  1  0.810900  0.445700  0.976800  1.0  -0.4992
  O  O263  1  0.837560  0.554350  0.223100  1.0  -0.607
  O  O264  1  0.757200  0.534290  0.307900  1.0  -0.5554
  O  O265  1  0.242010  0.840300  0.197000  1.0  -0.5879
  O  O266  1  0.192160  0.826900  0.307190  1.0  -0.5667
  O  O267  1  0.130100  0.763400  0.964400  1.0  -0.59
  O  O268  1  0.054300  0.689100  0.976800  1.0  -0.5011
  O  O269  1  0.945650  0.662440  0.223100  1.0  -0.6066
  O  O270  1  0.965710  0.742800  0.307900  1.0  -0.557
  O  O271  1  0.742010  0.340300  0.697000  1.0  -0.5879
  O  O272  1  0.692160  0.326900  0.807190  1.0  -0.5667
  O  O273  1  0.630100  0.263400  0.464400  1.0  -0.59
  O  O274  1  0.554300  0.189100  0.476800  1.0  -0.5011
  O  O275  1  0.445650  0.162440  0.723100  1.0  -0.6066
  O  O276  1  0.465710  0.242800  0.807900  1.0  -0.557
  O  O277  1  0.757990  0.159700  0.197000  1.0  -0.5869
  O  O278  1  0.807840  0.173100  0.307190  1.0  -0.5669
  O  O279  1  0.869900  0.236600  0.964400  1.0  -0.5884
  O  O280  1  0.945700  0.310900  0.976800  1.0  -0.4995
  O  O281  1  0.054350  0.337560  0.223100  1.0  -0.6081
  O  O282  1  0.034290  0.257200  0.307900  1.0  -0.5572
  O  O283  1  0.257990  0.659700  0.697000  1.0  -0.5869
  O  O284  1  0.307840  0.673100  0.807190  1.0  -0.5669
  O  O285  1  0.369900  0.736600  0.464400  1.0  -0.5884
  O  O286  1  0.445700  0.810900  0.476800  1.0  -0.4995
  O  O287  1  0.554350  0.837560  0.723100  1.0  -0.6081
  O  O288  1  0.534290  0.757200  0.807900  1.0  -0.5572
  O  O289  1  0.840300  0.757990  0.197000  1.0  -0.5891
  O  O290  1  0.826900  0.807840  0.307190  1.0  -0.5644
  O  O291  1  0.763400  0.869900  0.964400  1.0  -0.5892
  O  O292  1  0.689100  0.945700  0.976800  1.0  -0.4995
  O  O293  1  0.662440  0.054350  0.223100  1.0  -0.6073
  O  O294  1  0.742800  0.034290  0.307900  1.0  -0.5562
  O  O295  1  0.340300  0.257990  0.697000  1.0  -0.5891
  O  O296  1  0.326900  0.307840  0.807190  1.0  -0.5644
  O  O297  1  0.263400  0.369900  0.464400  1.0  -0.5892
  O  O298  1  0.189100  0.445700  0.476800  1.0  -0.4995
  O  O299  1  0.162440  0.554350  0.723100  1.0  -0.6073
  O  O300  1  0.242800  0.534290  0.807900  1.0  -0.5562
  O  O301  1  0.159700  0.242010  0.197000  1.0  -0.5893
  O  O302  1  0.173100  0.192160  0.307190  1.0  -0.5672
  O  O303  1  0.236600  0.130100  0.964400  1.0  -0.589
  O  O304  1  0.310900  0.054300  0.976800  1.0  -0.5
  O  O305  1  0.337560  0.945650  0.223100  1.0  -0.6079
  O  O306  1  0.257200  0.965710  0.307900  1.0  -0.5567
  O  O307  1  0.659700  0.742010  0.697000  1.0  -0.5893
  O  O308  1  0.673100  0.692160  0.807190  1.0  -0.5672
  O  O309  1  0.736600  0.630100  0.464400  1.0  -0.589
  O  O310  1  0.810900  0.554300  0.476800  1.0  -0.5
  O  O311  1  0.837560  0.445650  0.723100  1.0  -0.6079
  O  O312  1  0.757200  0.465710  0.807900  1.0  -0.5567
  O  O313  1  0.340700  0.159300  0.831400  1.0  -0.7871
  O  O314  1  0.659300  0.840700  0.831400  1.0  -0.7862
  O  O315  1  0.159300  0.340700  0.331400  1.0  -0.7862
  O  O316  1  0.840700  0.340700  0.831400  1.0  -0.7861
  O  O317  1  0.159300  0.659300  0.831400  1.0  -0.7872
  O  O318  1  0.340700  0.840700  0.331400  1.0  -0.7861
  O  O319  1  0.659300  0.159300  0.331400  1.0  -0.7872
  O  O320  1  0.840700  0.659300  0.331400  1.0  -0.7871
