# generated using pymatgen
data_Cd2SiH16(C7O2)4
_symmetry_space_group_name_H-M   'P 1'
_cell_length_a   18.64000000
_cell_length_b   22.79500000
_cell_length_c   13.28100000
_cell_angle_alpha   90.00000000
_cell_angle_beta   130.48400000
_cell_angle_gamma   90.00000000
_symmetry_Int_Tables_number   1
_chemical_formula_structural   Cd2SiH16(C7O2)4
_chemical_formula_sum   'Cd8 Si4 H64 C112 O32'
_cell_volume   4292.05569093
_cell_formula_units_Z   4
loop_
 _symmetry_equiv_pos_site_id
 _symmetry_equiv_pos_as_xyz
  1  'x, y, z'
loop_
 _atom_site_type_symbol
 _atom_site_label
 _atom_site_symmetry_multiplicity
 _atom_site_fract_x
 _atom_site_fract_y
 _atom_site_fract_z
 _atom_site_occupancy
 _atom_site_charge
  Cd  Cd1  1  0.500000  0.183800  0.250000  1.0  1.0251
  Cd  Cd2  1  0.000000  0.683800  0.250000  1.0  1.025
  Cd  Cd3  1  0.500000  0.816200  0.750000  1.0  1.0241
  Cd  Cd4  1  0.000000  0.316200  0.750000  1.0  1.024
  Cd  Cd5  1  0.750000  0.250000  0.500000  1.0  0.9712
  Cd  Cd6  1  0.250000  0.250000  0.000000  1.0  0.9712
  Cd  Cd7  1  0.250000  0.750000  0.500000  1.0  0.9712
  Cd  Cd8  1  0.750000  0.750000  0.000000  1.0  0.9712
  Si  Si9  1  0.500000  0.451570  0.750000  1.0  0.9191
  Si  Si10  1  0.000000  0.951570  0.750000  1.0  0.9191
  Si  Si11  1  0.500000  0.548430  0.250000  1.0  0.9187
  Si  Si12  1  0.000000  0.048430  0.250000  1.0  0.9187
  H  H13  1  0.626900  0.385800  0.542800  1.0  0.09
  H  H14  1  0.610200  0.448800  0.661000  1.0  0.097
  H  H15  1  0.418000  0.342900  0.605900  1.0  0.103
  H  H16  1  0.433900  0.280200  0.487000  1.0  0.1162
  H  H17  1  0.697600  0.619800  0.854000  1.0  0.1106
  H  H18  1  0.570300  0.557600  0.719700  1.0  0.0969
  H  H19  1  0.670900  0.457000  0.032900  1.0  0.0954
  H  H20  1  0.797400  0.518300  0.166000  1.0  0.1193
  H  H21  1  0.126900  0.885800  0.542800  1.0  0.09
  H  H22  1  0.110200  0.948800  0.661000  1.0  0.097
  H  H23  1  0.918000  0.842900  0.605900  1.0  0.103
  H  H24  1  0.933900  0.780200  0.487000  1.0  0.1162
  H  H25  1  0.197600  0.119800  0.854000  1.0  0.1106
  H  H26  1  0.070300  0.057600  0.719700  1.0  0.0969
  H  H27  1  0.170900  0.957000  0.032900  1.0  0.0954
  H  H28  1  0.297400  0.018300  0.166000  1.0  0.1193
  H  H29  1  0.373100  0.385800  0.957200  1.0  0.0892
  H  H30  1  0.389800  0.448800  0.839000  1.0  0.0975
  H  H31  1  0.582000  0.342900  0.894100  1.0  0.1025
  H  H32  1  0.566100  0.280200  0.013000  1.0  0.1162
  H  H33  1  0.302400  0.619800  0.646000  1.0  0.1104
  H  H34  1  0.429700  0.557600  0.780300  1.0  0.0962
  H  H35  1  0.329100  0.457000  0.467100  1.0  0.0968
  H  H36  1  0.202600  0.518300  0.334000  1.0  0.1242
  H  H37  1  0.873100  0.885800  0.957200  1.0  0.0892
  H  H38  1  0.889800  0.948800  0.839000  1.0  0.0975
  H  H39  1  0.082000  0.842900  0.894100  1.0  0.1025
  H  H40  1  0.066100  0.780200  0.013000  1.0  0.1162
  H  H41  1  0.802400  0.119800  0.646000  1.0  0.1104
  H  H42  1  0.929700  0.057600  0.780300  1.0  0.0962
  H  H43  1  0.829100  0.957000  0.467100  1.0  0.0968
  H  H44  1  0.702600  0.018300  0.334000  1.0  0.1242
  H  H45  1  0.373100  0.614200  0.457200  1.0  0.089
  H  H46  1  0.389800  0.551200  0.339000  1.0  0.0972
  H  H47  1  0.582000  0.657100  0.394100  1.0  0.1025
  H  H48  1  0.566100  0.719800  0.513000  1.0  0.1165
  H  H49  1  0.302400  0.380200  0.146000  1.0  0.1107
  H  H50  1  0.429700  0.442400  0.280300  1.0  0.0965
  H  H51  1  0.329100  0.543000  0.967100  1.0  0.0979
  H  H52  1  0.202600  0.481700  0.834000  1.0  0.1243
  H  H53  1  0.873100  0.114200  0.457200  1.0  0.089
  H  H54  1  0.889800  0.051200  0.339000  1.0  0.0972
  H  H55  1  0.082000  0.157100  0.394100  1.0  0.1025
  H  H56  1  0.066100  0.219800  0.513000  1.0  0.1165
  H  H57  1  0.802400  0.880200  0.146000  1.0  0.1107
  H  H58  1  0.929700  0.942400  0.280300  1.0  0.0965
  H  H59  1  0.829100  0.043000  0.967100  1.0  0.0979
  H  H60  1  0.702600  0.981700  0.834000  1.0  0.1243
  H  H61  1  0.626900  0.614200  0.042800  1.0  0.09
  H  H62  1  0.610200  0.551200  0.161000  1.0  0.0975
  H  H63  1  0.418000  0.657100  0.105900  1.0  0.1023
  H  H64  1  0.433900  0.719800  0.987000  1.0  0.1169
  H  H65  1  0.697600  0.380200  0.354000  1.0  0.1104
  H  H66  1  0.570300  0.442400  0.219700  1.0  0.0967
  H  H67  1  0.670900  0.543000  0.532900  1.0  0.0959
  H  H68  1  0.797400  0.481700  0.666000  1.0  0.1194
  H  H69  1  0.126900  0.114200  0.042800  1.0  0.09
  H  H70  1  0.110200  0.051200  0.161000  1.0  0.0975
  H  H71  1  0.918000  0.157100  0.105900  1.0  0.1023
  H  H72  1  0.933900  0.219800  0.987000  1.0  0.1169
  H  H73  1  0.197600  0.880200  0.354000  1.0  0.1104
  H  H74  1  0.070300  0.942400  0.219700  1.0  0.0967
  H  H75  1  0.170900  0.043000  0.532900  1.0  0.0959
  H  H76  1  0.297400  0.981700  0.666000  1.0  0.1194
  C  C77  1  0.547500  0.283800  0.431700  1.0  0.7308
  C  C78  1  0.533590  0.325720  0.504700  1.0  -0.1431
  C  C79  1  0.584900  0.376660  0.556000  1.0  -0.0421
  C  C80  1  0.574700  0.414570  0.627100  1.0  -0.0421
  C  C81  1  0.513170  0.403090  0.649500  1.0  -0.2224
  C  C82  1  0.461000  0.351920  0.594300  1.0  -0.0316
  C  C83  1  0.470500  0.314060  0.523100  1.0  -0.0514
  C  C84  1  0.840690  0.616970  0.111400  1.0  0.6912
  C  C85  1  0.759110  0.576160  0.023800  1.0  -0.1381
  C  C86  1  0.691920  0.587110  0.890400  1.0  -0.0122
  C  C87  1  0.615560  0.549570  0.809700  1.0  -0.0254
  C  C88  1  0.605580  0.499800  0.861600  1.0  -0.3207
  C  C89  1  0.675440  0.489860  0.995800  1.0  0.0025
  C  C90  1  0.751330  0.526680  0.076200  1.0  -0.0938
  C  C91  1  0.047500  0.783800  0.431700  1.0  0.7308
  C  C92  1  0.033590  0.825720  0.504700  1.0  -0.1431
  C  C93  1  0.084900  0.876660  0.556000  1.0  -0.0421
  C  C94  1  0.074700  0.914570  0.627100  1.0  -0.0421
  C  C95  1  0.013170  0.903090  0.649500  1.0  -0.2224
  C  C96  1  0.961000  0.851920  0.594300  1.0  -0.0316
  C  C97  1  0.970500  0.814060  0.523100  1.0  -0.0514
  C  C98  1  0.340690  0.116970  0.111400  1.0  0.6912
  C  C99  1  0.259110  0.076160  0.023800  1.0  -0.1381
  C  C100  1  0.191920  0.087110  0.890400  1.0  -0.0122
  C  C101  1  0.115560  0.049570  0.809700  1.0  -0.0254
  C  C102  1  0.105580  0.999800  0.861600  1.0  -0.3207
  C  C103  1  0.175440  0.989860  0.995800  1.0  0.0025
  C  C104  1  0.251330  0.026680  0.076200  1.0  -0.0938
  C  C105  1  0.452500  0.283800  0.068300  1.0  0.731
  C  C106  1  0.466410  0.325720  0.995300  1.0  -0.1431
  C  C107  1  0.415100  0.376660  0.944000  1.0  -0.0421
  C  C108  1  0.425300  0.414570  0.872900  1.0  -0.0418
  C  C109  1  0.486830  0.403090  0.850500  1.0  -0.223
  C  C110  1  0.539000  0.351920  0.905700  1.0  -0.0323
  C  C111  1  0.529500  0.314060  0.976900  1.0  -0.053
  C  C112  1  0.159310  0.616970  0.388600  1.0  0.6916
  C  C113  1  0.240890  0.576160  0.476200  1.0  -0.137
  C  C114  1  0.308080  0.587110  0.609600  1.0  -0.0131
  C  C115  1  0.384440  0.549570  0.690300  1.0  -0.0259
  C  C116  1  0.394420  0.499800  0.638400  1.0  -0.3203
  C  C117  1  0.324560  0.489860  0.504200  1.0  0.0039
  C  C118  1  0.248670  0.526680  0.423800  1.0  -0.0939
  C  C119  1  0.952500  0.783800  0.068300  1.0  0.731
  C  C120  1  0.966410  0.825720  0.995300  1.0  -0.1431
  C  C121  1  0.915100  0.876660  0.944000  1.0  -0.0421
  C  C122  1  0.925300  0.914570  0.872900  1.0  -0.0418
  C  C123  1  0.986830  0.903090  0.850500  1.0  -0.223
  C  C124  1  0.039000  0.851920  0.905700  1.0  -0.0323
  C  C125  1  0.029500  0.814060  0.976900  1.0  -0.053
  C  C126  1  0.659310  0.116970  0.388600  1.0  0.6916
  C  C127  1  0.740890  0.076160  0.476200  1.0  -0.137
  C  C128  1  0.808080  0.087110  0.609600  1.0  -0.0131
  C  C129  1  0.884440  0.049570  0.690300  1.0  -0.0259
  C  C130  1  0.894420  0.999800  0.638400  1.0  -0.3203
  C  C131  1  0.824560  0.989860  0.504200  1.0  0.0039
  C  C132  1  0.748670  0.026680  0.423800  1.0  -0.0939
  C  C133  1  0.452500  0.716200  0.568300  1.0  0.7301
  C  C134  1  0.466410  0.674280  0.495300  1.0  -0.1416
  C  C135  1  0.415100  0.623340  0.444000  1.0  -0.0419
  C  C136  1  0.425300  0.585430  0.372900  1.0  -0.0415
  C  C137  1  0.486830  0.596910  0.350500  1.0  -0.2238
  C  C138  1  0.539000  0.648080  0.405700  1.0  -0.0337
  C  C139  1  0.529500  0.685940  0.476900  1.0  -0.0521
  C  C140  1  0.159310  0.383030  0.888600  1.0  0.6912
  C  C141  1  0.240890  0.423840  0.976200  1.0  -0.1369
  C  C142  1  0.308080  0.412890  0.109600  1.0  -0.0118
  C  C143  1  0.384440  0.450430  0.190300  1.0  -0.0264
  C  C144  1  0.394420  0.500200  0.138400  1.0  -0.3208
  C  C145  1  0.324560  0.510140  0.004200  1.0  0.0045
  C  C146  1  0.248670  0.473320  0.923800  1.0  -0.0937
  C  C147  1  0.952500  0.216200  0.568300  1.0  0.7301
  C  C148  1  0.966410  0.174280  0.495300  1.0  -0.1416
  C  C149  1  0.915100  0.123340  0.444000  1.0  -0.0419
  C  C150  1  0.925300  0.085430  0.372900  1.0  -0.0415
  C  C151  1  0.986830  0.096910  0.350500  1.0  -0.2238
  C  C152  1  0.039000  0.148080  0.405700  1.0  -0.0337
  C  C153  1  0.029500  0.185940  0.476900  1.0  -0.0521
  C  C154  1  0.659310  0.883030  0.888600  1.0  0.6912
  C  C155  1  0.740890  0.923840  0.976200  1.0  -0.1369
  C  C156  1  0.808080  0.912890  0.109600  1.0  -0.0118
  C  C157  1  0.884440  0.950430  0.190300  1.0  -0.0264
  C  C158  1  0.894420  0.000200  0.138400  1.0  -0.3208
  C  C159  1  0.824560  0.010140  0.004200  1.0  0.0045
  C  C160  1  0.748670  0.973320  0.923800  1.0  -0.0937
  C  C161  1  0.547500  0.716200  0.931700  1.0  0.7302
  C  C162  1  0.533590  0.674280  0.004700  1.0  -0.1415
  C  C163  1  0.584900  0.623340  0.056000  1.0  -0.0425
  C  C164  1  0.574700  0.585430  0.127100  1.0  -0.0414
  C  C165  1  0.513170  0.596910  0.149500  1.0  -0.2233
  C  C166  1  0.461000  0.648080  0.094300  1.0  -0.0324
  C  C167  1  0.470500  0.685940  0.023100  1.0  -0.0533
  C  C168  1  0.840690  0.383030  0.611400  1.0  0.6905
  C  C169  1  0.759110  0.423840  0.523800  1.0  -0.1378
  C  C170  1  0.691920  0.412890  0.390400  1.0  -0.013
  C  C171  1  0.615560  0.450430  0.309700  1.0  -0.0252
  C  C172  1  0.605580  0.500200  0.361600  1.0  -0.3204
  C  C173  1  0.675440  0.510140  0.495800  1.0  0.0036
  C  C174  1  0.751330  0.473320  0.576200  1.0  -0.0943
  C  C175  1  0.047500  0.216200  0.931700  1.0  0.7302
  C  C176  1  0.033590  0.174280  0.004700  1.0  -0.1415
  C  C177  1  0.084900  0.123340  0.056000  1.0  -0.0425
  C  C178  1  0.074700  0.085430  0.127100  1.0  -0.0414
  C  C179  1  0.013170  0.096910  0.149500  1.0  -0.2233
  C  C180  1  0.961000  0.148080  0.094300  1.0  -0.0324
  C  C181  1  0.970500  0.185940  0.023100  1.0  -0.0533
  C  C182  1  0.340690  0.883030  0.611400  1.0  0.6905
  C  C183  1  0.259110  0.923840  0.523800  1.0  -0.1378
  C  C184  1  0.191920  0.912890  0.390400  1.0  -0.013
  C  C185  1  0.115560  0.950430  0.309700  1.0  -0.0252
  C  C186  1  0.105580  0.000200  0.361600  1.0  -0.3204
  C  C187  1  0.175440  0.010140  0.495800  1.0  0.0036
  C  C188  1  0.251330  0.973320  0.576200  1.0  -0.0943
  O  O189  1  0.614060  0.291860  0.432450  1.0  -0.6895
  O  O190  1  0.489310  0.241940  0.372570  1.0  -0.5881
  O  O191  1  0.839970  0.665660  0.063930  1.0  -0.7022
  O  O192  1  0.908500  0.603400  0.227200  1.0  -0.6105
  O  O193  1  0.114060  0.791860  0.432450  1.0  -0.6895
  O  O194  1  0.989310  0.741940  0.372570  1.0  -0.588
  O  O195  1  0.339970  0.165660  0.063930  1.0  -0.7022
  O  O196  1  0.408500  0.103400  0.227200  1.0  -0.6105
  O  O197  1  0.385940  0.291860  0.067550  1.0  -0.6891
  O  O198  1  0.510690  0.241940  0.127430  1.0  -0.5858
  O  O199  1  0.160030  0.665660  0.436070  1.0  -0.7008
  O  O200  1  0.091500  0.603400  0.272800  1.0  -0.6119
  O  O201  1  0.885940  0.791860  0.067550  1.0  -0.6891
  O  O202  1  0.010690  0.741940  0.127430  1.0  -0.5863
  O  O203  1  0.660030  0.165660  0.436070  1.0  -0.7008
  O  O204  1  0.591500  0.103400  0.272800  1.0  -0.6119
  O  O205  1  0.385940  0.708140  0.567550  1.0  -0.6899
  O  O206  1  0.510690  0.758060  0.627430  1.0  -0.5881
  O  O207  1  0.160030  0.334340  0.936070  1.0  -0.6999
  O  O208  1  0.091500  0.396600  0.772800  1.0  -0.612
  O  O209  1  0.885940  0.208140  0.567550  1.0  -0.6899
  O  O210  1  0.010690  0.258060  0.627430  1.0  -0.5881
  O  O211  1  0.660030  0.834340  0.936070  1.0  -0.6999
  O  O212  1  0.591500  0.896600  0.772800  1.0  -0.612
  O  O213  1  0.614060  0.708140  0.932450  1.0  -0.6891
  O  O214  1  0.489310  0.758060  0.872570  1.0  -0.5886
  O  O215  1  0.839970  0.334340  0.563930  1.0  -0.7017
  O  O216  1  0.908500  0.396600  0.727200  1.0  -0.6099
  O  O217  1  0.114060  0.208140  0.932450  1.0  -0.6891
  O  O218  1  0.989310  0.258060  0.872570  1.0  -0.5891
  O  O219  1  0.339970  0.834340  0.563930  1.0  -0.7017
  O  O220  1  0.408500  0.896600  0.727200  1.0  -0.6099
