# generated using pymatgen
data_Zn3H36C64(NO)8
_symmetry_space_group_name_H-M   'P 1'
_cell_length_a   14.12300000
_cell_length_b   36.16600000
_cell_length_c   18.34100000
_cell_angle_alpha   90.00000000
_cell_angle_beta   99.38000000
_cell_angle_gamma   90.00000000
_symmetry_Int_Tables_number   1
_chemical_formula_structural   Zn3H36C64(NO)8
_chemical_formula_sum   'Zn12 H144 C256 N32 O32'
_cell_volume   9242.81742081
_cell_formula_units_Z   4
loop_
 _symmetry_equiv_pos_site_id
 _symmetry_equiv_pos_as_xyz
  1  'x, y, z'
loop_
 _atom_site_type_symbol
 _atom_site_label
 _atom_site_symmetry_multiplicity
 _atom_site_fract_x
 _atom_site_fract_y
 _atom_site_fract_z
 _atom_site_occupancy
 _atom_site_charge
  Zn  Zn1  1  0.777630  0.572990  0.114910  1.0  0.889
  Zn  Zn2  1  0.722370  0.072990  0.385090  1.0  0.8911
  Zn  Zn3  1  0.722370  0.927010  0.885090  1.0  0.8907
  Zn  Zn4  1  0.777630  0.427010  0.614910  1.0  0.8896
  Zn  Zn5  1  0.250000  0.750000  0.000000  1.0  0.8229
  Zn  Zn6  1  0.250000  0.250000  0.500000  1.0  0.8229
  Zn  Zn7  1  0.277630  0.072990  0.114910  1.0  0.889
  Zn  Zn8  1  0.222370  0.572990  0.385090  1.0  0.8911
  Zn  Zn9  1  0.222370  0.427010  0.885090  1.0  0.8907
  Zn  Zn10  1  0.277630  0.927010  0.614910  1.0  0.8896
  Zn  Zn11  1  0.750000  0.750000  0.500000  1.0  0.8229
  Zn  Zn12  1  0.750000  0.250000  0.000000  1.0  0.8229
  H  H13  1  0.359500  0.616900  0.064500  1.0  0.1088
  H  H14  1  0.931600  0.456900  0.853800  1.0  0.1164
  H  H15  1  0.624000  0.491800  0.005100  1.0  0.0986
  H  H16  1  0.482200  0.466500  0.945500  1.0  0.0926
  H  H17  1  0.477300  0.436200  0.838200  1.0  0.0847
  H  H18  1  0.614200  0.428500  0.785700  1.0  0.0981
  H  H19  1  0.935700  0.490500  0.958300  1.0  0.0777
  H  H20  1  0.679600  0.634200  0.184800  1.0  0.0769
  H  H21  1  0.550800  0.676300  0.154900  1.0  0.1097
  H  H22  1  0.607800  0.720700  0.016700  1.0  0.1057
  H  H23  1  0.595100  0.785400  0.979600  1.0  0.101
  H  H24  1  0.498200  0.633000  0.952700  1.0  0.1254
  H  H25  1  0.625200  0.593400  0.989100  1.0  0.0726
  H  H26  1  0.556300  0.881500  0.814100  1.0  0.0621
  H  H27  1  0.437400  0.844700  0.846500  1.0  0.0592
  H  H28  1  0.539600  0.860200  0.051400  1.0  0.1113
  H  H29  1  0.185300  0.615400  0.066600  1.0  0.1013
  H  H30  1  0.652300  0.899000  0.017800  1.0  0.0778
  H  H31  1  0.140500  0.116900  0.435500  1.0  0.1088
  H  H32  1  0.568400  0.956900  0.646200  1.0  0.1167
  H  H33  1  0.876000  0.991800  0.494900  1.0  0.0984
  H  H34  1  0.017800  0.966500  0.554500  1.0  0.0924
  H  H35  1  0.022700  0.936200  0.661800  1.0  0.085
  H  H36  1  0.885800  0.928500  0.714300  1.0  0.0988
  H  H37  1  0.564300  0.990500  0.541700  1.0  0.0785
  H  H38  1  0.820400  0.134200  0.315200  1.0  0.0771
  H  H39  1  0.949200  0.176300  0.345100  1.0  0.1102
  H  H40  1  0.892200  0.220700  0.483300  1.0  0.1048
  H  H41  1  0.904900  0.285400  0.520400  1.0  0.1009
  H  H42  1  0.001800  0.133000  0.547300  1.0  0.1247
  H  H43  1  0.874800  0.093400  0.510900  1.0  0.0712
  H  H44  1  0.943700  0.381500  0.685900  1.0  0.0615
  H  H45  1  0.062600  0.344700  0.653500  1.0  0.0604
  H  H46  1  0.960400  0.360200  0.448600  1.0  0.1076
  H  H47  1  0.314700  0.115400  0.433400  1.0  0.1016
  H  H48  1  0.847700  0.399000  0.482200  1.0  0.0777
  H  H49  1  0.140500  0.883100  0.935500  1.0  0.1089
  H  H50  1  0.568400  0.043100  0.146200  1.0  0.1167
  H  H51  1  0.876000  0.008200  0.994900  1.0  0.0985
  H  H52  1  0.017800  0.033500  0.054500  1.0  0.0924
  H  H53  1  0.022700  0.063800  0.161800  1.0  0.0852
  H  H54  1  0.885800  0.071500  0.214300  1.0  0.0987
  H  H55  1  0.564300  0.009500  0.041700  1.0  0.0783
  H  H56  1  0.820400  0.865800  0.815200  1.0  0.0768
  H  H57  1  0.949200  0.823700  0.845100  1.0  0.11
  H  H58  1  0.892200  0.779300  0.983300  1.0  0.1043
  H  H59  1  0.904900  0.714600  0.020400  1.0  0.1011
  H  H60  1  0.001800  0.867000  0.047300  1.0  0.1245
  H  H61  1  0.874800  0.906600  0.010900  1.0  0.0711
  H  H62  1  0.943700  0.618500  0.185900  1.0  0.0614
  H  H63  1  0.062600  0.655300  0.153500  1.0  0.0583
  H  H64  1  0.960400  0.639800  0.948600  1.0  0.1081
  H  H65  1  0.314700  0.884600  0.933400  1.0  0.1015
  H  H66  1  0.847700  0.601000  0.982200  1.0  0.0777
  H  H67  1  0.359500  0.383100  0.564500  1.0  0.1089
  H  H68  1  0.931600  0.543100  0.353800  1.0  0.1167
  H  H69  1  0.624000  0.508200  0.505100  1.0  0.0987
  H  H70  1  0.482200  0.533500  0.445500  1.0  0.0929
  H  H71  1  0.477300  0.563800  0.338200  1.0  0.0845
  H  H72  1  0.614200  0.571500  0.285700  1.0  0.098
  H  H73  1  0.935700  0.509500  0.458300  1.0  0.0776
  H  H74  1  0.679600  0.365800  0.684800  1.0  0.0767
  H  H75  1  0.550800  0.323700  0.654900  1.0  0.1101
  H  H76  1  0.607800  0.279300  0.516700  1.0  0.1055
  H  H77  1  0.595100  0.214600  0.479600  1.0  0.1012
  H  H78  1  0.498200  0.367000  0.452700  1.0  0.1255
  H  H79  1  0.625200  0.406600  0.489100  1.0  0.0717
  H  H80  1  0.556300  0.118500  0.314100  1.0  0.0622
  H  H81  1  0.437400  0.155300  0.346500  1.0  0.0587
  H  H82  1  0.539600  0.139800  0.551400  1.0  0.1118
  H  H83  1  0.185300  0.384600  0.566600  1.0  0.1015
  H  H84  1  0.652300  0.101000  0.517800  1.0  0.0778
  H  H85  1  0.859500  0.116900  0.064500  1.0  0.1088
  H  H86  1  0.431600  0.956900  0.853800  1.0  0.1164
  H  H87  1  0.124000  0.991800  0.005100  1.0  0.0986
  H  H88  1  0.982200  0.966500  0.945500  1.0  0.0926
  H  H89  1  0.977300  0.936200  0.838200  1.0  0.0847
  H  H90  1  0.114200  0.928500  0.785700  1.0  0.0981
  H  H91  1  0.435700  0.990500  0.958300  1.0  0.0777
  H  H92  1  0.179600  0.134200  0.184800  1.0  0.0769
  H  H93  1  0.050800  0.176300  0.154900  1.0  0.1097
  H  H94  1  0.107800  0.220700  0.016700  1.0  0.1057
  H  H95  1  0.095100  0.285400  0.979600  1.0  0.101
  H  H96  1  0.998200  0.133000  0.952700  1.0  0.1254
  H  H97  1  0.125200  0.093400  0.989100  1.0  0.0726
  H  H98  1  0.056300  0.381500  0.814100  1.0  0.0606
  H  H99  1  0.937400  0.344700  0.846500  1.0  0.0592
  H  H100  1  0.039600  0.360200  0.051400  1.0  0.1113
  H  H101  1  0.685300  0.115400  0.066600  1.0  0.1013
  H  H102  1  0.152300  0.399000  0.017800  1.0  0.0778
  H  H103  1  0.640500  0.616900  0.435500  1.0  0.1088
  H  H104  1  0.068400  0.456900  0.646200  1.0  0.1167
  H  H105  1  0.376000  0.491800  0.494900  1.0  0.0984
  H  H106  1  0.517800  0.466500  0.554500  1.0  0.0924
  H  H107  1  0.522700  0.436200  0.661800  1.0  0.085
  H  H108  1  0.385800  0.428500  0.714300  1.0  0.0988
  H  H109  1  0.064300  0.490500  0.541700  1.0  0.0785
  H  H110  1  0.320400  0.634200  0.315200  1.0  0.0771
  H  H111  1  0.449200  0.676300  0.345100  1.0  0.1102
  H  H112  1  0.392200  0.720700  0.483300  1.0  0.1048
  H  H113  1  0.404900  0.785400  0.520400  1.0  0.1009
  H  H114  1  0.501800  0.633000  0.547300  1.0  0.1247
  H  H115  1  0.374800  0.593400  0.510900  1.0  0.0712
  H  H116  1  0.443700  0.881500  0.685900  1.0  0.0615
  H  H117  1  0.562600  0.844700  0.653500  1.0  0.0604
  H  H118  1  0.460400  0.860200  0.448600  1.0  0.1076
  H  H119  1  0.814700  0.615400  0.433400  1.0  0.1016
  H  H120  1  0.347700  0.899000  0.482200  1.0  0.0777
  H  H121  1  0.640500  0.383100  0.935500  1.0  0.1089
  H  H122  1  0.068400  0.543100  0.146200  1.0  0.1167
  H  H123  1  0.376000  0.508200  0.994900  1.0  0.0987
  H  H124  1  0.517800  0.533500  0.054500  1.0  0.0924
  H  H125  1  0.522700  0.563800  0.161800  1.0  0.0852
  H  H126  1  0.385800  0.571500  0.214300  1.0  0.0987
  H  H127  1  0.064300  0.509500  0.041700  1.0  0.0783
  H  H128  1  0.320400  0.365800  0.815200  1.0  0.0768
  H  H129  1  0.449200  0.323700  0.845100  1.0  0.11
  H  H130  1  0.392200  0.279300  0.983300  1.0  0.1043
  H  H131  1  0.404900  0.214600  0.020400  1.0  0.1011
  H  H132  1  0.501800  0.367000  0.047300  1.0  0.1245
  H  H133  1  0.374800  0.406600  0.010900  1.0  0.0711
  H  H134  1  0.443700  0.118500  0.185900  1.0  0.0614
  H  H135  1  0.562600  0.155300  0.153500  1.0  0.0581
  H  H136  1  0.460400  0.139800  0.948600  1.0  0.1081
  H  H137  1  0.814700  0.384600  0.933400  1.0  0.1015
  H  H138  1  0.347700  0.101000  0.982200  1.0  0.0777
  H  H139  1  0.859500  0.883100  0.564500  1.0  0.1089
  H  H140  1  0.431600  0.043100  0.353800  1.0  0.1167
  H  H141  1  0.124000  0.008200  0.505100  1.0  0.0987
  H  H142  1  0.982200  0.033500  0.445500  1.0  0.0929
  H  H143  1  0.977300  0.063800  0.338200  1.0  0.0845
  H  H144  1  0.114200  0.071500  0.285700  1.0  0.098
  H  H145  1  0.435700  0.009500  0.458300  1.0  0.0776
  H  H146  1  0.179600  0.865800  0.684800  1.0  0.0767
  H  H147  1  0.050800  0.823700  0.654900  1.0  0.1101
  H  H148  1  0.107800  0.779300  0.516700  1.0  0.1055
  H  H149  1  0.095100  0.714600  0.479600  1.0  0.1012
  H  H150  1  0.998200  0.867000  0.452700  1.0  0.1255
  H  H151  1  0.125200  0.906600  0.489100  1.0  0.0717
  H  H152  1  0.056300  0.618500  0.314100  1.0  0.0607
  H  H153  1  0.937400  0.655300  0.346500  1.0  0.0587
  H  H154  1  0.039600  0.639800  0.551400  1.0  0.1118
  H  H155  1  0.685300  0.884600  0.566600  1.0  0.1015
  H  H156  1  0.152300  0.601000  0.517800  1.0  0.0778
  C  C157  1  0.316900  0.636600  0.055200  1.0  -0.1568
  C  C158  1  0.791500  0.433900  0.761300  1.0  0.6366
  C  C159  1  0.875000  0.462600  0.871000  1.0  -0.2145
  C  C160  1  0.479300  0.845100  0.948000  1.0  0.2781
  C  C161  1  0.790800  0.451400  0.834500  1.0  -0.0244
  C  C162  1  0.804400  0.516700  0.028800  1.0  0.7042
  C  C163  1  0.796700  0.490800  0.964000  1.0  -0.0778
  C  C164  1  0.707500  0.476200  0.929100  1.0  0.0464
  C  C165  1  0.622700  0.479430  0.960600  1.0  -0.1439
  C  C166  1  0.537800  0.464100  0.924900  1.0  -0.1051
  C  C167  1  0.535200  0.446000  0.861700  1.0  -0.0964
  C  C168  1  0.617300  0.441500  0.829800  1.0  -0.1374
  C  C169  1  0.705300  0.456640  0.864400  1.0  0.0061
  C  C170  1  0.876500  0.482200  0.933900  1.0  -0.0334
  C  C171  1  0.643200  0.633900  0.137800  1.0  0.1572
  C  C172  1  0.564900  0.659600  0.119700  1.0  -0.1394
  C  C173  1  0.511700  0.659300  0.050900  1.0  0.0631
  C  C174  1  0.431900  0.686300  0.031900  1.0  -0.1095
  C  C175  1  0.456900  0.722800  0.017100  1.0  0.2002
  C  C176  1  0.552200  0.734900  0.009200  1.0  -0.1559
  C  C177  1  0.545200  0.770300  0.989100  1.0  -0.1534
  C  C178  1  0.446600  0.780900  0.985000  1.0  0.205
  C  C179  1  0.411000  0.815800  0.965500  1.0  -0.0758
  C  C180  1  0.533300  0.634200  0.000200  1.0  -0.2165
  C  C181  1  0.610200  0.610500  0.023200  1.0  0.1701
  C  C182  1  0.554200  0.877900  0.864100  1.0  0.1619
  C  C183  1  0.483500  0.854100  0.884000  1.0  -0.1113
  C  C184  1  0.542600  0.863800  0.001600  1.0  -0.1978
  C  C185  1  0.220800  0.635800  0.056200  1.0  -0.1675
  C  C186  1  0.339900  0.674200  0.036700  1.0  0.1858
  C  C187  1  0.315500  0.828000  0.961700  1.0  0.1004
  C  C188  1  0.609200  0.887400  0.981200  1.0  0.1499
  C  C189  1  0.183100  0.136600  0.444800  1.0  -0.1584
  C  C190  1  0.708500  0.933900  0.738700  1.0  0.6372
  C  C191  1  0.625000  0.962600  0.629000  1.0  -0.215
  C  C192  1  0.020700  0.345100  0.552000  1.0  0.2808
  C  C193  1  0.709200  0.951400  0.665500  1.0  -0.026
  C  C194  1  0.695600  0.016700  0.471200  1.0  0.7089
  C  C195  1  0.703300  0.990800  0.536000  1.0  -0.078
  C  C196  1  0.792500  0.976200  0.570900  1.0  0.0427
  C  C197  1  0.877300  0.979430  0.539400  1.0  -0.1442
  C  C198  1  0.962200  0.964100  0.575100  1.0  -0.1052
  C  C199  1  0.964800  0.946000  0.638300  1.0  -0.0923
  C  C200  1  0.882700  0.941500  0.670200  1.0  -0.1377
  C  C201  1  0.794700  0.956640  0.635600  1.0  0.0085
  C  C202  1  0.623500  0.982200  0.566100  1.0  -0.0329
  C  C203  1  0.856800  0.133900  0.362200  1.0  0.1562
  C  C204  1  0.935100  0.159600  0.380300  1.0  -0.1376
  C  C205  1  0.988300  0.159300  0.449100  1.0  0.0625
  C  C206  1  0.068100  0.186300  0.468100  1.0  -0.1095
  C  C207  1  0.043100  0.222800  0.482900  1.0  0.1993
  C  C208  1  0.947800  0.234900  0.490800  1.0  -0.1581
  C  C209  1  0.954800  0.270300  0.510900  1.0  -0.1542
  C  C210  1  0.053400  0.280900  0.515000  1.0  0.2056
  C  C211  1  0.089000  0.315800  0.534500  1.0  -0.075
  C  C212  1  0.966700  0.134200  0.499800  1.0  -0.2199
  C  C213  1  0.889800  0.110500  0.476800  1.0  0.1701
  C  C214  1  0.945800  0.377900  0.635900  1.0  0.164
  C  C215  1  0.016500  0.354100  0.616000  1.0  -0.1072
  C  C216  1  0.957400  0.363800  0.498400  1.0  -0.195
  C  C217  1  0.279200  0.135800  0.443800  1.0  -0.1638
  C  C218  1  0.160100  0.174200  0.463300  1.0  0.1868
  C  C219  1  0.184500  0.328000  0.538300  1.0  0.1019
  C  C220  1  0.890800  0.387400  0.518800  1.0  0.1516
  C  C221  1  0.183100  0.863400  0.944800  1.0  -0.1593
  C  C222  1  0.708500  0.066100  0.238700  1.0  0.6374
  C  C223  1  0.625000  0.037400  0.129000  1.0  -0.213
  C  C224  1  0.020700  0.654900  0.052000  1.0  0.2813
  C  C225  1  0.709200  0.048600  0.165500  1.0  -0.0238
  C  C226  1  0.695600  0.983300  0.971200  1.0  0.709
  C  C227  1  0.703300  0.009200  0.036000  1.0  -0.0784
  C  C228  1  0.792500  0.023800  0.070900  1.0  0.0409
  C  C229  1  0.877300  0.020570  0.039400  1.0  -0.1451
  C  C230  1  0.962200  0.035900  0.075100  1.0  -0.104
  C  C231  1  0.964800  0.054000  0.138300  1.0  -0.0907
  C  C232  1  0.882700  0.058500  0.170200  1.0  -0.1381
  C  C233  1  0.794700  0.043360  0.135600  1.0  0.011
  C  C234  1  0.623500  0.017800  0.066100  1.0  -0.0371
  C  C235  1  0.856800  0.866100  0.862200  1.0  0.1575
  C  C236  1  0.935100  0.840400  0.880300  1.0  -0.1366
  C  C237  1  0.988300  0.840700  0.949100  1.0  0.0617
  C  C238  1  0.068100  0.813700  0.968100  1.0  -0.1093
  C  C239  1  0.043100  0.777200  0.982900  1.0  0.1995
  C  C240  1  0.947800  0.765100  0.990800  1.0  -0.1575
  C  C241  1  0.954800  0.729700  0.010900  1.0  -0.1549
  C  C242  1  0.053400  0.719100  0.015000  1.0  0.2052
  C  C243  1  0.089000  0.684200  0.034500  1.0  -0.0747
  C  C244  1  0.966700  0.865800  0.999800  1.0  -0.2205
  C  C245  1  0.889800  0.889500  0.976800  1.0  0.1703
  C  C246  1  0.945800  0.622100  0.135900  1.0  0.1645
  C  C247  1  0.016500  0.645900  0.116000  1.0  -0.1079
  C  C248  1  0.957400  0.636200  0.998400  1.0  -0.1948
  C  C249  1  0.279200  0.864200  0.943800  1.0  -0.1649
  C  C250  1  0.160100  0.825800  0.963300  1.0  0.1866
  C  C251  1  0.184500  0.672000  0.038300  1.0  0.1021
  C  C252  1  0.890800  0.612600  0.018800  1.0  0.1512
  C  C253  1  0.316900  0.363400  0.555200  1.0  -0.159
  C  C254  1  0.791500  0.566100  0.261300  1.0  0.6367
  C  C255  1  0.875000  0.537400  0.371000  1.0  -0.2125
  C  C256  1  0.479300  0.154900  0.448000  1.0  0.2791
  C  C257  1  0.790800  0.548600  0.334500  1.0  -0.0235
  C  C258  1  0.804400  0.483300  0.528800  1.0  0.7039
  C  C259  1  0.796700  0.509200  0.464000  1.0  -0.078
  C  C260  1  0.707500  0.523800  0.429100  1.0  0.0411
  C  C261  1  0.622700  0.520570  0.460600  1.0  -0.1444
  C  C262  1  0.537800  0.535900  0.424900  1.0  -0.1104
  C  C263  1  0.535200  0.554000  0.361700  1.0  -0.0914
  C  C264  1  0.617300  0.558500  0.329800  1.0  -0.138
  C  C265  1  0.705300  0.543360  0.364400  1.0  0.0065
  C  C266  1  0.876500  0.517800  0.433900  1.0  -0.0353
  C  C267  1  0.643200  0.366100  0.637800  1.0  0.1583
  C  C268  1  0.564900  0.340400  0.619700  1.0  -0.14
  C  C269  1  0.511700  0.340700  0.550900  1.0  0.0618
  C  C270  1  0.431900  0.313700  0.531900  1.0  -0.11
  C  C271  1  0.456900  0.277200  0.517100  1.0  0.2001
  C  C272  1  0.552200  0.265100  0.509200  1.0  -0.1559
  C  C273  1  0.545200  0.229700  0.489100  1.0  -0.1542
  C  C274  1  0.446600  0.219100  0.485000  1.0  0.2046
  C  C275  1  0.411000  0.184200  0.465500  1.0  -0.0753
  C  C276  1  0.533300  0.365800  0.500200  1.0  -0.2167
  C  C277  1  0.610200  0.389500  0.523200  1.0  0.1712
  C  C278  1  0.554200  0.122100  0.364100  1.0  0.1616
  C  C279  1  0.483500  0.145900  0.384000  1.0  -0.1106
  C  C280  1  0.542600  0.136200  0.501600  1.0  -0.1976
  C  C281  1  0.220800  0.364200  0.556200  1.0  -0.1674
  C  C282  1  0.339900  0.325800  0.536700  1.0  0.1864
  C  C283  1  0.315500  0.172000  0.461700  1.0  0.0999
  C  C284  1  0.609200  0.112600  0.481200  1.0  0.1497
  C  C285  1  0.816900  0.136600  0.055200  1.0  -0.1571
  C  C286  1  0.291500  0.933900  0.761300  1.0  0.6366
  C  C287  1  0.375000  0.962600  0.871000  1.0  -0.2145
  C  C288  1  0.979300  0.345100  0.948000  1.0  0.2781
  C  C289  1  0.290800  0.951400  0.834500  1.0  -0.0244
  C  C290  1  0.304400  0.016700  0.028800  1.0  0.7042
  C  C291  1  0.296700  0.990800  0.964000  1.0  -0.0778
  C  C292  1  0.207500  0.976200  0.929100  1.0  0.0464
  C  C293  1  0.122700  0.979430  0.960600  1.0  -0.1439
  C  C294  1  0.037800  0.964100  0.924900  1.0  -0.1051
  C  C295  1  0.035200  0.946000  0.861700  1.0  -0.0964
  C  C296  1  0.117300  0.941500  0.829800  1.0  -0.1374
  C  C297  1  0.205300  0.956640  0.864400  1.0  0.0061
  C  C298  1  0.376500  0.982200  0.933900  1.0  -0.0334
  C  C299  1  0.143200  0.133900  0.137800  1.0  0.1572
  C  C300  1  0.064900  0.159600  0.119700  1.0  -0.1394
  C  C301  1  0.011700  0.159300  0.050900  1.0  0.0631
  C  C302  1  0.931900  0.186300  0.031900  1.0  -0.1095
  C  C303  1  0.956900  0.222800  0.017100  1.0  0.2002
  C  C304  1  0.052200  0.234900  0.009200  1.0  -0.1567
  C  C305  1  0.045200  0.270300  0.989100  1.0  -0.1534
  C  C306  1  0.946600  0.280900  0.985000  1.0  0.2047
  C  C307  1  0.911000  0.315800  0.965500  1.0  -0.0758
  C  C308  1  0.033300  0.134200  0.000200  1.0  -0.2167
  C  C309  1  0.110200  0.110500  0.023200  1.0  0.1701
  C  C310  1  0.054200  0.377900  0.864100  1.0  0.1619
  C  C311  1  0.983500  0.354100  0.884000  1.0  -0.1113
  C  C312  1  0.042600  0.363800  0.001600  1.0  -0.1978
  C  C313  1  0.720800  0.135800  0.056200  1.0  -0.1675
  C  C314  1  0.839900  0.174200  0.036700  1.0  0.1858
  C  C315  1  0.815500  0.328000  0.961700  1.0  0.1004
  C  C316  1  0.109200  0.387400  0.981200  1.0  0.1499
  C  C317  1  0.683100  0.636600  0.444800  1.0  -0.1584
  C  C318  1  0.208500  0.433900  0.738700  1.0  0.6372
  C  C319  1  0.125000  0.462600  0.629000  1.0  -0.215
  C  C320  1  0.520700  0.845100  0.552000  1.0  0.2808
  C  C321  1  0.209200  0.451400  0.665500  1.0  -0.026
  C  C322  1  0.195600  0.516700  0.471200  1.0  0.7089
  C  C323  1  0.203300  0.490800  0.536000  1.0  -0.078
  C  C324  1  0.292500  0.476200  0.570900  1.0  0.0427
  C  C325  1  0.377300  0.479430  0.539400  1.0  -0.1442
  C  C326  1  0.462200  0.464100  0.575100  1.0  -0.1031
  C  C327  1  0.464800  0.446000  0.638300  1.0  -0.0923
  C  C328  1  0.382700  0.441500  0.670200  1.0  -0.1377
  C  C329  1  0.294700  0.456640  0.635600  1.0  0.0085
  C  C330  1  0.123500  0.482200  0.566100  1.0  -0.0336
  C  C331  1  0.356800  0.633900  0.362200  1.0  0.1562
  C  C332  1  0.435100  0.659600  0.380300  1.0  -0.1376
  C  C333  1  0.488300  0.659300  0.449100  1.0  0.0625
  C  C334  1  0.568100  0.686300  0.468100  1.0  -0.1095
  C  C335  1  0.543100  0.722800  0.482900  1.0  0.1993
  C  C336  1  0.447800  0.734900  0.490800  1.0  -0.1581
  C  C337  1  0.454800  0.770300  0.510900  1.0  -0.1542
  C  C338  1  0.553400  0.780900  0.515000  1.0  0.2056
  C  C339  1  0.589000  0.815800  0.534500  1.0  -0.075
  C  C340  1  0.466700  0.634200  0.499800  1.0  -0.2199
  C  C341  1  0.389800  0.610500  0.476800  1.0  0.1713
  C  C342  1  0.445800  0.877900  0.635900  1.0  0.1644
  C  C343  1  0.516500  0.854100  0.616000  1.0  -0.1072
  C  C344  1  0.457400  0.863800  0.498400  1.0  -0.195
  C  C345  1  0.779200  0.635800  0.443800  1.0  -0.1638
  C  C346  1  0.660100  0.674200  0.463300  1.0  0.1868
  C  C347  1  0.684500  0.828000  0.538300  1.0  0.1019
  C  C348  1  0.390800  0.887400  0.518800  1.0  0.1516
  C  C349  1  0.683100  0.363400  0.944800  1.0  -0.1593
  C  C350  1  0.208500  0.566100  0.238700  1.0  0.6374
  C  C351  1  0.125000  0.537400  0.129000  1.0  -0.213
  C  C352  1  0.520700  0.154900  0.052000  1.0  0.2813
  C  C353  1  0.209200  0.548600  0.165500  1.0  -0.0238
  C  C354  1  0.195600  0.483300  0.971200  1.0  0.709
  C  C355  1  0.203300  0.509200  0.036000  1.0  -0.0784
  C  C356  1  0.292500  0.523800  0.070900  1.0  0.0409
  C  C357  1  0.377300  0.520570  0.039400  1.0  -0.1451
  C  C358  1  0.462200  0.535900  0.075100  1.0  -0.1055
  C  C359  1  0.464800  0.554000  0.138300  1.0  -0.0907
  C  C360  1  0.382700  0.558500  0.170200  1.0  -0.1381
  C  C361  1  0.294700  0.543360  0.135600  1.0  0.011
  C  C362  1  0.123500  0.517800  0.066100  1.0  -0.0371
  C  C363  1  0.356800  0.366100  0.862200  1.0  0.1575
  C  C364  1  0.435100  0.340400  0.880300  1.0  -0.1366
  C  C365  1  0.488300  0.340700  0.949100  1.0  0.0617
  C  C366  1  0.568100  0.313700  0.968100  1.0  -0.1093
  C  C367  1  0.543100  0.277200  0.982900  1.0  0.1995
  C  C368  1  0.447800  0.265100  0.990800  1.0  -0.1575
  C  C369  1  0.454800  0.229700  0.010900  1.0  -0.1549
  C  C370  1  0.553400  0.219100  0.015000  1.0  0.2052
  C  C371  1  0.589000  0.184200  0.034500  1.0  -0.0747
  C  C372  1  0.466700  0.365800  0.999800  1.0  -0.2205
  C  C373  1  0.389800  0.389500  0.976800  1.0  0.1703
  C  C374  1  0.445800  0.122100  0.135900  1.0  0.1645
  C  C375  1  0.516500  0.145900  0.116000  1.0  -0.1079
  C  C376  1  0.457400  0.136200  0.998400  1.0  -0.1948
  C  C377  1  0.779200  0.364200  0.943800  1.0  -0.1649
  C  C378  1  0.660100  0.325800  0.963300  1.0  0.1866
  C  C379  1  0.684500  0.172000  0.038300  1.0  0.1021
  C  C380  1  0.390800  0.112600  0.018800  1.0  0.1511
  C  C381  1  0.816900  0.863400  0.555200  1.0  -0.1578
  C  C382  1  0.291500  0.066100  0.261300  1.0  0.6367
  C  C383  1  0.375000  0.037400  0.371000  1.0  -0.2125
  C  C384  1  0.979300  0.654900  0.448000  1.0  0.2791
  C  C385  1  0.290800  0.048600  0.334500  1.0  -0.0235
  C  C386  1  0.304400  0.983300  0.528800  1.0  0.7039
  C  C387  1  0.296700  0.009200  0.464000  1.0  -0.078
  C  C388  1  0.207500  0.023800  0.429100  1.0  0.0411
  C  C389  1  0.122700  0.020570  0.460600  1.0  -0.1444
  C  C390  1  0.037800  0.035900  0.424900  1.0  -0.1104
  C  C391  1  0.035200  0.054000  0.361700  1.0  -0.0914
  C  C392  1  0.117300  0.058500  0.329800  1.0  -0.138
  C  C393  1  0.205300  0.043360  0.364400  1.0  0.0065
  C  C394  1  0.376500  0.017800  0.433900  1.0  -0.0353
  C  C395  1  0.143200  0.866100  0.637800  1.0  0.1583
  C  C396  1  0.064900  0.840400  0.619700  1.0  -0.14
  C  C397  1  0.011700  0.840700  0.550900  1.0  0.0618
  C  C398  1  0.931900  0.813700  0.531900  1.0  -0.11
  C  C399  1  0.956900  0.777200  0.517100  1.0  0.2001
  C  C400  1  0.052200  0.765100  0.509200  1.0  -0.1566
  C  C401  1  0.045200  0.729700  0.489100  1.0  -0.1542
  C  C402  1  0.946600  0.719100  0.485000  1.0  0.2044
  C  C403  1  0.911000  0.684200  0.465500  1.0  -0.0753
  C  C404  1  0.033300  0.865800  0.500200  1.0  -0.2171
  C  C405  1  0.110200  0.889500  0.523200  1.0  0.1712
  C  C406  1  0.054200  0.622100  0.364100  1.0  0.1616
  C  C407  1  0.983500  0.645900  0.384000  1.0  -0.1106
  C  C408  1  0.042600  0.636200  0.501600  1.0  -0.1976
  C  C409  1  0.720800  0.864200  0.556200  1.0  -0.1674
  C  C410  1  0.839900  0.825800  0.536700  1.0  0.1864
  C  C411  1  0.815500  0.672000  0.461700  1.0  0.0999
  C  C412  1  0.109200  0.612600  0.481200  1.0  0.1497
  N  N413  1  0.614600  0.894490  0.910700  1.0  -0.2897
  N  N414  1  0.663600  0.610480  0.089500  1.0  -0.3154
  N  N415  1  0.394900  0.751440  0.002200  1.0  -0.4018
  N  N416  1  0.258600  0.695450  0.025500  1.0  -0.4174
  N  N417  1  0.885400  0.394490  0.589300  1.0  -0.2914
  N  N418  1  0.836400  0.110480  0.410500  1.0  -0.3133
  N  N419  1  0.105100  0.251440  0.497800  1.0  -0.4005
  N  N420  1  0.241400  0.195450  0.474500  1.0  -0.4185
  N  N421  1  0.885400  0.605510  0.089300  1.0  -0.2914
  N  N422  1  0.836400  0.889520  0.910500  1.0  -0.3137
  N  N423  1  0.105100  0.748560  0.997800  1.0  -0.4004
  N  N424  1  0.241400  0.804550  0.974500  1.0  -0.4189
  N  N425  1  0.614600  0.105510  0.410700  1.0  -0.2893
  N  N426  1  0.663600  0.389520  0.589500  1.0  -0.3157
  N  N427  1  0.394900  0.248560  0.502200  1.0  -0.4017
  N  N428  1  0.258600  0.304550  0.525500  1.0  -0.419
  N  N429  1  0.114600  0.394490  0.910700  1.0  -0.2897
  N  N430  1  0.163600  0.110480  0.089500  1.0  -0.3154
  N  N431  1  0.894900  0.251440  0.002200  1.0  -0.4018
  N  N432  1  0.758600  0.195450  0.025500  1.0  -0.4174
  N  N433  1  0.385400  0.894490  0.589300  1.0  -0.2914
  N  N434  1  0.336400  0.610480  0.410500  1.0  -0.3133
  N  N435  1  0.605100  0.751440  0.497800  1.0  -0.4005
  N  N436  1  0.741400  0.695450  0.474500  1.0  -0.4185
  N  N437  1  0.385400  0.105510  0.089300  1.0  -0.2913
  N  N438  1  0.336400  0.389520  0.910500  1.0  -0.3137
  N  N439  1  0.605100  0.248560  0.997800  1.0  -0.4004
  N  N440  1  0.741400  0.304550  0.974500  1.0  -0.4189
  N  N441  1  0.114600  0.605510  0.410700  1.0  -0.2893
  N  N442  1  0.163600  0.889520  0.589500  1.0  -0.3157
  N  N443  1  0.894900  0.748560  0.502200  1.0  -0.4017
  N  N444  1  0.758600  0.804550  0.525500  1.0  -0.419
  O  O445  1  0.752100  0.448940  0.706300  1.0  -0.5653
  O  O446  1  0.828900  0.404500  0.754500  1.0  -0.5833
  O  O447  1  0.738100  0.540250  0.029600  1.0  -0.6095
  O  O448  1  0.876100  0.516060  0.077400  1.0  -0.5533
  O  O449  1  0.747900  0.948940  0.793700  1.0  -0.5661
  O  O450  1  0.671100  0.904500  0.745500  1.0  -0.5828
  O  O451  1  0.761900  0.040250  0.470400  1.0  -0.6088
  O  O452  1  0.623900  0.016060  0.422600  1.0  -0.5527
  O  O453  1  0.747900  0.051060  0.293700  1.0  -0.5651
  O  O454  1  0.671100  0.095500  0.245500  1.0  -0.5828
  O  O455  1  0.761900  0.959750  0.970400  1.0  -0.6085
  O  O456  1  0.623900  0.983940  0.922600  1.0  -0.5519
  O  O457  1  0.752100  0.551060  0.206300  1.0  -0.5648
  O  O458  1  0.828900  0.595500  0.254500  1.0  -0.5831
  O  O459  1  0.738100  0.459750  0.529600  1.0  -0.6091
  O  O460  1  0.876100  0.483940  0.577400  1.0  -0.5515
  O  O461  1  0.252100  0.948940  0.706300  1.0  -0.5653
  O  O462  1  0.328900  0.904500  0.754500  1.0  -0.5833
  O  O463  1  0.238100  0.040250  0.029600  1.0  -0.6095
  O  O464  1  0.376100  0.016060  0.077400  1.0  -0.5533
  O  O465  1  0.247900  0.448940  0.793700  1.0  -0.5661
  O  O466  1  0.171100  0.404500  0.745500  1.0  -0.5828
  O  O467  1  0.261900  0.540250  0.470400  1.0  -0.6088
  O  O468  1  0.123900  0.516060  0.422600  1.0  -0.5527
  O  O469  1  0.247900  0.551060  0.293700  1.0  -0.5651
  O  O470  1  0.171100  0.595500  0.245500  1.0  -0.5828
  O  O471  1  0.261900  0.459750  0.970400  1.0  -0.6085
  O  O472  1  0.123900  0.483940  0.922600  1.0  -0.5519
  O  O473  1  0.252100  0.051060  0.206300  1.0  -0.5648
  O  O474  1  0.328900  0.095500  0.254500  1.0  -0.5831
  O  O475  1  0.238100  0.959750  0.529600  1.0  -0.6091
  O  O476  1  0.376100  0.983940  0.577400  1.0  -0.5519
