# generated using pymatgen
data_Zn3H32C56(NO)8
_symmetry_space_group_name_H-M   'P 1'
_cell_length_a   14.15040000
_cell_length_b   19.25700000
_cell_length_c   19.43000000
_cell_angle_alpha   69.87300000
_cell_angle_beta   82.01100000
_cell_angle_gamma   75.48400000
_symmetry_Int_Tables_number   1
_chemical_formula_structural   Zn3H32C56(NO)8
_chemical_formula_sum   'Zn6 H64 C112 N16 O16'
_cell_volume   4804.43681371
_cell_formula_units_Z   2
loop_
 _symmetry_equiv_pos_site_id
 _symmetry_equiv_pos_as_xyz
  1  'x, y, z'
loop_
 _atom_site_type_symbol
 _atom_site_label
 _atom_site_symmetry_multiplicity
 _atom_site_fract_x
 _atom_site_fract_y
 _atom_site_fract_z
 _atom_site_occupancy
 _atom_site_charge
  Zn  Zn1  1  0.141620  0.694820  0.074920  1.0  0.9118
  Zn  Zn2  1  0.646480  0.878530  0.710090  1.0  0.9419
  Zn  Zn3  1  0.650160  0.473370  0.427770  1.0  0.8811
  Zn  Zn4  1  0.858380  0.305180  0.925080  1.0  0.9117
  Zn  Zn5  1  0.353520  0.121470  0.289910  1.0  0.9417
  Zn  Zn6  1  0.349840  0.526630  0.572230  1.0  0.8799
  H  H7  1  0.692100  0.905300  0.844600  1.0  0.0877
  H  H8  1  0.332600  0.628600  0.323700  1.0  0.1214
  H  H9  1  0.454400  0.578200  0.405900  1.0  0.0781
  H  H10  1  0.589900  0.434900  0.303200  1.0  0.0795
  H  H11  1  0.806700  0.600500  0.560800  1.0  0.1185
  H  H12  1  0.721100  0.192600  0.444900  1.0  0.1072
  H  H13  1  0.479600  0.937900  0.811800  1.0  0.0843
  H  H14  1  0.473800  0.483600  0.217200  1.0  0.1078
  H  H15  1  0.520200  0.655700  0.526400  1.0  0.0829
  H  H16  1  0.830600  0.415200  0.340500  1.0  0.077
  H  H17  1  0.799000  0.634100  0.123800  1.0  0.1087
  H  H18  1  0.801600  0.711300  0.993500  1.0  0.1071
  H  H19  1  0.067200  0.842500  0.804000  1.0  0.1066
  H  H20  1  0.239300  0.841700  0.808700  1.0  0.1214
  H  H21  1  0.363700  0.891800  0.898000  1.0  0.1209
  H  H22  1  0.853300  0.787400  0.724800  1.0  0.0912
  H  H23  1  0.577800  0.742100  0.781400  1.0  0.0738
  H  H24  1  0.462500  0.692300  0.865000  1.0  0.1123
  H  H25  1  0.503800  0.702500  0.009500  1.0  0.1098
  H  H26  1  0.502100  0.621900  0.138700  1.0  0.1051
  H  H27  1  0.806100  0.670300  0.251600  1.0  0.1205
  H  H28  1  0.693300  0.615800  0.337500  1.0  0.0763
  H  H29  1  0.615400  0.274000  0.610700  1.0  0.107
  H  H30  1  0.954800  0.462200  0.261400  1.0  0.1124
  H  H31  1  0.051300  0.527700  0.335300  1.0  0.1074
  H  H32  1  0.225900  0.524900  0.338600  1.0  0.1032
  H  H33  1  0.738000  0.083000  0.510000  1.0  0.1467
  H  H34  1  0.766000  0.698300  0.613700  1.0  0.1574
  H  H35  1  0.965000  0.738800  0.805200  1.0  0.0941
  H  H36  1  0.494000  0.745000  0.581000  1.0  0.0949
  H  H37  1  0.804000  0.856200  0.929800  1.0  0.1408
  H  H38  1  0.592000  0.163200  0.673100  1.0  0.1895
  H  H39  1  0.307900  0.094700  0.155400  1.0  0.0874
  H  H40  1  0.667400  0.371400  0.676300  1.0  0.1212
  H  H41  1  0.545600  0.421800  0.594100  1.0  0.0787
  H  H42  1  0.410100  0.565100  0.696800  1.0  0.0797
  H  H43  1  0.193300  0.399500  0.439200  1.0  0.1187
  H  H44  1  0.278900  0.807400  0.555100  1.0  0.1083
  H  H45  1  0.520400  0.062100  0.188200  1.0  0.0863
  H  H46  1  0.526200  0.516400  0.782800  1.0  0.1083
  H  H47  1  0.479800  0.344300  0.473600  1.0  0.0826
  H  H48  1  0.169400  0.584800  0.659500  1.0  0.0757
  H  H49  1  0.201000  0.365900  0.876200  1.0  0.1086
  H  H50  1  0.198400  0.288700  0.006500  1.0  0.1075
  H  H51  1  0.932800  0.157500  0.196000  1.0  0.1075
  H  H52  1  0.760700  0.158300  0.191300  1.0  0.122
  H  H53  1  0.636300  0.108200  0.102000  1.0  0.1205
  H  H54  1  0.146700  0.212600  0.275200  1.0  0.0908
  H  H55  1  0.422200  0.257900  0.218600  1.0  0.0735
  H  H56  1  0.537500  0.307700  0.135000  1.0  0.1119
  H  H57  1  0.496200  0.297500  0.990500  1.0  0.11
  H  H58  1  0.497900  0.378100  0.861300  1.0  0.1052
  H  H59  1  0.193900  0.329700  0.748400  1.0  0.121
  H  H60  1  0.306700  0.384200  0.662500  1.0  0.0754
  H  H61  1  0.384600  0.726000  0.389300  1.0  0.1074
  H  H62  1  0.045200  0.537800  0.738600  1.0  0.1124
  H  H63  1  0.948700  0.472300  0.664700  1.0  0.1073
  H  H64  1  0.774100  0.475100  0.661400  1.0  0.103
  H  H65  1  0.262000  0.917000  0.490000  1.0  0.1448
  H  H66  1  0.234000  0.301700  0.386300  1.0  0.1538
  H  H67  1  0.035000  0.261200  0.194800  1.0  0.0941
  H  H68  1  0.506000  0.255000  0.419000  1.0  0.0942
  H  H69  1  0.196000  0.143800  0.070200  1.0  0.1371
  H  H70  1  0.408000  0.836800  0.326900  1.0  0.1862
  C  C71  1  0.749000  0.871240  0.837510  1.0  0.1389
  C  C72  1  0.384900  0.590090  0.318220  1.0  -0.1653
  C  C73  1  0.458100  0.559150  0.367440  1.0  0.1421
  C  C74  1  0.538600  0.474780  0.306880  1.0  0.1626
  C  C75  1  0.744600  0.630290  0.564370  1.0  -0.0794
  C  C76  1  0.696100  0.184900  0.493200  1.0  -0.1395
  C  C77  1  0.904100  0.793650  0.880450  1.0  0.0774
  C  C78  1  0.398800  0.785760  0.889920  1.0  0.1119
  C  C79  1  0.475800  0.887690  0.822730  1.0  0.1461
  C  C80  1  0.559800  0.720000  0.573120  1.0  -0.0948
  C  C81  1  0.730400  0.688100  0.594020  1.0  0.0299
  C  C82  1  0.633300  0.022300  0.658600  1.0  0.6699
  C  C83  1  0.646700  0.101640  0.608940  1.0  -0.1076
  C  C84  1  0.392000  0.561540  0.259780  1.0  0.0659
  C  C85  1  0.468600  0.503660  0.255140  1.0  -0.1382
  C  C86  1  0.897200  0.571440  0.248690  1.0  0.09
  C  C87  1  0.664400  0.617130  0.539870  1.0  -0.1549
  C  C88  1  0.573200  0.663500  0.543950  1.0  -0.0745
  C  C89  1  0.670900  0.244320  0.520950  1.0  -0.1306
  C  C90  1  0.827600  0.467050  0.324820  1.0  0.1533
  C  C91  1  0.943800  0.646100  0.123860  1.0  0.1156
  C  C92  1  0.850900  0.654500  0.096740  1.0  -0.1739
  C  C93  1  0.851800  0.697400  0.025010  1.0  -0.1633
  C  C94  1  0.946200  0.717420  0.007050  1.0  0.1749
  C  C95  1  0.978600  0.760200  0.937230  1.0  -0.059
  C  C96  1  0.819500  0.844100  0.889560  1.0  -0.1364
  C  C97  1  0.071400  0.773540  0.916070  1.0  0.186
  C  C98  1  0.104800  0.817810  0.844640  1.0  -0.1786
  C  C99  1  0.199500  0.817330  0.846890  1.0  -0.1637
  C  C100  1  0.227100  0.771260  0.920520  1.0  0.1936
  C  C101  1  0.321300  0.753210  0.945080  1.0  -0.0656
  C  C102  1  0.405800  0.860730  0.874070  1.0  -0.1989
  C  C103  1  0.844100  0.801910  0.766640  1.0  0.1217
  C  C104  1  0.622300  0.796150  0.632560  1.0  0.7181
  C  C105  1  0.637800  0.733370  0.599340  1.0  -0.1202
  C  C106  1  0.620500  0.161600  0.635300  1.0  -0.1029
  C  C107  1  0.684100  0.113100  0.537900  1.0  -0.0916
  C  C108  1  0.533500  0.773100  0.804370  1.0  0.1489
  C  C109  1  0.464400  0.742840  0.854800  1.0  -0.1942
  C  C110  1  0.351900  0.706320  0.014890  1.0  0.1136
  C  C111  1  0.449700  0.687250  0.038160  1.0  -0.1758
  C  C112  1  0.448800  0.643070  0.109430  1.0  -0.1831
  C  C113  1  0.349500  0.634990  0.131390  1.0  0.2115
  C  C114  1  0.316300  0.596830  0.202200  1.0  -0.0619
  C  C115  1  0.220600  0.588380  0.225070  1.0  0.1725
  C  C116  1  0.064600  0.590310  0.221030  1.0  0.217
  C  C117  1  0.973700  0.603630  0.195040  1.0  -0.083
  C  C118  1  0.815200  0.617800  0.270720  1.0  -0.2187
  C  C119  1  0.746900  0.584460  0.321840  1.0  0.1406
  C  C120  1  0.679600  0.554290  0.507410  1.0  0.6585
  C  C121  1  0.678400  0.323410  0.472520  1.0  0.6585
  C  C122  1  0.632700  0.233860  0.592000  1.0  -0.0855
  C  C123  1  0.902100  0.495300  0.275620  1.0  -0.2162
  C  C124  1  0.091900  0.549110  0.295980  1.0  -0.1677
  C  C125  1  0.188200  0.547800  0.297810  1.0  -0.1762
  C  C126  1  0.916400  0.773900  0.816330  1.0  -0.1413
  C  C127  1  0.251000  0.128760  0.162490  1.0  0.138
  C  C128  1  0.615100  0.409910  0.681780  1.0  -0.1647
  C  C129  1  0.541900  0.440850  0.632560  1.0  0.1431
  C  C130  1  0.461400  0.525220  0.693120  1.0  0.1624
  C  C131  1  0.255400  0.369710  0.435630  1.0  -0.08
  C  C132  1  0.303900  0.815100  0.506800  1.0  -0.1391
  C  C133  1  0.095900  0.206350  0.119550  1.0  0.0761
  C  C134  1  0.601200  0.214240  0.110080  1.0  0.1127
  C  C135  1  0.524200  0.112310  0.177270  1.0  0.1443
  C  C136  1  0.440200  0.280000  0.426880  1.0  -0.0976
  C  C137  1  0.269600  0.311900  0.405980  1.0  0.0303
  C  C138  1  0.366700  0.977700  0.341400  1.0  0.6695
  C  C139  1  0.353300  0.898360  0.391060  1.0  -0.107
  C  C140  1  0.608000  0.438460  0.740220  1.0  0.0655
  C  C141  1  0.531400  0.496340  0.744860  1.0  -0.1407
  C  C142  1  0.102800  0.428560  0.751310  1.0  0.0895
  C  C143  1  0.335600  0.382870  0.460130  1.0  -0.1557
  C  C144  1  0.426800  0.336500  0.456050  1.0  -0.0773
  C  C145  1  0.329100  0.755680  0.479050  1.0  -0.1297
  C  C146  1  0.172400  0.532950  0.675180  1.0  0.1553
  C  C147  1  0.056200  0.353900  0.876140  1.0  0.1144
  C  C148  1  0.149100  0.345500  0.903260  1.0  -0.174
  C  C149  1  0.148200  0.302600  0.974990  1.0  -0.1629
  C  C150  1  0.053800  0.282580  0.992950  1.0  0.1749
  C  C151  1  0.021400  0.239800  0.062770  1.0  -0.0584
  C  C152  1  0.180500  0.155900  0.110440  1.0  -0.1365
  C  C153  1  0.928600  0.226460  0.083930  1.0  0.1855
  C  C154  1  0.895200  0.182190  0.155360  1.0  -0.1767
  C  C155  1  0.800500  0.182670  0.153110  1.0  -0.1649
  C  C156  1  0.772900  0.228740  0.079480  1.0  0.194
  C  C157  1  0.678700  0.246790  0.054920  1.0  -0.065
  C  C158  1  0.594200  0.139270  0.125930  1.0  -0.1978
  C  C159  1  0.155900  0.198090  0.233360  1.0  0.1195
  C  C160  1  0.377700  0.203850  0.367440  1.0  0.7174
  C  C161  1  0.362200  0.266630  0.400660  1.0  -0.1193
  C  C162  1  0.379500  0.838400  0.364700  1.0  -0.1034
  C  C163  1  0.315900  0.886900  0.462100  1.0  -0.0915
  C  C164  1  0.466500  0.226900  0.195630  1.0  0.1483
  C  C165  1  0.535600  0.257160  0.145200  1.0  -0.1921
  C  C166  1  0.648100  0.293680  0.985110  1.0  0.1135
  C  C167  1  0.550300  0.312750  0.961840  1.0  -0.1774
  C  C168  1  0.551200  0.356930  0.890570  1.0  -0.1848
  C  C169  1  0.650500  0.365010  0.868610  1.0  0.2122
  C  C170  1  0.683700  0.403170  0.797800  1.0  -0.061
  C  C171  1  0.779400  0.411620  0.774930  1.0  0.1706
  C  C172  1  0.935400  0.409690  0.778970  1.0  0.2157
  C  C173  1  0.026300  0.396370  0.804960  1.0  -0.0837
  C  C174  1  0.184800  0.382200  0.729280  1.0  -0.2182
  C  C175  1  0.253100  0.415540  0.678160  1.0  0.1403
  C  C176  1  0.320400  0.445710  0.492590  1.0  0.6588
  C  C177  1  0.321600  0.676590  0.527480  1.0  0.6574
  C  C178  1  0.367300  0.766140  0.408000  1.0  -0.0835
  C  C179  1  0.097900  0.504700  0.724380  1.0  -0.2147
  C  C180  1  0.908100  0.450890  0.704020  1.0  -0.1671
  C  C181  1  0.811800  0.452200  0.702190  1.0  -0.1769
  C  C182  1  0.083600  0.226100  0.183670  1.0  -0.1412
  N  N183  1  0.148390  0.746720  0.961860  1.0  -0.385
  N  N184  1  0.539680  0.844550  0.787130  1.0  -0.3433
  N  N185  1  0.760670  0.849770  0.777590  1.0  -0.3406
  N  N186  1  0.292370  0.673050  0.072580  1.0  -0.3853
  N  N187  1  0.534960  0.502320  0.362130  1.0  -0.3373
  N  N188  1  0.144550  0.614650  0.178800  1.0  -0.3796
  N  N189  1  0.754690  0.510000  0.349360  1.0  -0.3246
  N  N190  1  0.002080  0.684330  0.067370  1.0  -0.3789
  N  N191  1  0.851610  0.253280  0.038140  1.0  -0.3842
  N  N192  1  0.460320  0.155450  0.212870  1.0  -0.3407
  N  N193  1  0.239330  0.150230  0.222410  1.0  -0.3409
  N  N194  1  0.707630  0.326950  0.927420  1.0  -0.3839
  N  N195  1  0.465040  0.497680  0.637870  1.0  -0.3366
  N  N196  1  0.855450  0.385350  0.821200  1.0  -0.3803
  N  N197  1  0.245310  0.490000  0.650640  1.0  -0.324
  N  N198  1  0.997920  0.315670  0.932630  1.0  -0.3786
  O  O199  1  0.693930  0.794880  0.667660  1.0  -0.5957
  O  O200  1  0.544880  0.844420  0.627350  1.0  -0.5632
  O  O201  1  0.658500  0.971340  0.630650  1.0  -0.5518
  O  O202  1  0.607320  0.554350  0.473050  1.0  -0.5935
  O  O203  1  0.757250  0.506030  0.512970  1.0  -0.5779
  O  O204  1  0.657240  0.374780  0.502400  1.0  -0.6062
  O  O205  1  0.703800  0.336040  0.405710  1.0  -0.5746
  O  O206  1  0.598870  0.013610  0.724180  1.0  -0.616
  O  O207  1  0.306070  0.205120  0.332340  1.0  -0.595
  O  O208  1  0.455120  0.155580  0.372650  1.0  -0.5627
  O  O209  1  0.341500  0.028660  0.369350  1.0  -0.5512
  O  O210  1  0.392680  0.445650  0.526950  1.0  -0.5925
  O  O211  1  0.242750  0.493970  0.487030  1.0  -0.5797
  O  O212  1  0.342760  0.625220  0.497600  1.0  -0.6064
  O  O213  1  0.296200  0.663960  0.594290  1.0  -0.5759
  O  O214  1  0.401130  0.986390  0.275820  1.0  -0.6175
