# generated using pymatgen
data_VH4C8O5
_symmetry_space_group_name_H-M   'P 1'
_cell_length_a   14.44470000
_cell_length_b   15.66090000
_cell_length_c   20.45630000
_cell_angle_alpha   90.00000000
_cell_angle_beta   90.00000000
_cell_angle_gamma   90.00000000
_symmetry_Int_Tables_number   1
_chemical_formula_structural   VH4C8O5
_chemical_formula_sum   'V12 H48 C96 O60'
_cell_volume   4627.56286272
_cell_formula_units_Z   12
loop_
 _symmetry_equiv_pos_site_id
 _symmetry_equiv_pos_as_xyz
  1  'x, y, z'
loop_
 _atom_site_type_symbol
 _atom_site_label
 _atom_site_symmetry_multiplicity
 _atom_site_fract_x
 _atom_site_fract_y
 _atom_site_fract_z
 _atom_site_occupancy
 _atom_site_charge
  V  V1  1  0.236000  0.742000  0.279500  1.0  2.0746
  V  V2  1  0.730000  0.246000  0.395500  1.0  2.1619
  V  V3  1  0.235000  0.744000  0.432000  1.0  1.6613
  V  V4  1  0.764000  0.242000  0.720500  1.0  2.075
  V  V5  1  0.270000  0.746000  0.604500  1.0  2.1609
  V  V6  1  0.765000  0.244000  0.568000  1.0  1.6658
  V  V7  1  0.264000  0.742000  0.779500  1.0  2.0752
  V  V8  1  0.770000  0.246000  0.895500  1.0  2.1627
  V  V9  1  0.265000  0.744000  0.932000  1.0  1.6619
  V  V10  1  0.736000  0.242000  0.220500  1.0  2.0747
  V  V11  1  0.230000  0.746000  0.104500  1.0  2.1601
  V  V12  1  0.735000  0.244000  0.068000  1.0  1.6652
  H  H13  1  0.433320  0.566320  0.601310  1.0  0.1064
  H  H14  1  0.551090  0.449090  0.610640  1.0  0.1192
  H  H15  1  0.448900  0.550920  0.389360  1.0  0.1123
  H  H16  1  0.566690  0.433670  0.398700  1.0  0.1111
  H  H17  1  0.045880  0.546240  0.441230  1.0  0.1036
  H  H18  1  0.929290  0.428920  0.426590  1.0  0.1116
  H  H19  1  0.070720  0.571090  0.230420  1.0  0.1106
  H  H20  1  0.954170  0.453800  0.215750  1.0  0.1082
  H  H21  1  0.440700  0.559020  0.270200  1.0  0.1185
  H  H22  1  0.559040  0.441420  0.270260  1.0  0.1114
  H  H23  1  0.441010  0.558520  0.057710  1.0  0.1068
  H  H24  1  0.559200  0.441080  0.057740  1.0  0.1104
  H  H25  1  0.566680  0.066320  0.398690  1.0  0.1064
  H  H26  1  0.448910  0.949090  0.389360  1.0  0.1186
  H  H27  1  0.551100  0.050920  0.610640  1.0  0.1131
  H  H28  1  0.433310  0.933670  0.601300  1.0  0.1117
  H  H29  1  0.954120  0.046240  0.558770  1.0  0.103
  H  H30  1  0.070710  0.928920  0.573410  1.0  0.1107
  H  H31  1  0.929280  0.071090  0.769580  1.0  0.1099
  H  H32  1  0.045830  0.953800  0.784250  1.0  0.1085
  H  H33  1  0.559300  0.059020  0.729800  1.0  0.1173
  H  H34  1  0.440960  0.941420  0.729740  1.0  0.111
  H  H35  1  0.558990  0.058520  0.942290  1.0  0.1078
  H  H36  1  0.440800  0.941080  0.942260  1.0  0.11
  H  H37  1  0.066680  0.566320  0.101310  1.0  0.1063
  H  H38  1  0.948910  0.449090  0.110640  1.0  0.1188
  H  H39  1  0.051100  0.550920  0.889360  1.0  0.1131
  H  H40  1  0.933310  0.433670  0.898700  1.0  0.1113
  H  H41  1  0.454120  0.546240  0.941230  1.0  0.1032
  H  H42  1  0.570710  0.428920  0.926590  1.0  0.1111
  H  H43  1  0.429280  0.571090  0.730420  1.0  0.1098
  H  H44  1  0.545830  0.453800  0.715750  1.0  0.1103
  H  H45  1  0.059300  0.559020  0.770200  1.0  0.1179
  H  H46  1  0.940960  0.441420  0.770260  1.0  0.1117
  H  H47  1  0.058990  0.558520  0.557710  1.0  0.1069
  H  H48  1  0.940800  0.441080  0.557740  1.0  0.1099
  H  H49  1  0.933320  0.066320  0.898690  1.0  0.1067
  H  H50  1  0.051090  0.949090  0.889360  1.0  0.119
  H  H51  1  0.948900  0.050920  0.110640  1.0  0.112
  H  H52  1  0.066690  0.933670  0.101300  1.0  0.1115
  H  H53  1  0.545880  0.046240  0.058770  1.0  0.1035
  H  H54  1  0.429290  0.928920  0.073410  1.0  0.1111
  H  H55  1  0.570720  0.071090  0.269580  1.0  0.1108
  H  H56  1  0.454170  0.953800  0.284250  1.0  0.1097
  H  H57  1  0.940700  0.059020  0.229800  1.0  0.1177
  H  H58  1  0.059040  0.941420  0.229740  1.0  0.1103
  H  H59  1  0.941010  0.058520  0.442290  1.0  0.1078
  H  H60  1  0.059200  0.941080  0.442260  1.0  0.1099
  C  C61  1  0.435700  0.564000  0.494900  1.0  -0.0574
  C  C62  1  0.463600  0.536200  0.555300  1.0  -0.0704
  C  C63  1  0.527900  0.472200  0.560400  1.0  -0.0584
  C  C64  1  0.472100  0.527800  0.439600  1.0  -0.0696
  C  C65  1  0.536400  0.463800  0.444700  1.0  -0.0777
  C  C66  1  0.564300  0.436000  0.505100  1.0  -0.0585
  C  C67  1  0.365300  0.634000  0.489400  1.0  0.6459
  C  C68  1  0.634700  0.366000  0.510600  1.0  0.6302
  C  C69  1  0.063600  0.564000  0.336000  1.0  -0.0766
  C  C70  1  0.024900  0.525100  0.390000  1.0  -0.091
  C  C71  1  0.961300  0.461100  0.382000  1.0  -0.0705
  C  C72  1  0.038700  0.538900  0.275000  1.0  -0.0842
  C  C73  1  0.975100  0.474900  0.267000  1.0  -0.0648
  C  C74  1  0.936400  0.436000  0.320000  1.0  -0.063
  C  C75  1  0.133200  0.634100  0.346000  1.0  0.5976
  C  C76  1  0.866800  0.365900  0.311000  1.0  0.6784
  C  C77  1  0.435400  0.564000  0.164000  1.0  -0.0612
  C  C78  1  0.467600  0.532200  0.222000  1.0  -0.0597
  C  C79  1  0.532200  0.468100  0.222000  1.0  -0.0797
  C  C80  1  0.467800  0.531900  0.106000  1.0  -0.0808
  C  C81  1  0.532400  0.467800  0.106000  1.0  -0.0811
  C  C82  1  0.564600  0.436000  0.164000  1.0  -0.0623
  C  C83  1  0.364600  0.634100  0.164000  1.0  0.6747
  C  C84  1  0.635400  0.365900  0.164000  1.0  0.63
  C  C85  1  0.564300  0.064000  0.505100  1.0  -0.058
  C  C86  1  0.536400  0.036200  0.444700  1.0  -0.0697
  C  C87  1  0.472100  0.972200  0.439600  1.0  -0.0582
  C  C88  1  0.527900  0.027800  0.560400  1.0  -0.0696
  C  C89  1  0.463600  0.963800  0.555300  1.0  -0.0774
  C  C90  1  0.435700  0.936000  0.494900  1.0  -0.0586
  C  C91  1  0.634700  0.134000  0.510600  1.0  0.6461
  C  C92  1  0.365300  0.866000  0.489400  1.0  0.6307
  C  C93  1  0.936400  0.064000  0.664000  1.0  -0.0769
  C  C94  1  0.975100  0.025100  0.610000  1.0  -0.0905
  C  C95  1  0.038700  0.961100  0.618000  1.0  -0.0707
  C  C96  1  0.961300  0.038900  0.725000  1.0  -0.0843
  C  C97  1  0.024900  0.974900  0.733000  1.0  -0.0655
  C  C98  1  0.063600  0.936000  0.680000  1.0  -0.0628
  C  C99  1  0.866800  0.134100  0.654000  1.0  0.5965
  C  C100  1  0.133200  0.865900  0.689000  1.0  0.6791
  C  C101  1  0.564600  0.064000  0.836000  1.0  -0.0614
  C  C102  1  0.532400  0.032200  0.778000  1.0  -0.0584
  C  C103  1  0.467800  0.968100  0.778000  1.0  -0.08
  C  C104  1  0.532200  0.031900  0.894000  1.0  -0.0829
  C  C105  1  0.467600  0.967800  0.894000  1.0  -0.0815
  C  C106  1  0.435400  0.936000  0.836000  1.0  -0.0625
  C  C107  1  0.635400  0.134100  0.836000  1.0  0.6751
  C  C108  1  0.364600  0.865900  0.836000  1.0  0.63
  C  C109  1  0.064300  0.564000  0.994900  1.0  -0.0578
  C  C110  1  0.036400  0.536200  0.055300  1.0  -0.0706
  C  C111  1  0.972100  0.472200  0.060400  1.0  -0.0583
  C  C112  1  0.027900  0.527800  0.939600  1.0  -0.0691
  C  C113  1  0.963600  0.463800  0.944700  1.0  -0.0774
  C  C114  1  0.935700  0.436000  0.005100  1.0  -0.0587
  C  C115  1  0.134700  0.634000  0.989400  1.0  0.6459
  C  C116  1  0.865300  0.366000  0.010600  1.0  0.6306
  C  C117  1  0.436400  0.564000  0.836000  1.0  -0.0771
  C  C118  1  0.475100  0.525100  0.890000  1.0  -0.0911
  C  C119  1  0.538700  0.461100  0.882000  1.0  -0.0706
  C  C120  1  0.461300  0.538900  0.775000  1.0  -0.084
  C  C121  1  0.524900  0.474900  0.767000  1.0  -0.0651
  C  C122  1  0.563600  0.436000  0.820000  1.0  -0.0627
  C  C123  1  0.366800  0.634100  0.846000  1.0  0.5965
  C  C124  1  0.633200  0.365900  0.811000  1.0  0.6794
  C  C125  1  0.064600  0.564000  0.664000  1.0  -0.0613
  C  C126  1  0.032400  0.532200  0.722000  1.0  -0.0592
  C  C127  1  0.967800  0.468100  0.722000  1.0  -0.0806
  C  C128  1  0.032200  0.531900  0.606000  1.0  -0.0809
  C  C129  1  0.967600  0.467800  0.606000  1.0  -0.0814
  C  C130  1  0.935400  0.436000  0.664000  1.0  -0.0625
  C  C131  1  0.135400  0.634100  0.664000  1.0  0.6752
  C  C132  1  0.864600  0.365900  0.664000  1.0  0.63
  C  C133  1  0.935700  0.064000  0.005100  1.0  -0.0576
  C  C134  1  0.963600  0.036200  0.944700  1.0  -0.0696
  C  C135  1  0.027900  0.972200  0.939600  1.0  -0.0585
  C  C136  1  0.972100  0.027800  0.060400  1.0  -0.07
  C  C137  1  0.036400  0.963800  0.055300  1.0  -0.0778
  C  C138  1  0.064300  0.936000  0.994900  1.0  -0.0584
  C  C139  1  0.865300  0.134000  0.010600  1.0  0.6461
  C  C140  1  0.134700  0.866000  0.989400  1.0  0.6303
  C  C141  1  0.563600  0.064000  0.164000  1.0  -0.0764
  C  C142  1  0.524900  0.025100  0.110000  1.0  -0.0905
  C  C143  1  0.461300  0.961100  0.118000  1.0  -0.0703
  C  C144  1  0.538700  0.038900  0.225000  1.0  -0.0849
  C  C145  1  0.475100  0.974900  0.233000  1.0  -0.0653
  C  C146  1  0.436400  0.936000  0.180000  1.0  -0.063
  C  C147  1  0.633200  0.134100  0.154000  1.0  0.5976
  C  C148  1  0.366800  0.865900  0.189000  1.0  0.6783
  C  C149  1  0.935400  0.064000  0.336000  1.0  -0.0614
  C  C150  1  0.967600  0.032200  0.278000  1.0  -0.0588
  C  C151  1  0.032200  0.968100  0.278000  1.0  -0.0796
  C  C152  1  0.967800  0.031900  0.394000  1.0  -0.0828
  C  C153  1  0.032400  0.967800  0.394000  1.0  -0.0811
  C  C154  1  0.064600  0.936000  0.336000  1.0  -0.0623
  C  C155  1  0.864600  0.134100  0.336000  1.0  0.6746
  C  C156  1  0.135400  0.865900  0.336000  1.0  0.6299
  O  O157  1  0.310000  0.729000  0.355000  1.0  -0.7793
  O  O158  1  0.764220  0.258130  0.461040  1.0  -0.6894
  O  O159  1  0.203000  0.758140  0.191730  1.0  -1.0516
  O  O160  1  0.338800  0.660400  0.432000  1.0  -0.5034
  O  O161  1  0.669200  0.331700  0.458000  1.0  -0.6251
  O  O162  1  0.330800  0.668300  0.542000  1.0  -0.7089
  O  O163  1  0.661200  0.339600  0.568000  1.0  -0.5213
  O  O164  1  0.169900  0.671000  0.295000  1.0  -0.6022
  O  O165  1  0.843100  0.342100  0.252000  1.0  -0.6142
  O  O166  1  0.156900  0.657900  0.404000  1.0  -0.607
  O  O167  1  0.830100  0.329000  0.362000  1.0  -0.641
  O  O168  1  0.334100  0.664400  0.109000  1.0  -0.6152
  O  O169  1  0.666200  0.335400  0.109000  1.0  -0.6685
  O  O170  1  0.333800  0.664600  0.219000  1.0  -0.6466
  O  O171  1  0.665900  0.335600  0.220000  1.0  -0.5387
  O  O172  1  0.690000  0.229000  0.645000  1.0  -0.7804
  O  O173  1  0.235780  0.758130  0.538960  1.0  -0.6886
  O  O174  1  0.797000  0.258140  0.808270  1.0  -1.0521
  O  O175  1  0.661200  0.160400  0.568000  1.0  -0.5006
  O  O176  1  0.330800  0.831700  0.542000  1.0  -0.6244
  O  O177  1  0.669200  0.168300  0.458000  1.0  -0.7126
  O  O178  1  0.338800  0.839600  0.432000  1.0  -0.5248
  O  O179  1  0.830100  0.171000  0.705000  1.0  -0.6036
  O  O180  1  0.156900  0.842100  0.748000  1.0  -0.6157
  O  O181  1  0.843100  0.157900  0.596000  1.0  -0.6069
  O  O182  1  0.169900  0.829000  0.638000  1.0  -0.6405
  O  O183  1  0.665900  0.164400  0.891000  1.0  -0.6151
  O  O184  1  0.333800  0.835400  0.891000  1.0  -0.6695
  O  O185  1  0.666200  0.164600  0.781000  1.0  -0.6484
  O  O186  1  0.334100  0.835600  0.780000  1.0  -0.5395
  O  O187  1  0.190000  0.729000  0.855000  1.0  -0.7804
  O  O188  1  0.735780  0.258130  0.961040  1.0  -0.6883
  O  O189  1  0.297000  0.758140  0.691730  1.0  -1.0526
  O  O190  1  0.161200  0.660400  0.932000  1.0  -0.5064
  O  O191  1  0.830800  0.331700  0.958000  1.0  -0.6244
  O  O192  1  0.169200  0.668300  0.042000  1.0  -0.7085
  O  O193  1  0.838800  0.339600  0.068000  1.0  -0.522
  O  O194  1  0.330100  0.671000  0.795000  1.0  -0.6043
  O  O195  1  0.656900  0.342100  0.752000  1.0  -0.6145
  O  O196  1  0.343100  0.657900  0.904000  1.0  -0.6068
  O  O197  1  0.669900  0.329000  0.862000  1.0  -0.6417
  O  O198  1  0.165900  0.664400  0.609000  1.0  -0.616
  O  O199  1  0.833800  0.335400  0.609000  1.0  -0.6686
  O  O200  1  0.166200  0.664600  0.719000  1.0  -0.6469
  O  O201  1  0.834100  0.335600  0.720000  1.0  -0.5388
  O  O202  1  0.810000  0.229000  0.145000  1.0  -0.7794
  O  O203  1  0.264220  0.758130  0.038960  1.0  -0.6897
  O  O204  1  0.703000  0.258140  0.308270  1.0  -1.0509
  O  O205  1  0.838800  0.160400  0.068000  1.0  -0.4987
  O  O206  1  0.169200  0.831700  0.042000  1.0  -0.6251
  O  O207  1  0.830800  0.168300  0.958000  1.0  -0.71
  O  O208  1  0.161200  0.839600  0.932000  1.0  -0.5245
  O  O209  1  0.669900  0.171000  0.205000  1.0  -0.605
  O  O210  1  0.343100  0.842100  0.248000  1.0  -0.6156
  O  O211  1  0.656900  0.157900  0.096000  1.0  -0.6069
  O  O212  1  0.330100  0.829000  0.138000  1.0  -0.6413
  O  O213  1  0.834100  0.164400  0.391000  1.0  -0.6144
  O  O214  1  0.166200  0.835400  0.391000  1.0  -0.6692
  O  O215  1  0.833800  0.164600  0.281000  1.0  -0.6481
  O  O216  1  0.165900  0.835600  0.280000  1.0  -0.5399
