# generated using pymatgen
data_AlC10O3
_symmetry_space_group_name_H-M   'P 1'
_cell_length_a   20.27600000
_cell_length_b   7.53230000
_cell_length_c   6.76000000
_cell_angle_alpha   90.00000000
_cell_angle_beta   100.72000000
_cell_angle_gamma   90.00000000
_symmetry_Int_Tables_number   1
_chemical_formula_structural   AlC10O3
_chemical_formula_sum   'Al4 C40 O12'
_cell_volume   1014.40254724
_cell_formula_units_Z   4
loop_
 _symmetry_equiv_pos_site_id
 _symmetry_equiv_pos_as_xyz
  1  'x, y, z'
loop_
 _atom_site_type_symbol
 _atom_site_label
 _atom_site_symmetry_multiplicity
 _atom_site_fract_x
 _atom_site_fract_y
 _atom_site_fract_z
 _atom_site_occupancy
 _atom_site_charge
  Al  Al1  1  0.998720  0.000200  0.998700  1.0  1.6898
  Al  Al2  1  0.498720  0.500200  0.998700  1.0  1.6908
  Al  Al3  1  0.998720  0.999800  0.498700  1.0  1.6898
  Al  Al4  1  0.498720  0.499800  0.498700  1.0  1.6898
  C  C5  1  0.079200  0.121710  0.062190  1.0  -0.1437
  C  C6  1  0.417350  0.367370  0.365330  1.0  -0.119
  C  C7  1  0.188840  0.196730  0.992380  1.0  -0.005
  C  C8  1  0.228460  0.220640  0.850750  1.0  -0.0631
  C  C9  1  0.294270  0.268440  0.909740  1.0  -0.0745
  C  C10  1  0.320450  0.292350  0.110370  1.0  0.0037
  C  C11  1  0.116790  0.144390  0.927800  1.0  0.3145
  C  C12  1  0.091950  0.121710  0.737420  1.0  -0.1416
  C  C13  1  0.392500  0.344690  0.174960  1.0  0.2719
  C  C14  1  0.430100  0.367370  0.040560  1.0  -0.0881
  C  C15  1  0.579200  0.621710  0.062190  1.0  -0.1437
  C  C16  1  0.917350  0.867370  0.365330  1.0  -0.119
  C  C17  1  0.688840  0.696730  0.992380  1.0  -0.005
  C  C18  1  0.728460  0.720640  0.850750  1.0  -0.0631
  C  C19  1  0.794270  0.768440  0.909740  1.0  -0.0745
  C  C20  1  0.820450  0.792350  0.110370  1.0  0.0037
  C  C21  1  0.616790  0.644390  0.927800  1.0  0.3145
  C  C22  1  0.591950  0.621710  0.737420  1.0  -0.1416
  C  C23  1  0.892500  0.844690  0.174960  1.0  0.2719
  C  C24  1  0.930100  0.867370  0.040560  1.0  -0.0881
  C  C25  1  0.079200  0.878290  0.562190  1.0  -0.1442
  C  C26  1  0.417350  0.632630  0.865330  1.0  -0.1212
  C  C27  1  0.188840  0.803270  0.492380  1.0  -0.0045
  C  C28  1  0.228460  0.779360  0.350750  1.0  -0.0624
  C  C29  1  0.294270  0.731560  0.409740  1.0  -0.0754
  C  C30  1  0.320450  0.707650  0.610370  1.0  0.0033
  C  C31  1  0.116790  0.855610  0.427800  1.0  0.3154
  C  C32  1  0.091950  0.878290  0.237420  1.0  -0.1416
  C  C33  1  0.392500  0.655310  0.674960  1.0  0.2698
  C  C34  1  0.430100  0.632630  0.540560  1.0  -0.0913
  C  C35  1  0.579200  0.378290  0.562190  1.0  -0.1442
  C  C36  1  0.917350  0.132630  0.865330  1.0  -0.1212
  C  C37  1  0.688840  0.303270  0.492380  1.0  -0.0045
  C  C38  1  0.728460  0.279360  0.350750  1.0  -0.0624
  C  C39  1  0.794270  0.231560  0.409740  1.0  -0.0754
  C  C40  1  0.820450  0.207650  0.610370  1.0  0.0033
  C  C41  1  0.616790  0.355610  0.427800  1.0  0.3154
  C  C42  1  0.591950  0.378290  0.237420  1.0  -0.1416
  C  C43  1  0.892500  0.155310  0.674960  1.0  0.2698
  C  C44  1  0.930100  0.132630  0.540560  1.0  -0.0913
  O  O45  1  0.999800  0.889900  0.744500  1.0  -0.8829
  O  O46  1  0.215030  0.220640  0.193010  1.0  -0.3782
  O  O47  1  0.280830  0.268440  0.252010  1.0  -0.38
  O  O48  1  0.499800  0.389900  0.744500  1.0  -0.8809
  O  O49  1  0.715030  0.720640  0.193010  1.0  -0.3782
  O  O50  1  0.780830  0.768440  0.252010  1.0  -0.38
  O  O51  1  0.999800  0.110100  0.244500  1.0  -0.8852
  O  O52  1  0.215030  0.779360  0.693010  1.0  -0.3777
  O  O53  1  0.280830  0.731560  0.752010  1.0  -0.3803
  O  O54  1  0.499800  0.610100  0.244500  1.0  -0.8847
  O  O55  1  0.715030  0.279360  0.693010  1.0  -0.3777
  O  O56  1  0.780830  0.231560  0.752010  1.0  -0.3803
