# generated using pymatgen
data_AlC10O3
_symmetry_space_group_name_H-M   'P 1'
_cell_length_a   19.80600000
_cell_length_b   7.36600000
_cell_length_c   7.05500000
_cell_angle_alpha   90.00000000
_cell_angle_beta   104.36000000
_cell_angle_gamma   90.00000000
_symmetry_Int_Tables_number   1
_chemical_formula_structural   AlC10O3
_chemical_formula_sum   'Al4 C40 O12'
_cell_volume   997.10330609
_cell_formula_units_Z   4
loop_
 _symmetry_equiv_pos_site_id
 _symmetry_equiv_pos_as_xyz
  1  'x, y, z'
loop_
 _atom_site_type_symbol
 _atom_site_label
 _atom_site_symmetry_multiplicity
 _atom_site_fract_x
 _atom_site_fract_y
 _atom_site_fract_z
 _atom_site_occupancy
 _atom_site_charge
  Al  Al1  1  0.998720  0.000200  0.998700  1.0  1.5385
  Al  Al2  1  0.498720  0.500200  0.998700  1.0  1.5385
  Al  Al3  1  0.998720  0.999800  0.498700  1.0  1.5487
  Al  Al4  1  0.498720  0.499800  0.498700  1.0  1.5487
  C  C5  1  0.070000  0.120000  0.060000  1.0  -0.1771
  C  C6  1  0.930000  0.130000  0.860000  1.0  -0.093
  C  C7  1  0.190000  0.200000  0.990000  1.0  0.2181
  C  C8  1  0.220000  0.220000  0.860000  1.0  0.0878
  C  C9  1  0.290000  0.270000  0.910000  1.0  -0.1043
  C  C10  1  0.320000  0.290000  0.110000  1.0  0.1004
  C  C11  1  0.110000  0.140000  0.930000  1.0  0.1347
  C  C12  1  0.080000  0.880000  0.250000  1.0  -0.1452
  C  C13  1  0.900000  0.150000  0.670000  1.0  0.289
  C  C14  1  0.930000  0.870000  0.040000  1.0  -0.0324
  C  C15  1  0.570000  0.620000  0.060000  1.0  -0.1771
  C  C16  1  0.430000  0.630000  0.860000  1.0  -0.093
  C  C17  1  0.690000  0.700000  0.990000  1.0  0.2181
  C  C18  1  0.720000  0.720000  0.860000  1.0  0.0878
  C  C19  1  0.790000  0.770000  0.910000  1.0  -0.1034
  C  C20  1  0.820000  0.790000  0.110000  1.0  0.1004
  C  C21  1  0.610000  0.640000  0.930000  1.0  0.1347
  C  C22  1  0.580000  0.380000  0.250000  1.0  -0.1452
  C  C23  1  0.400000  0.650000  0.670000  1.0  0.2898
  C  C24  1  0.430000  0.370000  0.040000  1.0  -0.0324
  C  C25  1  0.070000  0.880000  0.560000  1.0  -0.1792
  C  C26  1  0.930000  0.870000  0.360000  1.0  -0.0925
  C  C27  1  0.190000  0.800000  0.490000  1.0  0.2182
  C  C28  1  0.220000  0.780000  0.360000  1.0  0.0881
  C  C29  1  0.290000  0.730000  0.410000  1.0  -0.1055
  C  C30  1  0.320000  0.710000  0.610000  1.0  0.1028
  C  C31  1  0.110000  0.860000  0.430000  1.0  0.1353
  C  C32  1  0.080000  0.120000  0.750000  1.0  -0.1469
  C  C33  1  0.900000  0.850000  0.170000  1.0  0.2891
  C  C34  1  0.930000  0.130000  0.540000  1.0  -0.0349
  C  C35  1  0.570000  0.380000  0.560000  1.0  -0.1792
  C  C36  1  0.430000  0.370000  0.360000  1.0  -0.0925
  C  C37  1  0.690000  0.300000  0.490000  1.0  0.2182
  C  C38  1  0.720000  0.280000  0.360000  1.0  0.0881
  C  C39  1  0.790000  0.230000  0.410000  1.0  -0.1055
  C  C40  1  0.820000  0.210000  0.610000  1.0  0.1028
  C  C41  1  0.610000  0.360000  0.430000  1.0  0.1353
  C  C42  1  0.580000  0.620000  0.750000  1.0  -0.1469
  C  C43  1  0.400000  0.350000  0.170000  1.0  0.2891
  C  C44  1  0.430000  0.630000  0.540000  1.0  -0.0345
  O  O45  1  0.999800  0.889900  0.744500  1.0  -0.9433
  O  O46  1  0.220000  0.220000  0.190000  1.0  -0.4488
  O  O47  1  0.290000  0.270000  0.250000  1.0  -0.4284
  O  O48  1  0.499800  0.389900  0.744500  1.0  -0.9433
  O  O49  1  0.720000  0.720000  0.190000  1.0  -0.4488
  O  O50  1  0.790000  0.770000  0.250000  1.0  -0.4284
  O  O51  1  0.999800  0.110100  0.244500  1.0  -0.9481
  O  O52  1  0.220000  0.780000  0.690000  1.0  -0.4435
  O  O53  1  0.290000  0.730000  0.750000  1.0  -0.4287
  O  O54  1  0.499800  0.610100  0.244500  1.0  -0.9481
  O  O55  1  0.720000  0.280000  0.690000  1.0  -0.4435
  O  O56  1  0.790000  0.230000  0.750000  1.0  -0.4287
