# generated using pymatgen
data_CoH2(C3O2)2
_symmetry_space_group_name_H-M   'P 1'
_cell_length_a   10.10700000
_cell_length_b   10.25800000
_cell_length_c   16.27600000
_cell_angle_alpha   90.00000000
_cell_angle_beta   95.38000000
_cell_angle_gamma   90.00000000
_symmetry_Int_Tables_number   1
_chemical_formula_structural   CoH2(C3O2)2
_chemical_formula_sum   'Co6 H12 C36 O24'
_cell_volume   1680.02305322
_cell_formula_units_Z   6
loop_
 _symmetry_equiv_pos_site_id
 _symmetry_equiv_pos_as_xyz
  1  'x, y, z'
loop_
 _atom_site_type_symbol
 _atom_site_label
 _atom_site_symmetry_multiplicity
 _atom_site_fract_x
 _atom_site_fract_y
 _atom_site_fract_z
 _atom_site_occupancy
 _atom_site_charge
  Co  Co1  1  0.227000  0.253960  0.577630  1.0  0.9054
  Co  Co2  1  0.773000  0.753960  0.922370  1.0  0.9055
  Co  Co3  1  0.773000  0.746040  0.422370  1.0  0.9068
  Co  Co4  1  0.227000  0.246040  0.077630  1.0  0.907
  Co  Co5  1  0.000000  0.000000  0.000000  1.0  0.8911
  Co  Co6  1  0.000000  0.500000  0.500000  1.0  0.8911
  H  H7  1  0.050600  0.640700  0.750300  1.0  0.1101
  H  H8  1  0.436400  0.556800  0.736800  1.0  0.1165
  H  H9  1  0.324800  0.774700  0.922900  1.0  0.1125
  H  H10  1  0.949400  0.140700  0.749700  1.0  0.1102
  H  H11  1  0.563600  0.056800  0.763200  1.0  0.1169
  H  H12  1  0.675200  0.274700  0.577100  1.0  0.112
  H  H13  1  0.949400  0.359300  0.249700  1.0  0.1101
  H  H14  1  0.563600  0.443200  0.263200  1.0  0.1162
  H  H15  1  0.675200  0.225300  0.077100  1.0  0.1119
  H  H16  1  0.050600  0.859300  0.250300  1.0  0.11
  H  H17  1  0.436400  0.943200  0.236800  1.0  0.1165
  H  H18  1  0.324800  0.725300  0.422900  1.0  0.1124
  C  C19  1  0.064200  0.779800  0.889700  1.0  0.7119
  C  C20  1  0.170300  0.717000  0.844100  1.0  -0.1744
  C  C21  1  0.138900  0.648000  0.771600  1.0  0.029
  C  C22  1  0.237700  0.589700  0.730400  1.0  -0.155
  C  C23  1  0.370200  0.598500  0.763000  1.0  0.0241
  C  C24  1  0.403000  0.670000  0.834700  1.0  -0.1421
  C  C25  1  0.302800  0.727800  0.874700  1.0  0.0311
  C  C26  1  0.201100  0.516100  0.652100  1.0  0.7057
  C  C27  1  0.545400  0.687600  0.867600  1.0  0.6494
  C  C28  1  0.935800  0.279800  0.610300  1.0  0.7131
  C  C29  1  0.829700  0.217000  0.655900  1.0  -0.1738
  C  C30  1  0.861100  0.148000  0.728400  1.0  0.0313
  C  C31  1  0.762300  0.089700  0.769600  1.0  -0.1549
  C  C32  1  0.629800  0.098500  0.737000  1.0  0.0246
  C  C33  1  0.597000  0.170000  0.665300  1.0  -0.143
  C  C34  1  0.697200  0.227800  0.625300  1.0  0.0323
  C  C35  1  0.798900  0.016100  0.847900  1.0  0.705
  C  C36  1  0.454600  0.187600  0.632400  1.0  0.6492
  C  C37  1  0.935800  0.220200  0.110300  1.0  0.7127
  C  C38  1  0.829700  0.283000  0.155900  1.0  -0.174
  C  C39  1  0.861100  0.352000  0.228400  1.0  0.0312
  C  C40  1  0.762300  0.410300  0.269600  1.0  -0.1549
  C  C41  1  0.629800  0.401500  0.237000  1.0  0.0243
  C  C42  1  0.597000  0.330000  0.165300  1.0  -0.143
  C  C43  1  0.697200  0.272200  0.125300  1.0  0.0326
  C  C44  1  0.798900  0.483900  0.347900  1.0  0.7051
  C  C45  1  0.454600  0.312400  0.132400  1.0  0.6497
  C  C46  1  0.064200  0.720200  0.389700  1.0  0.7114
  C  C47  1  0.170300  0.783000  0.344100  1.0  -0.1745
  C  C48  1  0.138900  0.852000  0.271600  1.0  0.029
  C  C49  1  0.237700  0.910300  0.230400  1.0  -0.1546
  C  C50  1  0.370200  0.901500  0.263000  1.0  0.0243
  C  C51  1  0.403000  0.830000  0.334700  1.0  -0.1421
  C  C52  1  0.302800  0.772200  0.374700  1.0  0.0316
  C  C53  1  0.201100  0.983900  0.152100  1.0  0.7058
  C  C54  1  0.545400  0.812400  0.367600  1.0  0.6497
  O  O55  1  0.946800  0.746600  0.868900  1.0  -0.5804
  O  O56  1  0.103200  0.860800  0.944500  1.0  -0.5691
  O  O57  1  0.094000  0.550200  0.612100  1.0  -0.5866
  O  O58  1  0.279500  0.428600  0.633300  1.0  -0.5646
  O  O59  1  0.637100  0.661400  0.823500  1.0  -0.5212
  O  O60  1  0.569500  0.732300  0.939600  1.0  -0.5499
  O  O61  1  0.053200  0.246600  0.631100  1.0  -0.5804
  O  O62  1  0.896800  0.360800  0.555500  1.0  -0.5702
  O  O63  1  0.906000  0.050200  0.887900  1.0  -0.5869
  O  O64  1  0.720500  0.928600  0.866700  1.0  -0.565
  O  O65  1  0.362900  0.161400  0.676500  1.0  -0.521
  O  O66  1  0.430500  0.232300  0.560400  1.0  -0.5534
  O  O67  1  0.053200  0.253400  0.131100  1.0  -0.5799
  O  O68  1  0.896800  0.139200  0.055500  1.0  -0.5681
  O  O69  1  0.906000  0.449800  0.387900  1.0  -0.5871
  O  O70  1  0.720500  0.571400  0.366700  1.0  -0.5654
  O  O71  1  0.362900  0.338600  0.176500  1.0  -0.5206
  O  O72  1  0.430500  0.267700  0.060400  1.0  -0.5523
  O  O73  1  0.946800  0.753400  0.368900  1.0  -0.5796
  O  O74  1  0.103200  0.639200  0.444500  1.0  -0.5669
  O  O75  1  0.094000  0.949800  0.112100  1.0  -0.5865
  O  O76  1  0.279500  0.071400  0.133300  1.0  -0.5642
  O  O77  1  0.637100  0.838600  0.323500  1.0  -0.5202
  O  O78  1  0.569500  0.767700  0.439600  1.0  -0.5504
