# generated using pymatgen
data_CoH2(C3O2)2
_symmetry_space_group_name_H-M   'P 1'
_cell_length_a   10.12400000
_cell_length_b   10.28100000
_cell_length_c   16.33000000
_cell_angle_alpha   90.00000000
_cell_angle_beta   95.34000000
_cell_angle_gamma   90.00000000
_symmetry_Int_Tables_number   1
_chemical_formula_structural   CoH2(C3O2)2
_chemical_formula_sum   'Co6 H12 C36 O24'
_cell_volume   1692.32872744
_cell_formula_units_Z   6
loop_
 _symmetry_equiv_pos_site_id
 _symmetry_equiv_pos_as_xyz
  1  'x, y, z'
loop_
 _atom_site_type_symbol
 _atom_site_label
 _atom_site_symmetry_multiplicity
 _atom_site_fract_x
 _atom_site_fract_y
 _atom_site_fract_z
 _atom_site_occupancy
 _atom_site_charge
  Co  Co1  1  0.226910  0.753970  0.077560  1.0  0.9042
  Co  Co2  1  0.773090  0.253970  0.422440  1.0  0.9058
  Co  Co3  1  0.773090  0.246030  0.922440  1.0  0.907
  Co  Co4  1  0.226910  0.746030  0.577560  1.0  0.9062
  Co  Co5  1  0.000000  0.500000  0.500000  1.0  0.7791
  Co  Co6  1  0.000000  0.000000  0.000000  1.0  0.7791
  H  H7  1  0.326200  0.270400  0.419900  1.0  0.1111
  H  H8  1  0.431600  0.061400  0.238800  1.0  0.1175
  H  H9  1  0.054600  0.143400  0.247700  1.0  0.1135
  H  H10  1  0.673800  0.770400  0.080100  1.0  0.1112
  H  H11  1  0.568400  0.561400  0.261200  1.0  0.1217
  H  H12  1  0.945400  0.643400  0.252300  1.0  0.1132
  H  H13  1  0.673800  0.729600  0.580100  1.0  0.1124
  H  H14  1  0.568400  0.938600  0.761200  1.0  0.1203
  H  H15  1  0.945400  0.856600  0.752300  1.0  0.1133
  H  H16  1  0.326200  0.229600  0.919900  1.0  0.1117
  H  H17  1  0.431600  0.438600  0.738800  1.0  0.1164
  H  H18  1  0.054600  0.356600  0.747700  1.0  0.1136
  C  C19  1  0.138600  0.148300  0.271700  1.0  0.0356
  C  C20  1  0.302600  0.227500  0.374200  1.0  0.0342
  C  C21  1  0.171000  0.217500  0.343800  1.0  -0.1728
  C  C22  1  0.402900  0.169500  0.334900  1.0  -0.1633
  C  C23  1  0.200900  0.016300  0.151600  1.0  0.7092
  C  C24  1  0.064300  0.279900  0.389300  1.0  0.7011
  C  C25  1  0.545300  0.187600  0.367000  1.0  0.6503
  C  C26  1  0.368700  0.099100  0.263000  1.0  0.0417
  C  C27  1  0.237500  0.089700  0.230500  1.0  -0.1675
  C  C28  1  0.861400  0.648300  0.228300  1.0  0.0371
  C  C29  1  0.697400  0.727500  0.125800  1.0  0.0357
  C  C30  1  0.829000  0.717500  0.156200  1.0  -0.1726
  C  C31  1  0.597100  0.669500  0.165100  1.0  -0.1632
  C  C32  1  0.799100  0.516300  0.348400  1.0  0.7075
  C  C33  1  0.935700  0.779900  0.110700  1.0  0.7017
  C  C34  1  0.454700  0.687600  0.133000  1.0  0.6513
  C  C35  1  0.631300  0.599100  0.237000  1.0  0.0418
  C  C36  1  0.762500  0.589700  0.269500  1.0  -0.1679
  C  C37  1  0.861400  0.851700  0.728300  1.0  0.0372
  C  C38  1  0.697400  0.772500  0.625800  1.0  0.0359
  C  C39  1  0.829000  0.782500  0.656200  1.0  -0.1729
  C  C40  1  0.597100  0.830500  0.665100  1.0  -0.163
  C  C41  1  0.799100  0.983700  0.848400  1.0  0.7077
  C  C42  1  0.935700  0.720100  0.610700  1.0  0.7014
  C  C43  1  0.454700  0.812400  0.633000  1.0  0.6519
  C  C44  1  0.631300  0.900900  0.737000  1.0  0.0416
  C  C45  1  0.762500  0.910300  0.769500  1.0  -0.1681
  C  C46  1  0.138600  0.351700  0.771700  1.0  0.0357
  C  C47  1  0.302600  0.272500  0.874200  1.0  0.0341
  C  C48  1  0.171000  0.282500  0.843800  1.0  -0.1728
  C  C49  1  0.402900  0.330500  0.834900  1.0  -0.1633
  C  C50  1  0.200900  0.483700  0.651600  1.0  0.7094
  C  C51  1  0.064300  0.220100  0.889300  1.0  0.7007
  C  C52  1  0.545300  0.312400  0.867000  1.0  0.6503
  C  C53  1  0.368700  0.400900  0.763000  1.0  0.042
  C  C54  1  0.237500  0.410300  0.730500  1.0  -0.167
  O  O55  1  0.279300  0.928900  0.132800  1.0  -0.561
  O  O56  1  0.103500  0.360200  0.444700  1.0  -0.5412
  O  O57  1  0.637700  0.161500  0.323100  1.0  -0.5226
  O  O58  1  0.946600  0.246700  0.368400  1.0  -0.5787
  O  O59  1  0.569200  0.231900  0.439700  1.0  -0.5549
  O  O60  1  0.094300  0.049900  0.112100  1.0  -0.5506
  O  O61  1  0.720700  0.428900  0.367200  1.0  -0.5608
  O  O62  1  0.896500  0.860200  0.055300  1.0  -0.5422
  O  O63  1  0.362300  0.661500  0.176900  1.0  -0.5212
  O  O64  1  0.053400  0.746700  0.131600  1.0  -0.5783
  O  O65  1  0.430800  0.731900  0.060300  1.0  -0.5584
  O  O66  1  0.905700  0.549900  0.387900  1.0  -0.5505
  O  O67  1  0.720700  0.071100  0.867200  1.0  -0.5612
  O  O68  1  0.896500  0.639800  0.555300  1.0  -0.5424
  O  O69  1  0.362300  0.838500  0.676900  1.0  -0.521
  O  O70  1  0.053400  0.753300  0.631600  1.0  -0.5784
  O  O71  1  0.430800  0.768100  0.560300  1.0  -0.5579
  O  O72  1  0.905700  0.950100  0.887900  1.0  -0.5497
  O  O73  1  0.279300  0.571100  0.632800  1.0  -0.5606
  O  O74  1  0.103500  0.139800  0.944700  1.0  -0.5417
  O  O75  1  0.637700  0.338500  0.823100  1.0  -0.5215
  O  O76  1  0.946600  0.253300  0.868400  1.0  -0.5785
  O  O77  1  0.569200  0.268100  0.939700  1.0  -0.5549
  O  O78  1  0.094300  0.450100  0.612100  1.0  -0.5497
