# generated using pymatgen
data_InP2(HO3)2
_symmetry_space_group_name_H-M   'P 1'
_cell_length_a   9.27130000
_cell_length_b   14.45300000
_cell_length_c   9.99600000
_cell_angle_alpha   90.00000000
_cell_angle_beta   116.16000000
_cell_angle_gamma   90.00000000
_symmetry_Int_Tables_number   1
_chemical_formula_structural   InP2(HO3)2
_chemical_formula_sum   'In6 P12 H12 O36'
_cell_volume   1202.24079711
_cell_formula_units_Z   6
loop_
 _symmetry_equiv_pos_site_id
 _symmetry_equiv_pos_as_xyz
  1  'x, y, z'
loop_
 _atom_site_type_symbol
 _atom_site_label
 _atom_site_symmetry_multiplicity
 _atom_site_fract_x
 _atom_site_fract_y
 _atom_site_fract_z
 _atom_site_occupancy
 _atom_site_charge
  In  In1  1  0.271570  0.354050  0.767910  1.0  1.6332
  In  In2  1  0.008050  0.461190  0.252490  1.0  1.6308
  In  In3  1  0.247130  0.060130  0.252390  1.0  1.6289
  In  In4  1  0.728430  0.854050  0.232090  1.0  1.6355
  In  In5  1  0.991950  0.961190  0.747510  1.0  1.6306
  In  In6  1  0.752870  0.560130  0.747610  1.0  1.6329
  P  P7  1  0.371590  0.495540  0.562050  1.0  1.6063
  P  P8  1  0.689450  0.371410  0.937440  1.0  1.5947
  P  P9  1  0.146410  0.170770  0.927540  1.0  1.6674
  P  P10  1  0.157090  0.246150  0.428570  1.0  1.626
  P  P11  1  0.088210  0.451130  0.951590  1.0  1.5737
  P  P12  1  0.933850  0.469500  0.552970  1.0  1.4612
  P  P13  1  0.628410  0.995540  0.437950  1.0  1.6077
  P  P14  1  0.310550  0.871410  0.062560  1.0  1.5964
  P  P15  1  0.853590  0.670770  0.072460  1.0  1.6587
  P  P16  1  0.842910  0.746150  0.571430  1.0  1.6246
  P  P17  1  0.911790  0.951130  0.048410  1.0  1.5723
  P  P18  1  0.066150  0.969500  0.447030  1.0  1.4555
  H  H19  1  0.433000  0.416000  0.520000  1.0  -0.058
  H  H20  1  0.775000  0.296000  0.955000  1.0  -0.0704
  H  H21  1  0.048000  0.224000  0.959000  1.0  -0.0788
  H  H22  1  0.057000  0.194000  0.456000  1.0  -0.1056
  H  H23  1  0.995000  0.380000  0.888000  1.0  -0.0885
  H  H24  1  0.011200  0.524000  0.607600  1.0  0.0978
  H  H25  1  0.567000  0.916000  0.480000  1.0  -0.0571
  H  H26  1  0.225000  0.796000  0.045000  1.0  -0.0731
  H  H27  1  0.952000  0.724000  0.041000  1.0  -0.0787
  H  H28  1  0.943000  0.694000  0.544000  1.0  -0.1053
  H  H29  1  0.005000  0.880000  0.112000  1.0  -0.0858
  H  H30  1  0.988800  0.024000  0.392400  1.0  0.0978
  O  O31  1  0.123000  0.441600  0.114200  1.0  -0.8042
  O  O32  1  0.268800  0.128000  0.074000  1.0  -0.733
  O  O33  1  0.021900  0.380400  0.628100  1.0  -0.7791
  O  O34  1  0.786200  0.485200  0.579700  1.0  -0.7863
  O  O35  1  0.005600  0.541400  0.882100  1.0  -0.7817
  O  O36  1  0.062200  0.324000  0.328800  1.0  -0.8385
  O  O37  1  0.230000  0.236600  0.866500  1.0  -0.831
  O  O38  1  0.498500  0.571100  0.600200  1.0  -0.7485
  O  O39  1  0.326900  0.479300  0.690100  1.0  -0.771
  O  O40  1  0.047100  0.101300  0.810700  1.0  -0.8154
  O  O41  1  0.226500  0.519400  0.417000  1.0  -0.7717
  O  O42  1  0.522100  0.335000  0.905500  1.0  -0.7788
  O  O43  1  0.278800  0.276900  0.586100  1.0  -0.7648
  O  O44  1  0.242800  0.187000  0.360700  1.0  -0.7981
  O  O45  1  0.768800  0.414400  0.093200  1.0  -0.76
  O  O46  1  0.694600  0.430500  0.816200  1.0  -0.8484
  O  O47  1  0.882200  0.469800  0.386300  1.0  -0.7572
  O  O48  1  0.244500  0.438700  0.935400  1.0  -0.7491
  O  O49  1  0.877000  0.941600  0.885800  1.0  -0.8018
  O  O50  1  0.731200  0.628000  0.926000  1.0  -0.7319
  O  O51  1  0.978100  0.880400  0.371900  1.0  -0.7794
  O  O52  1  0.213800  0.985200  0.420300  1.0  -0.786
  O  O53  1  0.994400  0.041400  0.117900  1.0  -0.7828
  O  O54  1  0.937800  0.824000  0.671200  1.0  -0.8393
  O  O55  1  0.770000  0.736600  0.133500  1.0  -0.8288
  O  O56  1  0.501500  0.071100  0.399800  1.0  -0.7469
  O  O57  1  0.673100  0.979300  0.309900  1.0  -0.7709
  O  O58  1  0.952900  0.601300  0.189300  1.0  -0.817
  O  O59  1  0.773500  0.019400  0.583000  1.0  -0.7723
  O  O60  1  0.477900  0.835000  0.094500  1.0  -0.7799
  O  O61  1  0.721200  0.776900  0.413900  1.0  -0.7626
  O  O62  1  0.757200  0.687000  0.639300  1.0  -0.7985
  O  O63  1  0.231200  0.914400  0.906800  1.0  -0.7604
  O  O64  1  0.305400  0.930500  0.183800  1.0  -0.8472
  O  O65  1  0.117800  0.969800  0.613700  1.0  -0.7596
  O  O66  1  0.755500  0.938700  0.064600  1.0  -0.749
