# generated using pymatgen
data_CuH10C17NO4
_symmetry_space_group_name_H-M   'P 1'
_cell_length_a   15.25630000
_cell_length_b   16.06990000
_cell_length_c   23.59370000
_cell_angle_alpha   90.00000000
_cell_angle_beta   90.00000000
_cell_angle_gamma   118.33900000
_symmetry_Int_Tables_number   1
_chemical_formula_structural   CuH10C17NO4
_chemical_formula_sum   'Cu4 H40 C68 N4 O16'
_cell_volume   5091.16691077
_cell_formula_units_Z   4
loop_
 _symmetry_equiv_pos_site_id
 _symmetry_equiv_pos_as_xyz
  1  'x, y, z'
loop_
 _atom_site_type_symbol
 _atom_site_label
 _atom_site_symmetry_multiplicity
 _atom_site_fract_x
 _atom_site_fract_y
 _atom_site_fract_z
 _atom_site_occupancy
 _atom_site_charge
  Cu  Cu1  1  0.534320  0.438240  0.500000  1.0  0.8889
  Cu  Cu2  1  0.465680  0.561760  0.500000  1.0  0.8894
  Cu  Cu3  1  0.903920  0.438240  0.000000  1.0  0.8895
  Cu  Cu4  1  0.096080  0.561760  0.000000  1.0  0.8906
  H  H5  1  0.655600  0.752000  0.630100  1.0  0.1087
  H  H6  1  0.766500  0.833400  0.702700  1.0  0.1244
  H  H7  1  0.871200  0.648600  0.697400  1.0  0.125
  H  H8  1  0.757800  0.564600  0.628400  1.0  0.1077
  H  H9  1  0.965300  0.919200  0.665700  1.0  0.121
  H  H10  1  0.344400  0.248000  0.630100  1.0  0.1085
  H  H11  1  0.233500  0.166600  0.702700  1.0  0.1241
  H  H12  1  0.128800  0.351400  0.697400  1.0  0.1247
  H  H13  1  0.242200  0.435400  0.628400  1.0  0.1083
  H  H14  1  0.034700  0.080800  0.665700  1.0  0.1214
  H  H15  1  0.096400  0.752000  0.869900  1.0  0.1088
  H  H16  1  0.066900  0.833400  0.797300  1.0  0.1244
  H  H17  1  0.777400  0.648600  0.802600  1.0  0.1256
  H  H18  1  0.806800  0.564600  0.871600  1.0  0.1075
  H  H19  1  0.953900  0.919200  0.834300  1.0  0.1209
  H  H20  1  0.903600  0.248000  0.869900  1.0  0.1086
  H  H21  1  0.933100  0.166600  0.797300  1.0  0.1241
  H  H22  1  0.222600  0.351400  0.802600  1.0  0.1257
  H  H23  1  0.193200  0.435400  0.871600  1.0  0.1075
  H  H24  1  0.046100  0.080800  0.834300  1.0  0.1205
  H  H25  1  0.344400  0.248000  0.369900  1.0  0.1085
  H  H26  1  0.233500  0.166600  0.297300  1.0  0.1242
  H  H27  1  0.128800  0.351400  0.302600  1.0  0.1245
  H  H28  1  0.242200  0.435400  0.371600  1.0  0.1079
  H  H29  1  0.034700  0.080800  0.334300  1.0  0.1207
  H  H30  1  0.655600  0.752000  0.369900  1.0  0.1084
  H  H31  1  0.766500  0.833400  0.297300  1.0  0.1247
  H  H32  1  0.871200  0.648600  0.302600  1.0  0.1246
  H  H33  1  0.757800  0.564600  0.371600  1.0  0.1074
  H  H34  1  0.965300  0.919200  0.334300  1.0  0.1204
  H  H35  1  0.903600  0.248000  0.130100  1.0  0.1085
  H  H36  1  0.933100  0.166600  0.202700  1.0  0.1241
  H  H37  1  0.222600  0.351400  0.197400  1.0  0.1257
  H  H38  1  0.193200  0.435400  0.128400  1.0  0.1081
  H  H39  1  0.046100  0.080800  0.165700  1.0  0.1212
  H  H40  1  0.096400  0.752000  0.130100  1.0  0.1092
  H  H41  1  0.066900  0.833400  0.202700  1.0  0.1242
  H  H42  1  0.777400  0.648600  0.197400  1.0  0.1254
  H  H43  1  0.806800  0.564600  0.128400  1.0  0.1075
  H  H44  1  0.953900  0.919200  0.165700  1.0  0.1209
  C  C45  1  0.623160  0.594800  0.575990  1.0  0.69
  C  C46  1  0.695470  0.649440  0.621550  1.0  -0.1623
  C  C47  1  0.698440  0.730520  0.643820  1.0  -0.0099
  C  C48  1  0.765970  0.780040  0.687020  1.0  -0.2156
  C  C49  1  0.832200  0.750360  0.706570  1.0  0.1758
  C  C50  1  0.827830  0.669780  0.684260  1.0  -0.2128
  C  C51  1  0.760070  0.619640  0.642610  1.0  -0.0044
  C  C52  1  0.977460  0.951220  0.700050  1.0  -0.1575
  C  C53  1  0.376840  0.405200  0.575990  1.0  0.6902
  C  C54  1  0.304530  0.350560  0.621550  1.0  -0.1615
  C  C55  1  0.301560  0.269480  0.643820  1.0  -0.0108
  C  C56  1  0.234030  0.219960  0.687020  1.0  -0.2143
  C  C57  1  0.167800  0.249640  0.706570  1.0  0.1763
  C  C58  1  0.172170  0.330220  0.684260  1.0  -0.2149
  C  C59  1  0.239930  0.380360  0.642610  1.0  -0.0042
  C  C60  1  0.022540  0.048780  0.700050  1.0  -0.1554
  C  C61  1  0.971640  0.594800  0.924010  1.0  0.6902
  C  C62  1  0.953970  0.649440  0.878450  1.0  -0.1608
  C  C63  1  0.032080  0.730520  0.856180  1.0  -0.0102
  C  C64  1  0.014070  0.780040  0.812980  1.0  -0.2148
  C  C65  1  0.918160  0.750360  0.793430  1.0  0.1765
  C  C66  1  0.841950  0.669780  0.815740  1.0  -0.2155
  C  C67  1  0.859570  0.619640  0.857390  1.0  -0.0024
  C  C68  1  0.973760  0.951220  0.799950  1.0  -0.1603
  C  C69  1  0.028360  0.405200  0.924010  1.0  0.6903
  C  C70  1  0.046030  0.350560  0.878450  1.0  -0.1606
  C  C71  1  0.967920  0.269480  0.856180  1.0  -0.0091
  C  C72  1  0.985930  0.219960  0.812980  1.0  -0.2157
  C  C73  1  0.081840  0.249640  0.793430  1.0  0.1762
  C  C74  1  0.158050  0.330220  0.815740  1.0  -0.2132
  C  C75  1  0.140430  0.380360  0.857390  1.0  -0.0029
  C  C76  1  0.026240  0.048780  0.799950  1.0  -0.159
  C  C77  1  0.376840  0.405200  0.424010  1.0  0.6904
  C  C78  1  0.304530  0.350560  0.378450  1.0  -0.1611
  C  C79  1  0.301560  0.269480  0.356180  1.0  -0.0104
  C  C80  1  0.234030  0.219960  0.312980  1.0  -0.2148
  C  C81  1  0.167800  0.249640  0.293430  1.0  0.1765
  C  C82  1  0.172170  0.330220  0.315740  1.0  -0.2164
  C  C83  1  0.239930  0.380360  0.357390  1.0  -0.0037
  C  C84  1  0.022540  0.048780  0.299950  1.0  -0.1599
  C  C85  1  0.623160  0.594800  0.424010  1.0  0.6902
  C  C86  1  0.695470  0.649440  0.378450  1.0  -0.1606
  C  C87  1  0.698440  0.730520  0.356180  1.0  -0.01
  C  C88  1  0.765970  0.780040  0.312980  1.0  -0.2152
  C  C89  1  0.832200  0.750360  0.293430  1.0  0.1762
  C  C90  1  0.827830  0.669780  0.315740  1.0  -0.2125
  C  C91  1  0.760070  0.619640  0.357390  1.0  -0.0032
  C  C92  1  0.977460  0.951220  0.299950  1.0  -0.1568
  C  C93  1  0.028360  0.405200  0.075990  1.0  0.6901
  C  C94  1  0.046030  0.350560  0.121550  1.0  -0.1615
  C  C95  1  0.967920  0.269480  0.143820  1.0  -0.009
  C  C96  1  0.985930  0.219960  0.187020  1.0  -0.216
  C  C97  1  0.081840  0.249640  0.206570  1.0  0.1759
  C  C98  1  0.158050  0.330220  0.184260  1.0  -0.2122
  C  C99  1  0.140430  0.380360  0.142610  1.0  -0.0041
  C  C100  1  0.026240  0.048780  0.200050  1.0  -0.1582
  C  C101  1  0.971640  0.594800  0.075990  1.0  0.69
  C  C102  1  0.953970  0.649440  0.121550  1.0  -0.1618
  C  C103  1  0.032080  0.730520  0.143820  1.0  -0.0105
  C  C104  1  0.014070  0.780040  0.187020  1.0  -0.2144
  C  C105  1  0.918160  0.750360  0.206570  1.0  0.1762
  C  C106  1  0.841950  0.669780  0.184260  1.0  -0.2159
  C  C107  1  0.859570  0.619640  0.142610  1.0  -0.0034
  C  C108  1  0.973760  0.951220  0.200050  1.0  -0.1577
  C  C109  1  0.950210  0.900420  0.750000  1.0  0.1387
  C  C110  1  0.049790  0.099580  0.750000  1.0  0.1386
  C  C111  1  0.049790  0.099580  0.250000  1.0  0.1386
  C  C112  1  0.950210  0.900420  0.250000  1.0  0.1387
  N  N113  1  0.900350  0.800700  0.750000  1.0  -0.1184
  N  N114  1  0.099650  0.199300  0.750000  1.0  -0.1185
  N  N115  1  0.099650  0.199300  0.250000  1.0  -0.1185
  N  N116  1  0.900350  0.800700  0.250000  1.0  -0.1184
  O  O117  1  0.623950  0.521980  0.558360  1.0  -0.573
  O  O118  1  0.567270  0.627200  0.558370  1.0  -0.5728
  O  O119  1  0.376050  0.478020  0.558360  1.0  -0.5726
  O  O120  1  0.432730  0.372800  0.558370  1.0  -0.5734
  O  O121  1  0.898030  0.521980  0.941640  1.0  -0.5723
  O  O122  1  0.059930  0.627200  0.941630  1.0  -0.5737
  O  O123  1  0.101970  0.478020  0.941640  1.0  -0.573
  O  O124  1  0.940070  0.372800  0.941630  1.0  -0.5727
  O  O125  1  0.376050  0.478020  0.441640  1.0  -0.5724
  O  O126  1  0.432730  0.372800  0.441630  1.0  -0.5737
  O  O127  1  0.623950  0.521980  0.441640  1.0  -0.5731
  O  O128  1  0.567270  0.627200  0.441630  1.0  -0.5727
  O  O129  1  0.101970  0.478020  0.058360  1.0  -0.5728
  O  O130  1  0.940070  0.372800  0.058370  1.0  -0.5726
  O  O131  1  0.898030  0.521980  0.058360  1.0  -0.5726
  O  O132  1  0.059930  0.627200  0.058370  1.0  -0.5733
