# generated using pymatgen
data_Cd2H20C28SN2O11
_symmetry_space_group_name_H-M   'P 1'
_cell_length_a   9.25060000
_cell_length_b   19.69500000
_cell_length_c   18.77000000
_cell_angle_alpha   90.00000000
_cell_angle_beta   90.00000000
_cell_angle_gamma   90.00000000
_symmetry_Int_Tables_number   1
_chemical_formula_structural   Cd2H20C28SN2O11
_chemical_formula_sum   'Cd8 H80 C112 S4 N8 O44'
_cell_volume   3419.71694259
_cell_formula_units_Z   4
loop_
 _symmetry_equiv_pos_site_id
 _symmetry_equiv_pos_as_xyz
  1  'x, y, z'
loop_
 _atom_site_type_symbol
 _atom_site_label
 _atom_site_symmetry_multiplicity
 _atom_site_fract_x
 _atom_site_fract_y
 _atom_site_fract_z
 _atom_site_occupancy
 _atom_site_charge
  Cd  Cd1  1  0.163480  0.336980  0.729630  1.0  1.0119
  Cd  Cd2  1  0.291660  0.892820  0.282650  1.0  0.9583
  Cd  Cd3  1  0.836520  0.663020  0.229630  1.0  1.0098
  Cd  Cd4  1  0.708340  0.107180  0.782650  1.0  0.9592
  Cd  Cd5  1  0.336520  0.836980  0.729630  1.0  1.0108
  Cd  Cd6  1  0.208340  0.392820  0.282650  1.0  0.9599
  Cd  Cd7  1  0.663480  0.163020  0.229630  1.0  1.0096
  Cd  Cd8  1  0.791660  0.607180  0.782650  1.0  0.9577
  H  H9  1  0.328400  0.700600  0.602500  1.0  0.3882
  H  H10  1  0.229500  0.533800  0.419800  1.0  0.3911
  H  H11  1  0.232500  0.562500  0.078600  1.0  0.1092
  H  H12  1  0.365900  0.465400  0.061400  1.0  0.106
  H  H13  1  0.336500  0.401800  0.959100  1.0  0.0946
  H  H14  1  0.242400  0.693100  0.917200  1.0  0.1098
  H  H15  1  0.411000  0.776100  0.936700  1.0  0.1113
  H  H16  1  0.426000  0.827500  0.047000  1.0  0.0931
  H  H17  1  0.065300  0.484600  0.697400  1.0  0.0761
  H  H18  1  0.070800  0.570800  0.617500  1.0  0.1218
  H  H19  1  0.378900  0.470900  0.511100  1.0  0.1203
  H  H20  1  0.362100  0.386900  0.594100  1.0  0.0754
  H  H21  1  0.128500  0.605300  0.492800  1.0  0.0749
  H  H22  1  0.424900  0.630400  0.526200  1.0  0.0706
  H  H23  1  0.149600  0.755600  0.509800  1.0  0.1096
  H  H24  1  0.132300  0.834700  0.423000  1.0  0.0716
  H  H25  1  0.463100  0.759200  0.324400  1.0  0.0788
  H  H26  1  0.490100  0.676900  0.409100  1.0  0.1202
  H  H27  1  0.052400  0.962600  0.315800  1.0  0.5168
  H  H28  1  0.085100  0.895800  0.283100  1.0  0.4178
  H  H29  1  0.671600  0.299400  0.102500  1.0  0.3899
  H  H30  1  0.770500  0.466200  0.919800  1.0  0.3908
  H  H31  1  0.767500  0.437500  0.578600  1.0  0.1095
  H  H32  1  0.634100  0.534600  0.561400  1.0  0.1061
  H  H33  1  0.663500  0.598200  0.459100  1.0  0.0944
  H  H34  1  0.757600  0.306900  0.417200  1.0  0.1101
  H  H35  1  0.589000  0.223900  0.436700  1.0  0.1113
  H  H36  1  0.574000  0.172500  0.547000  1.0  0.0934
  H  H37  1  0.934700  0.515400  0.197400  1.0  0.0763
  H  H38  1  0.929200  0.429200  0.117500  1.0  0.122
  H  H39  1  0.621100  0.529100  0.011100  1.0  0.1211
  H  H40  1  0.637900  0.613100  0.094100  1.0  0.0759
  H  H41  1  0.871500  0.394700  0.992800  1.0  0.0706
  H  H42  1  0.575100  0.369600  0.026200  1.0  0.0708
  H  H43  1  0.850400  0.244400  0.009800  1.0  0.1095
  H  H44  1  0.867700  0.165300  0.923000  1.0  0.0715
  H  H45  1  0.536900  0.240800  0.824400  1.0  0.0788
  H  H46  1  0.509900  0.323100  0.909100  1.0  0.1206
  H  H47  1  0.947600  0.037400  0.815800  1.0  0.5169
  H  H48  1  0.914900  0.104200  0.783100  1.0  0.4173
  H  H49  1  0.171600  0.200600  0.602500  1.0  0.3878
  H  H50  1  0.270500  0.033800  0.419800  1.0  0.3913
  H  H51  1  0.267500  0.062500  0.078600  1.0  0.1092
  H  H52  1  0.134100  0.965400  0.061400  1.0  0.1056
  H  H53  1  0.163500  0.901800  0.959100  1.0  0.0943
  H  H54  1  0.257600  0.193100  0.917200  1.0  0.11
  H  H55  1  0.089000  0.276100  0.936700  1.0  0.111
  H  H56  1  0.074000  0.327500  0.047000  1.0  0.0933
  H  H57  1  0.434700  0.984600  0.697400  1.0  0.0763
  H  H58  1  0.429200  0.070800  0.617500  1.0  0.1217
  H  H59  1  0.121100  0.970900  0.511100  1.0  0.1208
  H  H60  1  0.137900  0.886900  0.594100  1.0  0.0756
  H  H61  1  0.371500  0.105300  0.492800  1.0  0.0713
  H  H62  1  0.075100  0.130400  0.526200  1.0  0.0714
  H  H63  1  0.350400  0.255600  0.509800  1.0  0.1095
  H  H64  1  0.367700  0.334700  0.423000  1.0  0.0701
  H  H65  1  0.036900  0.259200  0.324400  1.0  0.0789
  H  H66  1  0.009900  0.176900  0.409100  1.0  0.1201
  H  H67  1  0.447600  0.462600  0.315800  1.0  0.5185
  H  H68  1  0.414900  0.395800  0.283100  1.0  0.4177
  H  H69  1  0.828400  0.799400  0.102500  1.0  0.3913
  H  H70  1  0.729500  0.966200  0.919800  1.0  0.3906
  H  H71  1  0.732500  0.937500  0.578600  1.0  0.1092
  H  H72  1  0.865900  0.034600  0.561400  1.0  0.1066
  H  H73  1  0.836500  0.098200  0.459100  1.0  0.0945
  H  H74  1  0.742400  0.806900  0.417200  1.0  0.1099
  H  H75  1  0.911000  0.723900  0.436700  1.0  0.1115
  H  H76  1  0.926000  0.672500  0.547000  1.0  0.0936
  H  H77  1  0.565300  0.015400  0.197400  1.0  0.0762
  H  H78  1  0.570800  0.929200  0.117500  1.0  0.1219
  H  H79  1  0.878900  0.029100  0.011100  1.0  0.1206
  H  H80  1  0.862100  0.113100  0.094100  1.0  0.0752
  H  H81  1  0.628500  0.894700  0.992800  1.0  0.0742
  H  H82  1  0.924900  0.869600  0.026200  1.0  0.0699
  H  H83  1  0.649600  0.744400  0.009800  1.0  0.1097
  H  H84  1  0.632300  0.665300  0.923000  1.0  0.0703
  H  H85  1  0.963100  0.740800  0.824400  1.0  0.0787
  H  H86  1  0.990100  0.823100  0.909100  1.0  0.1204
  H  H87  1  0.552400  0.537400  0.815800  1.0  0.5169
  H  H88  1  0.585100  0.604200  0.783100  1.0  0.417
  C  C89  1  0.185400  0.461600  0.913300  1.0  -0.105
  C  C90  1  0.105300  0.521200  0.922800  1.0  -0.06
  C  C91  1  0.125100  0.559400  0.985100  1.0  0.0179
  C  C92  1  0.221300  0.537600  0.036900  1.0  -0.0888
  C  C93  1  0.300400  0.479300  0.026800  1.0  -0.0919
  C  C94  1  0.282800  0.441300  0.965500  1.0  -0.0469
  C  C95  1  0.999700  0.548000  0.868700  1.0  0.6525
  C  C96  1  0.167300  0.419200  0.848000  1.0  0.6626
  C  C97  1  0.151300  0.695100  0.016000  1.0  0.0086
  C  C98  1  0.247500  0.714300  0.961400  1.0  -0.0737
  C  C99  1  0.347800  0.763500  0.972900  1.0  -0.1002
  C  C100  1  0.355300  0.794800  0.039000  1.0  -0.0405
  C  C101  1  0.260700  0.778600  0.093100  1.0  -0.1161
  C  C102  1  0.156800  0.728200  0.081200  1.0  -0.0651
  C  C103  1  0.051300  0.706000  0.138000  1.0  0.6497
  C  C104  1  0.268300  0.815900  0.162400  1.0  0.6653
  C  C105  1  0.129700  0.482000  0.659400  1.0  0.1896
  C  C106  1  0.132000  0.533800  0.611400  1.0  -0.1905
  C  C107  1  0.224600  0.531800  0.553900  1.0  0.1
  C  C108  1  0.313600  0.474900  0.548500  1.0  -0.2133
  C  C109  1  0.303500  0.425000  0.599100  1.0  0.1746
  C  C110  1  0.227100  0.588000  0.498900  1.0  0.1644
  C  C111  1  0.325000  0.646900  0.523800  1.0  0.1599
  C  C112  1  0.317600  0.704000  0.469300  1.0  0.0948
  C  C113  1  0.214000  0.754300  0.471800  1.0  -0.1958
  C  C114  1  0.204500  0.802000  0.419400  1.0  0.178
  C  C115  1  0.397600  0.757800  0.361900  1.0  0.1833
  C  C116  1  0.414500  0.707800  0.412700  1.0  -0.2037
  C  C117  1  0.814600  0.538400  0.413300  1.0  -0.1057
  C  C118  1  0.894700  0.478800  0.422800  1.0  -0.0601
  C  C119  1  0.874900  0.440600  0.485100  1.0  0.0181
  C  C120  1  0.778700  0.462400  0.536900  1.0  -0.0886
  C  C121  1  0.699600  0.520700  0.526800  1.0  -0.092
  C  C122  1  0.717200  0.558700  0.465500  1.0  -0.0466
  C  C123  1  0.000300  0.452000  0.368700  1.0  0.6518
  C  C124  1  0.832700  0.580800  0.348000  1.0  0.6624
  C  C125  1  0.848700  0.304900  0.516000  1.0  0.0119
  C  C126  1  0.752500  0.285700  0.461400  1.0  -0.0744
  C  C127  1  0.652200  0.236500  0.472900  1.0  -0.1
  C  C128  1  0.644700  0.205200  0.539000  1.0  -0.0388
  C  C129  1  0.739300  0.221400  0.593100  1.0  -0.1166
  C  C130  1  0.843200  0.271800  0.581200  1.0  -0.0648
  C  C131  1  0.948700  0.294000  0.638000  1.0  0.6515
  C  C132  1  0.731700  0.184100  0.662400  1.0  0.6656
  C  C133  1  0.870300  0.518000  0.159400  1.0  0.1898
  C  C134  1  0.868000  0.466200  0.111400  1.0  -0.1901
  C  C135  1  0.775400  0.468200  0.053900  1.0  0.1003
  C  C136  1  0.686400  0.525100  0.048500  1.0  -0.2152
  C  C137  1  0.696500  0.575000  0.099100  1.0  0.1744
  C  C138  1  0.772900  0.412000  0.998900  1.0  0.1649
  C  C139  1  0.675000  0.353100  0.023800  1.0  0.1589
  C  C140  1  0.682400  0.296000  0.969300  1.0  0.0946
  C  C141  1  0.786000  0.245700  0.971800  1.0  -0.1962
  C  C142  1  0.795500  0.198000  0.919400  1.0  0.1784
  C  C143  1  0.602400  0.242200  0.861900  1.0  0.183
  C  C144  1  0.585500  0.292200  0.912700  1.0  -0.2022
  C  C145  1  0.314600  0.961600  0.913300  1.0  -0.1056
  C  C146  1  0.394700  0.021200  0.922800  1.0  -0.0603
  C  C147  1  0.374900  0.059400  0.985100  1.0  0.0185
  C  C148  1  0.278700  0.037600  0.036900  1.0  -0.0886
  C  C149  1  0.199600  0.979300  0.026800  1.0  -0.0921
  C  C150  1  0.217200  0.941300  0.965500  1.0  -0.0466
  C  C151  1  0.500300  0.048000  0.868700  1.0  0.6519
  C  C152  1  0.332700  0.919200  0.848000  1.0  0.6623
  C  C153  1  0.348700  0.195100  0.016000  1.0  0.0111
  C  C154  1  0.252500  0.214300  0.961400  1.0  -0.0743
  C  C155  1  0.152200  0.263500  0.972900  1.0  -0.0996
  C  C156  1  0.144700  0.294800  0.039000  1.0  -0.0392
  C  C157  1  0.239300  0.278600  0.093100  1.0  -0.1162
  C  C158  1  0.343200  0.228200  0.081200  1.0  -0.0647
  C  C159  1  0.448700  0.206000  0.138000  1.0  0.652
  C  C160  1  0.231700  0.315900  0.162400  1.0  0.6656
  C  C161  1  0.370300  0.982000  0.659400  1.0  0.1895
  C  C162  1  0.368000  0.033800  0.611400  1.0  -0.1906
  C  C163  1  0.275400  0.031800  0.553900  1.0  0.1001
  C  C164  1  0.186400  0.974900  0.548500  1.0  -0.2138
  C  C165  1  0.196500  0.925000  0.599100  1.0  0.1752
  C  C166  1  0.272900  0.088000  0.498900  1.0  0.1645
  C  C167  1  0.175000  0.146900  0.523800  1.0  0.1588
  C  C168  1  0.182400  0.204000  0.469300  1.0  0.0946
  C  C169  1  0.286000  0.254300  0.471800  1.0  -0.1965
  C  C170  1  0.295500  0.302000  0.419400  1.0  0.1785
  C  C171  1  0.102400  0.257800  0.361900  1.0  0.1833
  C  C172  1  0.085500  0.207800  0.412700  1.0  -0.2027
  C  C173  1  0.685400  0.038400  0.413300  1.0  -0.105
  C  C174  1  0.605300  0.978800  0.422800  1.0  -0.0601
  C  C175  1  0.625100  0.940600  0.485100  1.0  0.0175
  C  C176  1  0.721300  0.962400  0.536900  1.0  -0.0892
  C  C177  1  0.800400  0.020700  0.526800  1.0  -0.092
  C  C178  1  0.782800  0.058700  0.465500  1.0  -0.0472
  C  C179  1  0.499700  0.952000  0.368700  1.0  0.6526
  C  C180  1  0.667300  0.080800  0.348000  1.0  0.6625
  C  C181  1  0.651300  0.804900  0.516000  1.0  0.0098
  C  C182  1  0.747500  0.785700  0.461400  1.0  -0.0735
  C  C183  1  0.847800  0.736500  0.472900  1.0  -0.1004
  C  C184  1  0.855300  0.705200  0.539000  1.0  -0.0399
  C  C185  1  0.760700  0.721400  0.593100  1.0  -0.1164
  C  C186  1  0.656800  0.771800  0.581200  1.0  -0.0648
  C  C187  1  0.551300  0.794000  0.638000  1.0  0.649
  C  C188  1  0.768300  0.684100  0.662400  1.0  0.6652
  C  C189  1  0.629700  0.018000  0.159400  1.0  0.1897
  C  C190  1  0.632000  0.966200  0.111400  1.0  -0.1902
  C  C191  1  0.724600  0.968200  0.053900  1.0  0.1003
  C  C192  1  0.813600  0.025100  0.048500  1.0  -0.2146
  C  C193  1  0.803500  0.075000  0.099100  1.0  0.1752
  C  C194  1  0.727100  0.912000  0.998900  1.0  0.1648
  C  C195  1  0.825000  0.853100  0.023800  1.0  0.1601
  C  C196  1  0.817600  0.796000  0.969300  1.0  0.0948
  C  C197  1  0.714000  0.745700  0.971800  1.0  -0.1958
  C  C198  1  0.704500  0.698000  0.919400  1.0  0.1784
  C  C199  1  0.897600  0.742200  0.861900  1.0  0.1831
  C  C200  1  0.914500  0.792200  0.912700  1.0  -0.2029
  S  S201  1  0.016980  0.632520  0.000030  1.0  -0.0433
  S  S202  1  0.983020  0.367480  0.500030  1.0  -0.0441
  S  S203  1  0.483020  0.132520  0.000030  1.0  -0.0442
  S  S204  1  0.516980  0.867480  0.500030  1.0  -0.0433
  N  N205  1  0.292800  0.804500  0.363400  1.0  -0.3666
  N  N206  1  0.215200  0.427700  0.654700  1.0  -0.3892
  N  N207  1  0.707200  0.195500  0.863400  1.0  -0.3685
  N  N208  1  0.784800  0.572300  0.154700  1.0  -0.394
  N  N209  1  0.207200  0.304500  0.363400  1.0  -0.3669
  N  N210  1  0.284800  0.927700  0.654700  1.0  -0.3901
  N  N211  1  0.792800  0.695500  0.863400  1.0  -0.3681
  N  N212  1  0.715200  0.072300  0.154700  1.0  -0.393
  O  O213  1  0.043500  0.580860  0.815990  1.0  -0.5844
  O  O214  1  0.866200  0.538640  0.880150  1.0  -0.6065
  O  O215  1  0.052300  0.420380  0.813720  1.0  -0.5762
  O  O216  1  0.272700  0.381540  0.829940  1.0  -0.6058
  O  O217  1  0.092600  0.666280  0.185690  1.0  -0.5875
  O  O218  1  0.922700  0.724870  0.132600  1.0  -0.6048
  O  O219  1  0.158700  0.821200  0.200510  1.0  -0.605
  O  O220  1  0.385900  0.842200  0.180600  1.0  -0.5967
  O  O221  1  0.283300  0.666500  0.590700  1.0  -0.5628
  O  O222  1  0.277900  0.566160  0.433400  1.0  -0.562
  O  O223  1  0.056400  0.924600  0.314600  1.0  -0.8437
  O  O224  1  0.956500  0.419140  0.315990  1.0  -0.5844
  O  O225  1  0.133800  0.461360  0.380150  1.0  -0.6065
  O  O226  1  0.947700  0.579620  0.313720  1.0  -0.5768
  O  O227  1  0.727300  0.618460  0.329940  1.0  -0.6046
  O  O228  1  0.907400  0.333720  0.685690  1.0  -0.5864
  O  O229  1  0.077300  0.275130  0.632600  1.0  -0.6046
  O  O230  1  0.841300  0.178800  0.700510  1.0  -0.6054
  O  O231  1  0.614100  0.157800  0.680600  1.0  -0.5982
  O  O232  1  0.716700  0.333500  0.090700  1.0  -0.5609
  O  O233  1  0.722100  0.433840  0.933400  1.0  -0.5623
  O  O234  1  0.943600  0.075400  0.814600  1.0  -0.8462
  O  O235  1  0.456500  0.080860  0.815990  1.0  -0.584
  O  O236  1  0.633800  0.038640  0.880150  1.0  -0.6062
  O  O237  1  0.447700  0.920380  0.813720  1.0  -0.5757
  O  O238  1  0.227300  0.881540  0.829940  1.0  -0.6051
  O  O239  1  0.407400  0.166280  0.185690  1.0  -0.5872
  O  O240  1  0.577300  0.224870  0.132600  1.0  -0.6049
  O  O241  1  0.341300  0.321200  0.200510  1.0  -0.6056
  O  O242  1  0.114100  0.342200  0.180600  1.0  -0.5978
  O  O243  1  0.216700  0.166500  0.590700  1.0  -0.5617
  O  O244  1  0.222100  0.066160  0.433400  1.0  -0.5616
  O  O245  1  0.443600  0.424600  0.314600  1.0  -0.8442
  O  O246  1  0.543500  0.919140  0.315990  1.0  -0.5846
  O  O247  1  0.366200  0.961360  0.380150  1.0  -0.6067
  O  O248  1  0.552300  0.079620  0.313720  1.0  -0.5768
  O  O249  1  0.772700  0.118460  0.329940  1.0  -0.606
  O  O250  1  0.592600  0.833720  0.685690  1.0  -0.5865
  O  O251  1  0.422700  0.775130  0.632600  1.0  -0.6044
  O  O252  1  0.658700  0.678800  0.700510  1.0  -0.6048
  O  O253  1  0.885900  0.657800  0.680600  1.0  -0.5969
  O  O254  1  0.783300  0.833500  0.090700  1.0  -0.5624
  O  O255  1  0.777900  0.933840  0.933400  1.0  -0.5612
  O  O256  1  0.556400  0.575400  0.814600  1.0  -0.8458
