# generated using pymatgen
data_MgH3(CO2)3
_symmetry_space_group_name_H-M   'P 1'
_cell_length_a   8.70900000
_cell_length_b   11.58700000
_cell_length_c   8.28000000
_cell_angle_alpha   90.00000000
_cell_angle_beta   90.00000000
_cell_angle_gamma   90.00000000
_symmetry_Int_Tables_number   1
_chemical_formula_structural   MgH3(CO2)3
_chemical_formula_sum   'Mg4 H12 C12 O24'
_cell_volume   835.54459524
_cell_formula_units_Z   4
loop_
 _symmetry_equiv_pos_site_id
 _symmetry_equiv_pos_as_xyz
  1  'x, y, z'
loop_
 _atom_site_type_symbol
 _atom_site_label
 _atom_site_symmetry_multiplicity
 _atom_site_fract_x
 _atom_site_fract_y
 _atom_site_fract_z
 _atom_site_occupancy
 _atom_site_charge
  Mg  Mg1  1  0.241030  0.250000  0.250000  1.0  1.4959
  Mg  Mg2  1  0.258970  0.750000  0.250000  1.0  1.4972
  Mg  Mg3  1  0.758970  0.750000  0.750000  1.0  1.4972
  Mg  Mg4  1  0.741030  0.250000  0.750000  1.0  1.4959
  H  H5  1  0.918000  0.280400  0.080000  1.0  0.0271
  H  H6  1  0.582000  0.719600  0.080000  1.0  0.0282
  H  H7  1  0.582000  0.780400  0.420000  1.0  0.0287
  H  H8  1  0.918000  0.219600  0.420000  1.0  0.028
  H  H9  1  0.082000  0.719600  0.920000  1.0  0.0283
  H  H10  1  0.418000  0.280400  0.920000  1.0  0.0282
  H  H11  1  0.418000  0.219600  0.580000  1.0  0.0278
  H  H12  1  0.082000  0.780400  0.580000  1.0  0.0276
  H  H13  1  0.250000  0.500000  0.303100  1.0  0.0375
  H  H14  1  0.250000  0.000000  0.196900  1.0  0.038
  H  H15  1  0.750000  0.500000  0.696900  1.0  0.038
  H  H16  1  0.750000  0.000000  0.803100  1.0  0.0375
  C  C17  1  0.970290  0.219720  0.025710  1.0  0.6916
  C  C18  1  0.529710  0.780280  0.025710  1.0  0.694
  C  C19  1  0.529710  0.719720  0.474290  1.0  0.6943
  C  C20  1  0.970290  0.280280  0.474290  1.0  0.6946
  C  C21  1  0.029710  0.780280  0.974290  1.0  0.6941
  C  C22  1  0.470290  0.219720  0.974290  1.0  0.695
  C  C23  1  0.470290  0.280280  0.525710  1.0  0.6942
  C  C24  1  0.029710  0.719720  0.525710  1.0  0.694
  C  C25  1  0.250000  0.500000  0.188400  1.0  0.6949
  C  C26  1  0.250000  0.000000  0.311600  1.0  0.6927
  C  C27  1  0.750000  0.500000  0.811600  1.0  0.6927
  C  C28  1  0.750000  0.000000  0.688400  1.0  0.6949
  O  O29  1  0.240590  0.404040  0.118730  1.0  -0.6054
  O  O30  1  0.087460  0.179830  0.090780  1.0  -0.6257
  O  O31  1  0.915910  0.185780  0.893620  1.0  -0.6051
  O  O32  1  0.259410  0.595960  0.118730  1.0  -0.6037
  O  O33  1  0.412540  0.820170  0.090780  1.0  -0.6255
  O  O34  1  0.584090  0.814220  0.893620  1.0  -0.6051
  O  O35  1  0.259410  0.904040  0.381270  1.0  -0.6068
  O  O36  1  0.412540  0.679830  0.409220  1.0  -0.6261
  O  O37  1  0.584090  0.685780  0.606380  1.0  -0.6041
  O  O38  1  0.240590  0.095960  0.381270  1.0  -0.6057
  O  O39  1  0.087460  0.320170  0.409220  1.0  -0.6264
  O  O40  1  0.915910  0.314220  0.606380  1.0  -0.6053
  O  O41  1  0.759410  0.595960  0.881270  1.0  -0.6058
  O  O42  1  0.912540  0.820170  0.909220  1.0  -0.6261
  O  O43  1  0.084090  0.814220  0.106380  1.0  -0.6047
  O  O44  1  0.740590  0.404040  0.881270  1.0  -0.6068
  O  O45  1  0.587460  0.179830  0.909220  1.0  -0.6246
  O  O46  1  0.415910  0.185780  0.106380  1.0  -0.6046
  O  O47  1  0.740590  0.095960  0.618730  1.0  -0.6035
  O  O48  1  0.587460  0.320170  0.590780  1.0  -0.6247
  O  O49  1  0.415910  0.314220  0.393620  1.0  -0.6052
  O  O50  1  0.759410  0.904040  0.618730  1.0  -0.6055
  O  O51  1  0.912540  0.679830  0.590780  1.0  -0.627
  O  O52  1  0.084090  0.685780  0.393620  1.0  -0.6051
