# generated using pymatgen
data_MgH3(CO2)3
_symmetry_space_group_name_H-M   'P 1'
_cell_length_a   8.39100000
_cell_length_b   11.83100000
_cell_length_c   8.84200000
_cell_angle_alpha   90.00000000
_cell_angle_beta   90.00000000
_cell_angle_gamma   90.00000000
_symmetry_Int_Tables_number   1
_chemical_formula_structural   MgH3(CO2)3
_chemical_formula_sum   'Mg4 H12 C12 O24'
_cell_volume   877.78000948
_cell_formula_units_Z   4
loop_
 _symmetry_equiv_pos_site_id
 _symmetry_equiv_pos_as_xyz
  1  'x, y, z'
loop_
 _atom_site_type_symbol
 _atom_site_label
 _atom_site_symmetry_multiplicity
 _atom_site_fract_x
 _atom_site_fract_y
 _atom_site_fract_z
 _atom_site_occupancy
 _atom_site_charge
  Mg  Mg1  1  0.747430  0.250000  0.750000  1.0  1.4813
  Mg  Mg2  1  0.752570  0.750000  0.750000  1.0  1.4802
  Mg  Mg3  1  0.252570  0.750000  0.250000  1.0  1.4802
  Mg  Mg4  1  0.247430  0.250000  0.250000  1.0  1.4813
  H  H5  1  0.580800  0.223700  0.068300  1.0  0.004
  H  H6  1  0.919200  0.776300  0.068300  1.0  0.0044
  H  H7  1  0.919200  0.723700  0.431700  1.0  0.0051
  H  H8  1  0.580800  0.276300  0.431700  1.0  0.0059
  H  H9  1  0.419200  0.776300  0.931700  1.0  0.0058
  H  H10  1  0.080800  0.223700  0.931700  1.0  0.005
  H  H11  1  0.080800  0.276300  0.568300  1.0  0.0043
  H  H12  1  0.419200  0.723700  0.568300  1.0  0.0041
  H  H13  1  0.750000  0.000000  0.694800  1.0  0.0111
  H  H14  1  0.750000  0.500000  0.805200  1.0  0.0088
  H  H15  1  0.250000  0.000000  0.305200  1.0  0.0088
  H  H16  1  0.250000  0.500000  0.194800  1.0  0.0111
  C  C17  1  0.518100  0.277000  0.019000  1.0  0.7255
  C  C18  1  0.981900  0.723000  0.019000  1.0  0.7267
  C  C19  1  0.981900  0.777000  0.481000  1.0  0.7256
  C  C20  1  0.518100  0.223000  0.481000  1.0  0.7264
  C  C21  1  0.481900  0.723000  0.981000  1.0  0.7265
  C  C22  1  0.018100  0.277000  0.981000  1.0  0.7255
  C  C23  1  0.018100  0.223000  0.519000  1.0  0.7265
  C  C24  1  0.481900  0.777000  0.519000  1.0  0.7256
  C  C25  1  0.750000  0.000000  0.800000  1.0  0.6946
  C  C26  1  0.750000  0.500000  0.700000  1.0  0.6951
  C  C27  1  0.250000  0.000000  0.200000  1.0  0.6951
  C  C28  1  0.250000  0.500000  0.300000  1.0  0.6946
  O  O29  1  0.751600  0.094300  0.860200  1.0  -0.5847
  O  O30  1  0.560800  0.304800  0.889400  1.0  -0.5976
  O  O31  1  0.402400  0.312400  0.088300  1.0  -0.6414
  O  O32  1  0.748400  0.905700  0.860200  1.0  -0.5854
  O  O33  1  0.939200  0.695200  0.889400  1.0  -0.5971
  O  O34  1  0.097600  0.687600  0.088300  1.0  -0.6403
  O  O35  1  0.748400  0.594300  0.639800  1.0  -0.5838
  O  O36  1  0.939200  0.804800  0.610600  1.0  -0.5991
  O  O37  1  0.097600  0.812400  0.411700  1.0  -0.641
  O  O38  1  0.751600  0.405700  0.639800  1.0  -0.5847
  O  O39  1  0.560800  0.195200  0.610600  1.0  -0.5981
  O  O40  1  0.402400  0.187600  0.411700  1.0  -0.6414
  O  O41  1  0.248400  0.905700  0.139800  1.0  -0.5848
  O  O42  1  0.439200  0.695200  0.110600  1.0  -0.5981
  O  O43  1  0.597600  0.687600  0.911700  1.0  -0.6404
  O  O44  1  0.251600  0.094300  0.139800  1.0  -0.5838
  O  O45  1  0.060800  0.304800  0.110600  1.0  -0.5988
  O  O46  1  0.902400  0.312400  0.911700  1.0  -0.6413
  O  O47  1  0.251600  0.405700  0.360200  1.0  -0.5854
  O  O48  1  0.060800  0.195200  0.389400  1.0  -0.5972
  O  O49  1  0.902400  0.187600  0.588300  1.0  -0.6417
  O  O50  1  0.248400  0.594300  0.360200  1.0  -0.5847
  O  O51  1  0.439200  0.804800  0.389400  1.0  -0.5975
  O  O52  1  0.597600  0.812400  0.588300  1.0  -0.6408
