# generated using pymatgen
data_InH11C8O5
_symmetry_space_group_name_H-M   'P 1'
_cell_length_a   7.16220000
_cell_length_b   9.09400000
_cell_length_c   9.74900000
_cell_angle_alpha   105.66300000
_cell_angle_beta   103.18100000
_cell_angle_gamma   98.24800000
_symmetry_Int_Tables_number   1
_chemical_formula_structural   InH11C8O5
_chemical_formula_sum   'In2 H22 C16 O10'
_cell_volume   580.88581020
_cell_formula_units_Z   2
loop_
 _symmetry_equiv_pos_site_id
 _symmetry_equiv_pos_as_xyz
  1  'x, y, z'
loop_
 _atom_site_type_symbol
 _atom_site_label
 _atom_site_symmetry_multiplicity
 _atom_site_fract_x
 _atom_site_fract_y
 _atom_site_fract_z
 _atom_site_occupancy
 _atom_site_charge
  In  In1  1  0.000000  0.500000  0.000000  1.0  1.636
  In  In2  1  0.500000  0.500000  0.000000  1.0  1.6913
  H  H3  1  0.508000  0.013000  0.709000  1.0  0.0866
  H  H4  1  0.767100  0.114100  0.548700  1.0  0.0709
  H  H5  1  0.812900  0.007900  0.649600  1.0  0.0686
  H  H6  1  0.079200  0.282500  0.350300  1.0  0.076
  H  H7  1  0.056500  0.303200  0.510200  1.0  0.061
  H  H8  1  0.206500  0.547700  0.411800  1.0  0.0717
  H  H9  1  0.330700  0.483100  0.527700  1.0  0.0675
  H  H10  1  0.291600  0.145100  0.603700  1.0  0.0724
  H  H11  1  0.435600  0.200100  0.518800  1.0  0.0727
  H  H12  1  0.759000  0.277000  0.346000  1.0  0.1158
  H  H13  1  0.492000  0.987000  0.291000  1.0  0.085
  H  H14  1  0.232900  0.885900  0.451300  1.0  0.071
  H  H15  1  0.187100  0.992100  0.350400  1.0  0.0709
  H  H16  1  0.920800  0.717500  0.649700  1.0  0.0762
  H  H17  1  0.943500  0.696800  0.489800  1.0  0.0612
  H  H18  1  0.793500  0.452300  0.588200  1.0  0.0705
  H  H19  1  0.669300  0.516900  0.472300  1.0  0.0688
  H  H20  1  0.708400  0.854900  0.396300  1.0  0.0744
  H  H21  1  0.564400  0.799900  0.481200  1.0  0.0735
  H  H22  1  0.241000  0.723000  0.654000  1.0  0.1206
  H  H23  1  0.766400  0.728800  0.014260  1.0  0.4397
  H  H24  1  0.233600  0.271200  0.985740  1.0  0.4414
  C  C25  1  0.708800  0.031300  0.581300  1.0  -0.1433
  C  C26  1  0.049800  0.352600  0.433100  1.0  -0.125
  C  C27  1  0.841800  0.377000  0.382400  1.0  -0.1688
  C  C28  1  0.202500  0.504000  0.491800  1.0  -0.1544
  C  C29  1  0.801000  0.419700  0.240400  1.0  0.6906
  C  C30  1  0.646300  0.231500  0.792700  1.0  0.6925
  C  C31  1  0.559200  0.086800  0.660500  1.0  -0.1708
  C  C32  1  0.388400  0.114700  0.552700  1.0  -0.1379
  C  C33  1  0.291200  0.968700  0.418700  1.0  -0.1444
  C  C34  1  0.950200  0.647400  0.566900  1.0  -0.1255
  C  C35  1  0.158200  0.623000  0.617600  1.0  -0.1678
  C  C36  1  0.797500  0.496000  0.508200  1.0  -0.1555
  C  C37  1  0.199000  0.580300  0.759600  1.0  0.6847
  C  C38  1  0.353700  0.768500  0.207300  1.0  0.6908
  C  C39  1  0.440800  0.913200  0.339500  1.0  -0.1701
  C  C40  1  0.611600  0.885300  0.447300  1.0  -0.1384
  O  O41  1  0.766400  0.614600  0.985500  1.0  -0.8915
  O  O42  1  0.532700  0.276200  0.869900  1.0  -0.6185
  O  O43  1  0.643600  0.464400  0.203600  1.0  -0.6145
  O  O44  1  0.821300  0.298800  0.818800  1.0  -0.5993
  O  O45  1  0.922100  0.404100  0.164400  1.0  -0.6258
  O  O46  1  0.233600  0.385400  0.014500  1.0  -0.8962
  O  O47  1  0.467300  0.723800  0.130100  1.0  -0.6191
  O  O48  1  0.356400  0.535600  0.796400  1.0  -0.6137
  O  O49  1  0.178700  0.701200  0.181200  1.0  -0.5984
  O  O50  1  0.077900  0.595900  0.835600  1.0  -0.6235
