# generated using pymatgen
data_AgPH6C8(N2F3)2
_symmetry_space_group_name_H-M   'P 1'
_cell_length_a   11.02000000
_cell_length_b   12.82800000
_cell_length_c   12.82800000
_cell_angle_alpha   90.00000000
_cell_angle_beta   90.00000000
_cell_angle_gamma   90.00000000
_symmetry_Int_Tables_number   1
_chemical_formula_structural   AgPH6C8(N2F3)2
_chemical_formula_sum   'Ag4 P4 H24 C32 N16 F24'
_cell_volume   1813.42457568
_cell_formula_units_Z   4
loop_
 _symmetry_equiv_pos_site_id
 _symmetry_equiv_pos_as_xyz
  1  'x, y, z'
loop_
 _atom_site_type_symbol
 _atom_site_label
 _atom_site_symmetry_multiplicity
 _atom_site_fract_x
 _atom_site_fract_y
 _atom_site_fract_z
 _atom_site_occupancy
 _atom_site_charge
  Ag  Ag1  1  0.000000  0.156800  0.156800  1.0  0.3744
  Ag  Ag2  1  0.500000  0.843200  0.843200  1.0  0.374
  Ag  Ag3  1  0.250000  0.343200  0.656800  1.0  0.3738
  Ag  Ag4  1  0.750000  0.656800  0.343200  1.0  0.3747
  P  P5  1  0.000000  0.615660  0.615660  1.0  1.6966
  P  P6  1  0.500000  0.384340  0.384340  1.0  1.725
  P  P7  1  0.250000  0.884340  0.115660  1.0  1.6983
  P  P8  1  0.750000  0.115660  0.884340  1.0  1.6985
  H  H9  1  0.944200  0.483600  0.395200  1.0  0.1058
  H  H10  1  0.715700  0.494900  0.160400  1.0  0.0915
  H  H11  1  0.780900  0.332800  0.106100  1.0  0.0893
  H  H12  1  0.444200  0.516400  0.604800  1.0  0.1055
  H  H13  1  0.215700  0.505100  0.839600  1.0  0.0912
  H  H14  1  0.280900  0.667200  0.893900  1.0  0.0878
  H  H15  1  0.194200  0.104800  0.983600  1.0  0.1037
  H  H16  1  0.965700  0.339600  0.994900  1.0  0.0917
  H  H17  1  0.030900  0.393900  0.832800  1.0  0.0877
  H  H18  1  0.694200  0.895200  0.016400  1.0  0.1052
  H  H19  1  0.465700  0.660400  0.005100  1.0  0.0922
  H  H20  1  0.530900  0.606100  0.167200  1.0  0.0873
  H  H21  1  0.305800  0.016400  0.895200  1.0  0.1073
  H  H22  1  0.534300  0.005100  0.660400  1.0  0.0916
  H  H23  1  0.469100  0.167200  0.606100  1.0  0.0897
  H  H24  1  0.805800  0.983600  0.104800  1.0  0.1063
  H  H25  1  0.034300  0.994900  0.339600  1.0  0.0911
  H  H26  1  0.969100  0.832800  0.393900  1.0  0.0887
  H  H27  1  0.055800  0.395200  0.483600  1.0  0.1053
  H  H28  1  0.284300  0.160400  0.494900  1.0  0.0917
  H  H29  1  0.219100  0.106100  0.332800  1.0  0.0875
  H  H30  1  0.555800  0.604800  0.516400  1.0  0.1051
  H  H31  1  0.784300  0.839600  0.505100  1.0  0.0916
  H  H32  1  0.719100  0.893900  0.667200  1.0  0.0883
  C  C33  1  0.950200  0.357170  0.300840  1.0  0.167
  C  C34  1  0.909300  0.453230  0.334700  1.0  0.1314
  C  C35  1  0.776600  0.459800  0.199320  1.0  0.1291
  C  C36  1  0.816500  0.363090  0.166300  1.0  0.1167
  C  C37  1  0.450200  0.642830  0.699160  1.0  0.1671
  C  C38  1  0.409300  0.546770  0.665300  1.0  0.1307
  C  C39  1  0.276600  0.540200  0.800680  1.0  0.1289
  C  C40  1  0.316500  0.636910  0.833700  1.0  0.1156
  C  C41  1  0.200200  0.199160  0.857170  1.0  0.1679
  C  C42  1  0.159300  0.165300  0.953230  1.0  0.1327
  C  C43  1  0.026600  0.300680  0.959800  1.0  0.1319
  C  C44  1  0.066500  0.333700  0.863090  1.0  0.12
  C  C45  1  0.700200  0.800840  0.142830  1.0  0.1688
  C  C46  1  0.659300  0.834700  0.046770  1.0  0.1316
  C  C47  1  0.526600  0.699320  0.040200  1.0  0.1307
  C  C48  1  0.566500  0.666300  0.136910  1.0  0.1179
  C  C49  1  0.299800  0.142830  0.800840  1.0  0.166
  C  C50  1  0.340700  0.046770  0.834700  1.0  0.1315
  C  C51  1  0.473400  0.040200  0.699320  1.0  0.1291
  C  C52  1  0.433500  0.136910  0.666300  1.0  0.1162
  C  C53  1  0.799800  0.857170  0.199160  1.0  0.1665
  C  C54  1  0.840700  0.953230  0.165300  1.0  0.1308
  C  C55  1  0.973400  0.959800  0.300680  1.0  0.1294
  C  C56  1  0.933500  0.863090  0.333700  1.0  0.1171
  C  C57  1  0.049800  0.300840  0.357170  1.0  0.1686
  C  C58  1  0.090700  0.334700  0.453230  1.0  0.133
  C  C59  1  0.223400  0.199320  0.459800  1.0  0.1331
  C  C60  1  0.183500  0.166300  0.363090  1.0  0.1172
  C  C61  1  0.549800  0.699160  0.642830  1.0  0.1701
  C  C62  1  0.590700  0.665300  0.546770  1.0  0.1327
  C  C63  1  0.723400  0.800680  0.540200  1.0  0.132
  C  C64  1  0.683500  0.833700  0.636910  1.0  0.1186
  N  N65  1  0.903140  0.311230  0.216400  1.0  -0.3234
  N  N66  1  0.821300  0.504470  0.283690  1.0  -0.3209
  N  N67  1  0.403140  0.688770  0.783600  1.0  -0.3249
  N  N68  1  0.321300  0.495530  0.716310  1.0  -0.3215
  N  N69  1  0.153140  0.283600  0.811230  1.0  -0.3274
  N  N70  1  0.071300  0.216310  0.004470  1.0  -0.3235
  N  N71  1  0.653140  0.716400  0.188770  1.0  -0.326
  N  N72  1  0.571300  0.783690  0.995530  1.0  -0.3247
  N  N73  1  0.346860  0.188770  0.716400  1.0  -0.3241
  N  N74  1  0.428700  0.995530  0.783690  1.0  -0.3199
  N  N75  1  0.846860  0.811230  0.283600  1.0  -0.3243
  N  N76  1  0.928700  0.004470  0.216310  1.0  -0.3202
  N  N77  1  0.096860  0.216400  0.311230  1.0  -0.3277
  N  N78  1  0.178700  0.283690  0.504470  1.0  -0.3229
  N  N79  1  0.596860  0.783600  0.688770  1.0  -0.3261
  N  N80  1  0.678700  0.716310  0.495530  1.0  -0.3251
  F  F81  1  0.898300  0.666510  0.686520  1.0  -0.394
  F  F82  1  0.978200  0.701500  0.530300  1.0  -0.4041
  F  F83  1  0.898770  0.545200  0.564330  1.0  -0.4266
  F  F84  1  0.101700  0.686520  0.666510  1.0  -0.393
  F  F85  1  0.021800  0.530300  0.701500  1.0  -0.403
  F  F86  1  0.101230  0.564330  0.545200  1.0  -0.4273
  F  F87  1  0.398300  0.333490  0.313480  1.0  -0.3945
  F  F88  1  0.478200  0.298500  0.469700  1.0  -0.403
  F  F89  1  0.398770  0.454800  0.435670  1.0  -0.4266
  F  F90  1  0.601700  0.313480  0.333490  1.0  -0.3941
  F  F91  1  0.521800  0.469700  0.298500  1.0  -0.4033
  F  F92  1  0.601230  0.435670  0.454800  1.0  -0.4272
  F  F93  1  0.148300  0.813480  0.166510  1.0  -0.3932
  F  F94  1  0.228200  0.969700  0.201500  1.0  -0.403
  F  F95  1  0.148770  0.935670  0.045200  1.0  -0.4266
  F  F96  1  0.351700  0.833490  0.186520  1.0  -0.3954
  F  F97  1  0.271800  0.798500  0.030300  1.0  -0.4034
  F  F98  1  0.351230  0.954800  0.064330  1.0  -0.4273
  F  F99  1  0.648300  0.186520  0.833490  1.0  -0.3925
  F  F100  1  0.728200  0.030300  0.798500  1.0  -0.4044
  F  F101  1  0.648770  0.064330  0.954800  1.0  -0.4272
  F  F102  1  0.851700  0.166510  0.813480  1.0  -0.3963
  F  F103  1  0.771800  0.201500  0.969700  1.0  -0.4027
  F  F104  1  0.851230  0.045200  0.935670  1.0  -0.4273
