# generated using pymatgen
data_Ag3B2H18C30(N3F2)4
_symmetry_space_group_name_H-M   'P 1'
_cell_length_a   15.16580000
_cell_length_b   16.98100000
_cell_length_c   19.43600000
_cell_angle_alpha   95.82500000
_cell_angle_beta   90.00000000
_cell_angle_gamma   90.00000000
_symmetry_Int_Tables_number   1
_chemical_formula_structural   Ag3B2H18C30(N3F2)4
_chemical_formula_sum   'Ag12 B8 H72 C120 N48 F32'
_cell_volume   4979.51673663
_cell_formula_units_Z   4
loop_
 _symmetry_equiv_pos_site_id
 _symmetry_equiv_pos_as_xyz
  1  'x, y, z'
loop_
 _atom_site_type_symbol
 _atom_site_label
 _atom_site_symmetry_multiplicity
 _atom_site_fract_x
 _atom_site_fract_y
 _atom_site_fract_z
 _atom_site_occupancy
 _atom_site_charge
  Ag  Ag1  1  0.929740  0.966360  0.820420  1.0  0.4045
  Ag  Ag2  1  0.888770  0.764200  0.468510  1.0  0.3309
  Ag  Ag3  1  0.909570  0.532550  0.789030  1.0  0.3135
  Ag  Ag4  1  0.429740  0.533640  0.679580  1.0  0.4001
  Ag  Ag5  1  0.388770  0.735800  0.031490  1.0  0.3303
  Ag  Ag6  1  0.409570  0.967450  0.710970  1.0  0.3071
  Ag  Ag7  1  0.070260  0.033640  0.179580  1.0  0.4003
  Ag  Ag8  1  0.111230  0.235800  0.531490  1.0  0.3302
  Ag  Ag9  1  0.090430  0.467450  0.210970  1.0  0.3084
  Ag  Ag10  1  0.570260  0.466360  0.320420  1.0  0.4044
  Ag  Ag11  1  0.611230  0.264200  0.968510  1.0  0.3308
  Ag  Ag12  1  0.590430  0.032550  0.289030  1.0  0.3142
  B  B13  1  0.297100  0.301800  0.772600  1.0  1.0385
  B  B14  1  0.689700  0.784600  0.639800  1.0  0.9838
  B  B15  1  0.797100  0.198200  0.727400  1.0  1.0367
  B  B16  1  0.189700  0.715400  0.860200  1.0  0.9839
  B  B17  1  0.702900  0.698200  0.227400  1.0  1.0348
  B  B18  1  0.310300  0.215400  0.360200  1.0  0.9863
  B  B19  1  0.202900  0.801800  0.272600  1.0  1.0369
  B  B20  1  0.810300  0.284600  0.139800  1.0  0.986
  H  H21  1  0.953600  0.674000  0.903600  1.0  0.0752
  H  H22  1  0.948500  0.811900  0.917800  1.0  0.0855
  H  H23  1  0.904800  0.000200  0.650900  1.0  0.0828
  H  H24  1  0.911700  0.930700  0.540200  1.0  0.0798
  H  H25  1  0.940000  0.673600  0.577700  1.0  0.1004
  H  H26  1  0.950300  0.606100  0.672000  1.0  0.1081
  H  H27  1  0.581000  0.607200  0.431100  1.0  0.0643
  H  H28  1  0.675500  0.698600  0.487100  1.0  0.0854
  H  H29  1  0.071300  0.720300  0.378000  1.0  0.0816
  H  H30  1  0.125800  0.621800  0.300800  1.0  0.068
  H  H31  1  0.897300  0.457400  0.246800  1.0  0.0962
  H  H32  1  0.751600  0.455200  0.278000  1.0  0.1024
  H  H33  1  0.798400  0.346700  0.975100  1.0  0.0837
  H  H34  1  0.897200  0.423800  0.918800  1.0  0.0794
  H  H35  1  0.765400  0.596400  0.659600  1.0  0.0597
  H  H36  1  0.617300  0.590400  0.629400  1.0  0.0857
  H  H37  1  0.499100  0.411600  0.761800  1.0  0.0926
  H  H38  1  0.546200  0.349800  0.852300  1.0  0.0919
  H  H39  1  0.453600  0.826000  0.596400  1.0  0.0748
  H  H40  1  0.448500  0.688100  0.582200  1.0  0.0853
  H  H41  1  0.404800  0.499800  0.849100  1.0  0.084
  H  H42  1  0.411700  0.569300  0.959800  1.0  0.0796
  H  H43  1  0.440000  0.826400  0.922300  1.0  0.1001
  H  H44  1  0.450300  0.893900  0.828000  1.0  0.1075
  H  H45  1  0.081000  0.892800  0.068900  1.0  0.0643
  H  H46  1  0.175500  0.801400  0.012900  1.0  0.0855
  H  H47  1  0.571300  0.779700  0.122000  1.0  0.0821
  H  H48  1  0.625800  0.878200  0.199200  1.0  0.0677
  H  H49  1  0.397300  0.042600  0.253200  1.0  0.0962
  H  H50  1  0.251600  0.044800  0.222000  1.0  0.1022
  H  H51  1  0.298400  0.153300  0.524900  1.0  0.0842
  H  H52  1  0.397200  0.076200  0.581200  1.0  0.0799
  H  H53  1  0.265400  0.903600  0.840400  1.0  0.0598
  H  H54  1  0.117300  0.909600  0.870600  1.0  0.0864
  H  H55  1  0.999100  0.088400  0.738200  1.0  0.093
  H  H56  1  0.046200  0.150200  0.647700  1.0  0.0923
  H  H57  1  0.046400  0.326000  0.096400  1.0  0.0753
  H  H58  1  0.051500  0.188100  0.082200  1.0  0.0857
  H  H59  1  0.095200  0.999800  0.349100  1.0  0.084
  H  H60  1  0.088300  0.069300  0.459800  1.0  0.0801
  H  H61  1  0.060000  0.326400  0.422300  1.0  0.1004
  H  H62  1  0.049700  0.393900  0.328000  1.0  0.1078
  H  H63  1  0.419000  0.392800  0.568900  1.0  0.0632
  H  H64  1  0.324500  0.301400  0.512900  1.0  0.0859
  H  H65  1  0.928700  0.279700  0.622000  1.0  0.0813
  H  H66  1  0.874200  0.378200  0.699200  1.0  0.0679
  H  H67  1  0.102700  0.542600  0.753200  1.0  0.0962
  H  H68  1  0.248400  0.544800  0.722000  1.0  0.1026
  H  H69  1  0.201600  0.653300  0.024900  1.0  0.0842
  H  H70  1  0.102800  0.576200  0.081200  1.0  0.079
  H  H71  1  0.234600  0.403600  0.340400  1.0  0.0592
  H  H72  1  0.382700  0.409600  0.370600  1.0  0.086
  H  H73  1  0.500900  0.588400  0.238200  1.0  0.0923
  H  H74  1  0.453800  0.650200  0.147700  1.0  0.0923
  H  H75  1  0.546400  0.174000  0.403600  1.0  0.075
  H  H76  1  0.551500  0.311900  0.417800  1.0  0.0851
  H  H77  1  0.595200  0.500200  0.150900  1.0  0.0832
  H  H78  1  0.588300  0.430700  0.040200  1.0  0.0803
  H  H79  1  0.560000  0.173600  0.077700  1.0  0.1008
  H  H80  1  0.549700  0.106100  0.172000  1.0  0.1081
  H  H81  1  0.919000  0.107200  0.931100  1.0  0.0631
  H  H82  1  0.824500  0.198600  0.987100  1.0  0.0852
  H  H83  1  0.428700  0.220300  0.878000  1.0  0.0821
  H  H84  1  0.374200  0.121800  0.800800  1.0  0.0679
  H  H85  1  0.602700  0.957400  0.746800  1.0  0.0962
  H  H86  1  0.748400  0.955200  0.778000  1.0  0.1028
  H  H87  1  0.701600  0.846700  0.475100  1.0  0.0842
  H  H88  1  0.602800  0.923800  0.418800  1.0  0.0778
  H  H89  1  0.734600  0.096400  0.159600  1.0  0.0592
  H  H90  1  0.882700  0.090400  0.129400  1.0  0.0856
  H  H91  1  0.000900  0.911600  0.261800  1.0  0.0921
  H  H92  1  0.953800  0.849800  0.352300  1.0  0.092
  C  C93  1  0.936700  0.785600  0.755200  1.0  0.1041
  C  C94  1  0.942800  0.703100  0.745700  1.0  0.1809
  C  C95  1  0.949000  0.701700  0.863700  1.0  0.1008
  C  C96  1  0.945400  0.785100  0.872500  1.0  0.113
  C  C97  1  0.929200  0.828900  0.694500  1.0  0.1106
  C  C98  1  0.912400  0.944300  0.646600  1.0  0.1176
  C  C99  1  0.915500  0.902200  0.579800  1.0  0.1148
  C  C100  1  0.930200  0.785700  0.629100  1.0  0.1422
  C  C101  1  0.938600  0.701700  0.622500  1.0  -0.1689
  C  C102  1  0.944700  0.662100  0.677700  1.0  -0.1886
  C  C103  1  0.810000  0.613000  0.381500  1.0  0.1148
  C  C104  1  0.754600  0.554300  0.349600  1.0  0.1454
  C  C105  1  0.641300  0.606300  0.417700  1.0  0.1169
  C  C106  1  0.697700  0.662300  0.450800  1.0  0.1146
  C  C107  1  0.899600  0.616200  0.358600  1.0  0.0768
  C  C108  1  0.033500  0.677800  0.361800  1.0  0.1095
  C  C109  1  0.065900  0.618800  0.314700  1.0  0.1265
  C  C110  1  0.932200  0.558200  0.309300  1.0  0.1468
  C  C111  1  0.875000  0.497400  0.280000  1.0  -0.1207
  C  C112  1  0.789200  0.495600  0.298700  1.0  -0.1599
  C  C113  1  0.732600  0.441500  0.824500  1.0  0.1052
  C  C114  1  0.672500  0.393500  0.857300  1.0  0.1394
  C  C115  1  0.779100  0.370600  0.935600  1.0  0.1205
  C  C116  1  0.838600  0.417600  0.901800  1.0  0.1089
  C  C117  1  0.703000  0.480700  0.766100  1.0  0.1037
  C  C118  1  0.727200  0.564600  0.683900  1.0  0.1266
  C  C119  1  0.638000  0.559900  0.664500  1.0  0.0958
  C  C120  1  0.614700  0.472500  0.745100  1.0  0.1201
  C  C121  1  0.557700  0.420100  0.778200  1.0  -0.1849
  C  C122  1  0.585600  0.383600  0.831200  1.0  -0.2002
  C  C123  1  0.436700  0.714400  0.744800  1.0  0.104
  C  C124  1  0.442800  0.796900  0.754300  1.0  0.1813
  C  C125  1  0.449000  0.798300  0.636300  1.0  0.1018
  C  C126  1  0.445400  0.714900  0.627500  1.0  0.1134
  C  C127  1  0.429200  0.671100  0.805500  1.0  0.111
  C  C128  1  0.412400  0.555700  0.853400  1.0  0.1185
  C  C129  1  0.415500  0.597800  0.920200  1.0  0.1157
  C  C130  1  0.430200  0.714300  0.870900  1.0  0.1421
  C  C131  1  0.438600  0.798300  0.877500  1.0  -0.1695
  C  C132  1  0.444700  0.837900  0.822300  1.0  -0.1897
  C  C133  1  0.310000  0.887000  0.118500  1.0  0.1156
  C  C134  1  0.254600  0.945700  0.150400  1.0  0.1462
  C  C135  1  0.141300  0.893700  0.082300  1.0  0.1157
  C  C136  1  0.197700  0.837700  0.049200  1.0  0.1135
  C  C137  1  0.399600  0.883800  0.141400  1.0  0.0771
  C  C138  1  0.533500  0.822200  0.138200  1.0  0.1103
  C  C139  1  0.565900  0.881200  0.185300  1.0  0.1264
  C  C140  1  0.432200  0.941800  0.190700  1.0  0.1469
  C  C141  1  0.375000  0.002600  0.220000  1.0  -0.122
  C  C142  1  0.289200  0.004400  0.201300  1.0  -0.1622
  C  C143  1  0.232600  0.058500  0.675500  1.0  0.1049
  C  C144  1  0.172500  0.106500  0.642700  1.0  0.1393
  C  C145  1  0.279100  0.129400  0.564400  1.0  0.1195
  C  C146  1  0.338600  0.082400  0.598200  1.0  0.1084
  C  C147  1  0.203000  0.019300  0.733900  1.0  0.1038
  C  C148  1  0.227200  0.935400  0.816100  1.0  0.1272
  C  C149  1  0.138000  0.940100  0.835500  1.0  0.0963
  C  C150  1  0.114700  0.027500  0.754900  1.0  0.121
  C  C151  1  0.057700  0.079900  0.721800  1.0  -0.1858
  C  C152  1  0.085600  0.116400  0.668800  1.0  -0.199
  C  C153  1  0.063300  0.214400  0.244800  1.0  0.1039
  C  C154  1  0.057200  0.296900  0.254300  1.0  0.1813
  C  C155  1  0.051000  0.298300  0.136300  1.0  0.1014
  C  C156  1  0.054600  0.214900  0.127500  1.0  0.1134
  C  C157  1  0.070800  0.171100  0.305500  1.0  0.1105
  C  C158  1  0.087600  0.055700  0.353400  1.0  0.118
  C  C159  1  0.084500  0.097800  0.420200  1.0  0.1153
  C  C160  1  0.069800  0.214300  0.370900  1.0  0.1426
  C  C161  1  0.061400  0.298300  0.377500  1.0  -0.1691
  C  C162  1  0.055300  0.337900  0.322300  1.0  -0.1878
  C  C163  1  0.190000  0.387000  0.618500  1.0  0.1154
  C  C164  1  0.245400  0.445700  0.650400  1.0  0.1462
  C  C165  1  0.358700  0.393700  0.582300  1.0  0.1162
  C  C166  1  0.302300  0.337700  0.549200  1.0  0.1147
  C  C167  1  0.100400  0.383800  0.641400  1.0  0.0767
  C  C168  1  0.966500  0.322200  0.638200  1.0  0.1099
  C  C169  1  0.934100  0.381200  0.685300  1.0  0.127
  C  C170  1  0.067800  0.441800  0.690700  1.0  0.1474
  C  C171  1  0.125000  0.502600  0.720000  1.0  -0.1237
  C  C172  1  0.210800  0.504400  0.701300  1.0  -0.1622
  C  C173  1  0.267400  0.558500  0.175500  1.0  0.1055
  C  C174  1  0.327500  0.606500  0.142700  1.0  0.1389
  C  C175  1  0.220900  0.629400  0.064400  1.0  0.1205
  C  C176  1  0.161400  0.582400  0.098200  1.0  0.1098
  C  C177  1  0.297000  0.519300  0.233900  1.0  0.1035
  C  C178  1  0.272800  0.435400  0.316100  1.0  0.1266
  C  C179  1  0.362000  0.440100  0.335500  1.0  0.0975
  C  C180  1  0.385300  0.527500  0.254900  1.0  0.1208
  C  C181  1  0.442300  0.579900  0.221800  1.0  -0.1836
  C  C182  1  0.414400  0.616400  0.168800  1.0  -0.2003
  C  C183  1  0.563300  0.285600  0.255200  1.0  0.104
  C  C184  1  0.557200  0.203100  0.245700  1.0  0.1809
  C  C185  1  0.551000  0.201700  0.363700  1.0  0.1019
  C  C186  1  0.554600  0.285100  0.372500  1.0  0.1139
  C  C187  1  0.570800  0.328900  0.194500  1.0  0.1105
  C  C188  1  0.587600  0.444300  0.146600  1.0  0.1184
  C  C189  1  0.584500  0.402200  0.079800  1.0  0.1148
  C  C190  1  0.569800  0.285700  0.129100  1.0  0.1415
  C  C191  1  0.561400  0.201700  0.122500  1.0  -0.1685
  C  C192  1  0.555300  0.162100  0.177700  1.0  -0.1876
  C  C193  1  0.690000  0.113000  0.881500  1.0  0.1147
  C  C194  1  0.745400  0.054300  0.849600  1.0  0.1454
  C  C195  1  0.858700  0.106300  0.917700  1.0  0.1175
  C  C196  1  0.802300  0.162300  0.950800  1.0  0.1161
  C  C197  1  0.600400  0.116200  0.858600  1.0  0.0766
  C  C198  1  0.466500  0.177800  0.861800  1.0  0.1088
  C  C199  1  0.434100  0.118800  0.814700  1.0  0.1275
  C  C200  1  0.567800  0.058200  0.809300  1.0  0.1473
  C  C201  1  0.625000  0.997400  0.780000  1.0  -0.1223
  C  C202  1  0.710800  0.995600  0.798700  1.0  -0.1597
  C  C203  1  0.767400  0.941500  0.324500  1.0  0.1055
  C  C204  1  0.827500  0.893500  0.357300  1.0  0.1391
  C  C205  1  0.720900  0.870600  0.435600  1.0  0.1208
  C  C206  1  0.661400  0.917600  0.401800  1.0  0.1087
  C  C207  1  0.797000  0.980700  0.266100  1.0  0.1035
  C  C208  1  0.772800  0.064600  0.183900  1.0  0.1262
  C  C209  1  0.862000  0.059900  0.164500  1.0  0.0967
  C  C210  1  0.885300  0.972500  0.245100  1.0  0.1199
  C  C211  1  0.942300  0.920100  0.278200  1.0  -0.1832
  C  C212  1  0.914400  0.883600  0.331200  1.0  -0.2009
  N  N213  1  0.937700  0.826500  0.819000  1.0  -0.368
  N  N214  1  0.946200  0.660500  0.802500  1.0  -0.3647
  N  N215  1  0.919600  0.907900  0.702600  1.0  -0.3402
  N  N216  1  0.923600  0.824500  0.571200  1.0  -0.3714
  N  N217  1  0.781400  0.666400  0.433400  1.0  -0.357
  N  N218  1  0.667600  0.551400  0.368100  1.0  -0.4057
  N  N219  1  0.951500  0.677300  0.385200  1.0  -0.3341
  N  N220  1  0.018900  0.559200  0.288200  1.0  -0.3612
  N  N221  1  0.815800  0.452900  0.848100  1.0  -0.3361
  N  N222  1  0.697900  0.358900  0.913900  1.0  -0.3785
  N  N223  1  0.760600  0.526900  0.734500  1.0  -0.4416
  N  N224  1  0.582400  0.513600  0.694200  1.0  -0.3978
  N  N225  1  0.437700  0.673500  0.681000  1.0  -0.3732
  N  N226  1  0.446200  0.839500  0.697500  1.0  -0.3666
  N  N227  1  0.419600  0.592100  0.797400  1.0  -0.3429
  N  N228  1  0.423600  0.675500  0.928800  1.0  -0.37
  N  N229  1  0.281400  0.833600  0.066600  1.0  -0.357
  N  N230  1  0.167600  0.948600  0.131900  1.0  -0.4062
  N  N231  1  0.451500  0.822700  0.114800  1.0  -0.3356
  N  N232  1  0.518900  0.940800  0.211800  1.0  -0.3612
  N  N233  1  0.315800  0.047100  0.651900  1.0  -0.3367
  N  N234  1  0.197900  0.141100  0.586100  1.0  -0.3794
  N  N235  1  0.260600  0.973100  0.765500  1.0  -0.4414
  N  N236  1  0.082400  0.986400  0.805800  1.0  -0.3977
  N  N237  1  0.062300  0.173500  0.181000  1.0  -0.3721
  N  N238  1  0.053800  0.339500  0.197500  1.0  -0.3664
  N  N239  1  0.080400  0.092100  0.297400  1.0  -0.3431
  N  N240  1  0.076400  0.175500  0.428800  1.0  -0.3699
  N  N241  1  0.218600  0.333600  0.566600  1.0  -0.3574
  N  N242  1  0.332400  0.448600  0.631900  1.0  -0.4067
  N  N243  1  0.048500  0.322700  0.614800  1.0  -0.335
  N  N244  1  0.981100  0.440800  0.711800  1.0  -0.3617
  N  N245  1  0.184200  0.547100  0.151900  1.0  -0.3388
  N  N246  1  0.302100  0.641100  0.086100  1.0  -0.3792
  N  N247  1  0.239400  0.473100  0.265500  1.0  -0.4414
  N  N248  1  0.417600  0.486400  0.305800  1.0  -0.3965
  N  N249  1  0.562300  0.326500  0.319000  1.0  -0.368
  N  N250  1  0.553800  0.160500  0.302500  1.0  -0.3641
  N  N251  1  0.580400  0.407900  0.202600  1.0  -0.3404
  N  N252  1  0.576400  0.324500  0.071200  1.0  -0.3716
  N  N253  1  0.718600  0.166400  0.933400  1.0  -0.3579
  N  N254  1  0.832400  0.051400  0.868100  1.0  -0.4025
  N  N255  1  0.548500  0.177300  0.885200  1.0  -0.3338
  N  N256  1  0.481100  0.059200  0.788200  1.0  -0.3621
  N  N257  1  0.684200  0.952900  0.348100  1.0  -0.336
  N  N258  1  0.802100  0.858900  0.413900  1.0  -0.3789
  N  N259  1  0.739400  0.026900  0.234500  1.0  -0.4415
  N  N260  1  0.917600  0.013600  0.194200  1.0  -0.3965
  F  F261  1  0.358300  0.351600  0.803300  1.0  -0.1974
  F  F262  1  0.215400  0.336800  0.766600  1.0  -0.2235
  F  F263  1  0.283800  0.236900  0.809800  1.0  -0.2426
  F  F264  1  0.320100  0.270000  0.707300  1.0  -0.2545
  F  F265  1  0.632400  0.727600  0.611500  1.0  -0.2516
  F  F266  1  0.645700  0.847100  0.675600  1.0  -0.2263
  F  F267  1  0.748700  0.752400  0.685000  1.0  -0.2605
  F  F268  1  0.738200  0.812300  0.586500  1.0  -0.3027
  F  F269  1  0.858300  0.148400  0.696700  1.0  -0.1971
  F  F270  1  0.715400  0.163200  0.733400  1.0  -0.2216
  F  F271  1  0.783800  0.263100  0.690200  1.0  -0.242
  F  F272  1  0.820100  0.230000  0.792700  1.0  -0.2551
  F  F273  1  0.132400  0.772400  0.888500  1.0  -0.2515
  F  F274  1  0.145700  0.652900  0.824400  1.0  -0.2268
  F  F275  1  0.248700  0.747600  0.815000  1.0  -0.2612
  F  F276  1  0.238200  0.687700  0.913500  1.0  -0.3035
  F  F277  1  0.641700  0.648400  0.196700  1.0  -0.2001
  F  F278  1  0.784600  0.663200  0.233400  1.0  -0.2233
  F  F279  1  0.716200  0.763100  0.190200  1.0  -0.2429
  F  F280  1  0.679900  0.730000  0.292700  1.0  -0.2549
  F  F281  1  0.367600  0.272400  0.388500  1.0  -0.2515
  F  F282  1  0.354300  0.152900  0.324400  1.0  -0.2276
  F  F283  1  0.251300  0.247600  0.315000  1.0  -0.2605
  F  F284  1  0.261800  0.187700  0.413500  1.0  -0.3046
  F  F285  1  0.141700  0.851600  0.303300  1.0  -0.1996
  F  F286  1  0.284600  0.836800  0.266600  1.0  -0.2256
  F  F287  1  0.216200  0.736900  0.309800  1.0  -0.2423
  F  F288  1  0.179900  0.770000  0.207300  1.0  -0.2537
  F  F289  1  0.867600  0.227600  0.111500  1.0  -0.2515
  F  F290  1  0.854300  0.347100  0.175600  1.0  -0.2267
  F  F291  1  0.751300  0.252400  0.185000  1.0  -0.26
  F  F292  1  0.761800  0.312300  0.086500  1.0  -0.3037
