# generated using pymatgen
data_Ag3H24(C3N2)4
_symmetry_space_group_name_H-M   'P 1'
_cell_length_a   10.01100000
_cell_length_b   19.36900000
_cell_length_c   6.41400000
_cell_angle_alpha   90.00000000
_cell_angle_beta   90.00000000
_cell_angle_gamma   90.00000000
_symmetry_Int_Tables_number   1
_chemical_formula_structural   Ag3H24(C3N2)4
_chemical_formula_sum   'Ag6 H48 C24 N16'
_cell_volume   1243.69422043
_cell_formula_units_Z   2
loop_
 _symmetry_equiv_pos_site_id
 _symmetry_equiv_pos_as_xyz
  1  'x, y, z'
loop_
 _atom_site_type_symbol
 _atom_site_label
 _atom_site_symmetry_multiplicity
 _atom_site_fract_x
 _atom_site_fract_y
 _atom_site_fract_z
 _atom_site_occupancy
 _atom_site_charge
  Ag  Ag1  1  0.141160  0.196160  0.000000  1.0  0.0019
  Ag  Ag2  1  0.858840  0.803840  0.000000  1.0  -0.001
  Ag  Ag3  1  0.358840  0.696160  0.500000  1.0  0.0
  Ag  Ag4  1  0.641160  0.303840  0.500000  1.0  0.0005
  Ag  Ag5  1  0.500000  0.000000  0.500000  1.0  -0.0011
  Ag  Ag6  1  0.000000  0.500000  0.000000  1.0  -0.0011
  H  H7  1  0.255800  0.082800  0.688500  1.0  0.0479
  H  H8  1  0.379700  0.109700  0.809600  1.0  0.0564
  H  H9  1  0.432300  0.230500  0.809000  1.0  0.058
  H  H10  1  0.342700  0.283000  0.690700  1.0  0.0492
  H  H11  1  0.571700  0.150800  0.378800  1.0  0.0375
  H  H12  1  0.744200  0.917200  0.688500  1.0  0.0469
  H  H13  1  0.620300  0.890300  0.809600  1.0  0.0548
  H  H14  1  0.567700  0.769500  0.809000  1.0  0.0594
  H  H15  1  0.657300  0.717000  0.690700  1.0  0.0493
  H  H16  1  0.428300  0.849200  0.378800  1.0  0.0361
  H  H17  1  0.244200  0.582800  0.811500  1.0  0.0474
  H  H18  1  0.120300  0.609700  0.690400  1.0  0.0559
  H  H19  1  0.067700  0.730500  0.691000  1.0  0.0611
  H  H20  1  0.157300  0.783000  0.809300  1.0  0.0503
  H  H21  1  0.928300  0.650800  0.121200  1.0  0.037
  H  H22  1  0.755800  0.417200  0.811500  1.0  0.0482
  H  H23  1  0.879700  0.390300  0.690400  1.0  0.0554
  H  H24  1  0.932300  0.269500  0.691000  1.0  0.0595
  H  H25  1  0.842700  0.217000  0.809300  1.0  0.0507
  H  H26  1  0.071700  0.349200  0.121200  1.0  0.037
  H  H27  1  0.744200  0.917200  0.311500  1.0  0.0481
  H  H28  1  0.620300  0.890300  0.190400  1.0  0.056
  H  H29  1  0.567700  0.769500  0.191000  1.0  0.0604
  H  H30  1  0.657300  0.717000  0.309300  1.0  0.0494
  H  H31  1  0.428300  0.849200  0.621200  1.0  0.036
  H  H32  1  0.255800  0.082800  0.311500  1.0  0.0475
  H  H33  1  0.379700  0.109700  0.190400  1.0  0.0553
  H  H34  1  0.432300  0.230500  0.191000  1.0  0.0592
  H  H35  1  0.342700  0.283000  0.309300  1.0  0.0501
  H  H36  1  0.571700  0.150800  0.621200  1.0  0.0376
  H  H37  1  0.755800  0.417200  0.188500  1.0  0.0475
  H  H38  1  0.879700  0.390300  0.309600  1.0  0.0553
  H  H39  1  0.932300  0.269500  0.309000  1.0  0.0587
  H  H40  1  0.842700  0.217000  0.190700  1.0  0.0505
  H  H41  1  0.071700  0.349200  0.878800  1.0  0.0374
  H  H42  1  0.244200  0.582800  0.188500  1.0  0.0471
  H  H43  1  0.120300  0.609700  0.309600  1.0  0.0563
  H  H44  1  0.067700  0.730500  0.309000  1.0  0.0587
  H  H45  1  0.157300  0.783000  0.190700  1.0  0.0495
  H  H46  1  0.928300  0.650800  0.878800  1.0  0.0366
  H  H47  1  0.118900  0.160900  0.500000  1.0  0.0664
  H  H48  1  0.146800  0.240600  0.500000  1.0  0.0735
  H  H49  1  0.881100  0.839100  0.500000  1.0  0.0679
  H  H50  1  0.853200  0.759400  0.500000  1.0  0.0726
  H  H51  1  0.381100  0.660900  0.000000  1.0  0.0662
  H  H52  1  0.353200  0.740600  0.000000  1.0  0.0726
  H  H53  1  0.618900  0.339100  0.000000  1.0  0.067
  H  H54  1  0.646800  0.259400  0.000000  1.0  0.0731
  C  C55  1  0.326300  0.116400  0.687000  1.0  0.0581
  C  C56  1  0.378200  0.237000  0.687000  1.0  0.0731
  C  C57  1  0.673700  0.883600  0.687000  1.0  0.0547
  C  C58  1  0.621800  0.763000  0.687000  1.0  0.0735
  C  C59  1  0.173700  0.616400  0.813000  1.0  0.0572
  C  C60  1  0.121800  0.737000  0.813000  1.0  0.0733
  C  C61  1  0.826300  0.383600  0.813000  1.0  0.0572
  C  C62  1  0.878200  0.263000  0.813000  1.0  0.0735
  C  C63  1  0.673700  0.883600  0.313000  1.0  0.0566
  C  C64  1  0.621800  0.763000  0.313000  1.0  0.0733
  C  C65  1  0.326300  0.116400  0.313000  1.0  0.058
  C  C66  1  0.378200  0.237000  0.313000  1.0  0.0739
  C  C67  1  0.826300  0.383600  0.187000  1.0  0.0546
  C  C68  1  0.878200  0.263000  0.187000  1.0  0.0732
  C  C69  1  0.173700  0.616400  0.187000  1.0  0.0573
  C  C70  1  0.121800  0.737000  0.187000  1.0  0.072
  C  C71  1  0.187300  0.195600  0.500000  1.0  0.0855
  C  C72  1  0.516900  0.157300  0.500000  1.0  0.0642
  C  C73  1  0.812700  0.804400  0.500000  1.0  0.0861
  C  C74  1  0.483100  0.842700  0.500000  1.0  0.0639
  C  C75  1  0.312700  0.695600  0.000000  1.0  0.0866
  C  C76  1  0.983100  0.657300  0.000000  1.0  0.065
  C  C77  1  0.687300  0.304400  0.000000  1.0  0.0852
  C  C78  1  0.016900  0.342700  0.000000  1.0  0.0653
  N  N79  1  0.267500  0.186460  0.689500  1.0  -0.2758
  N  N80  1  0.732500  0.813540  0.689500  1.0  -0.2783
  N  N81  1  0.232500  0.686460  0.810500  1.0  -0.2769
  N  N82  1  0.767500  0.313540  0.810500  1.0  -0.2754
  N  N83  1  0.732500  0.813540  0.310500  1.0  -0.277
  N  N84  1  0.267500  0.186460  0.310500  1.0  -0.2757
  N  N85  1  0.767500  0.313540  0.189500  1.0  -0.2759
  N  N86  1  0.232500  0.686460  0.189500  1.0  -0.2773
  N  N87  1  0.409000  0.106100  0.500000  1.0  -0.2195
  N  N88  1  0.462000  0.228500  0.500000  1.0  -0.2762
  N  N89  1  0.591000  0.893900  0.500000  1.0  -0.2213
  N  N90  1  0.538000  0.771500  0.500000  1.0  -0.2748
  N  N91  1  0.091000  0.606100  0.000000  1.0  -0.2175
  N  N92  1  0.038000  0.728500  0.000000  1.0  -0.2748
  N  N93  1  0.909000  0.393900  0.000000  1.0  -0.2224
  N  N94  1  0.962000  0.271500  0.000000  1.0  -0.2763
