# generated using pymatgen
data_Ag4H36C18SN13O7
_symmetry_space_group_name_H-M   'P 1'
_cell_length_a   6.54300000
_cell_length_b   29.40200000
_cell_length_c   16.84900000
_cell_angle_alpha   90.00000000
_cell_angle_beta   90.00000000
_cell_angle_gamma   90.00000000
_symmetry_Int_Tables_number   1
_chemical_formula_structural   Ag4H36C18SN13O7
_chemical_formula_sum   'Ag16 H144 C72 S4 N52 O28'
_cell_volume   3241.36489181
_cell_formula_units_Z   4
loop_
 _symmetry_equiv_pos_site_id
 _symmetry_equiv_pos_as_xyz
  1  'x, y, z'
loop_
 _atom_site_type_symbol
 _atom_site_label
 _atom_site_symmetry_multiplicity
 _atom_site_fract_x
 _atom_site_fract_y
 _atom_site_fract_z
 _atom_site_occupancy
 _atom_site_charge
  Ag  Ag1  1  0.750000  0.978330  0.785050  1.0  0.2456
  Ag  Ag2  1  0.250000  0.521670  0.285050  1.0  0.2449
  Ag  Ag3  1  0.250000  0.021670  0.214950  1.0  0.249
  Ag  Ag4  1  0.750000  0.478330  0.714950  1.0  0.2493
  Ag  Ag5  1  0.250000  0.831490  0.595900  1.0  -0.0285
  Ag  Ag6  1  0.250000  0.840450  0.977030  1.0  0.0601
  Ag  Ag7  1  0.750000  0.668510  0.095900  1.0  -0.0286
  Ag  Ag8  1  0.750000  0.659550  0.477030  1.0  0.06
  Ag  Ag9  1  0.750000  0.168510  0.404100  1.0  -0.028
  Ag  Ag10  1  0.750000  0.159550  0.022970  1.0  0.0599
  Ag  Ag11  1  0.250000  0.331490  0.904100  1.0  -0.0278
  Ag  Ag12  1  0.250000  0.340450  0.522970  1.0  0.0601
  Ag  Ag13  1  0.750000  0.846730  0.286420  1.0  0.0352
  Ag  Ag14  1  0.250000  0.653270  0.786420  1.0  0.0351
  Ag  Ag15  1  0.250000  0.153270  0.713580  1.0  0.0346
  Ag  Ag16  1  0.750000  0.346730  0.213580  1.0  0.0349
  H  H17  1  0.946600  0.890500  0.854800  1.0  0.085
  H  H18  1  0.063800  0.929000  0.898500  1.0  0.0972
  H  H19  1  0.131200  0.830300  0.788600  1.0  0.0873
  H  H20  1  0.056400  0.922400  0.662300  1.0  0.0831
  H  H21  1  0.948800  0.885700  0.713600  1.0  0.0868
  H  H22  1  0.554600  0.744200  0.582700  1.0  0.1072
  H  H23  1  0.453200  0.747200  0.499500  1.0  0.0891
  H  H24  1  0.869300  0.750100  0.379900  1.0  0.0871
  H  H25  1  0.445600  0.814100  0.424100  1.0  0.0812
  H  H26  1  0.555000  0.858000  0.453000  1.0  0.099
  H  H27  1  0.369100  0.936400  0.080400  1.0  0.0954
  H  H28  1  0.553700  0.935900  0.204000  1.0  0.0916
  H  H29  1  0.438900  0.936400  0.284600  1.0  0.0701
  H  H30  1  0.435700  0.824900  0.148000  1.0  0.0981
  H  H31  1  0.553500  0.868200  0.121400  1.0  0.095
  H  H32  1  0.053400  0.609500  0.354800  1.0  0.0848
  H  H33  1  0.936200  0.571000  0.398500  1.0  0.0971
  H  H34  1  0.868800  0.669700  0.288600  1.0  0.0853
  H  H35  1  0.943600  0.577600  0.162300  1.0  0.082
  H  H36  1  0.051200  0.614300  0.213600  1.0  0.0886
  H  H37  1  0.445400  0.755800  0.082700  1.0  0.1061
  H  H38  1  0.546800  0.752800  0.999500  1.0  0.0913
  H  H39  1  0.130700  0.749900  0.879900  1.0  0.087
  H  H40  1  0.554400  0.685900  0.924100  1.0  0.0804
  H  H41  1  0.445000  0.642000  0.953000  1.0  0.0985
  H  H42  1  0.630900  0.563600  0.580400  1.0  0.096
  H  H43  1  0.446300  0.564100  0.704000  1.0  0.0927
  H  H44  1  0.561100  0.563600  0.784600  1.0  0.071
  H  H45  1  0.564300  0.675100  0.648000  1.0  0.0957
  H  H46  1  0.446500  0.631800  0.621400  1.0  0.0963
  H  H47  1  0.446600  0.109500  0.145200  1.0  0.0851
  H  H48  1  0.563800  0.071000  0.101500  1.0  0.0982
  H  H49  1  0.631200  0.169700  0.211400  1.0  0.0865
  H  H50  1  0.556400  0.077600  0.337700  1.0  0.0843
  H  H51  1  0.448800  0.114300  0.286400  1.0  0.0874
  H  H52  1  0.054600  0.255800  0.417300  1.0  0.1057
  H  H53  1  0.953200  0.252800  0.500500  1.0  0.0889
  H  H54  1  0.369300  0.249900  0.620100  1.0  0.0868
  H  H55  1  0.945600  0.185900  0.575900  1.0  0.0799
  H  H56  1  0.055000  0.142000  0.547000  1.0  0.1001
  H  H57  1  0.869100  0.063600  0.919600  1.0  0.0966
  H  H58  1  0.053700  0.064100  0.796000  1.0  0.0906
  H  H59  1  0.938900  0.063600  0.715400  1.0  0.0679
  H  H60  1  0.935700  0.175100  0.852000  1.0  0.0939
  H  H61  1  0.053500  0.131800  0.878600  1.0  0.095
  H  H62  1  0.553400  0.390500  0.645200  1.0  0.0853
  H  H63  1  0.436200  0.429000  0.601500  1.0  0.0985
  H  H64  1  0.368800  0.330300  0.711400  1.0  0.0869
  H  H65  1  0.443600  0.422400  0.837700  1.0  0.0833
  H  H66  1  0.551200  0.385700  0.786400  1.0  0.088
  H  H67  1  0.945400  0.244200  0.917300  1.0  0.1053
  H  H68  1  0.046800  0.247200  0.000500  1.0  0.0903
  H  H69  1  0.630700  0.250100  0.120100  1.0  0.0872
  H  H70  1  0.054400  0.314100  0.075900  1.0  0.0802
  H  H71  1  0.945000  0.358000  0.047000  1.0  0.0996
  H  H72  1  0.130900  0.436400  0.419600  1.0  0.0955
  H  H73  1  0.946300  0.435900  0.296000  1.0  0.0924
  H  H74  1  0.061100  0.436400  0.215400  1.0  0.0674
  H  H75  1  0.064300  0.324900  0.352000  1.0  0.0954
  H  H76  1  0.946500  0.368200  0.378600  1.0  0.0951
  H  H77  1  0.053400  0.109500  0.145200  1.0  0.086
  H  H78  1  0.936200  0.071000  0.101500  1.0  0.0978
  H  H79  1  0.868800  0.169700  0.211400  1.0  0.0852
  H  H80  1  0.943600  0.077600  0.337700  1.0  0.084
  H  H81  1  0.051200  0.114300  0.286400  1.0  0.0887
  H  H82  1  0.445400  0.255800  0.417300  1.0  0.1046
  H  H83  1  0.546800  0.252800  0.500500  1.0  0.0915
  H  H84  1  0.130700  0.249900  0.620100  1.0  0.0866
  H  H85  1  0.554400  0.185900  0.575900  1.0  0.0804
  H  H86  1  0.445000  0.142000  0.547000  1.0  0.099
  H  H87  1  0.630900  0.063600  0.919600  1.0  0.0966
  H  H88  1  0.446300  0.064100  0.796000  1.0  0.0924
  H  H89  1  0.561100  0.063600  0.715400  1.0  0.0673
  H  H90  1  0.564300  0.175100  0.852000  1.0  0.0959
  H  H91  1  0.446500  0.131800  0.878600  1.0  0.0954
  H  H92  1  0.946600  0.390500  0.645200  1.0  0.085
  H  H93  1  0.063800  0.429000  0.601500  1.0  0.0986
  H  H94  1  0.131200  0.330300  0.711400  1.0  0.0874
  H  H95  1  0.056400  0.422400  0.837700  1.0  0.0832
  H  H96  1  0.948800  0.385700  0.786400  1.0  0.0865
  H  H97  1  0.554600  0.244200  0.917300  1.0  0.1065
  H  H98  1  0.453200  0.247200  0.000500  1.0  0.0888
  H  H99  1  0.869300  0.250100  0.120100  1.0  0.0872
  H  H100  1  0.445600  0.314100  0.075900  1.0  0.0799
  H  H101  1  0.555000  0.358000  0.047000  1.0  0.0991
  H  H102  1  0.369100  0.436400  0.419600  1.0  0.0961
  H  H103  1  0.553700  0.435900  0.296000  1.0  0.0913
  H  H104  1  0.438900  0.436400  0.215400  1.0  0.068
  H  H105  1  0.435700  0.324900  0.352000  1.0  0.0979
  H  H106  1  0.553500  0.368200  0.378600  1.0  0.0948
  H  H107  1  0.553400  0.890500  0.854800  1.0  0.0847
  H  H108  1  0.436200  0.929000  0.898500  1.0  0.0972
  H  H109  1  0.368800  0.830300  0.788600  1.0  0.0867
  H  H110  1  0.443600  0.922400  0.662300  1.0  0.0833
  H  H111  1  0.551200  0.885700  0.713600  1.0  0.0885
  H  H112  1  0.945400  0.744200  0.582700  1.0  0.1063
  H  H113  1  0.046800  0.747200  0.499500  1.0  0.0901
  H  H114  1  0.630700  0.750100  0.379900  1.0  0.087
  H  H115  1  0.054400  0.814100  0.424100  1.0  0.0809
  H  H116  1  0.945000  0.858000  0.453000  1.0  0.0993
  H  H117  1  0.130900  0.936400  0.080400  1.0  0.0952
  H  H118  1  0.946300  0.935900  0.204000  1.0  0.0932
  H  H119  1  0.061100  0.936400  0.284600  1.0  0.0699
  H  H120  1  0.064300  0.824900  0.148000  1.0  0.0951
  H  H121  1  0.946500  0.868200  0.121400  1.0  0.0954
  H  H122  1  0.446600  0.609500  0.354800  1.0  0.0847
  H  H123  1  0.563800  0.571000  0.398500  1.0  0.0972
  H  H124  1  0.631200  0.669700  0.288600  1.0  0.0865
  H  H125  1  0.556400  0.577600  0.162300  1.0  0.0822
  H  H126  1  0.448800  0.614300  0.213600  1.0  0.0873
  H  H127  1  0.054600  0.755800  0.082700  1.0  0.1068
  H  H128  1  0.953200  0.752800  0.999500  1.0  0.0891
  H  H129  1  0.369300  0.749900  0.879900  1.0  0.0869
  H  H130  1  0.945600  0.685900  0.924100  1.0  0.0802
  H  H131  1  0.055000  0.642000  0.953000  1.0  0.0996
  H  H132  1  0.869100  0.563600  0.580400  1.0  0.0959
  H  H133  1  0.053700  0.564100  0.704000  1.0  0.0906
  H  H134  1  0.938900  0.563600  0.784600  1.0  0.0708
  H  H135  1  0.935700  0.675100  0.648000  1.0  0.0943
  H  H136  1  0.053500  0.631800  0.621400  1.0  0.0957
  H  H137  1  0.250000  0.986900  0.818000  1.0  0.1024
  H  H138  1  0.250000  0.981300  0.726400  1.0  0.0977
  H  H139  1  0.250000  0.826000  0.271700  1.0  0.0919
  H  H140  1  0.250000  0.868700  0.326000  1.0  0.0959
  H  H141  1  0.750000  0.513100  0.318000  1.0  0.1029
  H  H142  1  0.750000  0.518700  0.226400  1.0  0.0972
  H  H143  1  0.750000  0.674000  0.771700  1.0  0.0927
  H  H144  1  0.750000  0.631300  0.826000  1.0  0.0963
  H  H145  1  0.750000  0.013100  0.182000  1.0  0.1027
  H  H146  1  0.750000  0.018700  0.273600  1.0  0.0995
  H  H147  1  0.750000  0.174000  0.728300  1.0  0.0929
  H  H148  1  0.750000  0.131300  0.674000  1.0  0.0967
  H  H149  1  0.250000  0.486900  0.682000  1.0  0.1035
  H  H150  1  0.250000  0.481300  0.773600  1.0  0.097
  H  H151  1  0.250000  0.326000  0.228300  1.0  0.0924
  H  H152  1  0.250000  0.368700  0.174000  1.0  0.0974
  H  H153  1  0.750000  0.856900  0.577200  1.0  0.1013
  H  H154  1  0.750000  0.812600  0.627400  1.0  0.104
  H  H155  1  0.250000  0.643100  0.077200  1.0  0.1003
  H  H156  1  0.250000  0.687400  0.127400  1.0  0.1043
  H  H157  1  0.250000  0.143100  0.422800  1.0  0.1
  H  H158  1  0.250000  0.187400  0.372600  1.0  0.1032
  H  H159  1  0.750000  0.356900  0.922800  1.0  0.1017
  H  H160  1  0.750000  0.312600  0.872600  1.0  0.1038
  C  C161  1  0.066700  0.909270  0.853200  1.0  0.0894
  C  C162  1  0.066500  0.905200  0.710500  1.0  0.1044
  C  C163  1  0.566900  0.757340  0.530800  1.0  0.1062
  C  C164  1  0.562900  0.825400  0.452100  1.0  0.0943
  C  C165  1  0.435000  0.924830  0.231400  1.0  0.0908
  C  C166  1  0.433600  0.857570  0.148500  1.0  0.0836
  C  C167  1  0.933300  0.590730  0.353200  1.0  0.0879
  C  C168  1  0.933500  0.594800  0.210500  1.0  0.1014
  C  C169  1  0.433100  0.742660  0.030800  1.0  0.1042
  C  C170  1  0.437100  0.674600  0.952100  1.0  0.0925
  C  C171  1  0.565000  0.575170  0.731400  1.0  0.0927
  C  C172  1  0.566400  0.642430  0.648500  1.0  0.0858
  C  C173  1  0.566700  0.090730  0.146800  1.0  0.0896
  C  C174  1  0.566500  0.094800  0.289500  1.0  0.1038
  C  C175  1  0.066900  0.242660  0.469200  1.0  0.1063
  C  C176  1  0.062900  0.174600  0.547900  1.0  0.0952
  C  C177  1  0.935000  0.075170  0.768600  1.0  0.0891
  C  C178  1  0.933600  0.142430  0.851500  1.0  0.0842
  C  C179  1  0.433300  0.409270  0.646800  1.0  0.0888
  C  C180  1  0.433500  0.405200  0.789500  1.0  0.1015
  C  C181  1  0.933100  0.257340  0.969200  1.0  0.1025
  C  C182  1  0.937100  0.325400  0.047900  1.0  0.0923
  C  C183  1  0.065000  0.424830  0.268600  1.0  0.0919
  C  C184  1  0.066400  0.357570  0.351500  1.0  0.0858
  C  C185  1  0.933300  0.090730  0.146800  1.0  0.0885
  C  C186  1  0.933500  0.094800  0.289500  1.0  0.1017
  C  C187  1  0.433100  0.242660  0.469200  1.0  0.1043
  C  C188  1  0.437100  0.174600  0.547900  1.0  0.0924
  C  C189  1  0.565000  0.075170  0.768600  1.0  0.0911
  C  C190  1  0.566400  0.142430  0.851500  1.0  0.0853
  C  C191  1  0.066700  0.409270  0.646800  1.0  0.0898
  C  C192  1  0.066500  0.405200  0.789500  1.0  0.1031
  C  C193  1  0.566900  0.257340  0.969200  1.0  0.1063
  C  C194  1  0.562900  0.325400  0.047900  1.0  0.0939
  C  C195  1  0.435000  0.424830  0.268600  1.0  0.0907
  C  C196  1  0.433600  0.357570  0.351500  1.0  0.0838
  C  C197  1  0.433300  0.909270  0.853200  1.0  0.0881
  C  C198  1  0.433500  0.905200  0.710500  1.0  0.1029
  C  C199  1  0.933100  0.757340  0.530800  1.0  0.1029
  C  C200  1  0.937100  0.825400  0.452100  1.0  0.0925
  C  C201  1  0.065000  0.924830  0.231400  1.0  0.0921
  C  C202  1  0.066400  0.857570  0.148500  1.0  0.0854
  C  C203  1  0.566700  0.590730  0.353200  1.0  0.0892
  C  C204  1  0.566500  0.594800  0.210500  1.0  0.1032
  C  C205  1  0.066900  0.742660  0.030800  1.0  0.1057
  C  C206  1  0.062900  0.674600  0.952100  1.0  0.0952
  C  C207  1  0.935000  0.575170  0.731400  1.0  0.0906
  C  C208  1  0.933600  0.642430  0.648500  1.0  0.0846
  C  C209  1  0.250000  0.849500  0.786700  1.0  0.0899
  C  C210  1  0.250000  0.965000  0.775800  1.0  0.1029
  C  C211  1  0.250000  0.924800  0.106900  1.0  0.0845
  C  C212  1  0.250000  0.858700  0.271900  1.0  0.0893
  C  C213  1  0.750000  0.650500  0.286700  1.0  0.0893
  C  C214  1  0.750000  0.535000  0.275800  1.0  0.1023
  C  C215  1  0.750000  0.575200  0.606900  1.0  0.0836
  C  C216  1  0.750000  0.641300  0.771900  1.0  0.09
  C  C217  1  0.750000  0.150500  0.213300  1.0  0.0894
  C  C218  1  0.750000  0.035000  0.224200  1.0  0.1049
  C  C219  1  0.750000  0.075200  0.893100  1.0  0.083
  C  C220  1  0.750000  0.141300  0.728100  1.0  0.0901
  C  C221  1  0.250000  0.349500  0.713300  1.0  0.0903
  C  C222  1  0.250000  0.465000  0.724200  1.0  0.1029
  C  C223  1  0.250000  0.424800  0.393100  1.0  0.0839
  C  C224  1  0.250000  0.358700  0.228100  1.0  0.0906
  C  C225  1  0.750000  0.760300  0.407900  1.0  0.0773
  C  C226  1  0.750000  0.824200  0.574300  1.0  0.1069
  C  C227  1  0.250000  0.739700  0.907900  1.0  0.0775
  C  C228  1  0.250000  0.675800  0.074300  1.0  0.1062
  C  C229  1  0.250000  0.239700  0.592100  1.0  0.0778
  C  C230  1  0.250000  0.175800  0.425700  1.0  0.107
  C  C231  1  0.750000  0.260300  0.092100  1.0  0.0771
  C  C232  1  0.750000  0.324200  0.925700  1.0  0.1077
  S  S233  1  0.750000  0.775090  0.789120  1.0  1.5316
  S  S234  1  0.250000  0.724910  0.289120  1.0  1.5317
  S  S235  1  0.250000  0.224910  0.210880  1.0  1.5316
  S  S236  1  0.750000  0.275090  0.710880  1.0  1.5316
  N  N237  1  0.062100  0.936560  0.778800  1.0  -0.2482
  N  N238  1  0.562300  0.807910  0.535100  1.0  -0.2709
  N  N239  1  0.437700  0.874520  0.232000  1.0  -0.2588
  N  N240  1  0.937900  0.563440  0.278800  1.0  -0.2501
  N  N241  1  0.437700  0.692090  0.035100  1.0  -0.2717
  N  N242  1  0.562300  0.625480  0.732000  1.0  -0.2581
  N  N243  1  0.562100  0.063440  0.221200  1.0  -0.249
  N  N244  1  0.062300  0.192090  0.464900  1.0  -0.2719
  N  N245  1  0.937700  0.125480  0.768000  1.0  -0.2593
  N  N246  1  0.437900  0.436560  0.721200  1.0  -0.2495
  N  N247  1  0.937700  0.307910  0.964900  1.0  -0.2709
  N  N248  1  0.062300  0.374520  0.268000  1.0  -0.2593
  N  N249  1  0.937900  0.063440  0.221200  1.0  -0.2502
  N  N250  1  0.437700  0.192090  0.464900  1.0  -0.2715
  N  N251  1  0.562300  0.125480  0.768000  1.0  -0.2583
  N  N252  1  0.062100  0.436560  0.721200  1.0  -0.2481
  N  N253  1  0.562300  0.307910  0.964900  1.0  -0.2705
  N  N254  1  0.437700  0.374520  0.268000  1.0  -0.2592
  N  N255  1  0.437900  0.936560  0.778800  1.0  -0.2492
  N  N256  1  0.937700  0.807910  0.535100  1.0  -0.2719
  N  N257  1  0.062300  0.874520  0.232000  1.0  -0.2578
  N  N258  1  0.562100  0.563440  0.278800  1.0  -0.2497
  N  N259  1  0.062300  0.692090  0.035100  1.0  -0.2709
  N  N260  1  0.937700  0.625480  0.732000  1.0  -0.2591
  N  N261  1  0.750000  0.961900  0.012000  1.0  0.0507
  N  N262  1  0.250000  0.538100  0.512000  1.0  0.0511
  N  N263  1  0.250000  0.038100  0.988000  1.0  0.0508
  N  N264  1  0.750000  0.461900  0.488000  1.0  0.0507
  N  N265  1  0.250000  0.880200  0.857100  1.0  -0.2458
  N  N266  1  0.250000  0.876400  0.711200  1.0  -0.2479
  N  N267  1  0.250000  0.874400  0.105800  1.0  -0.2332
  N  N268  1  0.250000  0.941800  0.190000  1.0  -0.2489
  N  N269  1  0.750000  0.619800  0.357100  1.0  -0.2459
  N  N270  1  0.750000  0.623600  0.211200  1.0  -0.2463
  N  N271  1  0.750000  0.625600  0.605800  1.0  -0.231
  N  N272  1  0.750000  0.558200  0.690000  1.0  -0.2482
  N  N273  1  0.750000  0.119800  0.142900  1.0  -0.2437
  N  N274  1  0.750000  0.123600  0.288800  1.0  -0.2475
  N  N275  1  0.750000  0.125600  0.894200  1.0  -0.2363
  N  N276  1  0.750000  0.058200  0.810000  1.0  -0.2485
  N  N277  1  0.250000  0.380200  0.642900  1.0  -0.2457
  N  N278  1  0.250000  0.376400  0.788800  1.0  -0.2472
  N  N279  1  0.250000  0.374400  0.394200  1.0  -0.2362
  N  N280  1  0.250000  0.441800  0.310000  1.0  -0.25
  N  N281  1  0.750000  0.740100  0.489800  1.0  -0.2839
  N  N282  1  0.750000  0.810200  0.410000  1.0  -0.2408
  N  N283  1  0.250000  0.759900  0.989800  1.0  -0.2853
  N  N284  1  0.250000  0.689800  0.910000  1.0  -0.2433
  N  N285  1  0.250000  0.259900  0.510200  1.0  -0.2847
  N  N286  1  0.250000  0.189800  0.590000  1.0  -0.2421
  N  N287  1  0.750000  0.240100  0.010200  1.0  -0.2835
  N  N288  1  0.750000  0.310200  0.090000  1.0  -0.2426
  O  O289  1  0.750000  0.971900  0.943500  1.0  -0.6322
  O  O290  1  0.750000  0.989500  0.058500  1.0  -0.4838
  O  O291  1  0.750000  0.923400  0.031500  1.0  -0.4697
  O  O292  1  0.250000  0.528100  0.443500  1.0  -0.6322
  O  O293  1  0.250000  0.510500  0.558500  1.0  -0.481
  O  O294  1  0.250000  0.576600  0.531500  1.0  -0.4684
  O  O295  1  0.250000  0.028100  0.056500  1.0  -0.6294
  O  O296  1  0.250000  0.010500  0.941500  1.0  -0.4811
  O  O297  1  0.250000  0.076600  0.968500  1.0  -0.4684
  O  O298  1  0.750000  0.471900  0.556500  1.0  -0.6294
  O  O299  1  0.750000  0.489500  0.441500  1.0  -0.4842
  O  O300  1  0.750000  0.423400  0.468500  1.0  -0.469
  O  O301  1  0.921200  0.764200  0.739000  1.0  -0.5662
  O  O302  1  0.578800  0.764200  0.739000  1.0  -0.5672
  O  O303  1  0.750000  0.821300  0.806000  1.0  -0.5428
  O  O304  1  0.750000  0.749000  0.857400  1.0  -0.5562
  O  O305  1  0.078800  0.735800  0.239000  1.0  -0.567
  O  O306  1  0.421200  0.735800  0.239000  1.0  -0.5659
  O  O307  1  0.250000  0.678700  0.306000  1.0  -0.5437
  O  O308  1  0.250000  0.751000  0.357400  1.0  -0.5569
  O  O309  1  0.421200  0.235800  0.261000  1.0  -0.5656
  O  O310  1  0.078800  0.235800  0.261000  1.0  -0.5666
  O  O311  1  0.250000  0.178700  0.194000  1.0  -0.5438
  O  O312  1  0.250000  0.251000  0.142600  1.0  -0.5564
  O  O313  1  0.578800  0.264200  0.761000  1.0  -0.5667
  O  O314  1  0.921200  0.264200  0.761000  1.0  -0.5657
  O  O315  1  0.750000  0.321300  0.694000  1.0  -0.5434
  O  O316  1  0.750000  0.249000  0.642600  1.0  -0.5555
