# generated using pymatgen
data_AgH6C3N2
_symmetry_space_group_name_H-M   'P 1'
_cell_length_a   10.31000000
_cell_length_b   20.00200000
_cell_length_c   22.95000000
_cell_angle_alpha   90.00000000
_cell_angle_beta   90.00000000
_cell_angle_gamma   90.49000000
_symmetry_Int_Tables_number   1
_chemical_formula_structural   AgH6C3N2
_chemical_formula_sum   'Ag24 H144 C72 N48'
_cell_volume   4732.59015612
_cell_formula_units_Z   24
loop_
 _symmetry_equiv_pos_site_id
 _symmetry_equiv_pos_as_xyz
  1  'x, y, z'
loop_
 _atom_site_type_symbol
 _atom_site_label
 _atom_site_symmetry_multiplicity
 _atom_site_fract_x
 _atom_site_fract_y
 _atom_site_fract_z
 _atom_site_occupancy
 _atom_site_charge
  Ag  Ag1  1  0.478060  0.339830  0.331360  1.0  0.0202
  Ag  Ag2  1  0.903830  0.884090  0.242190  1.0  0.0171
  Ag  Ag3  1  0.901460  0.934430  0.510790  1.0  0.0074
  Ag  Ag4  1  0.908070  0.425810  0.882050  1.0  0.0295
  Ag  Ag5  1  0.523100  0.168540  0.563740  1.0  0.0065
  Ag  Ag6  1  0.005480  0.331770  0.553340  1.0  -0.008
  Ag  Ag7  1  0.403770  0.952570  0.372780  1.0  0.0187
  Ag  Ag8  1  0.410910  0.875920  0.648600  1.0  -0.0099
  Ag  Ag9  1  0.087770  0.621510  0.652880  1.0  -0.0529
  Ag  Ag10  1  0.603660  0.557260  0.514960  1.0  0.1128
  Ag  Ag11  1  0.397340  0.383290  0.747400  1.0  0.0125
  Ag  Ag12  1  0.976560  0.173380  0.349090  1.0  0.0657
  Ag  Ag13  1  0.521940  0.660170  0.831360  1.0  0.0172
  Ag  Ag14  1  0.096170  0.115910  0.742190  1.0  0.0164
  Ag  Ag15  1  0.098540  0.065570  0.010790  1.0  0.0072
  Ag  Ag16  1  0.091930  0.574190  0.382050  1.0  0.032
  Ag  Ag17  1  0.476900  0.831460  0.063740  1.0  0.0048
  Ag  Ag18  1  0.994520  0.668230  0.053340  1.0  -0.0074
  Ag  Ag19  1  0.596230  0.047430  0.872780  1.0  0.0209
  Ag  Ag20  1  0.589090  0.124080  0.148600  1.0  -0.0096
  Ag  Ag21  1  0.912230  0.378490  0.152880  1.0  -0.0534
  Ag  Ag22  1  0.396340  0.442740  0.014960  1.0  0.1134
  Ag  Ag23  1  0.602660  0.616710  0.247400  1.0  0.0145
  Ag  Ag24  1  0.023440  0.826620  0.849090  1.0  0.0617
  H  H25  1  0.495600  0.065200  0.456200  1.0  0.0328
  H  H26  1  0.368800  0.046900  0.489700  1.0  0.0434
  H  H27  1  0.374200  0.018200  0.588200  1.0  0.0495
  H  H28  1  0.502200  0.019900  0.624000  1.0  0.0319
  H  H29  1  0.708100  0.046000  0.570000  1.0  0.0422
  H  H30  1  0.698300  0.062200  0.504000  1.0  0.0559
  H  H31  1  0.624300  0.904000  0.455500  1.0  0.0451
  H  H32  1  0.649900  0.977200  0.435400  1.0  0.0514
  H  H33  1  0.669200  0.931900  0.602200  1.0  0.0493
  H  H34  1  0.634800  0.877100  0.556700  1.0  0.0418
  H  H35  1  0.420600  0.877900  0.509800  1.0  0.0445
  H  H36  1  0.326300  0.936500  0.522400  1.0  0.0438
  H  H37  1  0.056800  0.629100  0.517600  1.0  0.0389
  H  H38  1  0.167600  0.577800  0.526600  1.0  0.0473
  H  H39  1  0.853600  0.532300  0.437900  1.0  0.0586
  H  H40  1  0.873900  0.602500  0.465500  1.0  0.0435
  H  H41  1  0.804200  0.435900  0.502900  1.0  0.0559
  H  H42  1  0.801100  0.446600  0.570100  1.0  0.0433
  H  H43  1  0.142100  0.464900  0.487000  1.0  0.049
  H  H44  1  0.018500  0.447200  0.451000  1.0  0.0497
  H  H45  1  0.825800  0.558200  0.608900  1.0  0.0481
  H  H46  1  0.853400  0.617500  0.566800  1.0  0.0374
  H  H47  1  0.128300  0.481500  0.590300  1.0  0.0508
  H  H48  1  0.996700  0.473100  0.622700  1.0  0.0459
  H  H49  1  0.062400  0.692100  0.772500  1.0  0.0459
  H  H50  1  0.027500  0.746600  0.726800  1.0  0.0529
  H  H51  1  0.313400  0.728900  0.643800  1.0  0.0381
  H  H52  1  0.187600  0.770800  0.646900  1.0  0.0366
  H  H53  1  0.155600  0.849100  0.722200  1.0  0.0481
  H  H54  1  0.263600  0.862400  0.767900  1.0  0.054
  H  H55  1  0.256900  0.629200  0.765200  1.0  0.0489
  H  H56  1  0.355500  0.642200  0.714900  1.0  0.0509
  H  H57  1  0.312000  0.777800  0.840400  1.0  0.0394
  H  H58  1  0.231500  0.711800  0.842500  1.0  0.0433
  H  H59  1  0.467000  0.797600  0.762900  1.0  0.0453
  H  H60  1  0.484700  0.745200  0.713500  1.0  0.0443
  H  H61  1  0.569200  0.623200  0.386700  1.0  0.0412
  H  H62  1  0.664400  0.565200  0.374100  1.0  0.0553
  H  H63  1  0.604300  0.451100  0.408300  1.0  0.0581
  H  H64  1  0.472800  0.442700  0.440400  1.0  0.0555
  H  H65  1  0.323500  0.572600  0.291300  1.0  0.0371
  H  H66  1  0.364000  0.628700  0.334600  1.0  0.0384
  H  H67  1  0.369500  0.605000  0.436900  1.0  0.0456
  H  H68  1  0.332100  0.533900  0.458600  1.0  0.0475
  H  H69  1  0.600700  0.475800  0.302800  1.0  0.0532
  H  H70  1  0.467000  0.480700  0.271900  1.0  0.0251
  H  H71  1  0.276200  0.449300  0.391300  1.0  0.0483
  H  H72  1  0.270600  0.465300  0.325200  1.0  0.0299
  H  H73  1  0.358900  0.151900  0.675700  1.0  0.0561
  H  H74  1  0.259300  0.137600  0.626500  1.0  0.0499
  H  H75  1  0.455500  0.307800  0.629300  1.0  0.036
  H  H76  1  0.478700  0.254400  0.677200  1.0  0.0398
  H  H77  1  0.313000  0.230300  0.749700  1.0  0.0395
  H  H78  1  0.183200  0.269200  0.748400  1.0  0.0387
  H  H79  1  0.152700  0.354800  0.672400  1.0  0.0556
  H  H80  1  0.260600  0.367500  0.626300  1.0  0.0471
  H  H81  1  0.223700  0.219100  0.552300  1.0  0.0359
  H  H82  1  0.302300  0.285800  0.552800  1.0  0.0352
  H  H83  1  0.053800  0.198600  0.625700  1.0  0.0517
  H  H84  1  0.031700  0.251900  0.674000  1.0  0.0431
  H  H85  1  0.880000  0.036000  0.406000  1.0  0.1528
  H  H86  1  0.024000  0.062000  0.445000  1.0  0.0726
  H  H87  1  0.173000  0.974000  0.288000  1.0  0.0788
  H  H88  1  0.135000  0.900000  0.329000  1.0  0.2097
  H  H89  1  0.166000  0.984000  0.453000  1.0  0.0352
  H  H90  1  0.157000  0.909000  0.427000  1.0  0.0494
  H  H91  1  0.180000  0.070000  0.390000  1.0  0.1373
  H  H92  1  0.213000  0.060000  0.322000  1.0  0.1502
  H  H93  1  0.020000  0.041000  0.267000  1.0  0.0887
  H  H94  1  0.880000  0.036000  0.306000  1.0  0.1628
  H  H95  1  0.938000  0.876000  0.375000  1.0  0.0679
  H  H96  1  0.843000  0.925000  0.366000  1.0  0.1846
  H  H97  1  0.504400  0.934800  0.956200  1.0  0.0325
  H  H98  1  0.631200  0.953100  0.989700  1.0  0.045
  H  H99  1  0.625800  0.981800  0.088200  1.0  0.0466
  H  H100  1  0.497800  0.980100  0.124000  1.0  0.0324
  H  H101  1  0.291900  0.954000  0.070000  1.0  0.0432
  H  H102  1  0.301700  0.937800  0.004000  1.0  0.0553
  H  H103  1  0.375700  0.096000  0.955500  1.0  0.0462
  H  H104  1  0.350100  0.022800  0.935400  1.0  0.0515
  H  H105  1  0.330800  0.068100  0.102200  1.0  0.0498
  H  H106  1  0.365200  0.122900  0.056700  1.0  0.0424
  H  H107  1  0.579400  0.122100  0.009800  1.0  0.0463
  H  H108  1  0.673700  0.063500  0.022400  1.0  0.0456
  H  H109  1  0.943200  0.370900  0.017600  1.0  0.0359
  H  H110  1  0.832400  0.422200  0.026600  1.0  0.0507
  H  H111  1  0.146400  0.467700  0.937900  1.0  0.0583
  H  H112  1  0.126100  0.397500  0.965500  1.0  0.0421
  H  H113  1  0.195800  0.564100  0.002900  1.0  0.0566
  H  H114  1  0.198900  0.553400  0.070100  1.0  0.041
  H  H115  1  0.857900  0.535100  0.987000  1.0  0.0457
  H  H116  1  0.981500  0.552800  0.951000  1.0  0.0506
  H  H117  1  0.174200  0.441800  0.108900  1.0  0.0466
  H  H118  1  0.146600  0.382500  0.066800  1.0  0.0371
  H  H119  1  0.871700  0.518500  0.090300  1.0  0.0533
  H  H120  1  0.003300  0.526900  0.122700  1.0  0.0457
  H  H121  1  0.937600  0.307900  0.272500  1.0  0.0435
  H  H122  1  0.972500  0.253400  0.226800  1.0  0.0507
  H  H123  1  0.686600  0.271100  0.143800  1.0  0.0374
  H  H124  1  0.812400  0.229200  0.146900  1.0  0.037
  H  H125  1  0.844400  0.150900  0.222200  1.0  0.0483
  H  H126  1  0.736400  0.137600  0.267900  1.0  0.0546
  H  H127  1  0.743100  0.370800  0.265200  1.0  0.0487
  H  H128  1  0.644500  0.357800  0.214900  1.0  0.0513
  H  H129  1  0.688000  0.222200  0.340400  1.0  0.041
  H  H130  1  0.768500  0.288200  0.342500  1.0  0.0422
  H  H131  1  0.533000  0.202400  0.262900  1.0  0.0467
  H  H132  1  0.515300  0.254800  0.213500  1.0  0.0441
  H  H133  1  0.430800  0.376800  0.886700  1.0  0.0404
  H  H134  1  0.335600  0.434800  0.874100  1.0  0.0554
  H  H135  1  0.395700  0.548900  0.908300  1.0  0.0567
  H  H136  1  0.527200  0.557300  0.940400  1.0  0.0538
  H  H137  1  0.676500  0.427400  0.791300  1.0  0.0392
  H  H138  1  0.636000  0.371300  0.834600  1.0  0.036
  H  H139  1  0.630500  0.395000  0.936900  1.0  0.0451
  H  H140  1  0.667900  0.466100  0.958600  1.0  0.0483
  H  H141  1  0.399300  0.524200  0.802800  1.0  0.0532
  H  H142  1  0.533000  0.519300  0.771900  1.0  0.0259
  H  H143  1  0.723800  0.550700  0.891300  1.0  0.0461
  H  H144  1  0.729400  0.534700  0.825200  1.0  0.0311
  H  H145  1  0.641100  0.848100  0.175700  1.0  0.0555
  H  H146  1  0.740700  0.862400  0.126500  1.0  0.052
  H  H147  1  0.544500  0.692200  0.129300  1.0  0.0357
  H  H148  1  0.521300  0.745600  0.177200  1.0  0.04
  H  H149  1  0.687000  0.769700  0.249700  1.0  0.0403
  H  H150  1  0.816800  0.730800  0.248400  1.0  0.0377
  H  H151  1  0.847300  0.645200  0.172400  1.0  0.0548
  H  H152  1  0.739400  0.632500  0.126300  1.0  0.0481
  H  H153  1  0.776300  0.780900  0.052300  1.0  0.0364
  H  H154  1  0.697700  0.714200  0.052800  1.0  0.0344
  H  H155  1  0.946200  0.801400  0.125700  1.0  0.0515
  H  H156  1  0.968300  0.748100  0.174000  1.0  0.043
  H  H157  1  0.120000  0.964000  0.906000  1.0  0.1549
  H  H158  1  0.976000  0.938000  0.945000  1.0  0.0714
  H  H159  1  0.827000  0.026000  0.788000  1.0  0.0795
  H  H160  1  0.865000  0.100000  0.829000  1.0  0.2131
  H  H161  1  0.834000  0.016000  0.953000  1.0  0.0359
  H  H162  1  0.843000  0.091000  0.927000  1.0  0.0498
  H  H163  1  0.820000  0.930000  0.890000  1.0  0.1407
  H  H164  1  0.787000  0.940000  0.822000  1.0  0.1472
  H  H165  1  0.980000  0.959000  0.767000  1.0  0.0887
  H  H166  1  0.120000  0.964000  0.806000  1.0  0.1616
  H  H167  1  0.062000  0.124000  0.875000  1.0  0.073
  H  H168  1  0.157000  0.075000  0.866000  1.0  0.1861
  C  C169  1  0.459600  0.037400  0.486300  1.0  0.0407
  C  C170  1  0.465500  0.009300  0.586600  1.0  0.0846
  C  C171  1  0.662500  0.035300  0.534700  1.0  0.0574
  C  C172  1  0.613200  0.950100  0.465800  1.0  0.075
  C  C173  1  0.624400  0.923500  0.566300  1.0  0.0752
  C  C174  1  0.416000  0.924700  0.518800  1.0  0.0528
  C  C175  1  0.075300  0.582600  0.523900  1.0  0.0541
  C  C176  1  0.888100  0.555500  0.471100  1.0  0.0194
  C  C177  1  0.841200  0.461200  0.534500  1.0  0.0747
  C  C178  1  0.050400  0.472100  0.483800  1.0  0.0631
  C  C179  1  0.869100  0.570900  0.573500  1.0  0.0706
  C  C180  1  0.036500  0.488400  0.587300  1.0  0.0726
  C  C181  1  0.097600  0.726700  0.748000  1.0  0.0823
  C  C182  1  0.253000  0.749500  0.669900  1.0  0.0652
  C  C183  1  0.222600  0.828400  0.744700  1.0  0.039
  C  C184  1  0.294900  0.663100  0.740800  1.0  0.0636
  C  C185  1  0.267800  0.745000  0.817000  1.0  0.0562
  C  C186  1  0.422400  0.765300  0.739100  1.0  0.0477
  C  C187  1  0.574300  0.576400  0.377400  1.0  0.0806
  C  C188  1  0.516500  0.466700  0.409800  1.0  0.0457
  C  C189  1  0.369600  0.581700  0.326900  1.0  0.0666
  C  C190  1  0.374500  0.558300  0.427900  1.0  0.045
  C  C191  1  0.512400  0.489700  0.307700  1.0  0.0363
  C  C192  1  0.317300  0.474200  0.360600  1.0  0.0677
  C  C193  1  0.295200  0.172000  0.650800  1.0  0.0757
  C  C194  1  0.414200  0.273900  0.652500  1.0  0.0775
  C  C195  1  0.249800  0.250200  0.724500  1.0  0.0729
  C  C196  1  0.219200  0.333800  0.649700  1.0  0.0783
  C  C197  1  0.261800  0.252600  0.577000  1.0  0.0748
  C  C198  1  0.096100  0.231400  0.649800  1.0  0.0429
  C  C199  1  0.965100  0.037700  0.413400  1.0  0.042
  C  C200  1  0.122200  0.938800  0.318500  1.0  0.023
  C  C201  1  0.128400  0.954800  0.422400  1.0  0.0192
  C  C202  1  0.157800  0.048500  0.359900  1.0  0.0372
  C  C203  1  0.964000  0.022900  0.308100  1.0  -0.0347
  C  C204  1  0.926700  0.927900  0.371300  1.0  0.0116
  C  C205  1  0.540400  0.962600  0.986300  1.0  0.0406
  C  C206  1  0.534500  0.990700  0.086600  1.0  0.084
  C  C207  1  0.337500  0.964700  0.034700  1.0  0.0572
  C  C208  1  0.386800  0.049900  0.965800  1.0  0.0779
  C  C209  1  0.375600  0.076500  0.066300  1.0  0.0764
  C  C210  1  0.584000  0.075300  0.018800  1.0  0.0518
  C  C211  1  0.924700  0.417400  0.023900  1.0  0.0553
  C  C212  1  0.111900  0.444500  0.971100  1.0  0.017
  C  C213  1  0.158800  0.538800  0.034500  1.0  0.0733
  C  C214  1  0.949600  0.527900  0.983800  1.0  0.0634
  C  C215  1  0.130900  0.429100  0.073500  1.0  0.0698
  C  C216  1  0.963500  0.511600  0.087300  1.0  0.073
  C  C217  1  0.902400  0.273300  0.248000  1.0  0.0845
  C  C218  1  0.747000  0.250500  0.169900  1.0  0.0655
  C  C219  1  0.777400  0.171600  0.244700  1.0  0.0396
  C  C220  1  0.705100  0.336900  0.240800  1.0  0.0617
  C  C221  1  0.732200  0.255000  0.317000  1.0  0.0557
  C  C222  1  0.577600  0.234700  0.239100  1.0  0.0454
  C  C223  1  0.425700  0.423600  0.877400  1.0  0.0801
  C  C224  1  0.483500  0.533300  0.909800  1.0  0.0455
  C  C225  1  0.630400  0.418300  0.826900  1.0  0.0652
  C  C226  1  0.625500  0.441700  0.927900  1.0  0.0458
  C  C227  1  0.487600  0.510300  0.807700  1.0  0.0374
  C  C228  1  0.682700  0.525800  0.860600  1.0  0.0664
  C  C229  1  0.704800  0.828000  0.150800  1.0  0.0753
  C  C230  1  0.585800  0.726100  0.152500  1.0  0.0774
  C  C231  1  0.750200  0.749800  0.224500  1.0  0.0739
  C  C232  1  0.780800  0.666200  0.149700  1.0  0.0799
  C  C233  1  0.738200  0.747400  0.077000  1.0  0.0752
  C  C234  1  0.903900  0.768600  0.149800  1.0  0.045
  C  C235  1  0.034900  0.962300  0.913400  1.0  0.0399
  C  C236  1  0.877800  0.061200  0.818500  1.0  0.0241
  C  C237  1  0.871600  0.045200  0.922400  1.0  0.0186
  C  C238  1  0.842200  0.951500  0.859900  1.0  0.0369
  C  C239  1  0.036000  0.977100  0.808100  1.0  -0.0345
  C  C240  1  0.073300  0.072100  0.871300  1.0  0.0102
  N  N241  1  0.525500  0.051000  0.542100  1.0  -0.2693
  N  N242  1  0.681500  0.964300  0.520800  1.0  -0.2918
  N  N243  1  0.477500  0.964500  0.471200  1.0  -0.3123
  N  N244  1  0.484900  0.937800  0.573700  1.0  -0.2183
  N  N245  1  0.025800  0.543400  0.475500  1.0  -0.2443
  N  N246  1  0.817300  0.532200  0.525500  1.0  -0.2736
  N  N247  1  0.985000  0.449500  0.537300  1.0  -0.2604
  N  N248  1  0.012600  0.559800  0.579300  1.0  -0.2371
  N  N249  1  0.319900  0.799000  0.704100  1.0  -0.2379
  N  N250  1  0.361600  0.712900  0.776900  1.0  -0.2427
  N  N251  1  0.191900  0.697300  0.706700  1.0  -0.179
  N  N252  1  0.162800  0.777200  0.783900  1.0  -0.2703
  N  N253  1  0.509500  0.563000  0.319800  1.0  -0.2381
  N  N254  1  0.452900  0.450700  0.354600  1.0  -0.2901
  N  N255  1  0.517300  0.537300  0.424700  1.0  -0.3134
  N  N256  1  0.310200  0.545000  0.374200  1.0  -0.2683
  N  N257  1  0.360300  0.222400  0.614100  1.0  -0.2737
  N  N258  1  0.160400  0.283600  0.612000  1.0  -0.2567
  N  N259  1  0.193200  0.198900  0.686600  1.0  -0.253
  N  N260  1  0.313300  0.304500  0.688400  1.0  -0.2492
  N  N261  1  0.020700  0.061100  0.356200  1.0  -0.2733
  N  N262  1  0.984400  0.949700  0.316100  1.0  -0.2475
  N  N263  1  0.187100  0.977400  0.367300  1.0  -0.2397
  N  N264  1  0.984900  0.964900  0.421200  1.0  -0.3405
  N  N265  1  0.474500  0.949000  0.042100  1.0  -0.2651
  N  N266  1  0.318500  0.035700  0.020800  1.0  -0.2949
  N  N267  1  0.522500  0.035500  0.971200  1.0  -0.3085
  N  N268  1  0.515100  0.062200  0.073700  1.0  -0.2205
  N  N269  1  0.974200  0.456600  0.975500  1.0  -0.2471
  N  N270  1  0.182700  0.467800  0.025500  1.0  -0.2697
  N  N271  1  0.015000  0.550500  0.037300  1.0  -0.2637
  N  N272  1  0.987400  0.440200  0.079300  1.0  -0.2379
  N  N273  1  0.680100  0.201000  0.204100  1.0  -0.2399
  N  N274  1  0.638400  0.287100  0.276900  1.0  -0.2434
  N  N275  1  0.808100  0.302700  0.206700  1.0  -0.178
  N  N276  1  0.837200  0.222800  0.283900  1.0  -0.2685
  N  N277  1  0.490500  0.437000  0.819800  1.0  -0.2398
  N  N278  1  0.547100  0.549300  0.854600  1.0  -0.2929
  N  N279  1  0.482700  0.462700  0.924700  1.0  -0.3121
  N  N280  1  0.689800  0.455000  0.874200  1.0  -0.262
  N  N281  1  0.639700  0.777600  0.114100  1.0  -0.2718
  N  N282  1  0.839600  0.716400  0.112000  1.0  -0.258
  N  N283  1  0.806800  0.801100  0.186600  1.0  -0.2515
  N  N284  1  0.686700  0.695500  0.188400  1.0  -0.2511
  N  N285  1  0.979300  0.938900  0.856200  1.0  -0.2706
  N  N286  1  0.015600  0.050300  0.816100  1.0  -0.2477
  N  N287  1  0.812900  0.022600  0.867300  1.0  -0.243
  N  N288  1  0.015100  0.035100  0.921200  1.0  -0.3401
