# generated using pymatgen
data_CuH10C17NO4
_symmetry_space_group_name_H-M   'P 1'
_cell_length_a   15.37600000
_cell_length_b   19.84820000
_cell_length_c   19.84820000
_cell_angle_alpha   73.35830000
_cell_angle_beta   67.21090000
_cell_angle_gamma   67.21090000
_symmetry_Int_Tables_number   1
_chemical_formula_structural   CuH10C17NO4
_chemical_formula_sum   'Cu4 H40 C68 N4 O16'
_cell_volume   5081.90445392
_cell_formula_units_Z   4
loop_
 _symmetry_equiv_pos_site_id
 _symmetry_equiv_pos_as_xyz
  1  'x, y, z'
loop_
 _atom_site_type_symbol
 _atom_site_label
 _atom_site_symmetry_multiplicity
 _atom_site_fract_x
 _atom_site_fract_y
 _atom_site_fract_z
 _atom_site_occupancy
 _atom_site_charge
  Cu  Cu1  1  0.531000  0.532000  0.532000  1.0  0.8943
  Cu  Cu2  1  0.095000  0.968000  0.968000  1.0  0.8948
  Cu  Cu3  1  0.905000  0.032000  0.032000  1.0  0.895
  Cu  Cu4  1  0.469000  0.468000  0.468000  1.0  0.8945
  H  H5  1  0.666400  0.497800  0.244800  1.0  0.1068
  H  H6  1  0.775900  0.528900  0.132100  1.0  0.1244
  H  H7  1  0.865200  0.629600  0.229400  1.0  0.1261
  H  H8  1  0.753300  0.599600  0.342200  1.0  0.1077
  H  H9  1  0.930000  0.622900  0.959100  1.0  0.1189
  H  H10  1  0.909000  0.002200  0.255200  1.0  0.107
  H  H11  1  0.936900  0.971100  0.367900  1.0  0.1239
  H  H12  1  0.224200  0.870400  0.270600  1.0  0.1267
  H  H13  1  0.195100  0.900400  0.157800  1.0  0.1073
  H  H14  1  0.012000  0.877100  0.540900  1.0  0.1213
  H  H15  1  0.091000  0.744800  0.997800  1.0  0.1066
  H  H16  1  0.063100  0.632100  0.028900  1.0  0.1243
  H  H17  1  0.775800  0.729400  0.129600  1.0  0.1256
  H  H18  1  0.804900  0.842200  0.099600  1.0  0.1074
  H  H19  1  0.988000  0.459100  0.122900  1.0  0.1208
  H  H20  1  0.333600  0.755200  0.502200  1.0  0.106
  H  H21  1  0.224100  0.867900  0.471100  1.0  0.1228
  H  H22  1  0.134800  0.770600  0.370400  1.0  0.1263
  H  H23  1  0.246700  0.657800  0.400400  1.0  0.1077
  H  H24  1  0.070000  0.040900  0.377100  1.0  0.1201
  H  H25  1  0.333600  0.502200  0.755200  1.0  0.1067
  H  H26  1  0.224100  0.471100  0.867900  1.0  0.124
  H  H27  1  0.134800  0.370400  0.770600  1.0  0.1262
  H  H28  1  0.246700  0.400400  0.657800  1.0  0.1079
  H  H29  1  0.070000  0.377100  0.040900  1.0  0.1192
  H  H30  1  0.091000  0.997800  0.744800  1.0  0.1065
  H  H31  1  0.063100  0.028900  0.632100  1.0  0.1238
  H  H32  1  0.775800  0.129600  0.729400  1.0  0.1272
  H  H33  1  0.804900  0.099600  0.842200  1.0  0.1075
  H  H34  1  0.988000  0.122900  0.459100  1.0  0.1213
  H  H35  1  0.909000  0.255200  0.002200  1.0  0.1069
  H  H36  1  0.936900  0.367900  0.971100  1.0  0.1245
  H  H37  1  0.224200  0.270600  0.870400  1.0  0.126
  H  H38  1  0.195100  0.157800  0.900400  1.0  0.1077
  H  H39  1  0.012000  0.540900  0.877100  1.0  0.121
  H  H40  1  0.666400  0.244800  0.497800  1.0  0.106
  H  H41  1  0.775900  0.132100  0.528900  1.0  0.1229
  H  H42  1  0.865200  0.229400  0.629600  1.0  0.1258
  H  H43  1  0.753300  0.342200  0.599600  1.0  0.1081
  H  H44  1  0.930000  0.959100  0.622900  1.0  0.1201
  C  C45  1  0.624910  0.528370  0.377370  1.0  0.687
  C  C46  1  0.697090  0.546250  0.304790  1.0  -0.1589
  C  C47  1  0.705690  0.524900  0.241920  1.0  -0.0047
  C  C48  1  0.771930  0.543030  0.174310  1.0  -0.2236
  C  C49  1  0.832110  0.581920  0.169540  1.0  0.1867
  C  C50  1  0.824930  0.603220  0.232320  1.0  -0.2134
  C  C51  1  0.757670  0.585300  0.300000  1.0  -0.0082
  C  C52  1  0.958220  0.573190  0.975970  1.0  -0.1508
  C  C53  1  0.030650  0.971630  0.122630  1.0  0.6874
  C  C54  1  0.048130  0.953750  0.195210  1.0  -0.1578
  C  C55  1  0.972510  0.975100  0.258080  1.0  -0.0036
  C  C56  1  0.989270  0.956970  0.325690  1.0  -0.2259
  C  C57  1  0.083570  0.918080  0.330460  1.0  0.1852
  C  C58  1  0.160470  0.896780  0.267680  1.0  -0.2118
  C  C59  1  0.142970  0.914700  0.200000  1.0  -0.0108
  C  C60  1  0.007380  0.926810  0.524030  1.0  -0.1547
  C  C61  1  0.969350  0.877370  0.028370  1.0  0.6865
  C  C62  1  0.951870  0.804790  0.046250  1.0  -0.156
  C  C63  1  0.027490  0.741920  0.024900  1.0  -0.0013
  C  C64  1  0.010730  0.674310  0.043030  1.0  -0.2229
  C  C65  1  0.916430  0.669540  0.081920  1.0  0.1853
  C  C66  1  0.839530  0.732320  0.103220  1.0  -0.2153
  C  C67  1  0.857030  0.800000  0.085300  1.0  -0.0087
  C  C68  1  0.992620  0.475970  0.073190  1.0  -0.1519
  C  C69  1  0.375090  0.622630  0.471630  1.0  0.6867
  C  C70  1  0.302910  0.695210  0.453750  1.0  -0.1575
  C  C71  1  0.294310  0.758080  0.475100  1.0  -0.0059
  C  C72  1  0.228070  0.825690  0.456970  1.0  -0.2258
  C  C73  1  0.167890  0.830460  0.418080  1.0  0.1854
  C  C74  1  0.175070  0.767680  0.396780  1.0  -0.2147
  C  C75  1  0.242330  0.700000  0.414700  1.0  -0.011
  C  C76  1  0.041780  0.024030  0.426810  1.0  -0.1521
  C  C77  1  0.375090  0.471630  0.622630  1.0  0.6866
  C  C78  1  0.302910  0.453750  0.695210  1.0  -0.1597
  C  C79  1  0.294310  0.475100  0.758080  1.0  -0.0042
  C  C80  1  0.228070  0.456970  0.825690  1.0  -0.2242
  C  C81  1  0.167890  0.418080  0.830460  1.0  0.1856
  C  C82  1  0.175070  0.396780  0.767680  1.0  -0.2131
  C  C83  1  0.242330  0.414700  0.700000  1.0  -0.007
  C  C84  1  0.041780  0.426810  0.024030  1.0  -0.1524
  C  C85  1  0.969350  0.028370  0.877370  1.0  0.6871
  C  C86  1  0.951870  0.046250  0.804790  1.0  -0.1578
  C  C87  1  0.027490  0.024900  0.741920  1.0  -0.0044
  C  C88  1  0.010730  0.043030  0.674310  1.0  -0.2222
  C  C89  1  0.916430  0.081920  0.669540  1.0  0.1849
  C  C90  1  0.839530  0.103220  0.732320  1.0  -0.2138
  C  C91  1  0.857030  0.085300  0.800000  1.0  -0.012
  C  C92  1  0.992620  0.073190  0.475970  1.0  -0.1538
  C  C93  1  0.030650  0.122630  0.971630  1.0  0.6866
  C  C94  1  0.048130  0.195210  0.953750  1.0  -0.1577
  C  C95  1  0.972510  0.258080  0.975100  1.0  -1e-04
  C  C96  1  0.989270  0.325690  0.956970  1.0  -0.2266
  C  C97  1  0.083570  0.330460  0.918080  1.0  0.1857
  C  C98  1  0.160470  0.267680  0.896780  1.0  -0.2141
  C  C99  1  0.142970  0.200000  0.914700  1.0  -0.0099
  C  C100  1  0.007380  0.524030  0.926810  1.0  -0.1513
  C  C101  1  0.624910  0.377370  0.528370  1.0  0.6868
  C  C102  1  0.697090  0.304790  0.546250  1.0  -0.1555
  C  C103  1  0.705690  0.241920  0.524900  1.0  -0.0053
  C  C104  1  0.771930  0.174310  0.543030  1.0  -0.2266
  C  C105  1  0.832110  0.169540  0.581920  1.0  0.1853
  C  C106  1  0.824930  0.232320  0.603220  1.0  -0.2118
  C  C107  1  0.757670  0.300000  0.585300  1.0  -0.0097
  C  C108  1  0.958220  0.975970  0.573190  1.0  -0.1538
  C  C109  1  0.949960  0.550040  0.050040  1.0  0.1322
  C  C110  1  0.050040  0.949960  0.449960  1.0  0.1328
  C  C111  1  0.050040  0.449960  0.949960  1.0  0.1328
  C  C112  1  0.949960  0.050040  0.550040  1.0  0.1322
  N  N113  1  0.899180  0.600820  0.100820  1.0  -0.1247
  N  N114  1  0.100820  0.899180  0.399180  1.0  -0.1247
  N  N115  1  0.100820  0.399180  0.899180  1.0  -0.1247
  N  N116  1  0.899180  0.100820  0.600820  1.0  -0.1247
  O  O117  1  0.622110  0.548920  0.432300  1.0  -0.5731
  O  O118  1  0.570520  0.494190  0.378170  1.0  -0.5737
  O  O119  1  0.103330  0.951080  0.067700  1.0  -0.5732
  O  O120  1  0.942880  0.005810  0.121830  1.0  -0.5719
  O  O121  1  0.896670  0.932300  0.048920  1.0  -0.5731
  O  O122  1  0.057120  0.878170  0.994190  1.0  -0.5727
  O  O123  1  0.377890  0.567700  0.451080  1.0  -0.5739
  O  O124  1  0.429480  0.621830  0.505810  1.0  -0.574
  O  O125  1  0.377890  0.451080  0.567700  1.0  -0.5743
  O  O126  1  0.429480  0.505810  0.621830  1.0  -0.5734
  O  O127  1  0.896670  0.048920  0.932300  1.0  -0.5729
  O  O128  1  0.057120  0.994190  0.878170  1.0  -0.5725
  O  O129  1  0.103330  0.067700  0.951080  1.0  -0.5733
  O  O130  1  0.942880  0.121830  0.005810  1.0  -0.5737
  O  O131  1  0.622110  0.432300  0.548920  1.0  -0.5727
  O  O132  1  0.570520  0.378170  0.494190  1.0  -0.573
