# generated using pymatgen
data_CdH14(C13O2)2
_symmetry_space_group_name_H-M   'P 1'
_cell_length_a   14.30600000
_cell_length_b   19.50900000
_cell_length_c   36.48200000
_cell_angle_alpha   90.00000000
_cell_angle_beta   99.62900000
_cell_angle_gamma   90.00000000
_symmetry_Int_Tables_number   1
_chemical_formula_structural   CdH14(C13O2)2
_chemical_formula_sum   'Cd12 H168 C312 O48'
_cell_volume   10038.52261037
_cell_formula_units_Z   12
loop_
 _symmetry_equiv_pos_site_id
 _symmetry_equiv_pos_as_xyz
  1  'x, y, z'
loop_
 _atom_site_type_symbol
 _atom_site_label
 _atom_site_symmetry_multiplicity
 _atom_site_fract_x
 _atom_site_fract_y
 _atom_site_fract_z
 _atom_site_occupancy
 _atom_site_charge
  Cd  Cd1  1  0.682170  0.980320  0.695070  1.0  1.0921
  Cd  Cd2  1  0.446870  0.000110  0.662670  1.0  1.0525
  Cd  Cd3  1  0.181270  0.445620  0.163450  1.0  0.8358
  Cd  Cd4  1  0.682170  0.519680  0.195070  1.0  1.092
  Cd  Cd5  1  0.446870  0.499890  0.162670  1.0  1.0521
  Cd  Cd6  1  0.181270  0.054380  0.663450  1.0  0.8355
  Cd  Cd7  1  0.317830  0.480320  0.804930  1.0  1.092
  Cd  Cd8  1  0.553130  0.500110  0.837330  1.0  1.0515
  Cd  Cd9  1  0.818730  0.945620  0.336550  1.0  0.8337
  Cd  Cd10  1  0.317830  0.019680  0.304930  1.0  1.0917
  Cd  Cd11  1  0.553130  0.999890  0.337330  1.0  1.0511
  Cd  Cd12  1  0.818730  0.554380  0.836550  1.0  0.8329
  H  H13  1  0.695600  0.126900  0.588800  1.0  0.1114
  H  H14  1  0.506200  0.301400  0.625100  1.0  0.1233
  H  H15  1  0.524000  0.200100  0.656800  1.0  0.1098
  H  H16  1  0.555500  0.378000  0.576500  1.0  0.1103
  H  H17  1  0.714100  0.300700  0.504000  1.0  0.1075
  H  H18  1  0.726400  0.197700  0.535200  1.0  0.1236
  H  H19  1  0.487200  0.865500  0.567200  1.0  0.1086
  H  H20  1  0.487400  0.778600  0.525200  1.0  0.1261
  H  H21  1  0.691800  0.773000  0.640400  1.0  0.112
  H  H22  1  0.551100  0.664300  0.509100  1.0  0.1012
  H  H23  1  0.752200  0.569600  0.583300  1.0  0.0998
  H  H24  1  0.756800  0.659400  0.623600  1.0  0.1312
  H  H25  1  0.464500  0.438600  0.289300  1.0  0.1237
  H  H26  1  0.658400  0.615100  0.346700  1.0  0.1163
  H  H27  1  0.619800  0.608000  0.281900  1.0  0.1123
  H  H28  1  0.454600  0.391200  0.351600  1.0  0.1242
  H  H29  1  0.495400  0.396600  0.415700  1.0  0.1063
  H  H30  1  0.645600  0.570900  0.409500  1.0  0.1204
  H  H31  1  0.657000  0.477300  0.564200  1.0  0.1136
  H  H32  1  0.605500  0.586500  0.468700  1.0  0.1154
  H  H33  1  0.607500  0.379000  0.465500  1.0  0.1177
  H  H34  1  0.380600  0.364000  0.053000  1.0  0.1141
  H  H35  1  0.328200  0.270700  0.015000  1.0  0.1299
  H  H36  1  0.252500  0.289600  0.135100  1.0  0.119
  H  H37  1  0.163600  0.179300  0.125500  1.0  0.122
  H  H38  1  0.114200  0.085700  0.088500  1.0  0.1035
  H  H39  1  0.236400  0.162200  0.005900  1.0  0.0994
  H  H40  1  0.128200  0.633400  0.088000  1.0  0.1174
  H  H41  1  0.359200  0.801000  0.122100  1.0  0.1174
  H  H42  1  0.374100  0.694600  0.150200  1.0  0.1131
  H  H43  1  0.041100  0.710300  0.040400  1.0  0.1319
  H  H44  1  0.029800  0.813900  0.009300  1.0  0.1162
  H  H45  1  0.268000  0.881200  0.075700  1.0  0.1087
  H  H46  1  0.780200  0.101200  0.809800  1.0  0.1106
  H  H47  1  0.864400  0.118300  0.868800  1.0  0.122
  H  H48  1  0.937000  0.931300  0.797000  1.0  0.1228
  H  H49  1  0.989500  0.078400  0.920900  1.0  0.1013
  H  H50  1  0.135100  0.905200  0.909300  1.0  0.1173
  H  H51  1  0.060800  0.895200  0.848100  1.0  0.1172
  H  H52  1  0.177300  0.986600  0.065700  1.0  0.1097
  H  H53  1  0.095500  0.888900  0.968200  1.0  0.1093
  H  H54  1  0.113600  0.094500  0.970800  1.0  0.1158
  H  H55  1  0.695600  0.373100  0.088800  1.0  0.1117
  H  H56  1  0.506200  0.198600  0.125100  1.0  0.1237
  H  H57  1  0.524000  0.299900  0.156800  1.0  0.1101
  H  H58  1  0.555500  0.122000  0.076500  1.0  0.1104
  H  H59  1  0.714100  0.199300  0.004000  1.0  0.1076
  H  H60  1  0.726400  0.302300  0.035200  1.0  0.1241
  H  H61  1  0.487200  0.634500  0.067200  1.0  0.1083
  H  H62  1  0.487400  0.721400  0.025200  1.0  0.1266
  H  H63  1  0.691800  0.727000  0.140400  1.0  0.1121
  H  H64  1  0.551100  0.835700  0.009100  1.0  0.1008
  H  H65  1  0.752200  0.930400  0.083300  1.0  0.0997
  H  H66  1  0.756800  0.840600  0.123600  1.0  0.1313
  H  H67  1  0.464500  0.061400  0.789300  1.0  0.1238
  H  H68  1  0.658400  0.884900  0.846700  1.0  0.1158
  H  H69  1  0.619800  0.892000  0.781900  1.0  0.1116
  H  H70  1  0.454600  0.108800  0.851600  1.0  0.1244
  H  H71  1  0.495400  0.103400  0.915700  1.0  0.1067
  H  H72  1  0.645600  0.929100  0.909500  1.0  0.1202
  H  H73  1  0.657000  0.022700  0.064200  1.0  0.1131
  H  H74  1  0.605500  0.913500  0.968700  1.0  0.1154
  H  H75  1  0.607500  0.121000  0.965500  1.0  0.1185
  H  H76  1  0.380600  0.136000  0.553000  1.0  0.1137
  H  H77  1  0.328200  0.229300  0.515000  1.0  0.1298
  H  H78  1  0.252500  0.210400  0.635100  1.0  0.1194
  H  H79  1  0.163600  0.320700  0.625500  1.0  0.1222
  H  H80  1  0.114200  0.414300  0.588500  1.0  0.103
  H  H81  1  0.236400  0.337800  0.505900  1.0  0.0994
  H  H82  1  0.128200  0.866600  0.588000  1.0  0.118
  H  H83  1  0.359200  0.699000  0.622100  1.0  0.1178
  H  H84  1  0.374100  0.805400  0.650200  1.0  0.1132
  H  H85  1  0.041100  0.789700  0.540400  1.0  0.1328
  H  H86  1  0.029800  0.686100  0.509300  1.0  0.1169
  H  H87  1  0.268000  0.618800  0.575700  1.0  0.1089
  H  H88  1  0.780200  0.398800  0.309800  1.0  0.1101
  H  H89  1  0.864400  0.381700  0.368800  1.0  0.1215
  H  H90  1  0.937000  0.568700  0.297000  1.0  0.1229
  H  H91  1  0.989500  0.421600  0.420900  1.0  0.1009
  H  H92  1  0.135100  0.594800  0.409300  1.0  0.1179
  H  H93  1  0.060800  0.604800  0.348100  1.0  0.1181
  H  H94  1  0.177300  0.513400  0.565700  1.0  0.11
  H  H95  1  0.095500  0.611100  0.468200  1.0  0.1094
  H  H96  1  0.113600  0.405500  0.470800  1.0  0.1153
  H  H97  1  0.304400  0.626900  0.911200  1.0  0.1114
  H  H98  1  0.493800  0.801400  0.874900  1.0  0.1232
  H  H99  1  0.476000  0.700100  0.843200  1.0  0.111
  H  H100  1  0.444500  0.878000  0.923500  1.0  0.1103
  H  H101  1  0.285900  0.800700  0.996000  1.0  0.1071
  H  H102  1  0.273600  0.697700  0.964800  1.0  0.1241
  H  H103  1  0.512800  0.365500  0.932800  1.0  0.1082
  H  H104  1  0.512600  0.278600  0.974800  1.0  0.1264
  H  H105  1  0.308200  0.273000  0.859600  1.0  0.1117
  H  H106  1  0.448900  0.164300  0.990900  1.0  0.1004
  H  H107  1  0.247800  0.069600  0.916700  1.0  0.0997
  H  H108  1  0.243200  0.159400  0.876400  1.0  0.132
  H  H109  1  0.535500  0.938600  0.210700  1.0  0.1241
  H  H110  1  0.341600  0.115100  0.153300  1.0  0.116
  H  H111  1  0.380200  0.108000  0.218100  1.0  0.1126
  H  H112  1  0.545400  0.891200  0.148400  1.0  0.1238
  H  H113  1  0.504600  0.896600  0.084300  1.0  0.1072
  H  H114  1  0.354400  0.070900  0.090500  1.0  0.1203
  H  H115  1  0.343000  0.977300  0.935800  1.0  0.1143
  H  H116  1  0.394500  0.086500  0.031300  1.0  0.1155
  H  H117  1  0.392500  0.879000  0.034500  1.0  0.1179
  H  H118  1  0.619400  0.864000  0.447000  1.0  0.1146
  H  H119  1  0.671800  0.770700  0.485000  1.0  0.1307
  H  H120  1  0.747500  0.789600  0.364900  1.0  0.1194
  H  H121  1  0.836400  0.679300  0.374500  1.0  0.1226
  H  H122  1  0.885800  0.585700  0.411500  1.0  0.1031
  H  H123  1  0.763600  0.662200  0.494100  1.0  0.0984
  H  H124  1  0.871800  0.133400  0.412000  1.0  0.1178
  H  H125  1  0.640800  0.301000  0.377900  1.0  0.1167
  H  H126  1  0.625900  0.194600  0.349800  1.0  0.1132
  H  H127  1  0.958900  0.210300  0.459600  1.0  0.1317
  H  H128  1  0.970200  0.313900  0.490700  1.0  0.1168
  H  H129  1  0.732000  0.381200  0.424300  1.0  0.109
  H  H130  1  0.219800  0.601200  0.690200  1.0  0.1102
  H  H131  1  0.135600  0.618300  0.631200  1.0  0.122
  H  H132  1  0.063000  0.431300  0.703000  1.0  0.123
  H  H133  1  0.010500  0.578400  0.579100  1.0  0.1007
  H  H134  1  0.864900  0.405200  0.590700  1.0  0.1177
  H  H135  1  0.939200  0.395200  0.651900  1.0  0.1182
  H  H136  1  0.822700  0.486600  0.434300  1.0  0.1108
  H  H137  1  0.904500  0.388900  0.531800  1.0  0.1111
  H  H138  1  0.886400  0.594500  0.529200  1.0  0.1147
  H  H139  1  0.304400  0.873100  0.411200  1.0  0.1114
  H  H140  1  0.493800  0.698600  0.374900  1.0  0.1232
  H  H141  1  0.476000  0.799900  0.343200  1.0  0.111
  H  H142  1  0.444500  0.622000  0.423500  1.0  0.11
  H  H143  1  0.285900  0.699300  0.496000  1.0  0.1068
  H  H144  1  0.273600  0.802300  0.464800  1.0  0.1245
  H  H145  1  0.512800  0.134500  0.432800  1.0  0.1083
  H  H146  1  0.512600  0.221400  0.474800  1.0  0.1267
  H  H147  1  0.308200  0.227000  0.359600  1.0  0.1117
  H  H148  1  0.448900  0.335700  0.490900  1.0  0.1009
  H  H149  1  0.247800  0.430400  0.416700  1.0  0.1005
  H  H150  1  0.243200  0.340600  0.376400  1.0  0.132
  H  H151  1  0.535500  0.561400  0.710700  1.0  0.124
  H  H152  1  0.341600  0.384900  0.653300  1.0  0.1157
  H  H153  1  0.380200  0.392000  0.718100  1.0  0.112
  H  H154  1  0.545400  0.608800  0.648400  1.0  0.1238
  H  H155  1  0.504600  0.603400  0.584300  1.0  0.1068
  H  H156  1  0.354400  0.429100  0.590500  1.0  0.1202
  H  H157  1  0.343000  0.522700  0.435800  1.0  0.1144
  H  H158  1  0.394500  0.413500  0.531300  1.0  0.1163
  H  H159  1  0.392500  0.621000  0.534500  1.0  0.118
  H  H160  1  0.619400  0.636000  0.947000  1.0  0.1146
  H  H161  1  0.671800  0.729300  0.985000  1.0  0.1301
  H  H162  1  0.747500  0.710400  0.864900  1.0  0.1196
  H  H163  1  0.836400  0.820700  0.874500  1.0  0.1228
  H  H164  1  0.885800  0.914300  0.911500  1.0  0.1026
  H  H165  1  0.763600  0.837800  0.994100  1.0  0.0982
  H  H166  1  0.871800  0.366600  0.912000  1.0  0.1179
  H  H167  1  0.640800  0.199000  0.877900  1.0  0.1168
  H  H168  1  0.625900  0.305400  0.849800  1.0  0.1133
  H  H169  1  0.958900  0.289700  0.959600  1.0  0.1317
  H  H170  1  0.970200  0.186100  0.990700  1.0  0.1173
  H  H171  1  0.732000  0.118800  0.924300  1.0  0.1089
  H  H172  1  0.219800  0.898800  0.190200  1.0  0.1106
  H  H173  1  0.135600  0.881700  0.131200  1.0  0.1219
  H  H174  1  0.063000  0.068700  0.203000  1.0  0.1231
  H  H175  1  0.010500  0.921600  0.079100  1.0  0.1008
  H  H176  1  0.864900  0.094800  0.090700  1.0  0.1176
  H  H177  1  0.939200  0.104800  0.151900  1.0  0.1181
  H  H178  1  0.822700  0.013400  0.934300  1.0  0.1109
  H  H179  1  0.904500  0.111100  0.031800  1.0  0.1104
  H  H180  1  0.886400  0.905500  0.029200  1.0  0.1144
  C  C181  1  0.633600  0.090600  0.650100  1.0  0.7295
  C  C182  1  0.616000  0.154000  0.626360  1.0  -0.1149
  C  C183  1  0.658600  0.163200  0.596190  1.0  -0.0805
  C  C184  1  0.650100  0.224900  0.575300  1.0  0.0443
  C  C185  1  0.595800  0.278500  0.586880  1.0  0.0224
  C  C186  1  0.546200  0.266800  0.617880  1.0  -0.1243
  C  C187  1  0.556700  0.207100  0.636490  1.0  -0.017
  C  C188  1  0.590400  0.341400  0.568200  1.0  -0.0904
  C  C189  1  0.635100  0.351100  0.537920  1.0  0.0255
  C  C190  1  0.685100  0.295400  0.525480  1.0  -0.0999
  C  C191  1  0.692200  0.234300  0.543870  1.0  -0.0923
  C  C192  1  0.592100  0.886400  0.635090  1.0  0.7283
  C  C193  1  0.590800  0.827900  0.608690  1.0  -0.1286
  C  C194  1  0.529300  0.828100  0.573310  1.0  -0.0525
  C  C195  1  0.529300  0.776800  0.548280  1.0  -0.1703
  C  C196  1  0.591600  0.720500  0.556550  1.0  0.0521
  C  C197  1  0.653700  0.718300  0.591730  1.0  0.0534
  C  C198  1  0.650700  0.773800  0.617030  1.0  -0.1185
  C  C199  1  0.591000  0.663400  0.532690  1.0  -0.1708
  C  C200  1  0.646100  0.606400  0.542510  1.0  0.0103
  C  C201  1  0.710700  0.607300  0.577020  1.0  -0.1416
  C  C202  1  0.714000  0.660400  0.600680  1.0  -0.1305
  C  C203  1  0.511400  0.518200  0.238090  1.0  0.7299
  C  C204  1  0.536700  0.523000  0.280720  1.0  -0.1391
  C  C205  1  0.503300  0.474200  0.301220  1.0  -0.0925
  C  C206  1  0.526200  0.475700  0.341030  1.0  0.0252
  C  C207  1  0.584600  0.530100  0.357290  1.0  -0.0149
  C  C208  1  0.619000  0.579100  0.335460  1.0  -0.0956
  C  C209  1  0.595600  0.575100  0.297060  1.0  -0.0295
  C  C210  1  0.493900  0.427400  0.362700  1.0  -0.1218
  C  C211  1  0.518500  0.430900  0.401010  1.0  -0.1263
  C  C212  1  0.576100  0.483100  0.418980  1.0  -0.0078
  C  C213  1  0.608500  0.534100  0.397920  1.0  -0.0914
  C  C214  1  0.630200  0.419100  0.518230  1.0  0.0064
  C  C215  1  0.642600  0.479100  0.537850  1.0  -0.1297
  C  C216  1  0.634500  0.543400  0.520020  1.0  0.0234
  C  C217  1  0.612500  0.543700  0.481360  1.0  -0.1364
  C  C218  1  0.600300  0.483100  0.460370  1.0  0.0148
  C  C219  1  0.611900  0.420700  0.479140  1.0  -0.1239
  C  C220  1  0.350900  0.397900  0.120390  1.0  0.6854
  C  C221  1  0.317700  0.336200  0.097640  1.0  -0.1493
  C  C222  1  0.342500  0.329700  0.061680  1.0  -0.0302
  C  C223  1  0.312000  0.274200  0.039150  1.0  -0.1302
  C  C224  1  0.256500  0.222800  0.052390  1.0  0.0449
  C  C225  1  0.235800  0.228100  0.088780  1.0  0.0492
  C  C226  1  0.267200  0.285900  0.110690  1.0  -0.0701
  C  C227  1  0.180400  0.175900  0.101430  1.0  -0.0689
  C  C228  1  0.150500  0.120500  0.079350  1.0  -0.124
  C  C229  1  0.172600  0.114400  0.043680  1.0  0.0155
  C  C230  1  0.223300  0.165400  0.030500  1.0  -0.1084
  C  C231  1  0.256800  0.586600  0.142050  1.0  0.6945
  C  C232  1  0.251000  0.654100  0.122500  1.0  -0.1471
  C  C233  1  0.174800  0.667900  0.094630  1.0  -0.0891
  C  C234  1  0.164200  0.730600  0.075940  1.0  0.0575
  C  C235  1  0.232700  0.781800  0.086400  1.0  0.041
  C  C236  1  0.312100  0.767000  0.114910  1.0  -0.1279
  C  C237  1  0.320300  0.704200  0.131810  1.0  -0.0257
  C  C238  1  0.088200  0.744300  0.047350  1.0  -0.1263
  C  C239  1  0.080900  0.806400  0.029190  1.0  -0.1025
  C  C240  1  0.148200  0.859500  0.039480  1.0  0.0619
  C  C241  1  0.222600  0.846300  0.068080  1.0  -0.1285
  C  C242  1  0.791100  0.005500  0.759520  1.0  0.6826
  C  C243  1  0.849100  0.014900  0.797170  1.0  -0.1628
  C  C244  1  0.829300  0.070100  0.819360  1.0  -0.024
  C  C245  1  0.878900  0.080300  0.854530  1.0  -0.1153
  C  C246  1  0.952400  0.033600  0.869580  1.0  0.0367
  C  C247  1  0.974000  0.977900  0.847200  1.0  0.0612
  C  C248  1  0.922700  0.968800  0.811690  1.0  -0.0823
  C  C249  1  0.001300  0.039800  0.906560  1.0  -0.1455
  C  C250  1  0.064600  0.991900  0.921880  1.0  0.0233
  C  C251  1  0.088200  0.937700  0.899290  1.0  -0.1488
  C  C252  1  0.043600  0.931700  0.862890  1.0  -0.1398
  C  C253  1  0.148800  0.050100  0.021490  1.0  -0.0032
  C  C254  1  0.157900  0.987700  0.039480  1.0  -0.145
  C  C255  1  0.139100  0.926100  0.020190  1.0  0.0335
  C  C256  1  0.109500  0.930200  0.981820  1.0  -0.1294
  C  C257  1  0.099600  0.992100  0.962630  1.0  0.0165
  C  C258  1  0.119700  0.051500  0.983190  1.0  -0.1325
  C  C259  1  0.633600  0.409400  0.150100  1.0  0.7296
  C  C260  1  0.616000  0.346000  0.126360  1.0  -0.1157
  C  C261  1  0.658600  0.336800  0.096190  1.0  -0.0803
  C  C262  1  0.650100  0.275100  0.075300  1.0  0.0449
  C  C263  1  0.595800  0.221500  0.086880  1.0  0.022
  C  C264  1  0.546200  0.233200  0.117880  1.0  -0.1231
  C  C265  1  0.556700  0.292900  0.136490  1.0  -0.0171
  C  C266  1  0.590400  0.158600  0.068200  1.0  -0.0896
  C  C267  1  0.635100  0.148900  0.037920  1.0  0.025
  C  C268  1  0.685100  0.204600  0.025480  1.0  -0.1007
  C  C269  1  0.692200  0.265700  0.043870  1.0  -0.0914
  C  C270  1  0.592100  0.613600  0.135090  1.0  0.7293
  C  C271  1  0.590800  0.672100  0.108690  1.0  -0.1292
  C  C272  1  0.529300  0.671900  0.073310  1.0  -0.0523
  C  C273  1  0.529300  0.723200  0.048280  1.0  -0.1688
  C  C274  1  0.591600  0.779500  0.056550  1.0  0.051
  C  C275  1  0.653700  0.781700  0.091730  1.0  0.0542
  C  C276  1  0.650700  0.726200  0.117030  1.0  -0.1188
  C  C277  1  0.591000  0.836600  0.032690  1.0  -0.1703
  C  C278  1  0.646100  0.893600  0.042510  1.0  0.0108
  C  C279  1  0.710700  0.892700  0.077020  1.0  -0.1415
  C  C280  1  0.714000  0.839600  0.100680  1.0  -0.1306
  C  C281  1  0.511400  0.981800  0.738090  1.0  0.73
  C  C282  1  0.536700  0.977000  0.780720  1.0  -0.1402
  C  C283  1  0.503300  0.025800  0.801220  1.0  -0.0932
  C  C284  1  0.526200  0.024300  0.841030  1.0  0.0249
  C  C285  1  0.584600  0.969900  0.857290  1.0  -0.0145
  C  C286  1  0.619000  0.920900  0.835460  1.0  -0.0946
  C  C287  1  0.595600  0.924900  0.797060  1.0  -0.0313
  C  C288  1  0.493900  0.072600  0.862700  1.0  -0.1216
  C  C289  1  0.518500  0.069100  0.901010  1.0  -0.1276
  C  C290  1  0.576100  0.016900  0.918980  1.0  -0.0083
  C  C291  1  0.608500  0.965900  0.897920  1.0  -0.0889
  C  C292  1  0.630200  0.080900  0.018230  1.0  0.0072
  C  C293  1  0.642600  0.020900  0.037850  1.0  -0.1296
  C  C294  1  0.634500  0.956600  0.020020  1.0  0.0231
  C  C295  1  0.612500  0.956300  0.981360  1.0  -0.1371
  C  C296  1  0.600300  0.016900  0.960370  1.0  0.0146
  C  C297  1  0.611900  0.079300  0.979140  1.0  -0.1235
  C  C298  1  0.350900  0.102100  0.620390  1.0  0.6856
  C  C299  1  0.317700  0.163800  0.597640  1.0  -0.1502
  C  C300  1  0.342500  0.170300  0.561680  1.0  -0.0302
  C  C301  1  0.312000  0.225800  0.539150  1.0  -0.1299
  C  C302  1  0.256500  0.277200  0.552390  1.0  0.0442
  C  C303  1  0.235800  0.271900  0.588780  1.0  0.0485
  C  C304  1  0.267200  0.214100  0.610690  1.0  -0.0703
  C  C305  1  0.180400  0.324100  0.601430  1.0  -0.0687
  C  C306  1  0.150500  0.379500  0.579350  1.0  -0.1242
  C  C307  1  0.172600  0.385600  0.543680  1.0  0.0148
  C  C308  1  0.223300  0.334600  0.530500  1.0  -0.1071
  C  C309  1  0.256800  0.913400  0.642050  1.0  0.6927
  C  C310  1  0.251000  0.845900  0.622500  1.0  -0.1486
  C  C311  1  0.174800  0.832100  0.594630  1.0  -0.0911
  C  C312  1  0.164200  0.769400  0.575940  1.0  0.058
  C  C313  1  0.232700  0.718200  0.586400  1.0  0.041
  C  C314  1  0.312100  0.733000  0.614910  1.0  -0.128
  C  C315  1  0.320300  0.795800  0.631810  1.0  -0.0256
  C  C316  1  0.088200  0.755700  0.547350  1.0  -0.1261
  C  C317  1  0.080900  0.693600  0.529190  1.0  -0.1036
  C  C318  1  0.148200  0.640500  0.539480  1.0  0.0632
  C  C319  1  0.222600  0.653700  0.568080  1.0  -0.1267
  C  C320  1  0.791100  0.494500  0.259520  1.0  0.6824
  C  C321  1  0.849100  0.485100  0.297170  1.0  -0.1621
  C  C322  1  0.829300  0.429900  0.319360  1.0  -0.023
  C  C323  1  0.878900  0.419700  0.354530  1.0  -0.1168
  C  C324  1  0.952400  0.466400  0.369580  1.0  0.0357
  C  C325  1  0.974000  0.522100  0.347200  1.0  0.061
  C  C326  1  0.922700  0.531200  0.311690  1.0  -0.0833
  C  C327  1  0.001300  0.460200  0.406560  1.0  -0.1466
  C  C328  1  0.064600  0.508100  0.421880  1.0  0.0232
  C  C329  1  0.088200  0.562300  0.399290  1.0  -0.1494
  C  C330  1  0.043600  0.568300  0.362890  1.0  -0.1389
  C  C331  1  0.148800  0.449900  0.521490  1.0  -0.0037
  C  C332  1  0.157900  0.512300  0.539480  1.0  -0.1451
  C  C333  1  0.139100  0.573900  0.520190  1.0  0.0331
  C  C334  1  0.109500  0.569800  0.481820  1.0  -0.129
  C  C335  1  0.099600  0.507900  0.462630  1.0  0.0166
  C  C336  1  0.119700  0.448500  0.483190  1.0  -0.1333
  C  C337  1  0.366400  0.590600  0.849900  1.0  0.7305
  C  C338  1  0.384000  0.654000  0.873640  1.0  -0.1139
  C  C339  1  0.341400  0.663200  0.903810  1.0  -0.0814
  C  C340  1  0.349900  0.724900  0.924700  1.0  0.0457
  C  C341  1  0.404200  0.778500  0.913120  1.0  0.0218
  C  C342  1  0.453800  0.766800  0.882120  1.0  -0.1267
  C  C343  1  0.443300  0.707100  0.863510  1.0  -0.0174
  C  C344  1  0.409600  0.841400  0.931800  1.0  -0.0914
  C  C345  1  0.364900  0.851100  0.962080  1.0  0.0254
  C  C346  1  0.314900  0.795400  0.974520  1.0  -0.0986
  C  C347  1  0.307800  0.734300  0.956130  1.0  -0.0917
  C  C348  1  0.407900  0.386400  0.864910  1.0  0.7275
  C  C349  1  0.409200  0.327900  0.891310  1.0  -0.128
  C  C350  1  0.470700  0.328100  0.926690  1.0  -0.0536
  C  C351  1  0.470700  0.276800  0.951720  1.0  -0.1707
  C  C352  1  0.408400  0.220500  0.943450  1.0  0.051
  C  C353  1  0.346300  0.218300  0.908270  1.0  0.0552
  C  C354  1  0.349300  0.273800  0.882970  1.0  -0.1228
  C  C355  1  0.409000  0.163400  0.967310  1.0  -0.1694
  C  C356  1  0.353900  0.106400  0.957490  1.0  0.0094
  C  C357  1  0.289300  0.107300  0.922980  1.0  -0.1413
  C  C358  1  0.286000  0.160400  0.899320  1.0  -0.132
  C  C359  1  0.488600  0.018200  0.261910  1.0  0.7275
  C  C360  1  0.463300  0.023000  0.219280  1.0  -0.1382
  C  C361  1  0.496700  0.974200  0.198780  1.0  -0.0933
  C  C362  1  0.473800  0.975700  0.158970  1.0  0.0242
  C  C363  1  0.415400  0.030100  0.142710  1.0  -0.0153
  C  C364  1  0.381000  0.079100  0.164540  1.0  -0.0961
  C  C365  1  0.404400  0.075100  0.202940  1.0  -0.0311
  C  C366  1  0.506100  0.927400  0.137300  1.0  -0.1209
  C  C367  1  0.481500  0.930900  0.098990  1.0  -0.1274
  C  C368  1  0.423900  0.983100  0.081020  1.0  -0.0086
  C  C369  1  0.391500  0.034100  0.102080  1.0  -0.0933
  C  C370  1  0.369800  0.919100  0.981770  1.0  0.0055
  C  C371  1  0.357400  0.979100  0.962150  1.0  -0.1299
  C  C372  1  0.365500  0.043400  0.979980  1.0  0.0228
  C  C373  1  0.387500  0.043700  0.018640  1.0  -0.1362
  C  C374  1  0.399700  0.983100  0.039630  1.0  0.0146
  C  C375  1  0.388100  0.920700  0.020860  1.0  -0.1238
  C  C376  1  0.649100  0.897900  0.379610  1.0  0.6841
  C  C377  1  0.682300  0.836200  0.402360  1.0  -0.1491
  C  C378  1  0.657500  0.829700  0.438320  1.0  -0.0287
  C  C379  1  0.688000  0.774200  0.460850  1.0  -0.1337
  C  C380  1  0.743500  0.722800  0.447610  1.0  0.0434
  C  C381  1  0.764200  0.728100  0.411220  1.0  0.0465
  C  C382  1  0.732800  0.785900  0.389310  1.0  -0.0675
  C  C383  1  0.819600  0.675900  0.398570  1.0  -0.0702
  C  C384  1  0.849500  0.620500  0.420650  1.0  -0.1248
  C  C385  1  0.827400  0.614400  0.456320  1.0  0.0173
  C  C386  1  0.776700  0.665400  0.469500  1.0  -0.1078
  C  C387  1  0.743200  0.086600  0.357950  1.0  0.694
  C  C388  1  0.749000  0.154100  0.377500  1.0  -0.1479
  C  C389  1  0.825200  0.167900  0.405370  1.0  -0.0916
  C  C390  1  0.835800  0.230600  0.424060  1.0  0.0578
  C  C391  1  0.767300  0.281800  0.413600  1.0  0.0405
  C  C392  1  0.687900  0.267000  0.385090  1.0  -0.1277
  C  C393  1  0.679700  0.204200  0.368190  1.0  -0.0265
  C  C394  1  0.911800  0.244300  0.452650  1.0  -0.126
  C  C395  1  0.919100  0.306400  0.470810  1.0  -0.1027
  C  C396  1  0.851800  0.359500  0.460520  1.0  0.0624
  C  C397  1  0.777400  0.346300  0.431920  1.0  -0.1293
  C  C398  1  0.208900  0.505500  0.740480  1.0  0.6817
  C  C399  1  0.150900  0.514900  0.702830  1.0  -0.1621
  C  C400  1  0.170700  0.570100  0.680640  1.0  -0.0225
  C  C401  1  0.121100  0.580300  0.645470  1.0  -0.1161
  C  C402  1  0.047600  0.533600  0.630420  1.0  0.0351
  C  C403  1  0.026000  0.477900  0.652800  1.0  0.0634
  C  C404  1  0.077300  0.468800  0.688310  1.0  -0.0822
  C  C405  1  0.998700  0.539800  0.593440  1.0  -0.1471
  C  C406  1  0.935400  0.491900  0.578120  1.0  0.0216
  C  C407  1  0.911800  0.437700  0.600710  1.0  -0.1496
  C  C408  1  0.956400  0.431700  0.637110  1.0  -0.1409
  C  C409  1  0.851200  0.550100  0.478510  1.0  -0.0027
  C  C410  1  0.842100  0.487700  0.460520  1.0  -0.1453
  C  C411  1  0.860900  0.426100  0.479810  1.0  0.0338
  C  C412  1  0.890500  0.430200  0.518180  1.0  -0.1275
  C  C413  1  0.900400  0.492100  0.537370  1.0  0.0166
  C  C414  1  0.880300  0.551500  0.516810  1.0  -0.1324
  C  C415  1  0.366400  0.909400  0.349900  1.0  0.7306
  C  C416  1  0.384000  0.846000  0.373640  1.0  -0.1134
  C  C417  1  0.341400  0.836800  0.403810  1.0  -0.0823
  C  C418  1  0.349900  0.775100  0.424700  1.0  0.0467
  C  C419  1  0.404200  0.721500  0.413120  1.0  0.0219
  C  C420  1  0.453800  0.733200  0.382120  1.0  -0.1269
  C  C421  1  0.443300  0.792900  0.363510  1.0  -0.0174
  C  C422  1  0.409600  0.658600  0.431800  1.0  -0.0907
  C  C423  1  0.364900  0.648900  0.462080  1.0  0.0246
  C  C424  1  0.314900  0.704600  0.474520  1.0  -0.0987
  C  C425  1  0.307800  0.765700  0.456130  1.0  -0.0932
  C  C426  1  0.407900  0.113600  0.364910  1.0  0.7283
  C  C427  1  0.409200  0.172100  0.391310  1.0  -0.1289
  C  C428  1  0.470700  0.171900  0.426690  1.0  -0.0529
  C  C429  1  0.470700  0.223200  0.451720  1.0  -0.1689
  C  C430  1  0.408400  0.279500  0.443450  1.0  0.0501
  C  C431  1  0.346300  0.281700  0.408270  1.0  0.0544
  C  C432  1  0.349300  0.226200  0.382970  1.0  -0.1223
  C  C433  1  0.409000  0.336600  0.467310  1.0  -0.1704
  C  C434  1  0.353900  0.393600  0.457490  1.0  0.0092
  C  C435  1  0.289300  0.392700  0.422980  1.0  -0.1411
  C  C436  1  0.286000  0.339600  0.399320  1.0  -0.1316
  C  C437  1  0.488600  0.481800  0.761910  1.0  0.7276
  C  C438  1  0.463300  0.477000  0.719280  1.0  -0.1381
  C  C439  1  0.496700  0.525800  0.698780  1.0  -0.0938
  C  C440  1  0.473800  0.524300  0.658970  1.0  0.0244
  C  C441  1  0.415400  0.469900  0.642710  1.0  -0.0155
  C  C442  1  0.381000  0.420900  0.664540  1.0  -0.0954
  C  C443  1  0.404400  0.424900  0.702940  1.0  -0.0316
  C  C444  1  0.506100  0.572600  0.637300  1.0  -0.1209
  C  C445  1  0.481500  0.569100  0.598990  1.0  -0.128
  C  C446  1  0.423900  0.516900  0.581020  1.0  -0.0089
  C  C447  1  0.391500  0.465900  0.602080  1.0  -0.0908
  C  C448  1  0.369800  0.580900  0.481770  1.0  0.0066
  C  C449  1  0.357400  0.520900  0.462150  1.0  -0.1302
  C  C450  1  0.365500  0.456600  0.479980  1.0  0.0222
  C  C451  1  0.387500  0.456300  0.518640  1.0  -0.137
  C  C452  1  0.399700  0.516900  0.539630  1.0  0.0144
  C  C453  1  0.388100  0.579300  0.520860  1.0  -0.1237
  C  C454  1  0.649100  0.602100  0.879610  1.0  0.6849
  C  C455  1  0.682300  0.663800  0.902360  1.0  -0.1492
  C  C456  1  0.657500  0.670300  0.938320  1.0  -0.0298
  C  C457  1  0.688000  0.725800  0.960850  1.0  -0.1348
  C  C458  1  0.743500  0.777200  0.947610  1.0  0.0439
  C  C459  1  0.764200  0.771900  0.911220  1.0  0.0452
  C  C460  1  0.732800  0.714100  0.889310  1.0  -0.0672
  C  C461  1  0.819600  0.824100  0.898570  1.0  -0.0714
  C  C462  1  0.849500  0.879500  0.920650  1.0  -0.1252
  C  C463  1  0.827400  0.885600  0.956320  1.0  0.0162
  C  C464  1  0.776700  0.834600  0.969500  1.0  -0.1059
  C  C465  1  0.743200  0.413400  0.857950  1.0  0.6934
  C  C466  1  0.749000  0.345900  0.877500  1.0  -0.147
  C  C467  1  0.825200  0.332100  0.905370  1.0  -0.0922
  C  C468  1  0.835800  0.269400  0.924060  1.0  0.0579
  C  C469  1  0.767300  0.218200  0.913600  1.0  0.0406
  C  C470  1  0.687900  0.233000  0.885090  1.0  -0.1283
  C  C471  1  0.679700  0.295800  0.868190  1.0  -0.0263
  C  C472  1  0.911800  0.255700  0.952650  1.0  -0.1246
  C  C473  1  0.919100  0.193600  0.970810  1.0  -0.1025
  C  C474  1  0.851800  0.140500  0.960520  1.0  0.064
  C  C475  1  0.777400  0.153700  0.931920  1.0  -0.128
  C  C476  1  0.208900  0.994500  0.240480  1.0  0.6814
  C  C477  1  0.150900  0.985100  0.202830  1.0  -0.1625
  C  C478  1  0.170700  0.929900  0.180640  1.0  -0.0238
  C  C479  1  0.121100  0.919700  0.145470  1.0  -0.1176
  C  C480  1  0.047600  0.966400  0.130420  1.0  0.0361
  C  C481  1  0.026000  0.022100  0.152800  1.0  0.0644
  C  C482  1  0.077300  0.031200  0.188310  1.0  -0.0824
  C  C483  1  0.998700  0.960200  0.093440  1.0  -0.1469
  C  C484  1  0.935400  0.008100  0.078120  1.0  0.0221
  C  C485  1  0.911800  0.062300  0.100710  1.0  -0.1521
  C  C486  1  0.956400  0.068300  0.137110  1.0  -0.1415
  C  C487  1  0.851200  0.949900  0.978510  1.0  -0.0029
  C  C488  1  0.842100  0.012300  0.960520  1.0  -0.1453
  C  C489  1  0.860900  0.073900  0.979810  1.0  0.0333
  C  C490  1  0.890500  0.069800  0.018180  1.0  -0.1275
  C  C491  1  0.900400  0.007900  0.037370  1.0  0.0169
  C  C492  1  0.880300  0.948500  0.016810  1.0  -0.1333
  O  O493  1  0.577600  0.075800  0.671930  1.0  -0.6813
  O  O494  1  0.707200  0.055000  0.648200  1.0  -0.6091
  O  O495  1  0.663600  0.888100  0.661160  1.0  -0.5878
  O  O496  1  0.526200  0.929200  0.629900  1.0  -0.6593
  O  O497  1  0.553200  0.556400  0.218650  1.0  -0.6466
  O  O498  1  0.446600  0.475700  0.224360  1.0  -0.603
  O  O499  1  0.325600  0.406050  0.151740  1.0  -0.6849
  O  O500  1  0.405100  0.439710  0.108150  1.0  -0.564
  O  O501  1  0.333333  0.577100  0.165720  1.0  -0.6698
  O  O502  1  0.190100  0.544800  0.135240  1.0  -0.6007
  O  O503  1  0.809500  0.953300  0.739810  1.0  -0.5835
  O  O504  1  0.727900  0.047000  0.748190  1.0  -0.5786
  O  O505  1  0.577600  0.424200  0.171930  1.0  -0.6809
  O  O506  1  0.707200  0.445000  0.148200  1.0  -0.6099
  O  O507  1  0.663600  0.611900  0.161160  1.0  -0.5875
  O  O508  1  0.526200  0.570800  0.129900  1.0  -0.6594
  O  O509  1  0.553200  0.943600  0.718650  1.0  -0.646
  O  O510  1  0.446600  0.024300  0.724360  1.0  -0.6038
  O  O511  1  0.325600  0.093950  0.651740  1.0  -0.6846
  O  O512  1  0.405100  0.060290  0.608150  1.0  -0.5651
  O  O513  1  0.333333  0.922900  0.665720  1.0  -0.6698
  O  O514  1  0.190100  0.955200  0.635240  1.0  -0.601
  O  O515  1  0.809500  0.546700  0.239810  1.0  -0.5827
  O  O516  1  0.727900  0.453000  0.248190  1.0  -0.5811
  O  O517  1  0.422400  0.575800  0.828070  1.0  -0.6829
  O  O518  1  0.292800  0.555000  0.851800  1.0  -0.6117
  O  O519  1  0.336400  0.388100  0.838840  1.0  -0.5871
  O  O520  1  0.473800  0.429200  0.870100  1.0  -0.6578
  O  O521  1  0.446800  0.056400  0.281350  1.0  -0.6452
  O  O522  1  0.553400  0.975700  0.275640  1.0  -0.6074
  O  O523  1  0.674400  0.906050  0.348260  1.0  -0.6853
  O  O524  1  0.594900  0.939710  0.391850  1.0  -0.5628
  O  O525  1  0.666667  0.077100  0.334280  1.0  -0.6698
  O  O526  1  0.809900  0.044800  0.364760  1.0  -0.6016
  O  O527  1  0.190500  0.453300  0.760190  1.0  -0.5817
  O  O528  1  0.272100  0.547000  0.751810  1.0  -0.5784
  O  O529  1  0.422400  0.924200  0.328070  1.0  -0.6833
  O  O530  1  0.292800  0.945000  0.351800  1.0  -0.6119
  O  O531  1  0.336400  0.111900  0.338840  1.0  -0.5868
  O  O532  1  0.473800  0.070800  0.370100  1.0  -0.6571
  O  O533  1  0.446800  0.443600  0.781350  1.0  -0.6449
  O  O534  1  0.553400  0.524300  0.775640  1.0  -0.606
  O  O535  1  0.674400  0.593950  0.848260  1.0  -0.6857
  O  O536  1  0.594900  0.560290  0.891850  1.0  -0.5645
  O  O537  1  0.666667  0.422900  0.834280  1.0  -0.6697
  O  O538  1  0.809900  0.455200  0.864760  1.0  -0.6019
  O  O539  1  0.190500  0.046700  0.260190  1.0  -0.5797
  O  O540  1  0.272100  0.953000  0.251810  1.0  -0.5809
