# generated using pymatgen
data_TiH12(C6O)3
_symmetry_space_group_name_H-M   'P 1'
_cell_length_a   10.13700000
_cell_length_b   15.74500000
_cell_length_c   15.98800000
_cell_angle_alpha   90.00000000
_cell_angle_beta   90.00000000
_cell_angle_gamma   107.76000000
_symmetry_Int_Tables_number   1
_chemical_formula_structural   TiH12(C6O)3
_chemical_formula_sum   'Ti4 H48 C72 O12'
_cell_volume   2430.18564835
_cell_formula_units_Z   4
loop_
 _symmetry_equiv_pos_site_id
 _symmetry_equiv_pos_as_xyz
  1  'x, y, z'
loop_
 _atom_site_type_symbol
 _atom_site_label
 _atom_site_symmetry_multiplicity
 _atom_site_fract_x
 _atom_site_fract_y
 _atom_site_fract_z
 _atom_site_occupancy
 _atom_site_charge
  Ti  Ti1  1  0.617800  0.592400  0.038080  1.0  1.5154
  Ti  Ti2  1  0.882200  0.907600  0.538080  1.0  1.5405
  Ti  Ti3  1  0.382200  0.407600  0.961920  1.0  1.5405
  Ti  Ti4  1  0.117800  0.092400  0.461920  1.0  1.5161
  H  H5  1  0.703000  0.358800  0.986500  1.0  0.1192
  H  H6  1  0.810200  0.274400  0.065500  1.0  0.1124
  H  H7  1  0.807400  0.153600  0.141600  1.0  0.1226
  H  H8  1  0.914300  0.069400  0.220900  1.0  0.1094
  H  H9  1  0.967600  0.245400  0.409200  1.0  0.1095
  H  H10  1  0.860800  0.329300  0.330600  1.0  0.1177
  H  H11  1  0.662800  0.349800  0.278200  1.0  0.1129
  H  H12  1  0.549400  0.431800  0.198400  1.0  0.1057
  H  H13  1  0.817000  0.782900  0.120800  1.0  0.1066
  H  H14  1  0.979800  0.921100  0.120200  1.0  0.1193
  H  H15  1  0.851400  0.966800  0.893600  1.0  0.1027
  H  H16  1  0.699200  0.829100  0.889000  1.0  0.0985
  H  H17  1  0.797000  0.141200  0.486500  1.0  0.1198
  H  H18  1  0.689800  0.225600  0.565500  1.0  0.1124
  H  H19  1  0.692600  0.346400  0.641600  1.0  0.1227
  H  H20  1  0.585700  0.430600  0.720900  1.0  0.1099
  H  H21  1  0.532400  0.254600  0.909200  1.0  0.1098
  H  H22  1  0.639200  0.170700  0.830600  1.0  0.1179
  H  H23  1  0.837200  0.150200  0.778200  1.0  0.1132
  H  H24  1  0.950600  0.068200  0.698400  1.0  0.1057
  H  H25  1  0.683000  0.717100  0.620800  1.0  0.1069
  H  H26  1  0.520200  0.578900  0.620200  1.0  0.1194
  H  H27  1  0.648600  0.533200  0.393600  1.0  0.1021
  H  H28  1  0.800800  0.670900  0.389000  1.0  0.0987
  H  H29  1  0.297000  0.641200  0.013500  1.0  0.1205
  H  H30  1  0.189800  0.725600  0.934500  1.0  0.1122
  H  H31  1  0.192600  0.846400  0.858400  1.0  0.1227
  H  H32  1  0.085700  0.930600  0.779100  1.0  0.1097
  H  H33  1  0.032400  0.754600  0.590800  1.0  0.1092
  H  H34  1  0.139200  0.670700  0.669400  1.0  0.1178
  H  H35  1  0.337200  0.650200  0.721800  1.0  0.1135
  H  H36  1  0.450600  0.568200  0.801600  1.0  0.1061
  H  H37  1  0.183000  0.217100  0.879200  1.0  0.1071
  H  H38  1  0.020200  0.078900  0.879800  1.0  0.1194
  H  H39  1  0.148600  0.033200  0.106400  1.0  0.1021
  H  H40  1  0.300800  0.170900  0.111000  1.0  0.0987
  H  H41  1  0.203000  0.858800  0.513500  1.0  0.1195
  H  H42  1  0.310200  0.774400  0.434500  1.0  0.1125
  H  H43  1  0.307400  0.653600  0.358400  1.0  0.1223
  H  H44  1  0.414300  0.569400  0.279100  1.0  0.1095
  H  H45  1  0.467600  0.745400  0.090800  1.0  0.1088
  H  H46  1  0.360800  0.829300  0.169400  1.0  0.1179
  H  H47  1  0.162800  0.849800  0.221800  1.0  0.1137
  H  H48  1  0.049400  0.931800  0.301600  1.0  0.1063
  H  H49  1  0.317000  0.282900  0.379200  1.0  0.1067
  H  H50  1  0.479800  0.421100  0.379800  1.0  0.1188
  H  H51  1  0.351400  0.466800  0.606400  1.0  0.1022
  H  H52  1  0.199200  0.329100  0.611000  1.0  0.0989
  C  C53  1  0.617800  0.405400  0.086200  1.0  0.3293
  C  C54  1  0.694500  0.357200  0.045600  1.0  -0.1767
  C  C55  1  0.758000  0.306600  0.093000  1.0  -0.1274
  C  C56  1  0.746400  0.301800  0.180200  1.0  0.0287
  C  C57  1  0.816100  0.248000  0.228600  1.0  0.0437
  C  C58  1  0.837400  0.172200  0.196800  1.0  -0.155
  C  C59  1  0.903000  0.122200  0.244000  1.0  -0.1275
  C  C60  1  0.951400  0.147600  0.322600  1.0  0.328
  C  C61  1  0.934300  0.226000  0.354800  1.0  -0.2296
  C  C62  1  0.869500  0.275500  0.308200  1.0  -0.1458
  C  C63  1  0.670400  0.350400  0.218900  1.0  -0.1499
  C  C64  1  0.604200  0.400700  0.171000  1.0  -0.1415
  C  C65  1  0.736300  0.785300  0.004000  1.0  0.2798
  C  C66  1  0.825800  0.818800  0.072200  1.0  -0.1988
  C  C67  1  0.925200  0.901500  0.071700  1.0  -0.1781
  C  C68  1  0.947200  0.957000  0.001200  1.0  0.0164
  C  C69  1  0.851100  0.927400  0.938600  1.0  -0.1196
  C  C70  1  0.755800  0.846000  0.937000  1.0  -0.154
  C  C71  1  0.882200  0.094600  0.586200  1.0  0.3278
  C  C72  1  0.805500  0.142800  0.545600  1.0  -0.1773
  C  C73  1  0.742000  0.193400  0.593000  1.0  -0.128
  C  C74  1  0.753600  0.198200  0.680200  1.0  0.0283
  C  C75  1  0.683900  0.252000  0.728600  1.0  0.0432
  C  C76  1  0.662600  0.327800  0.696800  1.0  -0.1554
  C  C77  1  0.597000  0.377800  0.744000  1.0  -0.1282
  C  C78  1  0.548600  0.352400  0.822600  1.0  0.3278
  C  C79  1  0.565700  0.274000  0.854800  1.0  -0.2315
  C  C80  1  0.630500  0.224500  0.808200  1.0  -0.1445
  C  C81  1  0.829600  0.149600  0.718900  1.0  -0.1497
  C  C82  1  0.895800  0.099300  0.671000  1.0  -0.1407
  C  C83  1  0.763700  0.714700  0.504000  1.0  0.2798
  C  C84  1  0.674200  0.681200  0.572200  1.0  -0.201
  C  C85  1  0.574800  0.598500  0.571700  1.0  -0.1794
  C  C86  1  0.552800  0.543000  0.501200  1.0  0.0162
  C  C87  1  0.648900  0.572600  0.438600  1.0  -0.1209
  C  C88  1  0.744200  0.654000  0.437000  1.0  -0.1545
  C  C89  1  0.382200  0.594600  0.913800  1.0  0.3275
  C  C90  1  0.305500  0.642800  0.954400  1.0  -0.1787
  C  C91  1  0.242000  0.693400  0.907000  1.0  -0.1268
  C  C92  1  0.253600  0.698200  0.819800  1.0  0.0286
  C  C93  1  0.183900  0.752000  0.771400  1.0  0.043
  C  C94  1  0.162600  0.827800  0.803200  1.0  -0.1576
  C  C95  1  0.097000  0.877800  0.756000  1.0  -0.1281
  C  C96  1  0.048600  0.852400  0.677400  1.0  0.3276
  C  C97  1  0.065700  0.774000  0.645200  1.0  -0.2329
  C  C98  1  0.130500  0.724500  0.691800  1.0  -0.1444
  C  C99  1  0.329600  0.649600  0.781100  1.0  -0.15
  C  C100  1  0.395800  0.599300  0.829000  1.0  -0.1403
  C  C101  1  0.263700  0.214700  0.996000  1.0  0.2793
  C  C102  1  0.174200  0.181200  0.927800  1.0  -0.1971
  C  C103  1  0.074800  0.098500  0.928300  1.0  -0.1799
  C  C104  1  0.052800  0.043000  0.998800  1.0  0.0164
  C  C105  1  0.148900  0.072600  0.061400  1.0  -0.118
  C  C106  1  0.244200  0.154000  0.063000  1.0  -0.154
  C  C107  1  0.117800  0.905400  0.413800  1.0  0.3288
  C  C108  1  0.194500  0.857200  0.454400  1.0  -0.1794
  C  C109  1  0.258000  0.806600  0.407000  1.0  -0.1271
  C  C110  1  0.246400  0.801800  0.319800  1.0  0.029
  C  C111  1  0.316100  0.748000  0.271400  1.0  0.0435
  C  C112  1  0.337400  0.672200  0.303200  1.0  -0.1574
  C  C113  1  0.403000  0.622200  0.256000  1.0  -0.1274
  C  C114  1  0.451400  0.647600  0.177400  1.0  0.3282
  C  C115  1  0.434300  0.726000  0.145200  1.0  -0.2308
  C  C116  1  0.369500  0.775500  0.191800  1.0  -0.1456
  C  C117  1  0.170400  0.850400  0.281100  1.0  -0.1498
  C  C118  1  0.104200  0.900700  0.329000  1.0  -0.1403
  C  C119  1  0.236300  0.285300  0.496000  1.0  0.2794
  C  C120  1  0.325800  0.318800  0.427800  1.0  -0.197
  C  C121  1  0.425200  0.401500  0.428300  1.0  -0.1794
  C  C122  1  0.447200  0.457000  0.498800  1.0  0.0166
  C  C123  1  0.351100  0.427400  0.561400  1.0  -0.1161
  C  C124  1  0.255800  0.346000  0.563000  1.0  -0.1545
  O  O125  1  0.555400  0.455400  0.039400  1.0  -0.7318
  O  O126  1  0.005200  0.093900  0.369100  1.0  -0.6351
  O  O127  1  0.642600  0.707100  0.003000  1.0  -0.6173
  O  O128  1  0.944600  0.044600  0.539400  1.0  -0.7308
  O  O129  1  0.494800  0.406100  0.869100  1.0  -0.6353
  O  O130  1  0.857400  0.792900  0.503000  1.0  -0.615
  O  O131  1  0.444600  0.544600  0.960600  1.0  -0.7314
  O  O132  1  0.994800  0.906100  0.630900  1.0  -0.6355
  O  O133  1  0.357400  0.292900  0.997000  1.0  -0.6153
  O  O134  1  0.055400  0.955400  0.460600  1.0  -0.7326
  O  O135  1  0.505200  0.593900  0.130900  1.0  -0.6353
  O  O136  1  0.142600  0.207100  0.497000  1.0  -0.6173
