# generated using pymatgen
data_TiH12(C6O)3
_symmetry_space_group_name_H-M   'P 1'
_cell_length_a   10.13700000
_cell_length_b   15.74500000
_cell_length_c   15.98800000
_cell_angle_alpha   90.00000000
_cell_angle_beta   90.00000000
_cell_angle_gamma   107.76000000
_symmetry_Int_Tables_number   1
_chemical_formula_structural   TiH12(C6O)3
_chemical_formula_sum   'Ti4 H48 C72 O12'
_cell_volume   2430.18564835
_cell_formula_units_Z   4
loop_
 _symmetry_equiv_pos_site_id
 _symmetry_equiv_pos_as_xyz
  1  'x, y, z'
loop_
 _atom_site_type_symbol
 _atom_site_label
 _atom_site_symmetry_multiplicity
 _atom_site_fract_x
 _atom_site_fract_y
 _atom_site_fract_z
 _atom_site_occupancy
 _atom_site_charge
  Ti  Ti1  1  0.867300  0.342000  0.675090  1.0  1.4838
  Ti  Ti2  1  0.631600  0.157300  0.598920  1.0  1.4732
  Ti  Ti3  1  0.132700  0.658000  0.175090  1.0  1.5154
  Ti  Ti4  1  0.368400  0.842700  0.098920  1.0  1.466
  H  H5  1  0.954100  0.108700  0.623200  1.0  0.1241
  H  H6  1  0.047700  0.017600  0.703100  1.0  0.1045
  H  H7  1  0.053300  0.902200  0.775800  1.0  0.127
  H  H8  1  0.170100  0.822000  0.859500  1.0  0.0874
  H  H9  1  0.212500  0.992400  0.046400  1.0  0.1236
  H  H10  1  0.101100  0.075900  0.967200  1.0  0.1124
  H  H11  1  0.912100  0.100100  0.911900  1.0  0.1019
  H  H12  1  0.798500  0.180700  0.837000  1.0  0.1304
  H  H13  1  0.071800  0.534400  0.757800  1.0  0.1178
  H  H14  1  0.226200  0.674300  0.754500  1.0  0.0915
  H  H15  1  0.394000  0.785500  0.745000  1.0  0.1121
  H  H16  1  0.553200  0.913200  0.740400  1.0  0.1013
  H  H17  1  0.437700  0.968600  0.516300  1.0  0.0963
  H  H18  1  0.266600  0.832100  0.514000  1.0  0.1174
  H  H19  1  0.096900  0.719000  0.532300  1.0  0.0993
  H  H20  1  0.951600  0.571400  0.518400  1.0  0.1363
  H  H21  1  0.277200  0.501600  0.228000  1.0  0.1139
  H  H22  1  0.379500  0.417300  0.306100  1.0  0.1115
  H  H23  1  0.427300  0.468700  0.572100  1.0  0.1234
  H  H24  1  0.548000  0.391000  0.650200  1.0  0.1058
  H  H25  1  0.699600  0.317200  0.440300  1.0  0.0988
  H  H26  1  0.586400  0.400500  0.355500  1.0  0.1235
  H  H27  1  0.438600  0.595100  0.492600  1.0  0.0985
  H  H28  1  0.341500  0.683300  0.417700  1.0  0.1279
  H  H29  1  0.045900  0.891300  0.123200  1.0  0.1239
  H  H30  1  0.952300  0.982400  0.203100  1.0  0.1048
  H  H31  1  0.946700  0.097800  0.275800  1.0  0.1275
  H  H32  1  0.829900  0.178000  0.359500  1.0  0.0895
  H  H33  1  0.787500  0.007600  0.546400  1.0  0.1245
  H  H34  1  0.898900  0.924100  0.467200  1.0  0.1124
  H  H35  1  0.087900  0.899900  0.411900  1.0  0.102
  H  H36  1  0.201500  0.819300  0.337000  1.0  0.1312
  H  H37  1  0.928200  0.465600  0.257800  1.0  0.1183
  H  H38  1  0.773800  0.325700  0.254500  1.0  0.0913
  H  H39  1  0.606000  0.214500  0.245000  1.0  0.1114
  H  H40  1  0.446800  0.086800  0.240400  1.0  0.1022
  H  H41  1  0.562300  0.031400  0.016300  1.0  0.0958
  H  H42  1  0.733400  0.167900  0.014000  1.0  0.1173
  H  H43  1  0.903100  0.281000  0.032300  1.0  0.099
  H  H44  1  0.048400  0.428600  0.018400  1.0  0.1363
  H  H45  1  0.722800  0.498400  0.728000  1.0  0.1129
  H  H46  1  0.620500  0.582700  0.806100  1.0  0.1119
  H  H47  1  0.572700  0.531300  0.072100  1.0  0.1236
  H  H48  1  0.452000  0.609000  0.150200  1.0  0.1046
  H  H49  1  0.300400  0.682800  0.940300  1.0  0.0983
  H  H50  1  0.413600  0.599500  0.855500  1.0  0.1239
  H  H51  1  0.561400  0.404900  0.992600  1.0  0.0981
  H  H52  1  0.658500  0.316700  0.917700  1.0  0.1276
  C  C53  1  0.869400  0.154800  0.724700  1.0  0.2842
  C  C54  1  0.944100  0.106100  0.682300  1.0  -0.2209
  C  C55  1  0.002400  0.054200  0.730800  1.0  -0.0821
  C  C56  1  0.998700  0.052500  0.816800  1.0  0.0413
  C  C57  1  0.070700  0.998800  0.864700  1.0  0.0171
  C  C58  1  0.086400  0.922200  0.830100  1.0  -0.1485
  C  C59  1  0.156200  0.874500  0.881800  1.0  -0.1856
  C  C60  1  0.201400  0.898300  0.956700  1.0  0.3811
  C  C61  1  0.181500  0.974300  0.991200  1.0  -0.2273
  C  C62  1  0.115300  0.023900  0.943800  1.0  -0.1116
  C  C63  1  0.920200  0.101200  0.852600  1.0  -0.0787
  C  C64  1  0.853800  0.150400  0.809200  1.0  -0.2245
  C  C65  1  0.987700  0.536800  0.638000  1.0  0.3595
  C  C66  1  0.078500  0.570200  0.709300  1.0  -0.2511
  C  C67  1  0.172800  0.653000  0.705800  1.0  -0.0773
  C  C68  1  0.195800  0.706300  0.638700  1.0  -0.0169
  C  C69  1  0.301500  0.792300  0.636400  1.0  0.008
  C  C70  1  0.396600  0.822400  0.697600  1.0  -0.1108
  C  C71  1  0.491300  0.899200  0.694300  1.0  -0.1669
  C  C72  1  0.515100  0.966200  0.629900  1.0  0.3134
  C  C73  1  0.427000  0.932500  0.564900  1.0  -0.2249
  C  C74  1  0.322500  0.850000  0.562400  1.0  -0.1279
  C  C75  1  0.098700  0.677300  0.574900  1.0  -0.0764
  C  C76  1  0.003000  0.591100  0.568200  1.0  -0.2211
  C  C77  1  0.298700  0.603000  0.311400  1.0  0.3457
  C  C78  1  0.312900  0.522400  0.281700  1.0  -0.2348
  C  C79  1  0.376300  0.472900  0.327500  1.0  -0.1137
  C  C80  1  0.438500  0.502900  0.407400  1.0  -0.0071
  C  C81  1  0.506000  0.449000  0.456300  1.0  0.0259
  C  C82  1  0.486500  0.440900  0.544800  1.0  -0.1232
  C  C83  1  0.555100  0.391800  0.591000  1.0  -0.1971
  C  C84  1  0.633900  0.343900  0.552200  1.0  0.324
  C  C85  1  0.645400  0.349000  0.467100  1.0  -0.2189
  C  C86  1  0.579500  0.400300  0.414800  1.0  -0.1447
  C  C87  1  0.411500  0.577900  0.436600  1.0  -0.0771
  C  C88  1  0.350100  0.630100  0.393700  1.0  -0.2246
  C  C89  1  0.130600  0.845200  0.224700  1.0  0.2842
  C  C90  1  0.055900  0.893900  0.182300  1.0  -0.2211
  C  C91  1  0.997600  0.945800  0.230800  1.0  -0.0823
  C  C92  1  0.001300  0.947500  0.316800  1.0  0.0411
  C  C93  1  0.929300  0.001200  0.364700  1.0  0.0167
  C  C94  1  0.913600  0.077800  0.330100  1.0  -0.1482
  C  C95  1  0.843800  0.125500  0.381800  1.0  -0.1867
  C  C96  1  0.798600  0.101700  0.456700  1.0  0.3792
  C  C97  1  0.818500  0.025700  0.491200  1.0  -0.2278
  C  C98  1  0.884700  0.976100  0.443800  1.0  -0.1103
  C  C99  1  0.079800  0.898800  0.352600  1.0  -0.078
  C  C100  1  0.146200  0.849600  0.309200  1.0  -0.224
  C  C101  1  0.012300  0.463200  0.138000  1.0  0.3597
  C  C102  1  0.921500  0.429800  0.209300  1.0  -0.2525
  C  C103  1  0.827200  0.347000  0.205800  1.0  -0.0837
  C  C104  1  0.804200  0.293700  0.138700  1.0  -0.0166
  C  C105  1  0.698500  0.207700  0.136400  1.0  0.008
  C  C106  1  0.603400  0.177600  0.197600  1.0  -0.102
  C  C107  1  0.508700  0.100800  0.194300  1.0  -0.1669
  C  C108  1  0.484900  0.033800  0.129900  1.0  0.3145
  C  C109  1  0.573000  0.067500  0.064900  1.0  -0.2228
  C  C110  1  0.677500  0.150000  0.062400  1.0  -0.1278
  C  C111  1  0.901300  0.322700  0.074900  1.0  -0.0766
  C  C112  1  0.997000  0.408900  0.068200  1.0  -0.2218
  C  C113  1  0.701300  0.397000  0.811400  1.0  0.3471
  C  C114  1  0.687100  0.477600  0.781700  1.0  -0.2373
  C  C115  1  0.623700  0.527100  0.827500  1.0  -0.1162
  C  C116  1  0.561500  0.497100  0.907400  1.0  -0.0077
  C  C117  1  0.494000  0.551000  0.956300  1.0  0.0263
  C  C118  1  0.513500  0.559100  0.044800  1.0  -0.1231
  C  C119  1  0.444900  0.608200  0.091000  1.0  -0.1975
  C  C120  1  0.366100  0.656100  0.052200  1.0  0.3245
  C  C121  1  0.354600  0.651000  0.967100  1.0  -0.2186
  C  C122  1  0.420500  0.599700  0.914800  1.0  -0.1474
  C  C123  1  0.588500  0.422100  0.936600  1.0  -0.0765
  C  C124  1  0.649900  0.369900  0.893700  1.0  -0.2214
  O  O125  1  0.804600  0.205000  0.674900  1.0  -0.7365
  O  O126  1  0.253300  0.844200  0.006000  1.0  -0.6393
  O  O127  1  0.896100  0.459200  0.638300  1.0  -0.6081
  O  O128  1  0.610900  0.045000  0.632200  1.0  -0.575
  O  O129  1  0.242900  0.656400  0.267800  1.0  -0.6199
  O  O130  1  0.693900  0.294300  0.596200  1.0  -0.6836
  O  O131  1  0.195400  0.795000  0.174900  1.0  -0.7359
  O  O132  1  0.746700  0.155800  0.506000  1.0  -0.6386
  O  O133  1  0.103900  0.540800  0.138300  1.0  -0.6044
  O  O134  1  0.389100  0.955000  0.132200  1.0  -0.5746
  O  O135  1  0.757100  0.343600  0.767800  1.0  -0.6215
  O  O136  1  0.306100  0.705700  0.096200  1.0  -0.6888
