# generated using pymatgen
data_ZnH3C5BrN4
_symmetry_space_group_name_H-M   'P 1'
_cell_length_a   10.20900000
_cell_length_b   13.63600000
_cell_length_c   14.12400000
_cell_angle_alpha   91.56800000
_cell_angle_beta   90.00000000
_cell_angle_gamma   90.00000000
_symmetry_Int_Tables_number   1
_chemical_formula_structural   ZnH3C5BrN4
_chemical_formula_sum   'Zn8 H24 C40 Br8 N32'
_cell_volume   1965.46472955
_cell_formula_units_Z   8
loop_
 _symmetry_equiv_pos_site_id
 _symmetry_equiv_pos_as_xyz
  1  'x, y, z'
loop_
 _atom_site_type_symbol
 _atom_site_label
 _atom_site_symmetry_multiplicity
 _atom_site_fract_x
 _atom_site_fract_y
 _atom_site_fract_z
 _atom_site_occupancy
 _atom_site_charge
  Zn  Zn1  1  0.914870  0.337460  0.326730  1.0  0.7238
  Zn  Zn2  1  0.496030  0.307910  0.654620  1.0  0.7261
  Zn  Zn3  1  0.414870  0.162540  0.173270  1.0  0.7223
  Zn  Zn4  1  0.996030  0.192090  0.845380  1.0  0.7254
  Zn  Zn5  1  0.085130  0.662540  0.673270  1.0  0.7231
  Zn  Zn6  1  0.503970  0.692090  0.345380  1.0  0.7248
  Zn  Zn7  1  0.585130  0.837460  0.826730  1.0  0.7243
  Zn  Zn8  1  0.003970  0.807910  0.154620  1.0  0.7252
  H  H9  1  0.088900  0.263200  0.476400  1.0  0.0594
  H  H10  1  0.704400  0.247200  0.811000  1.0  0.0537
  H  H11  1  0.706600  0.314900  0.478200  1.0  0.0863
  H  H12  1  0.322300  0.530800  0.291100  1.0  0.0523
  H  H13  1  0.708500  0.188700  0.237200  1.0  0.0538
  H  H14  1  0.701800  0.525900  0.350300  1.0  0.0902
  H  H15  1  0.588900  0.236800  0.023600  1.0  0.059
  H  H16  1  0.204400  0.252800  0.689000  1.0  0.0532
  H  H17  1  0.206600  0.185100  0.021800  1.0  0.0858
  H  H18  1  0.822300  0.969200  0.208900  1.0  0.0528
  H  H19  1  0.208500  0.311300  0.262800  1.0  0.0543
  H  H20  1  0.201800  0.974100  0.149700  1.0  0.0903
  H  H21  1  0.911100  0.736800  0.523600  1.0  0.0592
  H  H22  1  0.295600  0.752800  0.189000  1.0  0.0531
  H  H23  1  0.293400  0.685100  0.521800  1.0  0.0857
  H  H24  1  0.677700  0.469200  0.708900  1.0  0.0527
  H  H25  1  0.291500  0.811300  0.762800  1.0  0.0545
  H  H26  1  0.298200  0.474100  0.649700  1.0  0.0898
  H  H27  1  0.411100  0.763200  0.976400  1.0  0.0592
  H  H28  1  0.795600  0.747200  0.311000  1.0  0.053
  H  H29  1  0.793400  0.814900  0.978200  1.0  0.0862
  H  H30  1  0.177700  0.030800  0.791100  1.0  0.0525
  H  H31  1  0.791500  0.688700  0.737200  1.0  0.0537
  H  H32  1  0.798200  0.025900  0.850300  1.0  0.0898
  C  C33  1  0.009500  0.266100  0.511400  1.0  0.3363
  C  C34  1  0.901200  0.250100  0.647600  1.0  0.3978
  C  C35  1  0.748000  0.252100  0.751900  1.0  0.3379
  C  C36  1  0.782200  0.275300  0.604300  1.0  0.0293
  C  C37  1  0.784600  0.297100  0.510200  1.0  0.1548
  C  C38  1  0.401800  0.494600  0.290900  1.0  0.3369
  C  C39  1  0.511100  0.355400  0.262500  1.0  0.3867
  C  C40  1  0.664400  0.248800  0.250400  1.0  0.347
  C  C41  1  0.629100  0.398200  0.294500  1.0  0.0362
  C  C42  1  0.625300  0.494200  0.326400  1.0  0.1516
  C  C43  1  0.509500  0.233900  0.988600  1.0  0.3357
  C  C44  1  0.401200  0.249900  0.852400  1.0  0.3967
  C  C45  1  0.248000  0.247900  0.748100  1.0  0.3355
  C  C46  1  0.282200  0.224700  0.895700  1.0  0.0293
  C  C47  1  0.284600  0.202900  0.989800  1.0  0.1548
  C  C48  1  0.901800  0.005400  0.209100  1.0  0.3371
  C  C49  1  0.011100  0.144600  0.237500  1.0  0.387
  C  C50  1  0.164400  0.251200  0.249600  1.0  0.3468
  C  C51  1  0.129100  0.101800  0.205500  1.0  0.0356
  C  C52  1  0.125300  0.005800  0.173600  1.0  0.1516
  C  C53  1  0.990500  0.733900  0.488600  1.0  0.3356
  C  C54  1  0.098800  0.749900  0.352400  1.0  0.3962
  C  C55  1  0.252000  0.747900  0.248100  1.0  0.3341
  C  C56  1  0.217800  0.724700  0.395700  1.0  0.0279
  C  C57  1  0.215400  0.702900  0.489800  1.0  0.1553
  C  C58  1  0.598200  0.505400  0.709100  1.0  0.3375
  C  C59  1  0.488900  0.644600  0.737500  1.0  0.3879
  C  C60  1  0.335600  0.751200  0.749600  1.0  0.3479
  C  C61  1  0.370900  0.601800  0.705500  1.0  0.0369
  C  C62  1  0.374700  0.505800  0.673600  1.0  0.1522
  C  C63  1  0.490500  0.766100  0.011400  1.0  0.3362
  C  C64  1  0.598800  0.750100  0.147600  1.0  0.3974
  C  C65  1  0.752000  0.752100  0.251900  1.0  0.3369
  C  C66  1  0.717800  0.775300  0.104300  1.0  0.0277
  C  C67  1  0.715400  0.797100  0.010200  1.0  0.1552
  C  C68  1  0.098200  0.994600  0.790900  1.0  0.3375
  C  C69  1  0.988900  0.855400  0.762500  1.0  0.3875
  C  C70  1  0.835600  0.748800  0.750400  1.0  0.3488
  C  C71  1  0.870900  0.898200  0.794500  1.0  0.0373
  C  C72  1  0.874700  0.994200  0.826400  1.0  0.152
  Br  Br73  1  0.007000  0.495290  0.323410  1.0  -0.5184
  Br  Br74  1  0.408930  0.271360  0.504100  1.0  -0.5127
  Br  Br75  1  0.507000  0.004710  0.176590  1.0  -0.5184
  Br  Br76  1  0.908930  0.228640  0.995900  1.0  -0.51
  Br  Br77  1  0.993000  0.504710  0.676590  1.0  -0.5186
  Br  Br78  1  0.591070  0.728640  0.495900  1.0  -0.5111
  Br  Br79  1  0.493000  0.995290  0.823410  1.0  -0.5187
  Br  Br80  1  0.091070  0.771360  0.004100  1.0  -0.5134
  N  N81  1  0.899700  0.292800  0.464000  1.0  -0.3844
  N  N82  1  0.015500  0.243600  0.602500  1.0  -0.4174
  N  N83  1  0.879000  0.236100  0.742100  1.0  -0.4679
  N  N84  1  0.685100  0.275100  0.672800  1.0  -0.4007
  N  N85  1  0.510600  0.542100  0.322900  1.0  -0.3922
  N  N86  1  0.396300  0.402000  0.259200  1.0  -0.4072
  N  N87  1  0.534900  0.260300  0.234300  1.0  -0.4612
  N  N88  1  0.726500  0.328100  0.286500  1.0  -0.3976
  N  N89  1  0.399700  0.207200  0.036000  1.0  -0.3839
  N  N90  1  0.515500  0.256400  0.897500  1.0  -0.4172
  N  N91  1  0.379000  0.263900  0.757900  1.0  -0.4684
  N  N92  1  0.185100  0.224900  0.827200  1.0  -0.4008
  N  N93  1  0.010600  0.957900  0.177100  1.0  -0.3914
  N  N94  1  0.896300  0.098000  0.240800  1.0  -0.4061
  N  N95  1  0.034900  0.239700  0.265700  1.0  -0.462
  N  N96  1  0.226500  0.171900  0.213500  1.0  -0.3982
  N  N97  1  0.100300  0.707200  0.536000  1.0  -0.3839
  N  N98  1  0.984500  0.756400  0.397500  1.0  -0.4125
  N  N99  1  0.121000  0.763900  0.257900  1.0  -0.4678
  N  N100  1  0.314900  0.724900  0.327200  1.0  -0.4001
  N  N101  1  0.489400  0.457900  0.677100  1.0  -0.3912
  N  N102  1  0.603700  0.598000  0.740800  1.0  -0.4066
  N  N103  1  0.465100  0.739700  0.765700  1.0  -0.462
  N  N104  1  0.273500  0.671900  0.713500  1.0  -0.3998
  N  N105  1  0.600300  0.792800  0.964000  1.0  -0.3845
  N  N106  1  0.484500  0.743600  0.102500  1.0  -0.4141
  N  N107  1  0.621000  0.736100  0.242100  1.0  -0.4675
  N  N108  1  0.814900  0.775100  0.172800  1.0  -0.3996
  N  N109  1  0.989400  0.042100  0.822900  1.0  -0.3919
  N  N110  1  0.103700  0.902000  0.759200  1.0  -0.4086
  N  N111  1  0.965100  0.760300  0.734300  1.0  -0.4609
  N  N112  1  0.773500  0.828100  0.786500  1.0  -0.3993
