# generated using pymatgen
data_ZnH7C10N5O2
_symmetry_space_group_name_H-M   'P 1'
_cell_length_a   18.12100000
_cell_length_b   26.88400000
_cell_length_c   26.88400000
_cell_angle_alpha   120.00000000
_cell_angle_beta   90.00000000
_cell_angle_gamma   90.00000000
_symmetry_Int_Tables_number   1
_chemical_formula_structural   ZnH7C10N5O2
_chemical_formula_sum   'Zn24 H168 C240 N120 O48'
_cell_volume   11342.28525654
_cell_formula_units_Z   24
loop_
 _symmetry_equiv_pos_site_id
 _symmetry_equiv_pos_as_xyz
  1  'x, y, z'
loop_
 _atom_site_type_symbol
 _atom_site_label
 _atom_site_symmetry_multiplicity
 _atom_site_fract_x
 _atom_site_fract_y
 _atom_site_fract_z
 _atom_site_occupancy
 _atom_site_charge
  Zn  Zn1  1  0.416050  0.889430  0.331650  1.0  0.8446
  Zn  Zn2  1  0.416050  0.442220  0.110570  1.0  0.8448
  Zn  Zn3  1  0.416050  0.668350  0.557780  1.0  0.845
  Zn  Zn4  1  0.916050  0.110570  0.668350  1.0  0.8446
  Zn  Zn5  1  0.916050  0.557780  0.889430  1.0  0.8445
  Zn  Zn6  1  0.916050  0.331650  0.442220  1.0  0.8445
  Zn  Zn7  1  0.583950  0.557780  0.668350  1.0  0.8446
  Zn  Zn8  1  0.583950  0.331650  0.889430  1.0  0.845
  Zn  Zn9  1  0.583950  0.110570  0.442220  1.0  0.8445
  Zn  Zn10  1  0.083950  0.442220  0.331650  1.0  0.8444
  Zn  Zn11  1  0.083950  0.668350  0.110570  1.0  0.8443
  Zn  Zn12  1  0.083950  0.889430  0.557780  1.0  0.8445
  Zn  Zn13  1  0.583950  0.110570  0.668350  1.0  0.8445
  Zn  Zn14  1  0.583950  0.557780  0.889430  1.0  0.8444
  Zn  Zn15  1  0.583950  0.331650  0.442220  1.0  0.8444
  Zn  Zn16  1  0.083950  0.889430  0.331650  1.0  0.8445
  Zn  Zn17  1  0.083950  0.442220  0.110570  1.0  0.8446
  Zn  Zn18  1  0.083950  0.668350  0.557780  1.0  0.8449
  Zn  Zn19  1  0.416050  0.442220  0.331650  1.0  0.8445
  Zn  Zn20  1  0.416050  0.668350  0.110570  1.0  0.8443
  Zn  Zn21  1  0.416050  0.889430  0.557780  1.0  0.8446
  Zn  Zn22  1  0.916050  0.557780  0.668350  1.0  0.8447
  Zn  Zn23  1  0.916050  0.331650  0.889430  1.0  0.8451
  Zn  Zn24  1  0.916050  0.110570  0.442220  1.0  0.8446
  H  H25  1  0.594300  0.870900  0.301600  1.0  0.1127
  H  H26  1  0.700000  0.825100  0.259600  1.0  0.1878
  H  H27  1  0.446100  0.910200  0.222400  1.0  0.1118
  H  H28  1  0.461800  0.962800  0.176200  1.0  0.1187
  H  H29  1  0.317700  0.975700  0.308600  1.0  0.1096
  H  H30  1  0.523200  0.815200  0.361100  1.0  0.1157
  H  H31  1  0.594300  0.430700  0.129100  1.0  0.1143
  H  H32  1  0.700000  0.434500  0.174900  1.0  0.192
  H  H33  1  0.446100  0.312200  0.089800  1.0  0.1104
  H  H34  1  0.461800  0.213400  0.037200  1.0  0.1195
  H  H35  1  0.317700  0.332900  0.024300  1.0  0.1103
  H  H36  1  0.523200  0.545900  0.184800  1.0  0.116
  H  H37  1  0.594300  0.698400  0.569300  1.0  0.1124
  H  H38  1  0.700000  0.740400  0.565500  1.0  0.1873
  H  H39  1  0.446100  0.777600  0.687800  1.0  0.1115
  H  H40  1  0.461800  0.823800  0.786600  1.0  0.1191
  H  H41  1  0.317700  0.691400  0.667100  1.0  0.109
  H  H42  1  0.523200  0.638900  0.454100  1.0  0.1143
  H  H43  1  0.094300  0.129100  0.698400  1.0  0.1132
  H  H44  1  0.200000  0.174900  0.740400  1.0  0.1898
  H  H45  1  0.946100  0.089800  0.777600  1.0  0.1124
  H  H46  1  0.961800  0.037200  0.823800  1.0  0.1185
  H  H47  1  0.817700  0.024300  0.691400  1.0  0.1098
  H  H48  1  0.023200  0.184800  0.638900  1.0  0.1158
  H  H49  1  0.094300  0.569300  0.870900  1.0  0.1137
  H  H50  1  0.200000  0.565500  0.825100  1.0  0.1905
  H  H51  1  0.946100  0.687800  0.910200  1.0  0.1102
  H  H52  1  0.961800  0.786600  0.962800  1.0  0.1197
  H  H53  1  0.817700  0.667100  0.975700  1.0  0.1097
  H  H54  1  0.023200  0.454100  0.815200  1.0  0.1152
  H  H55  1  0.094300  0.301600  0.430700  1.0  0.1129
  H  H56  1  0.200000  0.259600  0.434500  1.0  0.1881
  H  H57  1  0.946100  0.222400  0.312200  1.0  0.1105
  H  H58  1  0.961800  0.176200  0.213400  1.0  0.1192
  H  H59  1  0.817700  0.308600  0.332900  1.0  0.1103
  H  H60  1  0.023200  0.361100  0.545900  1.0  0.1147
  H  H61  1  0.405700  0.569300  0.698400  1.0  0.1146
  H  H62  1  0.300000  0.565500  0.740400  1.0  0.1911
  H  H63  1  0.553900  0.687800  0.777600  1.0  0.1103
  H  H64  1  0.538200  0.786600  0.823800  1.0  0.1193
  H  H65  1  0.682300  0.667100  0.691400  1.0  0.11
  H  H66  1  0.476800  0.454100  0.638900  1.0  0.1164
  H  H67  1  0.405700  0.301600  0.870900  1.0  0.1131
  H  H68  1  0.300000  0.259600  0.825100  1.0  0.1852
  H  H69  1  0.553900  0.222400  0.910200  1.0  0.1111
  H  H70  1  0.538200  0.176200  0.962800  1.0  0.119
  H  H71  1  0.682300  0.308600  0.975700  1.0  0.1085
  H  H72  1  0.476800  0.361100  0.815200  1.0  0.1147
  H  H73  1  0.405700  0.129100  0.430700  1.0  0.1136
  H  H74  1  0.300000  0.174900  0.434500  1.0  0.1871
  H  H75  1  0.553900  0.089800  0.312200  1.0  0.1109
  H  H76  1  0.538200  0.037200  0.213400  1.0  0.1185
  H  H77  1  0.682300  0.024300  0.332900  1.0  0.1097
  H  H78  1  0.476800  0.184800  0.545900  1.0  0.1162
  H  H79  1  0.905700  0.430700  0.301600  1.0  0.1146
  H  H80  1  0.800000  0.434500  0.259600  1.0  0.1879
  H  H81  1  0.053900  0.312200  0.222400  1.0  0.1105
  H  H82  1  0.038200  0.213400  0.176200  1.0  0.1193
  H  H83  1  0.182300  0.332900  0.308600  1.0  0.1097
  H  H84  1  0.976800  0.545900  0.361100  1.0  0.1161
  H  H85  1  0.905700  0.698400  0.129100  1.0  0.1128
  H  H86  1  0.800000  0.740400  0.174900  1.0  0.1878
  H  H87  1  0.053900  0.777600  0.089800  1.0  0.1105
  H  H88  1  0.038200  0.823800  0.037200  1.0  0.1188
  H  H89  1  0.182300  0.691400  0.024300  1.0  0.1097
  H  H90  1  0.976800  0.638900  0.184800  1.0  0.1157
  H  H91  1  0.905700  0.870900  0.569300  1.0  0.1137
  H  H92  1  0.800000  0.825100  0.565500  1.0  0.1873
  H  H93  1  0.053900  0.910200  0.687800  1.0  0.1122
  H  H94  1  0.038200  0.962800  0.786600  1.0  0.1182
  H  H95  1  0.182300  0.975700  0.667100  1.0  0.1087
  H  H96  1  0.976800  0.815200  0.454100  1.0  0.1162
  H  H97  1  0.405700  0.129100  0.698400  1.0  0.1137
  H  H98  1  0.300000  0.174900  0.740400  1.0  0.1889
  H  H99  1  0.553900  0.089800  0.777600  1.0  0.1121
  H  H100  1  0.538200  0.037200  0.823800  1.0  0.1181
  H  H101  1  0.682300  0.024300  0.691400  1.0  0.1094
  H  H102  1  0.476800  0.184800  0.638900  1.0  0.1165
  H  H103  1  0.405700  0.569300  0.870900  1.0  0.1148
  H  H104  1  0.300000  0.565500  0.825100  1.0  0.1883
  H  H105  1  0.553900  0.687800  0.910200  1.0  0.1103
  H  H106  1  0.538200  0.786600  0.962800  1.0  0.1197
  H  H107  1  0.682300  0.667100  0.975700  1.0  0.1094
  H  H108  1  0.476800  0.454100  0.815200  1.0  0.1156
  H  H109  1  0.405700  0.301600  0.430700  1.0  0.1136
  H  H110  1  0.300000  0.259600  0.434500  1.0  0.1873
  H  H111  1  0.553900  0.222400  0.312200  1.0  0.1106
  H  H112  1  0.538200  0.176200  0.213400  1.0  0.1197
  H  H113  1  0.682300  0.308600  0.332900  1.0  0.1093
  H  H114  1  0.476800  0.361100  0.545900  1.0  0.1153
  H  H115  1  0.905700  0.870900  0.301600  1.0  0.1139
  H  H116  1  0.800000  0.825100  0.259600  1.0  0.1863
  H  H117  1  0.053900  0.910200  0.222400  1.0  0.1119
  H  H118  1  0.038200  0.962800  0.176200  1.0  0.1187
  H  H119  1  0.182300  0.975700  0.308600  1.0  0.1093
  H  H120  1  0.976800  0.815200  0.361100  1.0  0.1161
  H  H121  1  0.905700  0.430700  0.129100  1.0  0.115
  H  H122  1  0.800000  0.434500  0.174900  1.0  0.1915
  H  H123  1  0.053900  0.312200  0.089800  1.0  0.1104
  H  H124  1  0.038200  0.213400  0.037200  1.0  0.1194
  H  H125  1  0.182300  0.332900  0.024300  1.0  0.1098
  H  H126  1  0.976800  0.545900  0.184800  1.0  0.117
  H  H127  1  0.905700  0.698400  0.569300  1.0  0.1135
  H  H128  1  0.800000  0.740400  0.565500  1.0  0.1867
  H  H129  1  0.053900  0.777600  0.687800  1.0  0.1114
  H  H130  1  0.038200  0.823800  0.786600  1.0  0.1187
  H  H131  1  0.182300  0.691400  0.667100  1.0  0.1085
  H  H132  1  0.976800  0.638900  0.454100  1.0  0.1149
  H  H133  1  0.594300  0.430700  0.301600  1.0  0.114
  H  H134  1  0.700000  0.434500  0.259600  1.0  0.1912
  H  H135  1  0.446100  0.312200  0.222400  1.0  0.1104
  H  H136  1  0.461800  0.213400  0.176200  1.0  0.1192
  H  H137  1  0.317700  0.332900  0.308600  1.0  0.1101
  H  H138  1  0.523200  0.545900  0.361100  1.0  0.1157
  H  H139  1  0.594300  0.698400  0.129100  1.0  0.1129
  H  H140  1  0.700000  0.740400  0.174900  1.0  0.1892
  H  H141  1  0.446100  0.777600  0.089800  1.0  0.1105
  H  H142  1  0.461800  0.823800  0.037200  1.0  0.1189
  H  H143  1  0.317700  0.691400  0.024300  1.0  0.1103
  H  H144  1  0.523200  0.638900  0.184800  1.0  0.1145
  H  H145  1  0.594300  0.870900  0.569300  1.0  0.1137
  H  H146  1  0.700000  0.825100  0.565500  1.0  0.1889
  H  H147  1  0.446100  0.910200  0.687800  1.0  0.1123
  H  H148  1  0.461800  0.962800  0.786600  1.0  0.1187
  H  H149  1  0.317700  0.975700  0.667100  1.0  0.109
  H  H150  1  0.523200  0.815200  0.454100  1.0  0.1154
  H  H151  1  0.094300  0.569300  0.698400  1.0  0.1145
  H  H152  1  0.200000  0.565500  0.740400  1.0  0.1927
  H  H153  1  0.946100  0.687800  0.777600  1.0  0.1106
  H  H154  1  0.961800  0.786600  0.823800  1.0  0.1195
  H  H155  1  0.817700  0.667100  0.691400  1.0  0.1103
  H  H156  1  0.023200  0.454100  0.638900  1.0  0.1152
  H  H157  1  0.094300  0.301600  0.870900  1.0  0.1124
  H  H158  1  0.200000  0.259600  0.825100  1.0  0.1873
  H  H159  1  0.946100  0.222400  0.910200  1.0  0.111
  H  H160  1  0.961800  0.176200  0.962800  1.0  0.119
  H  H161  1  0.817700  0.308600  0.975700  1.0  0.1095
  H  H162  1  0.023200  0.361100  0.815200  1.0  0.1145
  H  H163  1  0.094300  0.129100  0.430700  1.0  0.1132
  H  H164  1  0.200000  0.174900  0.434500  1.0  0.1898
  H  H165  1  0.946100  0.089800  0.312200  1.0  0.1111
  H  H166  1  0.961800  0.037200  0.213400  1.0  0.1183
  H  H167  1  0.817700  0.024300  0.332900  1.0  0.1101
  H  H168  1  0.023200  0.184800  0.545900  1.0  0.1156
  H  H169  1  0.366500  0.775100  0.224900  1.0  0.0982
  H  H170  1  0.366500  0.449800  0.224900  1.0  0.0982
  H  H171  1  0.366500  0.775100  0.550200  1.0  0.0983
  H  H172  1  0.866500  0.224900  0.775100  1.0  0.0984
  H  H173  1  0.866500  0.550200  0.775100  1.0  0.0981
  H  H174  1  0.866500  0.224900  0.449800  1.0  0.0982
  H  H175  1  0.633500  0.550200  0.775100  1.0  0.0984
  H  H176  1  0.633500  0.224900  0.775100  1.0  0.0987
  H  H177  1  0.633500  0.224900  0.449800  1.0  0.0983
  H  H178  1  0.133500  0.449800  0.224900  1.0  0.0983
  H  H179  1  0.133500  0.775100  0.224900  1.0  0.0983
  H  H180  1  0.133500  0.775100  0.550200  1.0  0.0987
  H  H181  1  0.500000  0.000000  0.422800  1.0  0.1114
  H  H182  1  0.500000  0.422800  0.000000  1.0  0.1156
  H  H183  1  0.500000  0.577200  0.577200  1.0  0.1156
  H  H184  1  0.000000  0.000000  0.577200  1.0  0.1144
  H  H185  1  0.000000  0.577200  0.000000  1.0  0.1158
  H  H186  1  0.000000  0.422800  0.422800  1.0  0.1155
  H  H187  1  0.500000  0.000000  0.577200  1.0  0.1144
  H  H188  1  0.500000  0.577200  0.000000  1.0  0.1158
  H  H189  1  0.500000  0.422800  0.422800  1.0  0.1155
  H  H190  1  0.000000  0.000000  0.422800  1.0  0.1114
  H  H191  1  0.000000  0.422800  0.000000  1.0  0.1156
  H  H192  1  0.000000  0.577200  0.577200  1.0  0.1156
  C  C193  1  0.527800  0.808800  0.244400  1.0  0.1315
  C  C194  1  0.592900  0.834500  0.267500  1.0  -0.1511
  C  C195  1  0.654200  0.808200  0.242000  1.0  -0.1125
  C  C196  1  0.479200  0.974700  0.297800  1.0  0.1273
  C  C197  1  0.465600  0.948100  0.242000  1.0  -0.0971
  C  C198  1  0.480600  0.977000  0.214000  1.0  -0.0427
  C  C199  1  0.287400  0.948700  0.311900  1.0  -0.0051
  C  C200  1  0.493600  0.839100  0.393700  1.0  0.0204
  C  C201  1  0.527800  0.435600  0.191200  1.0  0.1325
  C  C202  1  0.592900  0.433000  0.165500  1.0  -0.1467
  C  C203  1  0.654200  0.433800  0.191800  1.0  -0.1122
  C  C204  1  0.479200  0.323100  0.025300  1.0  0.1277
  C  C205  1  0.465600  0.293900  0.051900  1.0  -0.0961
  C  C206  1  0.480600  0.237000  0.023000  1.0  -0.0488
  C  C207  1  0.287400  0.363200  0.051300  1.0  -0.0051
  C  C208  1  0.493600  0.554600  0.160900  1.0  0.023
  C  C209  1  0.527800  0.755600  0.564400  1.0  0.1313
  C  C210  1  0.592900  0.732500  0.567000  1.0  -0.1476
  C  C211  1  0.654200  0.758000  0.566200  1.0  -0.1113
  C  C212  1  0.479200  0.702200  0.676900  1.0  0.1286
  C  C213  1  0.465600  0.758000  0.706100  1.0  -0.0965
  C  C214  1  0.480600  0.786000  0.763000  1.0  -0.047
  C  C215  1  0.287400  0.688100  0.636800  1.0  -0.0023
  C  C216  1  0.493600  0.606300  0.445400  1.0  0.02
  C  C217  1  0.027800  0.191200  0.755600  1.0  0.1315
  C  C218  1  0.092900  0.165500  0.732500  1.0  -0.1512
  C  C219  1  0.154200  0.191800  0.758000  1.0  -0.1117
  C  C220  1  0.979200  0.025300  0.702200  1.0  0.1276
  C  C221  1  0.965600  0.051900  0.758000  1.0  -0.1001
  C  C222  1  0.980600  0.023000  0.786000  1.0  -0.0446
  C  C223  1  0.787400  0.051300  0.688100  1.0  -0.0047
  C  C224  1  0.993600  0.160900  0.606300  1.0  0.0214
  C  C225  1  0.027800  0.564400  0.808800  1.0  0.1339
  C  C226  1  0.092900  0.567000  0.834500  1.0  -0.1465
  C  C227  1  0.154200  0.566200  0.808200  1.0  -0.1117
  C  C228  1  0.979200  0.676900  0.974700  1.0  0.1275
  C  C229  1  0.965600  0.706100  0.948100  1.0  -0.0954
  C  C230  1  0.980600  0.763000  0.977000  1.0  -0.0481
  C  C231  1  0.787400  0.636800  0.948700  1.0  -0.0051
  C  C232  1  0.993600  0.445400  0.839100  1.0  0.0209
  C  C233  1  0.027800  0.244400  0.435600  1.0  0.1318
  C  C234  1  0.092900  0.267500  0.433000  1.0  -0.148
  C  C235  1  0.154200  0.242000  0.433800  1.0  -0.1127
  C  C236  1  0.979200  0.297800  0.323100  1.0  0.1288
  C  C237  1  0.965600  0.242000  0.293900  1.0  -0.092
  C  C238  1  0.980600  0.214000  0.237000  1.0  -0.0462
  C  C239  1  0.787400  0.311900  0.363200  1.0  -0.0013
  C  C240  1  0.993600  0.393700  0.554600  1.0  0.0215
  C  C241  1  0.472200  0.564400  0.755600  1.0  0.1343
  C  C242  1  0.407100  0.567000  0.732500  1.0  -0.1441
  C  C243  1  0.345800  0.566200  0.758000  1.0  -0.1107
  C  C244  1  0.520800  0.676900  0.702200  1.0  0.1266
  C  C245  1  0.534400  0.706100  0.758000  1.0  -0.0944
  C  C246  1  0.519400  0.763000  0.786000  1.0  -0.0496
  C  C247  1  0.712600  0.636800  0.688100  1.0  -0.0046
  C  C248  1  0.506400  0.445400  0.606300  1.0  0.0214
  C  C249  1  0.472200  0.244400  0.808800  1.0  0.1321
  C  C250  1  0.407100  0.267500  0.834500  1.0  -0.147
  C  C251  1  0.345800  0.242000  0.808200  1.0  -0.1108
  C  C252  1  0.520800  0.297800  0.974700  1.0  0.1283
  C  C253  1  0.534400  0.242000  0.948100  1.0  -0.0939
  C  C254  1  0.519400  0.214000  0.977000  1.0  -0.0501
  C  C255  1  0.712600  0.311900  0.948700  1.0  -0.0023
  C  C256  1  0.506400  0.393700  0.839100  1.0  0.0204
  C  C257  1  0.472200  0.191200  0.435600  1.0  0.1323
  C  C258  1  0.407100  0.165500  0.433000  1.0  -0.1486
  C  C259  1  0.345800  0.191800  0.433800  1.0  -0.1108
  C  C260  1  0.520800  0.025300  0.323100  1.0  0.1269
  C  C261  1  0.534400  0.051900  0.293900  1.0  -0.0976
  C  C262  1  0.519400  0.023000  0.237000  1.0  -0.0463
  C  C263  1  0.712600  0.051300  0.363200  1.0  -0.005
  C  C264  1  0.506400  0.160900  0.554600  1.0  0.0208
  C  C265  1  0.972200  0.435600  0.244400  1.0  0.1331
  C  C266  1  0.907100  0.433000  0.267500  1.0  -0.1446
  C  C267  1  0.845800  0.433800  0.242000  1.0  -0.1108
  C  C268  1  0.020800  0.323100  0.297800  1.0  0.1276
  C  C269  1  0.034400  0.293900  0.242000  1.0  -0.0947
  C  C270  1  0.019400  0.237000  0.214000  1.0  -0.0495
  C  C271  1  0.212600  0.363200  0.311900  1.0  -0.0057
  C  C272  1  0.006400  0.554600  0.393700  1.0  0.0208
  C  C273  1  0.972200  0.755600  0.191200  1.0  0.1326
  C  C274  1  0.907100  0.732500  0.165500  1.0  -0.1468
  C  C275  1  0.845800  0.758000  0.191800  1.0  -0.1113
  C  C276  1  0.020800  0.702200  0.025300  1.0  0.1279
  C  C277  1  0.034400  0.758000  0.051900  1.0  -0.0947
  C  C278  1  0.019400  0.786000  0.023000  1.0  -0.0484
  C  C279  1  0.212600  0.688100  0.051300  1.0  -0.0021
  C  C280  1  0.006400  0.606300  0.160900  1.0  0.0191
  C  C281  1  0.972200  0.808800  0.564400  1.0  0.132
  C  C282  1  0.907100  0.834500  0.567000  1.0  -0.1483
  C  C283  1  0.845800  0.808200  0.566200  1.0  -0.1103
  C  C284  1  0.020800  0.974700  0.676900  1.0  0.1272
  C  C285  1  0.034400  0.948100  0.706100  1.0  -0.0964
  C  C286  1  0.019400  0.977000  0.763000  1.0  -0.0446
  C  C287  1  0.212600  0.948700  0.636800  1.0  -0.0059
  C  C288  1  0.006400  0.839100  0.445400  1.0  0.0209
  C  C289  1  0.472200  0.191200  0.755600  1.0  0.132
  C  C290  1  0.407100  0.165500  0.732500  1.0  -0.1474
  C  C291  1  0.345800  0.191800  0.758000  1.0  -0.111
  C  C292  1  0.520800  0.025300  0.702200  1.0  0.1278
  C  C293  1  0.534400  0.051900  0.758000  1.0  -0.0992
  C  C294  1  0.519400  0.023000  0.786000  1.0  -0.0426
  C  C295  1  0.712600  0.051300  0.688100  1.0  -0.0049
  C  C296  1  0.506400  0.160900  0.606300  1.0  0.021
  C  C297  1  0.472200  0.564400  0.808800  1.0  0.1342
  C  C298  1  0.407100  0.567000  0.834500  1.0  -0.1424
  C  C299  1  0.345800  0.566200  0.808200  1.0  -0.1108
  C  C300  1  0.520800  0.676900  0.974700  1.0  0.1279
  C  C301  1  0.534400  0.706100  0.948100  1.0  -0.0956
  C  C302  1  0.519400  0.763000  0.977000  1.0  -0.0471
  C  C303  1  0.712600  0.636800  0.948700  1.0  -0.0051
  C  C304  1  0.506400  0.445400  0.839100  1.0  0.0206
  C  C305  1  0.472200  0.244400  0.435600  1.0  0.1325
  C  C306  1  0.407100  0.267500  0.433000  1.0  -0.1442
  C  C307  1  0.345800  0.242000  0.433800  1.0  -0.1107
  C  C308  1  0.520800  0.297800  0.323100  1.0  0.129
  C  C309  1  0.534400  0.242000  0.293900  1.0  -0.0923
  C  C310  1  0.519400  0.214000  0.237000  1.0  -0.0447
  C  C311  1  0.712600  0.311900  0.363200  1.0  -0.0017
  C  C312  1  0.506400  0.393700  0.554600  1.0  0.0213
  C  C313  1  0.972200  0.808800  0.244400  1.0  0.1322
  C  C314  1  0.907100  0.834500  0.267500  1.0  -0.147
  C  C315  1  0.845800  0.808200  0.242000  1.0  -0.1106
  C  C316  1  0.020800  0.974700  0.297800  1.0  0.1279
  C  C317  1  0.034400  0.948100  0.242000  1.0  -0.0976
  C  C318  1  0.019400  0.977000  0.214000  1.0  -0.0423
  C  C319  1  0.212600  0.948700  0.311900  1.0  -0.0051
  C  C320  1  0.006400  0.839100  0.393700  1.0  0.0203
  C  C321  1  0.972200  0.435600  0.191200  1.0  0.1331
  C  C322  1  0.907100  0.433000  0.165500  1.0  -0.1429
  C  C323  1  0.845800  0.433800  0.191800  1.0  -0.1107
  C  C324  1  0.020800  0.323100  0.025300  1.0  0.128
  C  C325  1  0.034400  0.293900  0.051900  1.0  -0.096
  C  C326  1  0.019400  0.237000  0.023000  1.0  -0.0474
  C  C327  1  0.212600  0.363200  0.051300  1.0  -0.0054
  C  C328  1  0.006400  0.554600  0.160900  1.0  0.0218
  C  C329  1  0.972200  0.755600  0.564400  1.0  0.1321
  C  C330  1  0.907100  0.732500  0.567000  1.0  -0.1437
  C  C331  1  0.845800  0.758000  0.566200  1.0  -0.1108
  C  C332  1  0.020800  0.702200  0.676900  1.0  0.129
  C  C333  1  0.034400  0.758000  0.706100  1.0  -0.0966
  C  C334  1  0.019400  0.786000  0.763000  1.0  -0.0465
  C  C335  1  0.212600  0.688100  0.636800  1.0  -0.0025
  C  C336  1  0.006400  0.606300  0.445400  1.0  0.0199
  C  C337  1  0.527800  0.435600  0.244400  1.0  0.1327
  C  C338  1  0.592900  0.433000  0.267500  1.0  -0.1444
  C  C339  1  0.654200  0.433800  0.242000  1.0  -0.1118
  C  C340  1  0.479200  0.323100  0.297800  1.0  0.1272
  C  C341  1  0.465600  0.293900  0.242000  1.0  -0.0934
  C  C342  1  0.480600  0.237000  0.214000  1.0  -0.0504
  C  C343  1  0.287400  0.363200  0.311900  1.0  -0.0053
  C  C344  1  0.493600  0.554600  0.393700  1.0  0.0225
  C  C345  1  0.527800  0.755600  0.191200  1.0  0.1319
  C  C346  1  0.592900  0.732500  0.165500  1.0  -0.1463
  C  C347  1  0.654200  0.758000  0.191800  1.0  -0.1119
  C  C348  1  0.479200  0.702200  0.025300  1.0  0.1278
  C  C349  1  0.465600  0.758000  0.051900  1.0  -0.0949
  C  C350  1  0.480600  0.786000  0.023000  1.0  -0.0494
  C  C351  1  0.287400  0.688100  0.051300  1.0  -0.0019
  C  C352  1  0.493600  0.606300  0.160900  1.0  0.0197
  C  C353  1  0.527800  0.808800  0.564400  1.0  0.1313
  C  C354  1  0.592900  0.834500  0.567000  1.0  -0.148
  C  C355  1  0.654200  0.808200  0.566200  1.0  -0.1123
  C  C356  1  0.479200  0.974700  0.676900  1.0  0.1269
  C  C357  1  0.465600  0.948100  0.706100  1.0  -0.097
  C  C358  1  0.480600  0.977000  0.763000  1.0  -0.046
  C  C359  1  0.287400  0.948700  0.636800  1.0  -0.0057
  C  C360  1  0.493600  0.839100  0.445400  1.0  0.0216
  C  C361  1  0.027800  0.564400  0.755600  1.0  0.1337
  C  C362  1  0.092900  0.567000  0.732500  1.0  -0.1441
  C  C363  1  0.154200  0.566200  0.758000  1.0  -0.1121
  C  C364  1  0.979200  0.676900  0.702200  1.0  0.1262
  C  C365  1  0.965600  0.706100  0.758000  1.0  -0.0953
  C  C366  1  0.980600  0.763000  0.786000  1.0  -0.0513
  C  C367  1  0.787400  0.636800  0.688100  1.0  -0.0044
  C  C368  1  0.993600  0.445400  0.606300  1.0  0.0227
  C  C369  1  0.027800  0.244400  0.808800  1.0  0.1313
  C  C370  1  0.092900  0.267500  0.834500  1.0  -0.1457
  C  C371  1  0.154200  0.242000  0.808200  1.0  -0.1129
  C  C372  1  0.979200  0.297800  0.974700  1.0  0.1278
  C  C373  1  0.965600  0.242000  0.948100  1.0  -0.0937
  C  C374  1  0.980600  0.214000  0.977000  1.0  -0.0514
  C  C375  1  0.787400  0.311900  0.948700  1.0  -0.0019
  C  C376  1  0.993600  0.393700  0.839100  1.0  0.0214
  C  C377  1  0.027800  0.191200  0.435600  1.0  0.1317
  C  C378  1  0.092900  0.165500  0.433000  1.0  -0.1482
  C  C379  1  0.154200  0.191800  0.433800  1.0  -0.1113
  C  C380  1  0.979200  0.025300  0.323100  1.0  0.1266
  C  C381  1  0.965600  0.051900  0.293900  1.0  -0.0967
  C  C382  1  0.980600  0.023000  0.237000  1.0  -0.0473
  C  C383  1  0.787400  0.051300  0.363200  1.0  -0.0048
  C  C384  1  0.993600  0.160900  0.554600  1.0  0.0215
  C  C385  1  0.418600  0.777550  0.222450  1.0  0.2824
  C  C386  1  0.418600  0.444900  0.222450  1.0  0.2829
  C  C387  1  0.418600  0.777550  0.555100  1.0  0.2824
  C  C388  1  0.918600  0.222450  0.777550  1.0  0.2826
  C  C389  1  0.918600  0.555100  0.777550  1.0  0.2822
  C  C390  1  0.918600  0.222450  0.444900  1.0  0.2826
  C  C391  1  0.581400  0.555100  0.777550  1.0  0.2826
  C  C392  1  0.581400  0.222450  0.777550  1.0  0.2831
  C  C393  1  0.581400  0.222450  0.444900  1.0  0.283
  C  C394  1  0.081400  0.444900  0.222450  1.0  0.2833
  C  C395  1  0.081400  0.777550  0.222450  1.0  0.2828
  C  C396  1  0.081400  0.777550  0.555100  1.0  0.2829
  C  C397  1  0.500000  0.000000  0.387400  1.0  0.2682
  C  C398  1  0.500000  0.387400  0.000000  1.0  0.2655
  C  C399  1  0.500000  0.612600  0.612600  1.0  0.2643
  C  C400  1  0.000000  0.000000  0.612600  1.0  0.2683
  C  C401  1  0.000000  0.612600  0.000000  1.0  0.2655
  C  C402  1  0.000000  0.387400  0.387400  1.0  0.2653
  C  C403  1  0.500000  0.000000  0.612600  1.0  0.2683
  C  C404  1  0.500000  0.612600  0.000000  1.0  0.2655
  C  C405  1  0.500000  0.387400  0.387400  1.0  0.2653
  C  C406  1  0.000000  0.000000  0.387400  1.0  0.2682
  C  C407  1  0.000000  0.387400  0.000000  1.0  0.2655
  C  C408  1  0.000000  0.612600  0.612600  1.0  0.2643
  C  C409  1  0.250000  0.879100  0.319300  1.0  0.1874
  C  C410  1  0.250000  0.440200  0.120900  1.0  0.1876
  C  C411  1  0.250000  0.680700  0.559800  1.0  0.1875
  C  C412  1  0.750000  0.120900  0.680700  1.0  0.1874
  C  C413  1  0.750000  0.559800  0.879100  1.0  0.1867
  C  C414  1  0.750000  0.319300  0.440200  1.0  0.1879
  C  C415  1  0.750000  0.559800  0.680700  1.0  0.1874
  C  C416  1  0.750000  0.319300  0.879100  1.0  0.1873
  C  C417  1  0.750000  0.120900  0.440200  1.0  0.1873
  C  C418  1  0.250000  0.440200  0.319300  1.0  0.1875
  C  C419  1  0.250000  0.680700  0.120900  1.0  0.1877
  C  C420  1  0.250000  0.879100  0.559800  1.0  0.1874
  C  C421  1  0.418900  0.900800  0.450400  1.0  0.2212
  C  C422  1  0.418900  0.549600  0.099200  1.0  0.2201
  C  C423  1  0.418900  0.549600  0.450400  1.0  0.2216
  C  C424  1  0.918900  0.099200  0.549600  1.0  0.2205
  C  C425  1  0.918900  0.450400  0.900800  1.0  0.2218
  C  C426  1  0.918900  0.450400  0.549600  1.0  0.2212
  C  C427  1  0.581100  0.450400  0.549600  1.0  0.2212
  C  C428  1  0.581100  0.450400  0.900800  1.0  0.2218
  C  C429  1  0.581100  0.099200  0.549600  1.0  0.2206
  C  C430  1  0.081100  0.549600  0.450400  1.0  0.2216
  C  C431  1  0.081100  0.549600  0.099200  1.0  0.2202
  C  C432  1  0.081100  0.900800  0.450400  1.0  0.2213
  N  N433  1  0.458300  0.821000  0.262300  1.0  -0.4274
  N  N434  1  0.471300  0.958800  0.338000  1.0  -0.3618
  N  N435  1  0.311500  0.905500  0.317300  1.0  -0.431
  N  N436  1  0.445900  0.877500  0.397300  1.0  -0.4137
  N  N437  1  0.458300  0.441300  0.179000  1.0  -0.4243
  N  N438  1  0.471300  0.379200  0.041200  1.0  -0.3627
  N  N439  1  0.311500  0.411800  0.094500  1.0  -0.4309
  N  N440  1  0.445900  0.519800  0.122500  1.0  -0.4157
  N  N441  1  0.458300  0.737700  0.558700  1.0  -0.4284
  N  N442  1  0.471300  0.662000  0.620800  1.0  -0.3644
  N  N443  1  0.311500  0.682700  0.588200  1.0  -0.4318
  N  N444  1  0.445900  0.602700  0.480200  1.0  -0.4149
  N  N445  1  0.958300  0.179000  0.737700  1.0  -0.4283
  N  N446  1  0.971300  0.041200  0.662000  1.0  -0.3623
  N  N447  1  0.811500  0.094500  0.682700  1.0  -0.4308
  N  N448  1  0.945900  0.122500  0.602700  1.0  -0.413
  N  N449  1  0.958300  0.558700  0.821000  1.0  -0.4236
  N  N450  1  0.971300  0.620800  0.958800  1.0  -0.3641
  N  N451  1  0.811500  0.588200  0.905500  1.0  -0.4312
  N  N452  1  0.945900  0.480200  0.877500  1.0  -0.4158
  N  N453  1  0.958300  0.262300  0.441300  1.0  -0.4278
  N  N454  1  0.971300  0.338000  0.379200  1.0  -0.3621
  N  N455  1  0.811500  0.317300  0.411800  1.0  -0.4312
  N  N456  1  0.945900  0.397300  0.519800  1.0  -0.4154
  N  N457  1  0.541700  0.558700  0.737700  1.0  -0.4238
  N  N458  1  0.528700  0.620800  0.662000  1.0  -0.3618
  N  N459  1  0.688500  0.588200  0.682700  1.0  -0.432
  N  N460  1  0.554100  0.480200  0.602700  1.0  -0.4149
  N  N461  1  0.541700  0.262300  0.821000  1.0  -0.4269
  N  N462  1  0.528700  0.338000  0.958800  1.0  -0.3636
  N  N463  1  0.688500  0.317300  0.905500  1.0  -0.432
  N  N464  1  0.554100  0.397300  0.877500  1.0  -0.4148
  N  N465  1  0.541700  0.179000  0.441300  1.0  -0.4266
  N  N466  1  0.528700  0.041200  0.379200  1.0  -0.3611
  N  N467  1  0.688500  0.094500  0.411800  1.0  -0.4323
  N  N468  1  0.554100  0.122500  0.519800  1.0  -0.4137
  N  N469  1  0.041700  0.441300  0.262300  1.0  -0.4233
  N  N470  1  0.028700  0.379200  0.338000  1.0  -0.3631
  N  N471  1  0.188500  0.411800  0.317300  1.0  -0.4321
  N  N472  1  0.054100  0.519800  0.397300  1.0  -0.4152
  N  N473  1  0.041700  0.737700  0.179000  1.0  -0.4276
  N  N474  1  0.028700  0.662000  0.041200  1.0  -0.3621
  N  N475  1  0.188500  0.682700  0.094500  1.0  -0.4321
  N  N476  1  0.054100  0.602700  0.122500  1.0  -0.4143
  N  N477  1  0.041700  0.821000  0.558700  1.0  -0.4276
  N  N478  1  0.028700  0.958800  0.620800  1.0  -0.3619
  N  N479  1  0.188500  0.905500  0.588200  1.0  -0.432
  N  N480  1  0.054100  0.877500  0.480200  1.0  -0.4121
  N  N481  1  0.541700  0.179000  0.737700  1.0  -0.4275
  N  N482  1  0.528700  0.041200  0.662000  1.0  -0.3615
  N  N483  1  0.688500  0.094500  0.682700  1.0  -0.4313
  N  N484  1  0.554100  0.122500  0.602700  1.0  -0.4125
  N  N485  1  0.541700  0.558700  0.821000  1.0  -0.4226
  N  N486  1  0.528700  0.620800  0.958800  1.0  -0.3629
  N  N487  1  0.688500  0.588200  0.905500  1.0  -0.4311
  N  N488  1  0.554100  0.480200  0.877500  1.0  -0.415
  N  N489  1  0.541700  0.262300  0.441300  1.0  -0.4272
  N  N490  1  0.528700  0.338000  0.379200  1.0  -0.3617
  N  N491  1  0.688500  0.317300  0.411800  1.0  -0.431
  N  N492  1  0.554100  0.397300  0.519800  1.0  -0.4151
  N  N493  1  0.041700  0.821000  0.262300  1.0  -0.4268
  N  N494  1  0.028700  0.958800  0.338000  1.0  -0.3607
  N  N495  1  0.188500  0.905500  0.317300  1.0  -0.4312
  N  N496  1  0.054100  0.877500  0.397300  1.0  -0.4134
  N  N497  1  0.041700  0.441300  0.179000  1.0  -0.4241
  N  N498  1  0.028700  0.379200  0.041200  1.0  -0.362
  N  N499  1  0.188500  0.411800  0.094500  1.0  -0.4313
  N  N500  1  0.054100  0.519800  0.122500  1.0  -0.4154
  N  N501  1  0.041700  0.737700  0.558700  1.0  -0.4277
  N  N502  1  0.028700  0.662000  0.620800  1.0  -0.3635
  N  N503  1  0.188500  0.682700  0.588200  1.0  -0.4314
  N  N504  1  0.054100  0.602700  0.480200  1.0  -0.4143
  N  N505  1  0.458300  0.441300  0.262300  1.0  -0.424
  N  N506  1  0.471300  0.379200  0.338000  1.0  -0.364
  N  N507  1  0.311500  0.411800  0.317300  1.0  -0.4302
  N  N508  1  0.445900  0.519800  0.397300  1.0  -0.4156
  N  N509  1  0.458300  0.737700  0.179000  1.0  -0.4285
  N  N510  1  0.471300  0.662000  0.041200  1.0  -0.3626
  N  N511  1  0.311500  0.682700  0.094500  1.0  -0.4306
  N  N512  1  0.445900  0.602700  0.122500  1.0  -0.4147
  N  N513  1  0.458300  0.821000  0.558700  1.0  -0.4284
  N  N514  1  0.471300  0.958800  0.620800  1.0  -0.3629
  N  N515  1  0.311500  0.905500  0.588200  1.0  -0.4302
  N  N516  1  0.445900  0.877500  0.480200  1.0  -0.4126
  N  N517  1  0.958300  0.558700  0.737700  1.0  -0.4243
  N  N518  1  0.971300  0.620800  0.662000  1.0  -0.3628
  N  N519  1  0.811500  0.588200  0.682700  1.0  -0.4304
  N  N520  1  0.945900  0.480200  0.602700  1.0  -0.4155
  N  N521  1  0.958300  0.262300  0.821000  1.0  -0.4274
  N  N522  1  0.971300  0.338000  0.958800  1.0  -0.3645
  N  N523  1  0.811500  0.317300  0.905500  1.0  -0.4307
  N  N524  1  0.945900  0.397300  0.877500  1.0  -0.4152
  N  N525  1  0.958300  0.179000  0.441300  1.0  -0.4272
  N  N526  1  0.971300  0.041200  0.379200  1.0  -0.362
  N  N527  1  0.811500  0.094500  0.411800  1.0  -0.4302
  N  N528  1  0.945900  0.122500  0.519800  1.0  -0.4141
  N  N529  1  0.250000  0.829400  0.325700  1.0  0.5977
  N  N530  1  0.250000  0.496300  0.170600  1.0  0.5968
  N  N531  1  0.250000  0.674300  0.503700  1.0  0.6031
  N  N532  1  0.750000  0.170600  0.674300  1.0  0.5991
  N  N533  1  0.750000  0.503700  0.829400  1.0  0.5976
  N  N534  1  0.750000  0.325700  0.496300  1.0  0.6023
  N  N535  1  0.750000  0.503700  0.674300  1.0  0.5979
  N  N536  1  0.750000  0.325700  0.829400  1.0  0.6036
  N  N537  1  0.750000  0.170600  0.496300  1.0  0.5969
  N  N538  1  0.250000  0.496300  0.325700  1.0  0.5987
  N  N539  1  0.250000  0.674300  0.170600  1.0  0.6018
  N  N540  1  0.250000  0.829400  0.503700  1.0  0.5976
  N  N541  1  0.365000  0.945700  0.472850  1.0  0.5927
  N  N542  1  0.365000  0.527150  0.054300  1.0  0.5961
  N  N543  1  0.365000  0.527150  0.472850  1.0  0.5947
  N  N544  1  0.865000  0.054300  0.527150  1.0  0.5932
  N  N545  1  0.865000  0.472850  0.945700  1.0  0.5942
  N  N546  1  0.865000  0.472850  0.527150  1.0  0.5968
  N  N547  1  0.635000  0.472850  0.527150  1.0  0.5968
  N  N548  1  0.635000  0.472850  0.945700  1.0  0.5942
  N  N549  1  0.635000  0.054300  0.527150  1.0  0.5933
  N  N550  1  0.135000  0.527150  0.472850  1.0  0.5943
  N  N551  1  0.135000  0.527150  0.054300  1.0  0.5957
  N  N552  1  0.135000  0.945700  0.472850  1.0  0.5925
  O  O553  1  0.310300  0.811200  0.329300  1.0  -0.5323
  O  O554  1  0.346300  0.961300  0.438100  1.0  -0.4951
  O  O555  1  0.310300  0.518100  0.188800  1.0  -0.5287
  O  O556  1  0.346300  0.476800  0.038700  1.0  -0.4935
  O  O557  1  0.310300  0.670700  0.481900  1.0  -0.5326
  O  O558  1  0.346300  0.561900  0.523200  1.0  -0.4936
  O  O559  1  0.810300  0.188800  0.670700  1.0  -0.5319
  O  O560  1  0.846300  0.038700  0.561900  1.0  -0.4968
  O  O561  1  0.810300  0.481900  0.811200  1.0  -0.5304
  O  O562  1  0.846300  0.523200  0.961300  1.0  -0.4944
  O  O563  1  0.810300  0.329300  0.518100  1.0  -0.5331
  O  O564  1  0.846300  0.438100  0.476800  1.0  -0.4931
  O  O565  1  0.689700  0.481900  0.670700  1.0  -0.5293
  O  O566  1  0.653700  0.523200  0.561900  1.0  -0.4946
  O  O567  1  0.689700  0.329300  0.811200  1.0  -0.5319
  O  O568  1  0.653700  0.438100  0.961300  1.0  -0.4937
  O  O569  1  0.689700  0.188800  0.518100  1.0  -0.5318
  O  O570  1  0.653700  0.038700  0.476800  1.0  -0.4962
  O  O571  1  0.189700  0.518100  0.329300  1.0  -0.5287
  O  O572  1  0.153700  0.476800  0.438100  1.0  -0.494
  O  O573  1  0.189700  0.670700  0.188800  1.0  -0.5323
  O  O574  1  0.153700  0.561900  0.038700  1.0  -0.4947
  O  O575  1  0.189700  0.811200  0.481900  1.0  -0.5323
  O  O576  1  0.153700  0.961300  0.523200  1.0  -0.498
  O  O577  1  0.689700  0.188800  0.670700  1.0  -0.5317
  O  O578  1  0.653700  0.038700  0.561900  1.0  -0.498
  O  O579  1  0.689700  0.481900  0.811200  1.0  -0.5305
  O  O580  1  0.653700  0.523200  0.961300  1.0  -0.4939
  O  O581  1  0.689700  0.329300  0.518100  1.0  -0.5324
  O  O582  1  0.653700  0.438100  0.476800  1.0  -0.4937
  O  O583  1  0.189700  0.811200  0.329300  1.0  -0.532
  O  O584  1  0.153700  0.961300  0.438100  1.0  -0.4956
  O  O585  1  0.189700  0.518100  0.188800  1.0  -0.5287
  O  O586  1  0.153700  0.476800  0.038700  1.0  -0.4946
  O  O587  1  0.189700  0.670700  0.481900  1.0  -0.532
  O  O588  1  0.153700  0.561900  0.523200  1.0  -0.494
  O  O589  1  0.310300  0.518100  0.329300  1.0  -0.5286
  O  O590  1  0.346300  0.476800  0.438100  1.0  -0.4938
  O  O591  1  0.310300  0.670700  0.188800  1.0  -0.5329
  O  O592  1  0.346300  0.561900  0.038700  1.0  -0.4935
  O  O593  1  0.310300  0.811200  0.481900  1.0  -0.5323
  O  O594  1  0.346300  0.961300  0.523200  1.0  -0.4973
  O  O595  1  0.810300  0.481900  0.670700  1.0  -0.5295
  O  O596  1  0.846300  0.523200  0.561900  1.0  -0.494
  O  O597  1  0.810300  0.329300  0.811200  1.0  -0.5326
  O  O598  1  0.846300  0.438100  0.961300  1.0  -0.4941
  O  O599  1  0.810300  0.188800  0.518100  1.0  -0.5319
  O  O600  1  0.846300  0.038700  0.476800  1.0  -0.4955
