# generated using pymatgen
data_ZnH3C5N4
_symmetry_space_group_name_H-M   'P 1'
_cell_length_a   9.57000000
_cell_length_b   11.64890000
_cell_length_c   11.64890000
_cell_angle_alpha   80.28600000
_cell_angle_beta   65.74680000
_cell_angle_gamma   65.74690000
_symmetry_Int_Tables_number   1
_chemical_formula_structural   ZnH3C5N4
_chemical_formula_sum   'Zn4 H12 C20 N16'
_cell_volume   1079.50156545
_cell_formula_units_Z   4
loop_
 _symmetry_equiv_pos_site_id
 _symmetry_equiv_pos_as_xyz
  1  'x, y, z'
loop_
 _atom_site_type_symbol
 _atom_site_label
 _atom_site_symmetry_multiplicity
 _atom_site_fract_x
 _atom_site_fract_y
 _atom_site_fract_z
 _atom_site_occupancy
 _atom_site_charge
  Zn  Zn1  1  0.302920  0.475290  0.832550  1.0  0.2417
  Zn  Zn2  1  0.610760  0.524710  0.167450  1.0  0.2778
  Zn  Zn3  1  0.864530  0.832550  0.524710  1.0  0.2828
  Zn  Zn4  1  0.221790  0.167450  0.475290  1.0  0.2417
  H  H5  1  0.997600  0.433900  0.050500  1.0  0.0485
  H  H6  1  0.591900  0.820200  0.769200  1.0  0.0559
  H  H7  1  0.078100  0.663700  0.659300  1.0  0.0865
  H  H8  1  0.482000  0.566100  0.949500  1.0  0.0475
  H  H9  1  0.181300  0.179800  0.230800  1.0  0.0562
  H  H10  1  0.401100  0.336300  0.340700  1.0  0.0905
  H  H11  1  0.951900  0.050500  0.566100  1.0  0.05
  H  H12  1  0.638900  0.769200  0.179800  1.0  0.0549
  H  H13  1  0.262600  0.659300  0.336300  1.0  0.0857
  H  H14  1  0.568500  0.949500  0.433900  1.0  0.0471
  H  H15  1  0.587900  0.230800  0.820200  1.0  0.0553
  H  H16  1  0.258200  0.340700  0.663700  1.0  0.0876
  C  C17  1  0.958100  0.491400  0.994400  1.0  0.2493
  C  C18  1  0.790100  0.626700  0.915500  1.0  0.3574
  C  C19  1  0.683000  0.763400  0.786600  1.0  0.3196
  C  C20  1  0.973200  0.672700  0.718700  1.0  0.0785
  C  C21  1  0.951800  0.607300  0.833500  1.0  0.0037
  C  C22  1  0.443900  0.508600  0.005600  1.0  0.2496
  C  C23  1  0.332300  0.373300  0.084500  1.0  0.3591
  C  C24  1  0.233000  0.236600  0.213400  1.0  0.318
  C  C25  1  0.364600  0.327300  0.281300  1.0  0.0748
  C  C26  1  0.392600  0.392700  0.166500  1.0  0.0022
  C  C27  1  0.047500  0.994400  0.508600  1.0  0.2476
  C  C28  1  0.294400  0.915500  0.373300  1.0  0.3576
  C  C29  1  0.530400  0.786600  0.236600  1.0  0.3206
  C  C30  1  0.308100  0.718700  0.327300  1.0  0.0802
  C  C31  1  0.214700  0.833500  0.392700  1.0  0.0066
  C  C32  1  0.550500  0.005600  0.491400  1.0  0.2492
  C  C33  1  0.583200  0.084500  0.626700  1.0  0.3593
  C  C34  1  0.553600  0.213400  0.763400  1.0  0.3198
  C  C35  1  0.354100  0.281300  0.672700  1.0  0.0794
  C  C36  1  0.440900  0.166500  0.607300  1.0  0.0048
  N  N37  1  0.058800  0.522300  0.884300  1.0  -0.3182
  N  N38  1  0.797600  0.549900  0.016100  1.0  -0.3669
  N  N39  1  0.654100  0.703000  0.895400  1.0  -0.4607
  N  N40  1  0.835800  0.748800  0.698400  1.0  -0.3138
  N  N41  1  0.465400  0.477700  0.115700  1.0  -0.3168
  N  N42  1  0.363600  0.450100  0.983900  1.0  -0.3644
  N  N43  1  0.252500  0.297000  0.104600  1.0  -0.4631
  N  N44  1  0.283000  0.251200  0.301600  1.0  -0.3119
  N  N45  1  0.056900  0.884300  0.477700  1.0  -0.3259
  N  N46  1  0.186300  0.016100  0.450100  1.0  -0.3654
  N  N47  1  0.450500  0.895400  0.297000  1.0  -0.465
  N  N48  1  0.465800  0.698400  0.251200  1.0  -0.3137
  N  N49  1  0.418900  0.115700  0.522300  1.0  -0.3197
  N  N50  1  0.652500  0.983900  0.549900  1.0  -0.3662
  N  N51  1  0.642900  0.104600  0.703000  1.0  -0.4621
  N  N52  1  0.415400  0.301600  0.748800  1.0  -0.3133
