# generated using pymatgen
data_CuH16(C5N2)4
_symmetry_space_group_name_H-M   'P 1'
_cell_length_a   17.32700000
_cell_length_b   17.32700000
_cell_length_c   7.72880000
_cell_angle_alpha   90.00000000
_cell_angle_beta   90.00000000
_cell_angle_gamma   90.00000000
_symmetry_Int_Tables_number   1
_chemical_formula_structural   CuH16(C5N2)4
_chemical_formula_sum   'Cu4 H64 C80 N32'
_cell_volume   2320.37843126
_cell_formula_units_Z   4
loop_
 _symmetry_equiv_pos_site_id
 _symmetry_equiv_pos_as_xyz
  1  'x, y, z'
loop_
 _atom_site_type_symbol
 _atom_site_label
 _atom_site_symmetry_multiplicity
 _atom_site_fract_x
 _atom_site_fract_y
 _atom_site_fract_z
 _atom_site_occupancy
 _atom_site_charge
  Cu  Cu1  1  0.000000  0.250000  0.125000  1.0  0.4516
  Cu  Cu2  1  0.500000  0.750000  0.625000  1.0  0.4516
  Cu  Cu3  1  0.500000  0.250000  0.375000  1.0  0.4516
  Cu  Cu4  1  0.000000  0.750000  0.875000  1.0  0.4516
  H  H5  1  0.904100  0.493000  0.843800  1.0  0.1201
  H  H6  1  0.909800  0.397100  0.052000  1.0  0.0647
  H  H7  1  0.093200  0.306400  0.835200  1.0  0.0609
  H  H8  1  0.091000  0.396700  0.614900  1.0  0.1147
  H  H9  1  0.404100  0.993000  0.343800  1.0  0.1201
  H  H10  1  0.409800  0.897100  0.552000  1.0  0.0647
  H  H11  1  0.593200  0.806400  0.335200  1.0  0.0609
  H  H12  1  0.591000  0.896700  0.114900  1.0  0.1147
  H  H13  1  0.595900  0.507000  0.343800  1.0  0.1206
  H  H14  1  0.590200  0.602900  0.552000  1.0  0.0645
  H  H15  1  0.406800  0.693600  0.335200  1.0  0.0602
  H  H16  1  0.409000  0.603300  0.114900  1.0  0.1154
  H  H17  1  0.095900  0.007000  0.843800  1.0  0.1206
  H  H18  1  0.090200  0.102900  0.052000  1.0  0.0645
  H  H19  1  0.906800  0.193600  0.835200  1.0  0.0602
  H  H20  1  0.909000  0.103300  0.614900  1.0  0.1154
  H  H21  1  0.257000  0.154100  0.093800  1.0  0.1203
  H  H22  1  0.352900  0.159800  0.302000  1.0  0.0658
  H  H23  1  0.443600  0.343200  0.085200  1.0  0.0594
  H  H24  1  0.353300  0.341000  0.864900  1.0  0.1154
  H  H25  1  0.757000  0.654100  0.593800  1.0  0.1203
  H  H26  1  0.852900  0.659800  0.802000  1.0  0.0658
  H  H27  1  0.943600  0.843200  0.585200  1.0  0.0594
  H  H28  1  0.853300  0.841000  0.364900  1.0  0.1154
  H  H29  1  0.243000  0.845900  0.593800  1.0  0.1203
  H  H30  1  0.147100  0.840200  0.802000  1.0  0.0652
  H  H31  1  0.056400  0.656800  0.585200  1.0  0.0603
  H  H32  1  0.146700  0.659000  0.364900  1.0  0.1152
  H  H33  1  0.743000  0.345900  0.093800  1.0  0.1203
  H  H34  1  0.647100  0.340200  0.302000  1.0  0.0652
  H  H35  1  0.556400  0.156800  0.085200  1.0  0.0603
  H  H36  1  0.646700  0.159000  0.864900  1.0  0.1152
  H  H37  1  0.095900  0.507000  0.156200  1.0  0.1208
  H  H38  1  0.090200  0.602900  0.948000  1.0  0.0644
  H  H39  1  0.906800  0.693600  0.164800  1.0  0.06
  H  H40  1  0.909000  0.603300  0.385100  1.0  0.1157
  H  H41  1  0.595900  0.007000  0.656200  1.0  0.1208
  H  H42  1  0.590200  0.102900  0.448000  1.0  0.0644
  H  H43  1  0.406800  0.193600  0.664800  1.0  0.06
  H  H44  1  0.409000  0.103300  0.885100  1.0  0.1157
  H  H45  1  0.404100  0.493000  0.656200  1.0  0.1203
  H  H46  1  0.409800  0.397100  0.448000  1.0  0.065
  H  H47  1  0.593200  0.306400  0.664800  1.0  0.061
  H  H48  1  0.591000  0.396700  0.885100  1.0  0.1148
  H  H49  1  0.904100  0.993000  0.156200  1.0  0.1203
  H  H50  1  0.909800  0.897100  0.948000  1.0  0.065
  H  H51  1  0.093200  0.806400  0.164800  1.0  0.061
  H  H52  1  0.091000  0.896700  0.385100  1.0  0.1148
  H  H53  1  0.743000  0.845900  0.906200  1.0  0.1205
  H  H54  1  0.647100  0.840200  0.698000  1.0  0.0654
  H  H55  1  0.556400  0.656800  0.914800  1.0  0.0602
  H  H56  1  0.646700  0.659000  0.135100  1.0  0.1155
  H  H57  1  0.243000  0.345900  0.406200  1.0  0.1205
  H  H58  1  0.147100  0.340200  0.198000  1.0  0.0654
  H  H59  1  0.056400  0.156800  0.414800  1.0  0.0602
  H  H60  1  0.146700  0.159000  0.635100  1.0  0.1155
  H  H61  1  0.757000  0.154100  0.406200  1.0  0.1205
  H  H62  1  0.852900  0.159800  0.198000  1.0  0.0653
  H  H63  1  0.943600  0.343200  0.414800  1.0  0.0594
  H  H64  1  0.853300  0.341000  0.635100  1.0  0.1155
  H  H65  1  0.257000  0.654100  0.906200  1.0  0.1205
  H  H66  1  0.352900  0.659800  0.698000  1.0  0.0653
  H  H67  1  0.443600  0.843200  0.914800  1.0  0.0594
  H  H68  1  0.353300  0.841000  0.135100  1.0  0.1155
  C  C69  1  0.994600  0.452900  0.702900  1.0  0.2169
  C  C70  1  0.942500  0.454000  0.837200  1.0  -0.2418
  C  C71  1  0.947100  0.397300  0.961900  1.0  0.1565
  C  C72  1  0.053500  0.344100  0.834900  1.0  0.152
  C  C73  1  0.052800  0.397600  0.703100  1.0  -0.184
  C  C74  1  0.494600  0.952900  0.202900  1.0  0.2169
  C  C75  1  0.442500  0.954000  0.337200  1.0  -0.2418
  C  C76  1  0.447100  0.897300  0.461900  1.0  0.1565
  C  C77  1  0.553500  0.844100  0.334900  1.0  0.152
  C  C78  1  0.552800  0.897600  0.203100  1.0  -0.184
  C  C79  1  0.505400  0.547100  0.202900  1.0  0.2158
  C  C80  1  0.557500  0.546000  0.337200  1.0  -0.2409
  C  C81  1  0.552900  0.602700  0.461900  1.0  0.1562
  C  C82  1  0.446500  0.655900  0.334900  1.0  0.1527
  C  C83  1  0.447200  0.602400  0.203100  1.0  -0.1849
  C  C84  1  0.005400  0.047100  0.702900  1.0  0.2158
  C  C85  1  0.057500  0.046000  0.837200  1.0  -0.2409
  C  C86  1  0.052900  0.102700  0.961900  1.0  0.1562
  C  C87  1  0.946500  0.155900  0.834900  1.0  0.1527
  C  C88  1  0.947200  0.102400  0.703100  1.0  -0.1849
  C  C89  1  0.297100  0.244600  0.952900  1.0  0.2132
  C  C90  1  0.296000  0.192500  0.087200  1.0  -0.2418
  C  C91  1  0.352700  0.197100  0.211900  1.0  0.1561
  C  C92  1  0.405900  0.303500  0.084900  1.0  0.1515
  C  C93  1  0.352400  0.302800  0.953100  1.0  -0.1868
  C  C94  1  0.797100  0.744600  0.452900  1.0  0.2132
  C  C95  1  0.796000  0.692500  0.587200  1.0  -0.2418
  C  C96  1  0.852700  0.697100  0.711900  1.0  0.1561
  C  C97  1  0.905900  0.803500  0.584900  1.0  0.1515
  C  C98  1  0.852400  0.802800  0.453100  1.0  -0.1868
  C  C99  1  0.202900  0.755400  0.452900  1.0  0.2144
  C  C100  1  0.204000  0.807500  0.587200  1.0  -0.2409
  C  C101  1  0.147300  0.802900  0.711900  1.0  0.1556
  C  C102  1  0.094100  0.696500  0.584900  1.0  0.152
  C  C103  1  0.147600  0.697200  0.453100  1.0  -0.1866
  C  C104  1  0.702900  0.255400  0.952900  1.0  0.2144
  C  C105  1  0.704000  0.307500  0.087200  1.0  -0.2409
  C  C106  1  0.647300  0.302900  0.211900  1.0  0.1556
  C  C107  1  0.594100  0.196500  0.084900  1.0  0.152
  C  C108  1  0.647600  0.197200  0.953100  1.0  -0.1866
  C  C109  1  0.005400  0.547100  0.297100  1.0  0.2157
  C  C110  1  0.057500  0.546000  0.162800  1.0  -0.2411
  C  C111  1  0.052900  0.602700  0.038100  1.0  0.155
  C  C112  1  0.946500  0.655900  0.165100  1.0  0.1532
  C  C113  1  0.947200  0.602400  0.296900  1.0  -0.1853
  C  C114  1  0.505400  0.047100  0.797100  1.0  0.2157
  C  C115  1  0.557500  0.046000  0.662800  1.0  -0.2411
  C  C116  1  0.552900  0.102700  0.538100  1.0  0.155
  C  C117  1  0.446500  0.155900  0.665100  1.0  0.1532
  C  C118  1  0.447200  0.102400  0.796900  1.0  -0.1853
  C  C119  1  0.494600  0.452900  0.797100  1.0  0.2165
  C  C120  1  0.442500  0.454000  0.662800  1.0  -0.2418
  C  C121  1  0.447100  0.397300  0.538100  1.0  0.1552
  C  C122  1  0.553500  0.344100  0.665100  1.0  0.1526
  C  C123  1  0.552800  0.397600  0.796900  1.0  -0.184
  C  C124  1  0.994600  0.952900  0.297100  1.0  0.2165
  C  C125  1  0.942500  0.954000  0.162800  1.0  -0.2418
  C  C126  1  0.947100  0.897300  0.038100  1.0  0.1552
  C  C127  1  0.053500  0.844100  0.165100  1.0  0.1526
  C  C128  1  0.052800  0.897600  0.296900  1.0  -0.184
  C  C129  1  0.702900  0.755400  0.047100  1.0  0.2141
  C  C130  1  0.704000  0.807500  0.912800  1.0  -0.2409
  C  C131  1  0.647300  0.802900  0.788100  1.0  0.1548
  C  C132  1  0.594100  0.696500  0.915100  1.0  0.1527
  C  C133  1  0.647600  0.697200  0.046900  1.0  -0.1868
  C  C134  1  0.202900  0.255400  0.547100  1.0  0.2141
  C  C135  1  0.204000  0.307500  0.412800  1.0  -0.2409
  C  C136  1  0.147300  0.302900  0.288100  1.0  0.1548
  C  C137  1  0.094100  0.196500  0.415100  1.0  0.1527
  C  C138  1  0.147600  0.197200  0.546900  1.0  -0.1868
  C  C139  1  0.797100  0.244600  0.547100  1.0  0.2129
  C  C140  1  0.796000  0.192500  0.412800  1.0  -0.242
  C  C141  1  0.852700  0.197100  0.288100  1.0  0.1553
  C  C142  1  0.905900  0.303500  0.415100  1.0  0.1521
  C  C143  1  0.852400  0.302800  0.546900  1.0  -0.1874
  C  C144  1  0.297100  0.744600  0.047100  1.0  0.2129
  C  C145  1  0.296000  0.692500  0.912800  1.0  -0.242
  C  C146  1  0.352700  0.697100  0.788100  1.0  0.1553
  C  C147  1  0.405900  0.803500  0.915100  1.0  0.1521
  C  C148  1  0.352400  0.802800  0.046900  1.0  -0.1874
  N  N149  1  0.001590  0.342300  0.962400  1.0  -0.3487
  N  N150  1  0.988230  0.511110  0.572600  1.0  -0.2217
  N  N151  1  0.501590  0.842300  0.462400  1.0  -0.3487
  N  N152  1  0.488230  0.011110  0.072600  1.0  -0.2217
  N  N153  1  0.498410  0.657700  0.462400  1.0  -0.3488
  N  N154  1  0.511770  0.488890  0.072600  1.0  -0.2199
  N  N155  1  0.998410  0.157700  0.962400  1.0  -0.3488
  N  N156  1  0.011770  0.988890  0.572600  1.0  -0.2199
  N  N157  1  0.407700  0.251590  0.212400  1.0  -0.3495
  N  N158  1  0.238890  0.238230  0.822600  1.0  -0.2201
  N  N159  1  0.907700  0.751590  0.712400  1.0  -0.3495
  N  N160  1  0.738890  0.738230  0.322600  1.0  -0.2201
  N  N161  1  0.092300  0.748410  0.712400  1.0  -0.3484
  N  N162  1  0.261110  0.761770  0.322600  1.0  -0.2197
  N  N163  1  0.592300  0.248410  0.212400  1.0  -0.3484
  N  N164  1  0.761110  0.261770  0.822600  1.0  -0.2197
  N  N165  1  0.998410  0.657700  0.037600  1.0  -0.3499
  N  N166  1  0.011770  0.488890  0.427400  1.0  -0.2189
  N  N167  1  0.498410  0.157700  0.537600  1.0  -0.3499
  N  N168  1  0.511770  0.988890  0.927400  1.0  -0.2189
  N  N169  1  0.501590  0.342300  0.537600  1.0  -0.3507
  N  N170  1  0.488230  0.511110  0.927400  1.0  -0.2212
  N  N171  1  0.001590  0.842300  0.037600  1.0  -0.3507
  N  N172  1  0.988230  0.011110  0.427400  1.0  -0.2212
  N  N173  1  0.592300  0.748410  0.787600  1.0  -0.3497
  N  N174  1  0.761110  0.761770  0.177400  1.0  -0.219
  N  N175  1  0.092300  0.248410  0.287600  1.0  -0.3497
  N  N176  1  0.261110  0.261770  0.677400  1.0  -0.219
  N  N177  1  0.907700  0.251590  0.287600  1.0  -0.3509
  N  N178  1  0.738890  0.238230  0.677400  1.0  -0.2193
  N  N179  1  0.407700  0.751590  0.787600  1.0  -0.3509
  N  N180  1  0.238890  0.738230  0.177400  1.0  -0.2193
