# generated using pymatgen
data_CuH16(C5N2)4
_symmetry_space_group_name_H-M   'P 1'
_cell_length_a   17.76500000
_cell_length_b   17.76500000
_cell_length_c   7.56700000
_cell_angle_alpha   90.00000000
_cell_angle_beta   90.00000000
_cell_angle_gamma   90.00000000
_symmetry_Int_Tables_number   1
_chemical_formula_structural   CuH16(C5N2)4
_chemical_formula_sum   'Cu4 H64 C80 N32'
_cell_volume   2388.10906758
_cell_formula_units_Z   4
loop_
 _symmetry_equiv_pos_site_id
 _symmetry_equiv_pos_as_xyz
  1  'x, y, z'
loop_
 _atom_site_type_symbol
 _atom_site_label
 _atom_site_symmetry_multiplicity
 _atom_site_fract_x
 _atom_site_fract_y
 _atom_site_fract_z
 _atom_site_occupancy
 _atom_site_charge
  Cu  Cu1  1  0.500000  0.000000  0.750000  1.0  0.354
  Cu  Cu2  1  0.000000  0.500000  0.250000  1.0  0.354
  Cu  Cu3  1  0.500000  0.500000  0.500000  1.0  0.4517
  Cu  Cu4  1  0.000000  0.000000  0.000000  1.0  0.4517
  H  H5  1  0.586900  0.147000  0.678200  1.0  0.0686
  H  H6  1  0.589800  0.242400  0.470300  1.0  0.1261
  H  H7  1  0.415800  0.142400  0.231800  1.0  0.1065
  H  H8  1  0.407000  0.061300  0.467700  1.0  0.0721
  H  H9  1  0.582400  0.448300  0.813100  1.0  0.0633
  H  H10  1  0.593800  0.344600  0.991700  1.0  0.1222
  H  H11  1  0.404600  0.265600  0.776700  1.0  0.1234
  H  H12  1  0.412900  0.359100  0.568900  1.0  0.0642
  H  H13  1  0.086900  0.647000  0.178200  1.0  0.0686
  H  H14  1  0.089800  0.742400  0.970300  1.0  0.1261
  H  H15  1  0.915800  0.642400  0.731800  1.0  0.1065
  H  H16  1  0.907000  0.561300  0.967700  1.0  0.0721
  H  H17  1  0.082400  0.948300  0.313100  1.0  0.0633
  H  H18  1  0.093800  0.844600  0.491700  1.0  0.1222
  H  H19  1  0.904600  0.765600  0.276700  1.0  0.1234
  H  H20  1  0.912900  0.859100  0.068900  1.0  0.0642
  H  H21  1  0.413100  0.853000  0.678200  1.0  0.0679
  H  H22  1  0.410200  0.757600  0.470300  1.0  0.1253
  H  H23  1  0.584200  0.857600  0.231800  1.0  0.1066
  H  H24  1  0.593000  0.938700  0.467700  1.0  0.0709
  H  H25  1  0.417600  0.551700  0.813100  1.0  0.0641
  H  H26  1  0.406200  0.655400  0.991700  1.0  0.1212
  H  H27  1  0.595400  0.734400  0.776700  1.0  0.1235
  H  H28  1  0.587100  0.640900  0.568900  1.0  0.0647
  H  H29  1  0.913100  0.353000  0.178200  1.0  0.0679
  H  H30  1  0.910200  0.257600  0.970300  1.0  0.1253
  H  H31  1  0.084200  0.357600  0.731800  1.0  0.1066
  H  H32  1  0.093000  0.438700  0.967700  1.0  0.0709
  H  H33  1  0.917600  0.051700  0.313100  1.0  0.0641
  H  H34  1  0.906200  0.155400  0.491700  1.0  0.1212
  H  H35  1  0.095400  0.234400  0.276700  1.0  0.1235
  H  H36  1  0.087100  0.140900  0.068900  1.0  0.0647
  H  H37  1  0.147000  0.413100  0.321800  1.0  0.0681
  H  H38  1  0.242400  0.410200  0.529700  1.0  0.126
  H  H39  1  0.142400  0.584200  0.768200  1.0  0.1061
  H  H40  1  0.061300  0.593000  0.532300  1.0  0.0713
  H  H41  1  0.448300  0.417600  0.186900  1.0  0.0632
  H  H42  1  0.344600  0.406200  0.008300  1.0  0.1206
  H  H43  1  0.265600  0.595400  0.223300  1.0  0.1246
  H  H44  1  0.359100  0.587100  0.431100  1.0  0.0631
  H  H45  1  0.647000  0.913100  0.821800  1.0  0.0681
  H  H46  1  0.742400  0.910200  0.029700  1.0  0.126
  H  H47  1  0.642400  0.084200  0.268200  1.0  0.1061
  H  H48  1  0.561300  0.093000  0.032300  1.0  0.0713
  H  H49  1  0.948300  0.917600  0.686900  1.0  0.0632
  H  H50  1  0.844600  0.906200  0.508300  1.0  0.1206
  H  H51  1  0.765600  0.095400  0.723300  1.0  0.1246
  H  H52  1  0.859100  0.087100  0.931100  1.0  0.0631
  H  H53  1  0.853000  0.586900  0.321800  1.0  0.0677
  H  H54  1  0.757600  0.589800  0.529700  1.0  0.1258
  H  H55  1  0.857600  0.415800  0.768200  1.0  0.1074
  H  H56  1  0.938700  0.407000  0.532300  1.0  0.0712
  H  H57  1  0.551700  0.582400  0.186900  1.0  0.0636
  H  H58  1  0.655400  0.593800  0.008300  1.0  0.1202
  H  H59  1  0.734400  0.404600  0.223300  1.0  0.1238
  H  H60  1  0.640900  0.412900  0.431100  1.0  0.0634
  H  H61  1  0.353000  0.086900  0.821800  1.0  0.0677
  H  H62  1  0.257600  0.089800  0.029700  1.0  0.1258
  H  H63  1  0.357600  0.915800  0.268200  1.0  0.1074
  H  H64  1  0.438700  0.907000  0.032300  1.0  0.0712
  H  H65  1  0.051700  0.082400  0.686900  1.0  0.0636
  H  H66  1  0.155400  0.093800  0.508300  1.0  0.1202
  H  H67  1  0.234400  0.904600  0.723300  1.0  0.1238
  H  H68  1  0.140900  0.912900  0.931100  1.0  0.0634
  C  C69  1  0.551400  0.146800  0.587900  1.0  0.1589
  C  C70  1  0.554700  0.203700  0.461700  1.0  -0.2533
  C  C71  1  0.504300  0.200900  0.323900  1.0  0.1877
  C  C72  1  0.450200  0.145500  0.324100  1.0  -0.1284
  C  C73  1  0.447200  0.094700  0.461500  1.0  0.1525
  C  C74  1  0.549600  0.408000  0.797700  1.0  0.146
  C  C75  1  0.553500  0.349300  0.914000  1.0  -0.1822
  C  C76  1  0.496300  0.297900  0.912800  1.0  0.1288
  C  C77  1  0.443100  0.301000  0.782100  1.0  -0.2246
  C  C78  1  0.448200  0.357400  0.659600  1.0  0.1541
  C  C79  1  0.051400  0.646800  0.087900  1.0  0.1589
  C  C80  1  0.054700  0.703700  0.961700  1.0  -0.2533
  C  C81  1  0.004300  0.700900  0.823900  1.0  0.1877
  C  C82  1  0.950200  0.645500  0.824100  1.0  -0.1284
  C  C83  1  0.947200  0.594700  0.961500  1.0  0.1525
  C  C84  1  0.049600  0.908000  0.297700  1.0  0.146
  C  C85  1  0.053500  0.849300  0.414000  1.0  -0.1822
  C  C86  1  0.996300  0.797900  0.412800  1.0  0.1288
  C  C87  1  0.943100  0.801000  0.282100  1.0  -0.2246
  C  C88  1  0.948200  0.857400  0.159600  1.0  0.1541
  C  C89  1  0.448600  0.853200  0.587900  1.0  0.1593
  C  C90  1  0.445300  0.796300  0.461700  1.0  -0.2514
  C  C91  1  0.495700  0.799100  0.323900  1.0  0.1855
  C  C92  1  0.549800  0.854500  0.324100  1.0  -0.1292
  C  C93  1  0.552800  0.905300  0.461500  1.0  0.152
  C  C94  1  0.450400  0.592000  0.797700  1.0  0.1466
  C  C95  1  0.446500  0.650700  0.914000  1.0  -0.1805
  C  C96  1  0.503700  0.702100  0.912800  1.0  0.1298
  C  C97  1  0.556900  0.699000  0.782100  1.0  -0.2255
  C  C98  1  0.551800  0.642600  0.659600  1.0  0.1548
  C  C99  1  0.948600  0.353200  0.087900  1.0  0.1593
  C  C100  1  0.945300  0.296300  0.961700  1.0  -0.2514
  C  C101  1  0.995700  0.299100  0.823900  1.0  0.1855
  C  C102  1  0.049800  0.354500  0.824100  1.0  -0.1292
  C  C103  1  0.052800  0.405300  0.961500  1.0  0.152
  C  C104  1  0.950400  0.092000  0.297700  1.0  0.1466
  C  C105  1  0.946500  0.150700  0.414000  1.0  -0.1805
  C  C106  1  0.003700  0.202100  0.412800  1.0  0.1298
  C  C107  1  0.056900  0.199000  0.282100  1.0  -0.2255
  C  C108  1  0.051800  0.142600  0.159600  1.0  0.1548
  C  C109  1  0.146800  0.448600  0.412100  1.0  0.1579
  C  C110  1  0.203700  0.445300  0.538300  1.0  -0.2523
  C  C111  1  0.200900  0.495700  0.676100  1.0  0.1834
  C  C112  1  0.145500  0.549800  0.675900  1.0  -0.1302
  C  C113  1  0.094700  0.552800  0.538500  1.0  0.1509
  C  C114  1  0.408000  0.450400  0.202300  1.0  0.146
  C  C115  1  0.349300  0.446500  0.086000  1.0  -0.1827
  C  C116  1  0.297900  0.503700  0.087200  1.0  0.1246
  C  C117  1  0.301000  0.556900  0.217900  1.0  -0.2261
  C  C118  1  0.357400  0.551800  0.340400  1.0  0.1541
  C  C119  1  0.646800  0.948600  0.912100  1.0  0.1579
  C  C120  1  0.703700  0.945300  0.038300  1.0  -0.2523
  C  C121  1  0.700900  0.995700  0.176100  1.0  0.1834
  C  C122  1  0.645500  0.049800  0.175900  1.0  -0.1302
  C  C123  1  0.594700  0.052800  0.038500  1.0  0.1509
  C  C124  1  0.908000  0.950400  0.702300  1.0  0.146
  C  C125  1  0.849300  0.946500  0.586000  1.0  -0.1827
  C  C126  1  0.797900  0.003700  0.587200  1.0  0.1246
  C  C127  1  0.801000  0.056900  0.717900  1.0  -0.2261
  C  C128  1  0.857400  0.051800  0.840400  1.0  0.1541
  C  C129  1  0.853200  0.551400  0.412100  1.0  0.1585
  C  C130  1  0.796300  0.554700  0.538300  1.0  -0.2515
  C  C131  1  0.799100  0.504300  0.676100  1.0  0.1836
  C  C132  1  0.854500  0.450200  0.675900  1.0  -0.1312
  C  C133  1  0.905300  0.447200  0.538500  1.0  0.1518
  C  C134  1  0.592000  0.549600  0.202300  1.0  0.1448
  C  C135  1  0.650700  0.553500  0.086000  1.0  -0.1835
  C  C136  1  0.702100  0.496300  0.087200  1.0  0.1266
  C  C137  1  0.699000  0.443100  0.217900  1.0  -0.227
  C  C138  1  0.642600  0.448200  0.340400  1.0  0.1533
  C  C139  1  0.353200  0.051400  0.912100  1.0  0.1585
  C  C140  1  0.296300  0.054700  0.038300  1.0  -0.2515
  C  C141  1  0.299100  0.004300  0.176100  1.0  0.1836
  C  C142  1  0.354500  0.950200  0.175900  1.0  -0.1312
  C  C143  1  0.405300  0.947200  0.038500  1.0  0.1518
  C  C144  1  0.092000  0.049600  0.702300  1.0  0.1448
  C  C145  1  0.150700  0.053500  0.586000  1.0  -0.1835
  C  C146  1  0.202100  0.996300  0.587200  1.0  0.1266
  C  C147  1  0.199000  0.943100  0.717900  1.0  -0.227
  C  C148  1  0.142600  0.948200  0.840400  1.0  0.1533
  N  N149  1  0.500300  0.092200  0.586200  1.0  -0.3306
  N  N150  1  0.512600  0.260800  0.196300  1.0  -0.1963
  N  N151  1  0.490100  0.240000  0.047900  1.0  -0.2195
  N  N152  1  0.501800  0.410300  0.665000  1.0  -0.3337
  N  N153  1  0.000300  0.592200  0.086200  1.0  -0.3306
  N  N154  1  0.012600  0.760800  0.696300  1.0  -0.1963
  N  N155  1  0.990100  0.740000  0.547900  1.0  -0.2195
  N  N156  1  0.001800  0.910300  0.165000  1.0  -0.3337
  N  N157  1  0.499700  0.907800  0.586200  1.0  -0.3309
  N  N158  1  0.487400  0.739200  0.196300  1.0  -0.1964
  N  N159  1  0.509900  0.760000  0.047900  1.0  -0.2192
  N  N160  1  0.498200  0.589700  0.665000  1.0  -0.3349
  N  N161  1  0.999700  0.407800  0.086200  1.0  -0.3309
  N  N162  1  0.987400  0.239200  0.696300  1.0  -0.1964
  N  N163  1  0.009900  0.260000  0.547900  1.0  -0.2192
  N  N164  1  0.998200  0.089700  0.165000  1.0  -0.3349
  N  N165  1  0.092200  0.499700  0.413800  1.0  -0.3301
  N  N166  1  0.260800  0.487400  0.803700  1.0  -0.1938
  N  N167  1  0.240000  0.509900  0.952100  1.0  -0.2181
  N  N168  1  0.410300  0.498200  0.335000  1.0  -0.3345
  N  N169  1  0.592200  0.999700  0.913800  1.0  -0.3301
  N  N170  1  0.760800  0.987400  0.303700  1.0  -0.1938
  N  N171  1  0.740000  0.009900  0.452100  1.0  -0.2181
  N  N172  1  0.910300  0.998200  0.835000  1.0  -0.3345
  N  N173  1  0.907800  0.500300  0.413800  1.0  -0.3298
  N  N174  1  0.739200  0.512600  0.803700  1.0  -0.1946
  N  N175  1  0.760000  0.490100  0.952100  1.0  -0.2183
  N  N176  1  0.589700  0.501800  0.335000  1.0  -0.3339
  N  N177  1  0.407800  0.000300  0.913800  1.0  -0.3298
  N  N178  1  0.239200  0.012600  0.303700  1.0  -0.1946
  N  N179  1  0.260000  0.990100  0.452100  1.0  -0.2183
  N  N180  1  0.089700  0.001800  0.835000  1.0  -0.3339
