# generated using pymatgen
data_GdH6C21(NO3)6
_symmetry_space_group_name_H-M   'P 1'
_cell_length_a   13.30700000
_cell_length_b   23.94700000
_cell_length_c   30.21700000
_cell_angle_alpha   90.00000000
_cell_angle_beta   90.00000000
_cell_angle_gamma   98.15500000
_symmetry_Int_Tables_number   1
_chemical_formula_structural   GdH6C21(NO3)6
_chemical_formula_sum   'Gd8 H48 C168 N48 O144'
_cell_volume   9531.66239508
_cell_formula_units_Z   8
loop_
 _symmetry_equiv_pos_site_id
 _symmetry_equiv_pos_as_xyz
  1  'x, y, z'
loop_
 _atom_site_type_symbol
 _atom_site_label
 _atom_site_symmetry_multiplicity
 _atom_site_fract_x
 _atom_site_fract_y
 _atom_site_fract_z
 _atom_site_occupancy
 _atom_site_charge
  Gd  Gd1  1  0.854810  0.729650  0.771270  1.0  2.1728
  Gd  Gd2  1  0.151860  0.790200  0.748550  1.0  2.1845
  Gd  Gd3  1  0.645190  0.770350  0.271270  1.0  2.1724
  Gd  Gd4  1  0.348140  0.709800  0.248550  1.0  2.1918
  Gd  Gd5  1  0.145190  0.270350  0.228730  1.0  2.1724
  Gd  Gd6  1  0.848140  0.209800  0.251450  1.0  2.1849
  Gd  Gd7  1  0.354810  0.229650  0.728730  1.0  2.1731
  Gd  Gd8  1  0.651860  0.290200  0.751450  1.0  2.1794
  H  H9  1  0.180000  0.653300  0.722600  1.0  0.1135
  H  H10  1  0.990600  0.549300  0.797500  1.0  0.1334
  H  H11  1  0.501200  0.461600  0.793700  1.0  0.141
  H  H12  1  0.322100  0.365700  0.706800  1.0  0.127
  H  H13  1  0.834600  0.681700  0.390200  1.0  0.116
  H  H14  1  0.787100  0.839800  0.412100  1.0  0.1223
  H  H15  1  0.803100  0.707000  0.626500  1.0  0.1183
  H  H16  1  0.076600  0.789100  0.600400  1.0  0.1237
  H  H17  1  0.927400  0.724800  0.917400  1.0  0.1205
  H  H18  1  0.209700  0.798600  0.894300  1.0  0.1312
  H  H19  1  0.206300  0.644500  0.102200  1.0  0.1461
  H  H20  1  0.167000  0.801800  0.132900  1.0  0.1246
  H  H21  1  0.320000  0.846700  0.222600  1.0  0.1125
  H  H22  1  0.509400  0.950700  0.297500  1.0  0.135
  H  H23  1  0.998800  0.038400  0.293700  1.0  0.141
  H  H24  1  0.177900  0.134300  0.206800  1.0  0.1268
  H  H25  1  0.665400  0.818300  0.890200  1.0  0.1155
  H  H26  1  0.712900  0.660200  0.912100  1.0  0.1222
  H  H27  1  0.696900  0.793000  0.126500  1.0  0.1185
  H  H28  1  0.423400  0.710900  0.100400  1.0  0.1242
  H  H29  1  0.572600  0.775200  0.417400  1.0  0.1204
  H  H30  1  0.290300  0.701400  0.394300  1.0  0.1308
  H  H31  1  0.293700  0.855500  0.602200  1.0  0.146
  H  H32  1  0.333000  0.698200  0.632900  1.0  0.1246
  H  H33  1  0.820000  0.346700  0.277400  1.0  0.1126
  H  H34  1  0.009400  0.450700  0.202500  1.0  0.135
  H  H35  1  0.498800  0.538400  0.206300  1.0  0.1408
  H  H36  1  0.677900  0.634300  0.293200  1.0  0.1268
  H  H37  1  0.165400  0.318300  0.609800  1.0  0.1155
  H  H38  1  0.212900  0.160200  0.587900  1.0  0.1215
  H  H39  1  0.196900  0.293000  0.373500  1.0  0.1188
  H  H40  1  0.923400  0.210900  0.399600  1.0  0.1239
  H  H41  1  0.072600  0.275200  0.082600  1.0  0.1205
  H  H42  1  0.790300  0.201400  0.105700  1.0  0.1313
  H  H43  1  0.793700  0.355500  0.897800  1.0  0.146
  H  H44  1  0.833000  0.198200  0.867100  1.0  0.1245
  H  H45  1  0.680000  0.153300  0.777400  1.0  0.1132
  H  H46  1  0.490600  0.049300  0.702500  1.0  0.133
  H  H47  1  0.001200  0.961600  0.706300  1.0  0.1414
  H  H48  1  0.822100  0.865700  0.793200  1.0  0.1275
  H  H49  1  0.334600  0.181700  0.109800  1.0  0.116
  H  H50  1  0.287100  0.339800  0.087900  1.0  0.1219
  H  H51  1  0.303100  0.207000  0.873500  1.0  0.1177
  H  H52  1  0.576600  0.289100  0.899600  1.0  0.1236
  H  H53  1  0.427400  0.224800  0.582600  1.0  0.121
  H  H54  1  0.709700  0.298600  0.605700  1.0  0.1305
  H  H55  1  0.706300  0.144500  0.397800  1.0  0.1462
  H  H56  1  0.667000  0.301800  0.367100  1.0  0.1249
  C  C57  1  0.006800  0.652600  0.765800  1.0  0.7345
  C  C58  1  0.075300  0.608900  0.761200  1.0  -0.0982
  C  C59  1  0.163000  0.619100  0.737300  1.0  0.0224
  C  C60  1  0.228100  0.577100  0.735000  1.0  0.0588
  C  C61  1  0.204700  0.525900  0.756300  1.0  0.0143
  C  C62  1  0.117700  0.518400  0.779900  1.0  0.0294
  C  C63  1  0.051300  0.557500  0.782000  1.0  -0.0423
  C  C64  1  0.278200  0.482000  0.754500  1.0  0.0403
  C  C65  1  0.370600  0.489700  0.778300  1.0  -0.0544
  C  C66  1  0.441800  0.454100  0.777200  1.0  -0.0444
  C  C67  1  0.423000  0.405800  0.750400  1.0  -0.1196
  C  C68  1  0.335100  0.397000  0.725200  1.0  -0.021
  C  C69  1  0.266300  0.435900  0.727800  1.0  0.0523
  C  C70  1  0.495400  0.365400  0.749300  1.0  0.7219
  C  C71  1  0.762600  0.766500  0.347500  1.0  0.708
  C  C72  1  0.802300  0.761700  0.392800  1.0  -0.0851
  C  C73  1  0.834800  0.712700  0.408700  1.0  -0.0331
  C  C74  1  0.868000  0.710300  0.453000  1.0  -0.0519
  C  C75  1  0.867000  0.752900  0.482600  1.0  0.0323
  C  C76  1  0.837100  0.802100  0.465700  1.0  0.0436
  C  C77  1  0.806000  0.806000  0.422000  1.0  -0.0688
  C  C78  1  0.897000  0.749200  0.531200  1.0  0.0954
  C  C79  1  0.826400  0.725900  0.562700  1.0  -0.057
  C  C80  1  0.850900  0.724200  0.606600  1.0  0.0111
  C  C81  1  0.944400  0.747300  0.621500  1.0  -0.1652
  C  C82  1  0.012800  0.772100  0.591200  1.0  -0.0619
  C  C83  1  0.987200  0.771900  0.547200  1.0  0.0528
  C  C84  1  0.972100  0.751100  0.670400  1.0  0.7345
  C  C85  1  0.041800  0.767400  0.849200  1.0  0.7993
  C  C86  1  0.064700  0.763900  0.898000  1.0  -0.1448
  C  C87  1  0.992500  0.738300  0.927300  1.0  -0.0357
  C  C88  1  0.016700  0.733100  0.970400  1.0  0.0396
  C  C89  1  0.111400  0.750700  0.989300  1.0  0.0381
  C  C90  1  0.180900  0.775300  0.958100  1.0  -0.0635
  C  C91  1  0.159400  0.781900  0.913400  1.0  -0.0436
  C  C92  1  0.136700  0.740900  0.036700  1.0  0.0492
  C  C93  1  0.161700  0.690200  0.050900  1.0  -0.0434
  C  C94  1  0.190100  0.679700  0.094300  1.0  -0.0731
  C  C95  1  0.193500  0.722100  0.124700  1.0  -0.1154
  C  C96  1  0.165600  0.772800  0.112300  1.0  -0.0399
  C  C97  1  0.135600  0.780800  0.069900  1.0  -0.0338
  C  C98  1  0.230600  0.714100  0.170400  1.0  0.7135
  C  C99  1  0.493200  0.847400  0.265800  1.0  0.7353
  C  C100  1  0.424700  0.891100  0.261200  1.0  -0.0987
  C  C101  1  0.337000  0.880900  0.237300  1.0  0.0232
  C  C102  1  0.271900  0.922900  0.235000  1.0  0.0503
  C  C103  1  0.295300  0.974100  0.256300  1.0  0.0146
  C  C104  1  0.382300  0.981600  0.279900  1.0  0.0282
  C  C105  1  0.448700  0.942500  0.282000  1.0  -0.0458
  C  C106  1  0.221800  0.018000  0.254500  1.0  0.0405
  C  C107  1  0.129400  0.010300  0.278300  1.0  -0.0549
  C  C108  1  0.058200  0.045900  0.277200  1.0  -0.0446
  C  C109  1  0.077000  0.094200  0.250400  1.0  -0.1193
  C  C110  1  0.164900  0.103000  0.225200  1.0  -0.0223
  C  C111  1  0.233700  0.064100  0.227800  1.0  0.0568
  C  C112  1  0.004600  0.134600  0.249300  1.0  0.7226
  C  C113  1  0.737400  0.733500  0.847500  1.0  0.707
  C  C114  1  0.697700  0.738300  0.892800  1.0  -0.0844
  C  C115  1  0.665200  0.787300  0.908700  1.0  -0.0411
  C  C116  1  0.632000  0.789700  0.953000  1.0  -0.0532
  C  C117  1  0.633000  0.747100  0.982600  1.0  0.0317
  C  C118  1  0.662900  0.697900  0.965700  1.0  0.0501
  C  C119  1  0.694000  0.694000  0.922000  1.0  -0.0678
  C  C120  1  0.603000  0.750800  0.031200  1.0  0.0955
  C  C121  1  0.673600  0.774100  0.062700  1.0  -0.0572
  C  C122  1  0.649100  0.775800  0.106600  1.0  0.0102
  C  C123  1  0.555600  0.752700  0.121500  1.0  -0.1642
  C  C124  1  0.487200  0.727900  0.091200  1.0  -0.0621
  C  C125  1  0.512800  0.728100  0.047200  1.0  0.053
  C  C126  1  0.527900  0.748900  0.170400  1.0  0.7331
  C  C127  1  0.458200  0.732600  0.349200  1.0  0.7996
  C  C128  1  0.435300  0.736100  0.398000  1.0  -0.1459
  C  C129  1  0.507500  0.761700  0.427300  1.0  -0.0368
  C  C130  1  0.483300  0.766900  0.470400  1.0  0.04
  C  C131  1  0.388600  0.749300  0.489300  1.0  0.0376
  C  C132  1  0.319100  0.724700  0.458100  1.0  -0.0632
  C  C133  1  0.340600  0.718100  0.413400  1.0  -0.0417
  C  C134  1  0.363300  0.759100  0.536700  1.0  0.0491
  C  C135  1  0.338300  0.809800  0.550900  1.0  -0.0441
  C  C136  1  0.309900  0.820300  0.594300  1.0  -0.0765
  C  C137  1  0.306500  0.777900  0.624700  1.0  -0.1159
  C  C138  1  0.334400  0.727200  0.612300  1.0  -0.0404
  C  C139  1  0.364400  0.719200  0.569900  1.0  -0.0324
  C  C140  1  0.269400  0.785900  0.670400  1.0  0.7148
  C  C141  1  0.993200  0.347400  0.234200  1.0  0.7364
  C  C142  1  0.924700  0.391100  0.238800  1.0  -0.0986
  C  C143  1  0.837000  0.380900  0.262700  1.0  0.0229
  C  C144  1  0.771900  0.422900  0.265000  1.0  0.0504
  C  C145  1  0.795300  0.474100  0.243700  1.0  0.0143
  C  C146  1  0.882300  0.481600  0.220100  1.0  0.0312
  C  C147  1  0.948700  0.442500  0.218000  1.0  -0.0458
  C  C148  1  0.721800  0.518000  0.245500  1.0  0.0404
  C  C149  1  0.629400  0.510300  0.221700  1.0  -0.0553
  C  C150  1  0.558200  0.545900  0.222800  1.0  -0.0365
  C  C151  1  0.577000  0.594200  0.249600  1.0  -0.1193
  C  C152  1  0.664900  0.603000  0.274800  1.0  -0.0237
  C  C153  1  0.733700  0.564100  0.272200  1.0  0.0504
  C  C154  1  0.504600  0.634600  0.250700  1.0  0.7231
  C  C155  1  0.237400  0.233500  0.652500  1.0  0.7047
  C  C156  1  0.197700  0.238300  0.607200  1.0  -0.0841
  C  C157  1  0.165200  0.287300  0.591300  1.0  -0.0377
  C  C158  1  0.132000  0.289700  0.547000  1.0  -0.0523
  C  C159  1  0.133000  0.247100  0.517400  1.0  0.032
  C  C160  1  0.162900  0.197900  0.534300  1.0  0.0506
  C  C161  1  0.194000  0.194000  0.578000  1.0  -0.0678
  C  C162  1  0.103000  0.250800  0.468800  1.0  0.0957
  C  C163  1  0.173600  0.274100  0.437300  1.0  -0.0558
  C  C164  1  0.149100  0.275800  0.393400  1.0  0.0102
  C  C165  1  0.055600  0.252700  0.378500  1.0  -0.1639
  C  C166  1  0.987200  0.227900  0.408800  1.0  -0.0622
  C  C167  1  0.012800  0.228100  0.452800  1.0  0.0537
  C  C168  1  0.027900  0.248900  0.329600  1.0  0.7316
  C  C169  1  0.958200  0.232600  0.150800  1.0  0.7999
  C  C170  1  0.935300  0.236100  0.102000  1.0  -0.1459
  C  C171  1  0.007500  0.261700  0.072700  1.0  -0.0404
  C  C172  1  0.983300  0.266900  0.029600  1.0  0.0399
  C  C173  1  0.888600  0.249300  0.010700  1.0  0.0376
  C  C174  1  0.819100  0.224700  0.041900  1.0  -0.0649
  C  C175  1  0.840600  0.218100  0.086600  1.0  -0.0432
  C  C176  1  0.863300  0.259100  0.963300  1.0  0.0488
  C  C177  1  0.838300  0.309800  0.949100  1.0  -0.0498
  C  C178  1  0.809900  0.320300  0.905700  1.0  -0.0766
  C  C179  1  0.806500  0.277900  0.875300  1.0  -0.1161
  C  C180  1  0.834400  0.227200  0.887700  1.0  -0.0409
  C  C181  1  0.864400  0.219200  0.930100  1.0  -0.0308
  C  C182  1  0.769400  0.285900  0.829600  1.0  0.7166
  C  C183  1  0.506800  0.152600  0.734200  1.0  0.7345
  C  C184  1  0.575300  0.108900  0.738800  1.0  -0.0977
  C  C185  1  0.663000  0.119100  0.762700  1.0  0.0226
  C  C186  1  0.728100  0.077100  0.765000  1.0  0.0601
  C  C187  1  0.704700  0.025900  0.743700  1.0  0.014
  C  C188  1  0.617700  0.018400  0.720100  1.0  0.0317
  C  C189  1  0.551300  0.057500  0.718000  1.0  -0.0413
  C  C190  1  0.778200  0.982000  0.745500  1.0  0.0402
  C  C191  1  0.870600  0.989700  0.721700  1.0  -0.0482
  C  C192  1  0.941800  0.954100  0.722800  1.0  -0.0392
  C  C193  1  0.923000  0.905800  0.749600  1.0  -0.1196
  C  C194  1  0.835100  0.897000  0.774800  1.0  -0.0228
  C  C195  1  0.766300  0.935900  0.772200  1.0  0.0489
  C  C196  1  0.995400  0.865400  0.750700  1.0  0.7227
  C  C197  1  0.262600  0.266500  0.152500  1.0  0.7059
  C  C198  1  0.302300  0.261700  0.107200  1.0  -0.0843
  C  C199  1  0.334800  0.212700  0.091300  1.0  -0.0325
  C  C200  1  0.368000  0.210300  0.047000  1.0  -0.0522
  C  C201  1  0.367000  0.252900  0.017400  1.0  0.0326
  C  C202  1  0.337100  0.302100  0.034300  1.0  0.0424
  C  C203  1  0.306000  0.306000  0.078000  1.0  -0.0681
  C  C204  1  0.397000  0.249200  0.968800  1.0  0.0953
  C  C205  1  0.326400  0.225900  0.937300  1.0  -0.0552
  C  C206  1  0.350900  0.224200  0.893400  1.0  0.0129
  C  C207  1  0.444400  0.247300  0.878500  1.0  -0.1643
  C  C208  1  0.512800  0.272100  0.908800  1.0  -0.0619
  C  C209  1  0.487200  0.271900  0.952800  1.0  0.0443
  C  C210  1  0.472100  0.251100  0.829600  1.0  0.7338
  C  C211  1  0.541800  0.267400  0.650800  1.0  0.8005
  C  C212  1  0.564700  0.263900  0.602000  1.0  -0.1453
  C  C213  1  0.492500  0.238300  0.572700  1.0  -0.0399
  C  C214  1  0.516700  0.233100  0.529600  1.0  0.0393
  C  C215  1  0.611400  0.250700  0.510700  1.0  0.0379
  C  C216  1  0.680900  0.275300  0.541900  1.0  -0.0657
  C  C217  1  0.659400  0.281900  0.586600  1.0  -0.0436
  C  C218  1  0.636700  0.240900  0.463300  1.0  0.0488
  C  C219  1  0.661700  0.190200  0.449100  1.0  -0.0439
  C  C220  1  0.690100  0.179700  0.405700  1.0  -0.072
  C  C221  1  0.693500  0.222100  0.375300  1.0  -0.1156
  C  C222  1  0.665600  0.272800  0.387700  1.0  -0.0401
  C  C223  1  0.635600  0.280800  0.430100  1.0  -0.0324
  C  C224  1  0.730600  0.214100  0.329600  1.0  0.7155
  N  N225  1  0.322600  0.588600  0.708800  1.0  0.6407
  N  N226  1  0.089500  0.465600  0.804400  1.0  0.6425
  N  N227  1  0.396200  0.540600  0.808100  1.0  0.6315
  N  N228  1  0.176300  0.423800  0.699800  1.0  0.6135
  N  N229  1  0.902800  0.655800  0.465700  1.0  0.6372
  N  N230  1  0.840700  0.851600  0.493300  1.0  0.6315
  N  N231  1  0.722000  0.701200  0.550900  1.0  0.6646
  N  N232  1  0.065100  0.803800  0.518100  1.0  0.5871
  N  N233  1  0.938200  0.702100  0.000600  1.0  0.39
  N  N234  1  0.285900  0.796800  0.973200  1.0  0.6161
  N  N235  1  0.158700  0.641800  0.020700  1.0  0.611
  N  N236  1  0.102400  0.835700  0.059100  1.0  0.6503
  N  N237  1  0.177400  0.911400  0.208800  1.0  0.6407
  N  N238  1  0.410500  0.034400  0.304400  1.0  0.6457
  N  N239  1  0.103800  0.959400  0.308100  1.0  0.6301
  N  N240  1  0.323700  0.076200  0.199800  1.0  0.6137
  N  N241  1  0.597200  0.844200  0.965700  1.0  0.6416
  N  N242  1  0.659300  0.648400  0.993300  1.0  0.6284
  N  N243  1  0.778000  0.798800  0.050900  1.0  0.667
  N  N244  1  0.434900  0.696200  0.018100  1.0  0.5873
  N  N245  1  0.561800  0.797900  0.500600  1.0  0.3895
  N  N246  1  0.214100  0.703200  0.473200  1.0  0.6145
  N  N247  1  0.341300  0.858200  0.520700  1.0  0.6145
  N  N248  1  0.397600  0.664300  0.559100  1.0  0.6484
  N  N249  1  0.677400  0.411400  0.291200  1.0  0.6418
  N  N250  1  0.910500  0.534400  0.195600  1.0  0.6443
  N  N251  1  0.603800  0.459400  0.191900  1.0  0.6325
  N  N252  1  0.823700  0.576200  0.300200  1.0  0.6147
  N  N253  1  0.097200  0.344200  0.534300  1.0  0.6415
  N  N254  1  0.159300  0.148400  0.506700  1.0  0.6277
  N  N255  1  0.278000  0.298800  0.449100  1.0  0.6645
  N  N256  1  0.934900  0.196200  0.481900  1.0  0.5879
  N  N257  1  0.061800  0.297900  0.999400  1.0  0.3907
  N  N258  1  0.714100  0.203200  0.026800  1.0  0.6155
  N  N259  1  0.841300  0.358200  0.979300  1.0  0.6126
  N  N260  1  0.897600  0.164300  0.940900  1.0  0.646
  N  N261  1  0.822600  0.088600  0.791200  1.0  0.6442
  N  N262  1  0.589500  0.965600  0.695600  1.0  0.6427
  N  N263  1  0.896200  0.040600  0.691900  1.0  0.6331
  N  N264  1  0.676300  0.923800  0.800200  1.0  0.6138
  N  N265  1  0.402800  0.155800  0.034300  1.0  0.6376
  N  N266  1  0.340700  0.351600  0.006700  1.0  0.6335
  N  N267  1  0.222000  0.201200  0.949100  1.0  0.6639
  N  N268  1  0.565100  0.303800  0.981900  1.0  0.5883
  N  N269  1  0.438200  0.202100  0.499400  1.0  0.3899
  N  N270  1  0.785900  0.296800  0.526800  1.0  0.6169
  N  N271  1  0.658700  0.141800  0.479300  1.0  0.6098
  N  N272  1  0.602400  0.335700  0.440900  1.0  0.6478
  O  O273  1  0.917000  0.638300  0.775200  1.0  -0.5819
  O  O274  1  0.046000  0.703900  0.758000  1.0  -0.8316
  O  O275  1  0.587600  0.381300  0.758900  1.0  -0.656
  O  O276  1  0.464800  0.314900  0.738000  1.0  -0.8434
  O  O277  1  0.358600  0.635100  0.703500  1.0  -0.3107
  O  O278  1  0.353800  0.552300  0.688900  1.0  -0.311
  O  O279  1  0.000300  0.451300  0.812300  1.0  -0.3476
  O  O280  1  0.151000  0.438000  0.817400  1.0  -0.3139
  O  O281  1  0.330800  0.559500  0.825300  1.0  -0.3312
  O  O282  1  0.482700  0.558200  0.811600  1.0  -0.3244
  O  O283  1  0.099300  0.435100  0.711700  1.0  -0.3511
  O  O284  1  0.175400  0.399200  0.668000  1.0  -0.3383
  O  O285  1  0.738100  0.721600  0.326100  1.0  -0.6991
  O  O286  1  0.748200  0.813800  0.333900  1.0  -0.6293
  O  O287  1  0.898600  0.726400  0.695700  1.0  -0.7387
  O  O288  1  0.052200  0.776300  0.681200  1.0  -0.6397
  O  O289  1  0.903800  0.620000  0.438100  1.0  -0.366
  O  O290  1  0.935400  0.651800  0.502000  1.0  -0.3609
  O  O291  1  0.836600  0.849100  0.532200  1.0  -0.3091
  O  O292  1  0.851600  0.895400  0.477300  1.0  -0.2945
  O  O293  1  0.700700  0.696900  0.513500  1.0  -0.3145
  O  O294  1  0.658400  0.691900  0.578400  1.0  -0.3695
  O  O295  1  0.062300  0.795200  0.478500  1.0  -0.325
  O  O296  1  0.127500  0.840600  0.534500  1.0  -0.411
  O  O297  1  0.956300  0.742600  0.836800  1.0  -0.7009
  O  O298  1  0.110000  0.791500  0.825000  1.0  -0.7695
  O  O299  1  0.253300  0.757800  0.194300  1.0  -0.6711
  O  O300  1  0.248000  0.667600  0.183600  1.0  -0.6162
  O  O301  1  0.876800  0.662200  0.979700  1.0  -0.474
  O  O302  1  0.939400  0.702500  0.037300  1.0  -0.3506
  O  O303  1  0.349400  0.813700  0.943500  1.0  -0.4581
  O  O304  1  0.310400  0.793300  0.011300  1.0  -0.413
  O  O305  1  0.169100  0.650400  0.981400  1.0  -0.2775
  O  O306  1  0.150000  0.595200  0.035700  1.0  -0.3195
  O  O307  1  0.084500  0.847900  0.022600  1.0  -0.3214
  O  O308  1  0.078400  0.862400  0.090300  1.0  -0.3203
  O  O309  1  0.583000  0.861700  0.275200  1.0  -0.5829
  O  O310  1  0.454000  0.796100  0.258000  1.0  -0.8315
  O  O311  1  0.912400  0.118700  0.258900  1.0  -0.6551
  O  O312  1  0.035200  0.185100  0.238000  1.0  -0.8442
  O  O313  1  0.141400  0.864900  0.203500  1.0  -0.3105
  O  O314  1  0.146200  0.947700  0.188900  1.0  -0.3097
  O  O315  1  0.499700  0.048700  0.312300  1.0  -0.3459
  O  O316  1  0.349000  0.062000  0.317400  1.0  -0.3139
  O  O317  1  0.169200  0.940500  0.325300  1.0  -0.3316
  O  O318  1  0.017300  0.941800  0.311600  1.0  -0.3262
  O  O319  1  0.400700  0.064900  0.211700  1.0  -0.3492
  O  O320  1  0.324600  0.100800  0.168000  1.0  -0.3368
  O  O321  1  0.761900  0.778400  0.826100  1.0  -0.7024
  O  O322  1  0.751800  0.686200  0.833900  1.0  -0.6306
  O  O323  1  0.601400  0.773600  0.195700  1.0  -0.7396
  O  O324  1  0.447800  0.723700  0.181200  1.0  -0.6396
  O  O325  1  0.596200  0.880000  0.938100  1.0  -0.3683
  O  O326  1  0.564600  0.848200  0.002000  1.0  -0.3618
  O  O327  1  0.663400  0.650900  0.032200  1.0  -0.3096
  O  O328  1  0.648400  0.604600  0.977300  1.0  -0.2939
  O  O329  1  0.799300  0.803100  0.013500  1.0  -0.3142
  O  O330  1  0.841600  0.808100  0.078400  1.0  -0.3664
  O  O331  1  0.437700  0.704800  0.978500  1.0  -0.3219
  O  O332  1  0.372500  0.659400  0.034500  1.0  -0.4115
  O  O333  1  0.543700  0.757400  0.336800  1.0  -0.7008
  O  O334  1  0.390000  0.708500  0.325000  1.0  -0.7673
  O  O335  1  0.246700  0.742200  0.694300  1.0  -0.6705
  O  O336  1  0.252000  0.832400  0.683600  1.0  -0.6158
  O  O337  1  0.623200  0.837800  0.479700  1.0  -0.4736
  O  O338  1  0.560600  0.797500  0.537300  1.0  -0.3519
  O  O339  1  0.150600  0.686300  0.443500  1.0  -0.4578
  O  O340  1  0.189600  0.706700  0.511300  1.0  -0.4121
  O  O341  1  0.330900  0.849600  0.481400  1.0  -0.2777
  O  O342  1  0.350000  0.904800  0.535700  1.0  -0.3146
  O  O343  1  0.415500  0.652100  0.522600  1.0  -0.3218
  O  O344  1  0.421600  0.637600  0.590300  1.0  -0.3199
  O  O345  1  0.083000  0.361700  0.224800  1.0  -0.5827
  O  O346  1  0.954000  0.296100  0.242000  1.0  -0.8307
  O  O347  1  0.412400  0.618700  0.241100  1.0  -0.6534
  O  O348  1  0.535200  0.685100  0.262000  1.0  -0.8448
  O  O349  1  0.641400  0.364900  0.296500  1.0  -0.3108
  O  O350  1  0.646200  0.447700  0.311100  1.0  -0.3086
  O  O351  1  0.999700  0.548700  0.187700  1.0  -0.3449
  O  O352  1  0.849000  0.562000  0.182600  1.0  -0.3151
  O  O353  1  0.669200  0.440500  0.174700  1.0  -0.3386
  O  O354  1  0.517300  0.441800  0.188400  1.0  -0.3265
  O  O355  1  0.900700  0.564900  0.288300  1.0  -0.3481
  O  O356  1  0.824600  0.600800  0.332000  1.0  -0.3376
  O  O357  1  0.261900  0.278400  0.673900  1.0  -0.7011
  O  O358  1  0.251800  0.186200  0.666100  1.0  -0.6306
  O  O359  1  0.101400  0.273600  0.304300  1.0  -0.7404
  O  O360  1  0.947800  0.223700  0.318800  1.0  -0.6396
  O  O361  1  0.096200  0.380000  0.561900  1.0  -0.3671
  O  O362  1  0.064600  0.348200  0.498000  1.0  -0.3572
  O  O363  1  0.163400  0.150900  0.467800  1.0  -0.3064
  O  O364  1  0.148400  0.104600  0.522700  1.0  -0.294
  O  O365  1  0.299300  0.303100  0.486500  1.0  -0.3137
  O  O366  1  0.341600  0.308100  0.421600  1.0  -0.3691
  O  O367  1  0.937700  0.204800  0.521500  1.0  -0.3237
  O  O368  1  0.872500  0.159400  0.465500  1.0  -0.4119
  O  O369  1  0.043700  0.257400  0.163200  1.0  -0.7015
  O  O370  1  0.890000  0.208500  0.175000  1.0  -0.7668
  O  O371  1  0.746700  0.242200  0.805700  1.0  -0.6721
  O  O372  1  0.752000  0.332400  0.816400  1.0  -0.6159
  O  O373  1  0.123200  0.337800  0.020300  1.0  -0.4731
  O  O374  1  0.060600  0.297500  0.962700  1.0  -0.3476
  O  O375  1  0.650600  0.186300  0.056500  1.0  -0.4594
  O  O376  1  0.689600  0.206700  0.988700  1.0  -0.4084
  O  O377  1  0.830900  0.349600  0.018600  1.0  -0.2775
  O  O378  1  0.850000  0.404800  0.964300  1.0  -0.3144
  O  O379  1  0.915500  0.152100  0.977400  1.0  -0.3227
  O  O380  1  0.921600  0.137600  0.909700  1.0  -0.3206
  O  O381  1  0.417000  0.138300  0.724800  1.0  -0.582
  O  O382  1  0.546000  0.203900  0.742000  1.0  -0.831
  O  O383  1  0.087600  0.881300  0.741100  1.0  -0.6551
  O  O384  1  0.964800  0.814900  0.762000  1.0  -0.8441
  O  O385  1  0.858600  0.135100  0.796500  1.0  -0.3112
  O  O386  1  0.853800  0.052300  0.811100  1.0  -0.3086
  O  O387  1  0.500300  0.951300  0.687700  1.0  -0.3473
  O  O388  1  0.651000  0.938000  0.682600  1.0  -0.3143
  O  O389  1  0.830800  0.059500  0.674700  1.0  -0.3363
  O  O390  1  0.982700  0.058200  0.688400  1.0  -0.3215
  O  O391  1  0.599300  0.935100  0.788300  1.0  -0.3506
  O  O392  1  0.675400  0.899200  0.832000  1.0  -0.3376
  O  O393  1  0.238100  0.221600  0.173900  1.0  -0.6986
  O  O394  1  0.248200  0.313800  0.166100  1.0  -0.6282
  O  O395  1  0.398600  0.226400  0.804300  1.0  -0.7395
  O  O396  1  0.552200  0.276300  0.818800  1.0  -0.6393
  O  O397  1  0.403800  0.120000  0.061900  1.0  -0.3655
  O  O398  1  0.435400  0.151800  0.998000  1.0  -0.3594
  O  O399  1  0.336600  0.349100  0.967800  1.0  -0.3063
  O  O400  1  0.351600  0.395400  0.022700  1.0  -0.2956
  O  O401  1  0.200700  0.196900  0.986500  1.0  -0.3139
  O  O402  1  0.158400  0.191900  0.921600  1.0  -0.3681
  O  O403  1  0.562300  0.295200  0.021500  1.0  -0.3244
  O  O404  1  0.627500  0.340600  0.965500  1.0  -0.411
  O  O405  1  0.456300  0.242600  0.663200  1.0  -0.7011
  O  O406  1  0.610000  0.291500  0.675000  1.0  -0.7701
  O  O407  1  0.753300  0.257800  0.305700  1.0  -0.6744
  O  O408  1  0.748000  0.167600  0.316400  1.0  -0.6166
  O  O409  1  0.376800  0.162200  0.520300  1.0  -0.4739
  O  O410  1  0.439400  0.202500  0.462700  1.0  -0.346
  O  O411  1  0.849400  0.313700  0.556500  1.0  -0.457
  O  O412  1  0.810400  0.293300  0.488700  1.0  -0.4095
  O  O413  1  0.669100  0.150400  0.518600  1.0  -0.2788
  O  O414  1  0.650000  0.095200  0.464300  1.0  -0.3197
  O  O415  1  0.584500  0.347900  0.477400  1.0  -0.3252
  O  O416  1  0.578400  0.362400  0.409700  1.0  -0.3212
