# generated using pymatgen
data_GdH6C21(NO3)6
_symmetry_space_group_name_H-M   'P 1'
_cell_length_a   13.10300000
_cell_length_b   23.43400000
_cell_length_c   30.42400000
_cell_angle_alpha   90.00000000
_cell_angle_beta   90.00000000
_cell_angle_gamma   101.39200000
_symmetry_Int_Tables_number   1
_chemical_formula_structural   GdH6C21(NO3)6
_chemical_formula_sum   'Gd8 H48 C168 N48 O144'
_cell_volume   9157.81642923
_cell_formula_units_Z   8
loop_
 _symmetry_equiv_pos_site_id
 _symmetry_equiv_pos_as_xyz
  1  'x, y, z'
loop_
 _atom_site_type_symbol
 _atom_site_label
 _atom_site_symmetry_multiplicity
 _atom_site_fract_x
 _atom_site_fract_y
 _atom_site_fract_z
 _atom_site_occupancy
 _atom_site_charge
  Gd  Gd1  1  0.850470  0.728510  0.769330  1.0  2.1727
  Gd  Gd2  1  0.152180  0.796590  0.741690  1.0  2.1589
  Gd  Gd3  1  0.649530  0.771490  0.269330  1.0  2.1732
  Gd  Gd4  1  0.347820  0.703410  0.241690  1.0  2.1594
  Gd  Gd5  1  0.149530  0.271490  0.230670  1.0  2.1725
  Gd  Gd6  1  0.847820  0.203410  0.258310  1.0  2.1595
  Gd  Gd7  1  0.350470  0.228510  0.730670  1.0  2.1729
  Gd  Gd8  1  0.652180  0.296590  0.758310  1.0  2.1591
  H  H9  1  0.189800  0.655900  0.728900  1.0  0.1198
  H  H10  1  0.968400  0.546200  0.794900  1.0  0.1401
  H  H11  1  0.485800  0.461400  0.808000  1.0  0.137
  H  H12  1  0.319400  0.367200  0.713100  1.0  0.1235
  H  H13  1  0.072000  0.784700  0.598700  1.0  0.1269
  H  H14  1  0.788100  0.691800  0.624600  1.0  0.1334
  H  H15  1  0.825400  0.678100  0.385700  1.0  0.1267
  H  H16  1  0.796600  0.841100  0.413600  1.0  0.1381
  H  H17  1  0.930800  0.728000  0.912500  1.0  0.1313
  H  H18  1  0.223200  0.808400  0.888700  1.0  0.1326
  H  H19  1  0.187600  0.647800  0.096500  1.0  0.1366
  H  H20  1  0.195300  0.815100  0.126300  1.0  0.1296
  H  H21  1  0.310200  0.844100  0.228900  1.0  0.1197
  H  H22  1  0.531600  0.953800  0.294900  1.0  0.141
  H  H23  1  0.014200  0.038600  0.308000  1.0  0.1378
  H  H24  1  0.180600  0.132800  0.213100  1.0  0.124
  H  H25  1  0.428000  0.715300  0.098700  1.0  0.1267
  H  H26  1  0.711900  0.808200  0.124600  1.0  0.1334
  H  H27  1  0.674600  0.821900  0.885700  1.0  0.127
  H  H28  1  0.703400  0.658900  0.913600  1.0  0.1382
  H  H29  1  0.569200  0.772000  0.412500  1.0  0.131
  H  H30  1  0.276800  0.691600  0.388700  1.0  0.1328
  H  H31  1  0.312400  0.852200  0.596500  1.0  0.1356
  H  H32  1  0.304700  0.684900  0.626300  1.0  0.128
  H  H33  1  0.810200  0.344100  0.271100  1.0  0.1193
  H  H34  1  0.031600  0.453800  0.205100  1.0  0.1406
  H  H35  1  0.514200  0.538600  0.192000  1.0  0.1372
  H  H36  1  0.680600  0.632800  0.286900  1.0  0.1237
  H  H37  1  0.928000  0.215300  0.401300  1.0  0.1267
  H  H38  1  0.211900  0.308200  0.375400  1.0  0.1337
  H  H39  1  0.174600  0.321900  0.614300  1.0  0.1274
  H  H40  1  0.203400  0.158900  0.586400  1.0  0.1382
  H  H41  1  0.069200  0.272000  0.087500  1.0  0.1311
  H  H42  1  0.776800  0.191600  0.111300  1.0  0.1325
  H  H43  1  0.812400  0.352200  0.903500  1.0  0.1356
  H  H44  1  0.804700  0.184900  0.873700  1.0  0.1299
  H  H45  1  0.689800  0.155900  0.771100  1.0  0.1193
  H  H46  1  0.468400  0.046200  0.705100  1.0  0.1398
  H  H47  1  0.985800  0.961400  0.692000  1.0  0.1367
  H  H48  1  0.819400  0.867200  0.786900  1.0  0.1239
  H  H49  1  0.572000  0.284700  0.901300  1.0  0.1271
  H  H50  1  0.288100  0.191800  0.875400  1.0  0.1335
  H  H51  1  0.325400  0.178100  0.114300  1.0  0.1273
  H  H52  1  0.296600  0.341100  0.086400  1.0  0.1382
  H  H53  1  0.430800  0.228000  0.587500  1.0  0.1318
  H  H54  1  0.723200  0.308400  0.611300  1.0  0.1321
  H  H55  1  0.687600  0.147800  0.403500  1.0  0.1368
  H  H56  1  0.695300  0.315100  0.373700  1.0  0.1279
  C  C57  1  0.002700  0.653400  0.764170  1.0  0.7375
  C  C58  1  0.070000  0.608800  0.762860  1.0  -0.1338
  C  C59  1  0.166000  0.620200  0.742430  1.0  -0.0546
  C  C60  1  0.226600  0.578000  0.742260  1.0  -0.027
  C  C61  1  0.196300  0.524100  0.763570  1.0  -0.0259
  C  C62  1  0.099100  0.514400  0.783370  1.0  -0.0427
  C  C63  1  0.034500  0.555000  0.782500  1.0  -0.0159
  C  C64  1  0.267200  0.480900  0.764520  1.0  0.0125
  C  C65  1  0.354600  0.489200  0.791160  1.0  0.0252
  C  C66  1  0.427700  0.454000  0.789820  1.0  -0.0299
  C  C67  1  0.412700  0.407100  0.760690  1.0  -0.1085
  C  C68  1  0.328500  0.397700  0.733170  1.0  -0.0205
  C  C69  1  0.256700  0.434000  0.735360  1.0  -0.0293
  C  C70  1  0.492800  0.368300  0.758680  1.0  0.7587
  C  C71  1  0.956100  0.743600  0.668080  1.0  0.7571
  C  C72  1  0.932500  0.738800  0.619160  1.0  -0.1261
  C  C73  1  0.006700  0.765700  0.589180  1.0  -0.0147
  C  C74  1  0.982200  0.763800  0.545020  1.0  -0.0365
  C  C75  1  0.886200  0.737200  0.528330  1.0  0.0582
  C  C76  1  0.814000  0.710700  0.560020  1.0  -0.071
  C  C77  1  0.837300  0.710800  0.604770  1.0  0.0082
  C  C78  1  0.858100  0.744600  0.480990  1.0  0.0484
  C  C79  1  0.855700  0.700900  0.448720  1.0  -0.0545
  C  C80  1  0.827700  0.708200  0.405870  1.0  -0.0361
  C  C81  1  0.803000  0.760300  0.392650  1.0  -0.1348
  C  C82  1  0.809700  0.805300  0.422440  1.0  -0.0205
  C  C83  1  0.836000  0.796500  0.465870  1.0  0.0093
  C  C84  1  0.765800  0.768100  0.346830  1.0  0.7048
  C  C85  1  0.047300  0.770400  0.844440  1.0  0.814
  C  C86  1  0.073300  0.769500  0.893350  1.0  -0.1451
  C  C87  1  0.997800  0.743200  0.922360  1.0  0.0202
  C  C88  1  0.022500  0.739600  0.966440  1.0  -0.0139
  C  C89  1  0.121700  0.761000  0.983580  1.0  0.0179
  C  C90  1  0.195000  0.786300  0.952470  1.0  -0.0808
  C  C91  1  0.171800  0.790900  0.908150  1.0  0.0142
  C  C92  1  0.146100  0.750900  0.030660  1.0  0.036
  C  C93  1  0.158400  0.696700  0.045280  1.0  -0.0002
  C  C94  1  0.183300  0.685400  0.088110  1.0  -0.0295
  C  C95  1  0.201700  0.730100  0.118380  1.0  -0.1252
  C  C96  1  0.185700  0.784800  0.106090  1.0  -0.0182
  C  C97  1  0.155400  0.793700  0.063690  1.0  -0.0291
  C  C98  1  0.241800  0.720600  0.163740  1.0  0.7212
  C  C99  1  0.497300  0.846600  0.264170  1.0  0.7378
  C  C100  1  0.430000  0.891200  0.262860  1.0  -0.1334
  C  C101  1  0.334000  0.879800  0.242430  1.0  -0.0546
  C  C102  1  0.273400  0.922000  0.242260  1.0  -0.0257
  C  C103  1  0.303700  0.975900  0.263570  1.0  -0.0259
  C  C104  1  0.400900  0.985600  0.283370  1.0  -0.0442
  C  C105  1  0.465500  0.945000  0.282500  1.0  -0.0149
  C  C106  1  0.232800  0.019100  0.264520  1.0  0.0118
  C  C107  1  0.145400  0.010800  0.291160  1.0  0.025
  C  C108  1  0.072300  0.046000  0.289820  1.0  -0.0323
  C  C109  1  0.087300  0.092900  0.260690  1.0  -0.1088
  C  C110  1  0.171500  0.102300  0.233170  1.0  -0.0213
  C  C111  1  0.243300  0.066000  0.235360  1.0  -0.0287
  C  C112  1  0.007200  0.131700  0.258680  1.0  0.7601
  C  C113  1  0.543900  0.756400  0.168080  1.0  0.7575
  C  C114  1  0.567500  0.761200  0.119160  1.0  -0.1253
  C  C115  1  0.493300  0.734300  0.089180  1.0  -0.0152
  C  C116  1  0.517800  0.736200  0.045020  1.0  -0.0367
  C  C117  1  0.613800  0.762800  0.028330  1.0  0.0588
  C  C118  1  0.686000  0.789300  0.060020  1.0  -0.0709
  C  C119  1  0.662700  0.789200  0.104770  1.0  0.0082
  C  C120  1  0.641900  0.755400  0.980990  1.0  0.0484
  C  C121  1  0.644300  0.799100  0.948720  1.0  -0.0547
  C  C122  1  0.672300  0.791800  0.905870  1.0  -0.037
  C  C123  1  0.697000  0.739700  0.892650  1.0  -0.135
  C  C124  1  0.690300  0.694700  0.922440  1.0  -0.0179
  C  C125  1  0.664000  0.703500  0.965870  1.0  0.011
  C  C126  1  0.734200  0.731900  0.846830  1.0  0.7042
  C  C127  1  0.452700  0.729600  0.344440  1.0  0.8128
  C  C128  1  0.426700  0.730500  0.393350  1.0  -0.1461
  C  C129  1  0.502200  0.756800  0.422360  1.0  0.0188
  C  C130  1  0.477500  0.760400  0.466440  1.0  -0.0141
  C  C131  1  0.378300  0.739000  0.483580  1.0  0.0175
  C  C132  1  0.305000  0.713700  0.452470  1.0  -0.0812
  C  C133  1  0.328200  0.709100  0.408150  1.0  0.0167
  C  C134  1  0.353900  0.749100  0.530660  1.0  0.0365
  C  C135  1  0.341600  0.803300  0.545280  1.0  -0.0012
  C  C136  1  0.316700  0.814600  0.588110  1.0  -0.0307
  C  C137  1  0.298300  0.769900  0.618380  1.0  -0.1256
  C  C138  1  0.314300  0.715200  0.606090  1.0  -0.0189
  C  C139  1  0.344600  0.706300  0.563690  1.0  -0.0295
  C  C140  1  0.258200  0.779400  0.663740  1.0  0.7223
  C  C141  1  0.997300  0.346600  0.235830  1.0  0.7379
  C  C142  1  0.930000  0.391200  0.237140  1.0  -0.1333
  C  C143  1  0.834000  0.379800  0.257570  1.0  -0.0552
  C  C144  1  0.773400  0.422000  0.257740  1.0  -0.0264
  C  C145  1  0.803700  0.475900  0.236430  1.0  -0.026
  C  C146  1  0.900900  0.485600  0.216630  1.0  -0.0443
  C  C147  1  0.965500  0.445000  0.217500  1.0  -0.0139
  C  C148  1  0.732800  0.519100  0.235480  1.0  0.012
  C  C149  1  0.645400  0.510800  0.208840  1.0  0.0228
  C  C150  1  0.572300  0.546000  0.210180  1.0  -0.0325
  C  C151  1  0.587300  0.592900  0.239310  1.0  -0.1089
  C  C152  1  0.671500  0.602300  0.266830  1.0  -0.0236
  C  C153  1  0.743300  0.566000  0.264640  1.0  -0.0279
  C  C154  1  0.507200  0.631700  0.241320  1.0  0.76
  C  C155  1  0.043900  0.256400  0.331920  1.0  0.7563
  C  C156  1  0.067500  0.261200  0.380840  1.0  -0.1249
  C  C157  1  0.993300  0.234300  0.410820  1.0  -0.0157
  C  C158  1  0.017800  0.236200  0.454980  1.0  -0.0368
  C  C159  1  0.113800  0.262800  0.471670  1.0  0.0591
  C  C160  1  0.186000  0.289300  0.439980  1.0  -0.0709
  C  C161  1  0.162700  0.289200  0.395230  1.0  0.0067
  C  C162  1  0.141900  0.255400  0.519010  1.0  0.0479
  C  C163  1  0.144300  0.299100  0.551280  1.0  -0.0552
  C  C164  1  0.172300  0.291800  0.594130  1.0  -0.0374
  C  C165  1  0.197000  0.239700  0.607350  1.0  -0.1346
  C  C166  1  0.190300  0.194700  0.577560  1.0  -0.0187
  C  C167  1  0.164000  0.203500  0.534130  1.0  0.0109
  C  C168  1  0.234200  0.231900  0.653170  1.0  0.7031
  C  C169  1  0.952700  0.229600  0.155560  1.0  0.814
  C  C170  1  0.926700  0.230500  0.106650  1.0  -0.1464
  C  C171  1  0.002200  0.256800  0.077640  1.0  0.019
  C  C172  1  0.977500  0.260400  0.033560  1.0  -0.0141
  C  C173  1  0.878300  0.239000  0.016420  1.0  0.0172
  C  C174  1  0.805000  0.213700  0.047530  1.0  -0.0829
  C  C175  1  0.828200  0.209100  0.091850  1.0  0.0151
  C  C176  1  0.853900  0.249100  0.969340  1.0  0.0369
  C  C177  1  0.841600  0.303300  0.954720  1.0  -0.0011
  C  C178  1  0.816700  0.314600  0.911890  1.0  -0.0303
  C  C179  1  0.798300  0.269900  0.881620  1.0  -0.1264
  C  C180  1  0.814300  0.215200  0.893910  1.0  -0.0178
  C  C181  1  0.844600  0.206300  0.936310  1.0  -0.0298
  C  C182  1  0.758200  0.279400  0.836260  1.0  0.7213
  C  C183  1  0.502700  0.153400  0.735830  1.0  0.7376
  C  C184  1  0.570000  0.108800  0.737140  1.0  -0.1336
  C  C185  1  0.666000  0.120200  0.757570  1.0  -0.0548
  C  C186  1  0.726600  0.078000  0.757740  1.0  -0.0277
  C  C187  1  0.696300  0.024100  0.736430  1.0  -0.026
  C  C188  1  0.599100  0.014400  0.716630  1.0  -0.0437
  C  C189  1  0.534500  0.055000  0.717500  1.0  -0.0155
  C  C190  1  0.767200  0.980900  0.735480  1.0  0.0128
  C  C191  1  0.854600  0.989200  0.708840  1.0  0.0233
  C  C192  1  0.927700  0.954000  0.710180  1.0  -0.0319
  C  C193  1  0.912700  0.907100  0.739310  1.0  -0.1085
  C  C194  1  0.828500  0.897700  0.766830  1.0  -0.0223
  C  C195  1  0.756700  0.934000  0.764640  1.0  -0.0281
  C  C196  1  0.992800  0.868300  0.741320  1.0  0.7586
  C  C197  1  0.456100  0.243600  0.831920  1.0  0.757
  C  C198  1  0.432500  0.238800  0.880840  1.0  -0.1259
  C  C199  1  0.506700  0.265700  0.910820  1.0  -0.0149
  C  C200  1  0.482200  0.263800  0.954980  1.0  -0.0364
  C  C201  1  0.386200  0.237200  0.971670  1.0  0.058
  C  C202  1  0.314000  0.210700  0.939980  1.0  -0.0711
  C  C203  1  0.337300  0.210800  0.895230  1.0  0.0093
  C  C204  1  0.358100  0.244600  0.019010  1.0  0.048
  C  C205  1  0.355700  0.200900  0.051280  1.0  -0.0545
  C  C206  1  0.327700  0.208200  0.094130  1.0  -0.0363
  C  C207  1  0.303000  0.260300  0.107350  1.0  -0.1351
  C  C208  1  0.309700  0.305300  0.077560  1.0  -0.0208
  C  C209  1  0.336000  0.296500  0.034130  1.0  0.009
  C  C210  1  0.265800  0.268100  0.153170  1.0  0.7044
  C  C211  1  0.547300  0.270400  0.655560  1.0  0.8145
  C  C212  1  0.573300  0.269500  0.606650  1.0  -0.1449
  C  C213  1  0.497800  0.243200  0.577640  1.0  0.0199
  C  C214  1  0.522500  0.239600  0.533560  1.0  -0.0138
  C  C215  1  0.621700  0.261000  0.516420  1.0  0.0176
  C  C216  1  0.695000  0.286300  0.547530  1.0  -0.083
  C  C217  1  0.671800  0.290900  0.591850  1.0  0.0136
  C  C218  1  0.646100  0.250900  0.469340  1.0  0.0363
  C  C219  1  0.658400  0.196700  0.454720  1.0  -0.0005
  C  C220  1  0.683300  0.185400  0.411890  1.0  -0.0289
  C  C221  1  0.701700  0.230100  0.381620  1.0  -0.1257
  C  C222  1  0.685700  0.284800  0.393910  1.0  -0.0168
  C  C223  1  0.655400  0.293700  0.436310  1.0  -0.0295
  C  C224  1  0.741800  0.220600  0.336260  1.0  0.721
  N  N225  1  0.325600  0.592000  0.717920  1.0  0.6335
  N  N226  1  0.060400  0.461300  0.808380  1.0  0.6326
  N  N227  1  0.375100  0.539600  0.820780  1.0  0.6448
  N  N228  1  0.168600  0.422300  0.704500  1.0  0.6463
  N  N229  1  0.063600  0.795200  0.515400  1.0  0.5963
  N  N230  1  0.706700  0.684400  0.547360  1.0  0.6426
  N  N231  1  0.883500  0.645000  0.460470  1.0  0.6414
  N  N232  1  0.839300  0.845900  0.495930  1.0  0.6038
  N  N233  1  0.939300  0.709200  0.995340  1.0  0.6038
  N  N234  1  0.304000  0.810400  0.965310  1.0  0.6323
  N  N235  1  0.144500  0.646100  0.014540  1.0  0.6088
  N  N236  1  0.134800  0.851800  0.052810  1.0  0.661
  N  N237  1  0.174400  0.908000  0.217920  1.0  0.6343
  N  N238  1  0.439600  0.038700  0.308380  1.0  0.6356
  N  N239  1  0.124900  0.960400  0.320780  1.0  0.6433
  N  N240  1  0.331400  0.077700  0.204500  1.0  0.6473
  N  N241  1  0.436400  0.704800  0.015400  1.0  0.595
  N  N242  1  0.793300  0.815600  0.047360  1.0  0.6427
  N  N243  1  0.616500  0.855000  0.960470  1.0  0.6441
  N  N244  1  0.660700  0.654100  0.995930  1.0  0.6083
  N  N245  1  0.560700  0.790800  0.495340  1.0  0.6039
  N  N246  1  0.196000  0.689600  0.465310  1.0  0.6309
  N  N247  1  0.355500  0.853900  0.514540  1.0  0.6123
  N  N248  1  0.365200  0.648200  0.552810  1.0  0.6559
  N  N249  1  0.674400  0.408000  0.282080  1.0  0.6326
  N  N250  1  0.939600  0.538700  0.191620  1.0  0.6339
  N  N251  1  0.624900  0.460400  0.179220  1.0  0.6414
  N  N252  1  0.831400  0.577700  0.295500  1.0  0.6477
  N  N253  1  0.936400  0.204800  0.484600  1.0  0.5946
  N  N254  1  0.293300  0.315600  0.452640  1.0  0.6431
  N  N255  1  0.116500  0.355000  0.539530  1.0  0.644
  N  N256  1  0.160700  0.154100  0.504070  1.0  0.6075
  N  N257  1  0.060700  0.290800  0.004660  1.0  0.6044
  N  N258  1  0.696000  0.189600  0.034690  1.0  0.6317
  N  N259  1  0.855500  0.353900  0.985460  1.0  0.6107
  N  N260  1  0.865200  0.148200  0.947190  1.0  0.6559
  N  N261  1  0.825600  0.092000  0.782080  1.0  0.6333
  N  N262  1  0.560400  0.961300  0.691620  1.0  0.6351
  N  N263  1  0.875100  0.039600  0.679220  1.0  0.6431
  N  N264  1  0.668600  0.922300  0.795500  1.0  0.646
  N  N265  1  0.563600  0.295200  0.984600  1.0  0.5946
  N  N266  1  0.206700  0.184400  0.952640  1.0  0.6431
  N  N267  1  0.383500  0.145000  0.039530  1.0  0.6417
  N  N268  1  0.339300  0.345900  0.004070  1.0  0.6054
  N  N269  1  0.439300  0.209200  0.504660  1.0  0.6037
  N  N270  1  0.804000  0.310400  0.534690  1.0  0.6341
  N  N271  1  0.644500  0.146100  0.485460  1.0  0.6094
  N  N272  1  0.634800  0.351800  0.447190  1.0  0.6608
  O  O273  1  0.907700  0.637340  0.772270  1.0  -0.5885
  O  O274  1  0.043400  0.705940  0.756220  1.0  -0.7879
  O  O275  1  0.466000  0.318530  0.741320  1.0  -0.7973
  O  O276  1  0.581200  0.386500  0.773590  1.0  -0.6123
  O  O277  1  0.363900  0.641800  0.712800  1.0  -0.3312
  O  O278  1  0.363300  0.552200  0.704000  1.0  -0.3117
  O  O279  1  0.123100  0.435100  0.824400  1.0  -0.3228
  O  O280  1  0.968000  0.445800  0.814100  1.0  -0.344
  O  O281  1  0.302200  0.554800  0.838750  1.0  -0.3531
  O  O282  1  0.466400  0.564700  0.824620  1.0  -0.3629
  O  O283  1  0.082200  0.425900  0.719300  1.0  -0.4042
  O  O284  1  0.181800  0.404100  0.669160  1.0  -0.4335
  O  O285  1  0.888700  0.715370  0.693070  1.0  -0.711
  O  O286  1  0.039400  0.776990  0.678630  1.0  -0.6937
  O  O287  1  0.747600  0.817040  0.336020  1.0  -0.6323
  O  O288  1  0.749300  0.725030  0.321330  1.0  -0.7022
  O  O289  1  0.129500  0.833840  0.531590  1.0  -0.3821
  O  O290  1  0.061900  0.781500  0.476840  1.0  -0.3723
  O  O291  1  0.640600  0.674500  0.576560  1.0  -0.381
  O  O292  1  0.687600  0.672100  0.509320  1.0  -0.3592
  O  O293  1  0.921000  0.639600  0.496450  1.0  -0.3619
  O  O294  1  0.869200  0.606500  0.433150  1.0  -0.367
  O  O295  1  0.819000  0.837000  0.534510  1.0  -0.3438
  O  O296  1  0.864600  0.894600  0.480210  1.0  -0.3151
  O  O297  1  0.957100  0.747410  0.833850  1.0  -0.6563
  O  O298  1  0.119800  0.794950  0.819950  1.0  -0.7288
  O  O299  1  0.241400  0.668890  0.176120  1.0  -0.6258
  O  O300  1  0.276400  0.764510  0.186660  1.0  -0.6632
  O  O301  1  0.877400  0.667100  0.979800  1.0  -0.418
  O  O302  1  0.936500  0.724700  0.032950  1.0  -0.3604
  O  O303  1  0.367300  0.825600  0.936160  1.0  -0.3917
  O  O304  1  0.326000  0.811600  0.004140  1.0  -0.3391
  O  O305  1  0.170900  0.654800  0.976500  1.0  -0.3884
  O  O306  1  0.106800  0.598200  0.029980  1.0  -0.3314
  O  O307  1  0.103900  0.861000  0.017540  1.0  -0.2925
  O  O308  1  0.142000  0.886200  0.081200  1.0  -0.2991
  O  O309  1  0.592300  0.862660  0.272270  1.0  -0.5888
  O  O310  1  0.456600  0.794060  0.256220  1.0  -0.7865
  O  O311  1  0.034000  0.181470  0.241320  1.0  -0.7985
  O  O312  1  0.918800  0.113500  0.273590  1.0  -0.6119
  O  O313  1  0.136100  0.858200  0.212800  1.0  -0.3339
  O  O314  1  0.136700  0.947800  0.204000  1.0  -0.311
  O  O315  1  0.376900  0.064900  0.324400  1.0  -0.3217
  O  O316  1  0.532000  0.054200  0.314100  1.0  -0.3414
  O  O317  1  0.197800  0.945200  0.338750  1.0  -0.3512
  O  O318  1  0.033600  0.935300  0.324620  1.0  -0.3607
  O  O319  1  0.417800  0.074100  0.219300  1.0  -0.4052
  O  O320  1  0.318200  0.095900  0.169160  1.0  -0.4335
  O  O321  1  0.611300  0.784630  0.193070  1.0  -0.713
  O  O322  1  0.460600  0.723010  0.178630  1.0  -0.6929
  O  O323  1  0.752400  0.682960  0.836020  1.0  -0.6325
  O  O324  1  0.750700  0.774970  0.821330  1.0  -0.7038
  O  O325  1  0.370500  0.666160  0.031590  1.0  -0.3804
  O  O326  1  0.438100  0.718500  0.976840  1.0  -0.3709
  O  O327  1  0.859400  0.825500  0.076560  1.0  -0.3776
  O  O328  1  0.812400  0.827900  0.009320  1.0  -0.3581
  O  O329  1  0.579000  0.860400  0.996450  1.0  -0.3616
  O  O330  1  0.630800  0.893500  0.933150  1.0  -0.3705
  O  O331  1  0.681000  0.663000  0.034510  1.0  -0.3417
  O  O332  1  0.635400  0.605400  0.980210  1.0  -0.3188
  O  O333  1  0.542900  0.752590  0.333850  1.0  -0.6563
  O  O334  1  0.380200  0.705050  0.319950  1.0  -0.7297
  O  O335  1  0.258600  0.831110  0.676120  1.0  -0.6296
  O  O336  1  0.223600  0.735490  0.686660  1.0  -0.6645
  O  O337  1  0.622600  0.832900  0.479800  1.0  -0.4172
  O  O338  1  0.563500  0.775300  0.532950  1.0  -0.3605
  O  O339  1  0.132700  0.674400  0.436160  1.0  -0.3893
  O  O340  1  0.174000  0.688400  0.504140  1.0  -0.3399
  O  O341  1  0.329100  0.845200  0.476500  1.0  -0.3917
  O  O342  1  0.393200  0.901800  0.529980  1.0  -0.3312
  O  O343  1  0.396100  0.639000  0.517540  1.0  -0.2946
  O  O344  1  0.358000  0.613800  0.581200  1.0  -0.2964
  O  O345  1  0.092300  0.362660  0.227730  1.0  -0.5891
  O  O346  1  0.956600  0.294060  0.243780  1.0  -0.7856
  O  O347  1  0.534000  0.681470  0.258680  1.0  -0.7977
  O  O348  1  0.418800  0.613500  0.226410  1.0  -0.612
  O  O349  1  0.636100  0.358200  0.287200  1.0  -0.3336
  O  O350  1  0.636700  0.447800  0.296000  1.0  -0.3101
  O  O351  1  0.876900  0.564900  0.175600  1.0  -0.3243
  O  O352  1  0.032000  0.554200  0.185900  1.0  -0.341
  O  O353  1  0.697800  0.445200  0.161250  1.0  -0.357
  O  O354  1  0.533600  0.435300  0.175380  1.0  -0.3617
  O  O355  1  0.917800  0.574100  0.280700  1.0  -0.4044
  O  O356  1  0.818200  0.595900  0.330840  1.0  -0.4369
  O  O357  1  0.111300  0.284630  0.306930  1.0  -0.7124
  O  O358  1  0.960600  0.223010  0.321370  1.0  -0.6929
  O  O359  1  0.252400  0.182960  0.663980  1.0  -0.6313
  O  O360  1  0.250700  0.274970  0.678670  1.0  -0.7017
  O  O361  1  0.870500  0.166160  0.468410  1.0  -0.3798
  O  O362  1  0.938100  0.218500  0.523160  1.0  -0.373
  O  O363  1  0.359400  0.325500  0.423440  1.0  -0.3814
  O  O364  1  0.312400  0.327900  0.490680  1.0  -0.36
  O  O365  1  0.079000  0.360400  0.503550  1.0  -0.3582
  O  O366  1  0.130800  0.393500  0.566850  1.0  -0.369
  O  O367  1  0.181000  0.163000  0.465490  1.0  -0.3415
  O  O368  1  0.135400  0.105400  0.519790  1.0  -0.3176
  O  O369  1  0.042900  0.252590  0.166150  1.0  -0.6566
  O  O370  1  0.880200  0.205050  0.180050  1.0  -0.7291
  O  O371  1  0.758600  0.331110  0.823880  1.0  -0.631
  O  O372  1  0.723600  0.235490  0.813340  1.0  -0.6639
  O  O373  1  0.122600  0.332900  0.020200  1.0  -0.4177
  O  O374  1  0.063500  0.275300  0.967050  1.0  -0.3581
  O  O375  1  0.632700  0.174400  0.063840  1.0  -0.3911
  O  O376  1  0.674000  0.188400  0.995860  1.0  -0.3375
  O  O377  1  0.829100  0.345200  0.023500  1.0  -0.3924
  O  O378  1  0.893200  0.401800  0.970020  1.0  -0.3313
  O  O379  1  0.896100  0.139000  0.982460  1.0  -0.295
  O  O380  1  0.858000  0.113800  0.918800  1.0  -0.2962
  O  O381  1  0.407700  0.137340  0.727730  1.0  -0.5887
  O  O382  1  0.543400  0.205940  0.743780  1.0  -0.7873
  O  O383  1  0.966000  0.818530  0.758680  1.0  -0.7969
  O  O384  1  0.081200  0.886500  0.726410  1.0  -0.6127
  O  O385  1  0.863900  0.141800  0.787200  1.0  -0.3315
  O  O386  1  0.863300  0.052200  0.796000  1.0  -0.3118
  O  O387  1  0.623100  0.935100  0.675600  1.0  -0.3236
  O  O388  1  0.468000  0.945800  0.685900  1.0  -0.3441
  O  O389  1  0.802200  0.054800  0.661250  1.0  -0.3571
  O  O390  1  0.966400  0.064700  0.675380  1.0  -0.3625
  O  O391  1  0.582200  0.925900  0.780700  1.0  -0.4047
  O  O392  1  0.681800  0.904100  0.830840  1.0  -0.4375
  O  O393  1  0.388700  0.215370  0.806930  1.0  -0.7118
  O  O394  1  0.539400  0.276990  0.821370  1.0  -0.6934
  O  O395  1  0.247600  0.317040  0.163980  1.0  -0.631
  O  O396  1  0.249300  0.225030  0.178670  1.0  -0.7017
  O  O397  1  0.629500  0.333840  0.968410  1.0  -0.3822
  O  O398  1  0.561900  0.281500  0.023160  1.0  -0.3719
  O  O399  1  0.140600  0.174500  0.923440  1.0  -0.3812
  O  O400  1  0.187600  0.172100  0.990680  1.0  -0.3598
  O  O401  1  0.421000  0.139600  0.003550  1.0  -0.3605
  O  O402  1  0.369200  0.106500  0.066850  1.0  -0.3673
  O  O403  1  0.319000  0.337000  0.965490  1.0  -0.3433
  O  O404  1  0.364600  0.394600  0.019790  1.0  -0.3147
  O  O405  1  0.457100  0.247410  0.666150  1.0  -0.6563
  O  O406  1  0.619800  0.294950  0.680050  1.0  -0.7281
  O  O407  1  0.741400  0.168890  0.323880  1.0  -0.6295
  O  O408  1  0.776400  0.264510  0.313340  1.0  -0.6645
  O  O409  1  0.377400  0.167100  0.520200  1.0  -0.4179
  O  O410  1  0.436500  0.224700  0.467050  1.0  -0.3573
  O  O411  1  0.867300  0.325600  0.563840  1.0  -0.3902
  O  O412  1  0.826000  0.311600  0.495860  1.0  -0.3372
  O  O413  1  0.670900  0.154800  0.523500  1.0  -0.3898
  O  O414  1  0.606800  0.098200  0.470020  1.0  -0.3322
  O  O415  1  0.603900  0.361000  0.482460  1.0  -0.2945
  O  O416  1  0.642000  0.386200  0.418800  1.0  -0.2998
