# generated using pymatgen
data_GdH6C21(NO3)6
_symmetry_space_group_name_H-M   'P 1'
_cell_length_a   13.10300000
_cell_length_b   30.42400000
_cell_length_c   23.43400000
_cell_angle_alpha   90.00000000
_cell_angle_beta   101.39200000
_cell_angle_gamma   90.00000000
_symmetry_Int_Tables_number   1
_chemical_formula_structural   GdH6C21(NO3)6
_chemical_formula_sum   'Gd8 H48 C168 N48 O144'
_cell_volume   9157.81642923
_cell_formula_units_Z   8
loop_
 _symmetry_equiv_pos_site_id
 _symmetry_equiv_pos_as_xyz
  1  'x, y, z'
loop_
 _atom_site_type_symbol
 _atom_site_label
 _atom_site_symmetry_multiplicity
 _atom_site_fract_x
 _atom_site_fract_y
 _atom_site_fract_z
 _atom_site_occupancy
 _atom_site_charge
  Gd  Gd1  1  0.149530  0.230670  0.271490  1.0  2.1732
  Gd  Gd2  1  0.847820  0.258310  0.203410  1.0  2.1599
  Gd  Gd3  1  0.350470  0.730670  0.228510  1.0  2.1734
  Gd  Gd4  1  0.652180  0.758310  0.296590  1.0  2.1594
  Gd  Gd5  1  0.850470  0.769330  0.728510  1.0  2.1735
  Gd  Gd6  1  0.152180  0.741690  0.796590  1.0  2.1594
  Gd  Gd7  1  0.649530  0.269330  0.771490  1.0  2.1727
  Gd  Gd8  1  0.347820  0.241690  0.703410  1.0  2.1594
  H  H9  1  0.810200  0.271100  0.344100  1.0  0.1206
  H  H10  1  0.031600  0.205100  0.453800  1.0  0.1408
  H  H11  1  0.514200  0.192000  0.538600  1.0  0.1378
  H  H12  1  0.680600  0.286900  0.632800  1.0  0.1226
  H  H13  1  0.928000  0.401300  0.215300  1.0  0.1277
  H  H14  1  0.211900  0.375400  0.308200  1.0  0.1338
  H  H15  1  0.174600  0.614300  0.321900  1.0  0.1282
  H  H16  1  0.203400  0.586400  0.158900  1.0  0.1362
  H  H17  1  0.069200  0.087500  0.272000  1.0  0.1309
  H  H18  1  0.776800  0.111300  0.191600  1.0  0.1344
  H  H19  1  0.812400  0.903500  0.352200  1.0  0.1339
  H  H20  1  0.804700  0.873700  0.184900  1.0  0.1303
  H  H21  1  0.689800  0.771100  0.155900  1.0  0.1197
  H  H22  1  0.468400  0.705100  0.046200  1.0  0.1402
  H  H23  1  0.985800  0.692000  0.961400  1.0  0.1374
  H  H24  1  0.819400  0.786900  0.867200  1.0  0.1236
  H  H25  1  0.572000  0.901300  0.284700  1.0  0.1286
  H  H26  1  0.288100  0.875400  0.191800  1.0  0.1344
  H  H27  1  0.325400  0.114300  0.178100  1.0  0.1281
  H  H28  1  0.296600  0.086400  0.341100  1.0  0.1354
  H  H29  1  0.430800  0.587500  0.228000  1.0  0.1313
  H  H30  1  0.723200  0.611300  0.308400  1.0  0.1334
  H  H31  1  0.687600  0.403500  0.147800  1.0  0.135
  H  H32  1  0.695300  0.373700  0.315100  1.0  0.1287
  H  H33  1  0.189800  0.728900  0.655900  1.0  0.1199
  H  H34  1  0.968400  0.794900  0.546200  1.0  0.1397
  H  H35  1  0.485800  0.808000  0.461400  1.0  0.1375
  H  H36  1  0.319400  0.713100  0.367200  1.0  0.1239
  H  H37  1  0.072000  0.598700  0.784700  1.0  0.1283
  H  H38  1  0.788100  0.624600  0.691800  1.0  0.135
  H  H39  1  0.825400  0.385700  0.678100  1.0  0.1284
  H  H40  1  0.796600  0.413600  0.841100  1.0  0.1353
  H  H41  1  0.930800  0.912500  0.728000  1.0  0.1311
  H  H42  1  0.223200  0.888700  0.808400  1.0  0.1331
  H  H43  1  0.187600  0.096500  0.647800  1.0  0.1353
  H  H44  1  0.195300  0.126300  0.815100  1.0  0.1305
  H  H45  1  0.310200  0.228900  0.844100  1.0  0.1206
  H  H46  1  0.531600  0.294900  0.953800  1.0  0.1411
  H  H47  1  0.014200  0.308000  0.038600  1.0  0.1382
  H  H48  1  0.180600  0.213100  0.132800  1.0  0.1235
  H  H49  1  0.428000  0.098700  0.715300  1.0  0.1279
  H  H50  1  0.711900  0.124600  0.808200  1.0  0.1343
  H  H51  1  0.674600  0.885700  0.821900  1.0  0.1286
  H  H52  1  0.703400  0.913600  0.658900  1.0  0.1363
  H  H53  1  0.569200  0.412500  0.772000  1.0  0.1312
  H  H54  1  0.276800  0.388700  0.691600  1.0  0.1341
  H  H55  1  0.312400  0.596500  0.852200  1.0  0.1338
  H  H56  1  0.304700  0.626300  0.684900  1.0  0.1282
  C  C57  1  0.997300  0.235830  0.346600  1.0  0.7396
  C  C58  1  0.930000  0.237140  0.391200  1.0  -0.1351
  C  C59  1  0.834000  0.257570  0.379800  1.0  -0.0559
  C  C60  1  0.773400  0.257740  0.422000  1.0  -0.0238
  C  C61  1  0.803700  0.236430  0.475900  1.0  -0.0256
  C  C62  1  0.900900  0.216630  0.485600  1.0  -0.0443
  C  C63  1  0.965500  0.217500  0.445000  1.0  -0.013
  C  C64  1  0.732800  0.235480  0.519100  1.0  0.0126
  C  C65  1  0.645400  0.208840  0.510800  1.0  0.0226
  C  C66  1  0.572300  0.210180  0.546000  1.0  -0.0296
  C  C67  1  0.587300  0.239310  0.592900  1.0  -0.1088
  C  C68  1  0.671500  0.266830  0.602300  1.0  -0.0236
  C  C69  1  0.743300  0.264640  0.566000  1.0  -0.0274
  C  C70  1  0.507200  0.241320  0.631700  1.0  0.7589
  C  C71  1  0.043900  0.331920  0.256400  1.0  0.7516
  C  C72  1  0.067500  0.380840  0.261200  1.0  -0.1258
  C  C73  1  0.993300  0.410820  0.234300  1.0  -0.016
  C  C74  1  0.017800  0.454980  0.236200  1.0  -0.0362
  C  C75  1  0.113800  0.471670  0.262800  1.0  0.0595
  C  C76  1  0.186000  0.439980  0.289300  1.0  -0.0715
  C  C77  1  0.162700  0.395230  0.289200  1.0  0.0098
  C  C78  1  0.141900  0.519010  0.255400  1.0  0.049
  C  C79  1  0.144300  0.551280  0.299100  1.0  -0.0551
  C  C80  1  0.172300  0.594130  0.291800  1.0  -0.0376
  C  C81  1  0.197000  0.607350  0.239700  1.0  -0.1384
  C  C82  1  0.190300  0.577560  0.194700  1.0  -0.0157
  C  C83  1  0.164000  0.534130  0.203500  1.0  0.0102
  C  C84  1  0.234200  0.653170  0.231900  1.0  0.6948
  C  C85  1  0.952700  0.155560  0.229600  1.0  0.8099
  C  C86  1  0.926700  0.106650  0.230500  1.0  -0.1447
  C  C87  1  0.002200  0.077640  0.256800  1.0  0.0186
  C  C88  1  0.977500  0.033560  0.260400  1.0  -0.0136
  C  C89  1  0.878300  0.016420  0.239000  1.0  0.018
  C  C90  1  0.805000  0.047530  0.213700  1.0  -0.0824
  C  C91  1  0.828200  0.091850  0.209100  1.0  0.0178
  C  C92  1  0.853900  0.969340  0.249100  1.0  0.0375
  C  C93  1  0.841600  0.954720  0.303300  1.0  -0.0
  C  C94  1  0.816700  0.911890  0.314600  1.0  -0.028
  C  C95  1  0.798300  0.881620  0.269900  1.0  -0.1315
  C  C96  1  0.814300  0.893910  0.215200  1.0  -0.0192
  C  C97  1  0.844600  0.936310  0.206300  1.0  -0.0319
  C  C98  1  0.758200  0.836260  0.279400  1.0  0.7177
  C  C99  1  0.502700  0.735830  0.153400  1.0  0.7402
  C  C100  1  0.570000  0.737140  0.108800  1.0  -0.1349
  C  C101  1  0.666000  0.757570  0.120200  1.0  -0.0573
  C  C102  1  0.726600  0.757740  0.078000  1.0  -0.0252
  C  C103  1  0.696300  0.736430  0.024100  1.0  -0.0256
  C  C104  1  0.599100  0.716630  0.014400  1.0  -0.0443
  C  C105  1  0.534500  0.717500  0.055000  1.0  -0.0142
  C  C106  1  0.767200  0.735480  0.980900  1.0  0.0128
  C  C107  1  0.854600  0.708840  0.989200  1.0  0.0229
  C  C108  1  0.927700  0.710180  0.954000  1.0  -0.0282
  C  C109  1  0.912700  0.739310  0.907100  1.0  -0.1089
  C  C110  1  0.828500  0.766830  0.897700  1.0  -0.0225
  C  C111  1  0.756700  0.764640  0.934000  1.0  -0.028
  C  C112  1  0.992800  0.741320  0.868300  1.0  0.7575
  C  C113  1  0.456100  0.831920  0.243600  1.0  0.7506
  C  C114  1  0.432500  0.880840  0.238800  1.0  -0.1266
  C  C115  1  0.506700  0.910820  0.265700  1.0  -0.0154
  C  C116  1  0.482200  0.954980  0.263800  1.0  -0.035
  C  C117  1  0.386200  0.971670  0.237200  1.0  0.0589
  C  C118  1  0.314000  0.939980  0.210700  1.0  -0.0699
  C  C119  1  0.337300  0.895230  0.210800  1.0  0.0124
  C  C120  1  0.358100  0.019010  0.244600  1.0  0.0488
  C  C121  1  0.355700  0.051280  0.200900  1.0  -0.057
  C  C122  1  0.327700  0.094130  0.208200  1.0  -0.0384
  C  C123  1  0.303000  0.107350  0.260300  1.0  -0.1388
  C  C124  1  0.309700  0.077560  0.305300  1.0  -0.0194
  C  C125  1  0.336000  0.034130  0.296500  1.0  0.0104
  C  C126  1  0.265800  0.153170  0.268100  1.0  0.6949
  C  C127  1  0.547300  0.655560  0.270400  1.0  0.8098
  C  C128  1  0.573300  0.606650  0.269500  1.0  -0.1443
  C  C129  1  0.497800  0.577640  0.243200  1.0  0.0199
  C  C130  1  0.522500  0.533560  0.239600  1.0  -0.0135
  C  C131  1  0.621700  0.516420  0.261000  1.0  0.0181
  C  C132  1  0.695000  0.547530  0.286300  1.0  -0.0832
  C  C133  1  0.671800  0.591850  0.290900  1.0  0.0145
  C  C134  1  0.646100  0.469340  0.250900  1.0  0.0366
  C  C135  1  0.658400  0.454720  0.196700  1.0  -0.0002
  C  C136  1  0.683300  0.411890  0.185400  1.0  -0.0243
  C  C137  1  0.701700  0.381620  0.230100  1.0  -0.1315
  C  C138  1  0.685700  0.393910  0.284800  1.0  -0.019
  C  C139  1  0.655400  0.436310  0.293700  1.0  -0.03
  C  C140  1  0.741800  0.336260  0.220600  1.0  0.7157
  C  C141  1  0.002700  0.764170  0.653400  1.0  0.7401
  C  C142  1  0.070000  0.762860  0.608800  1.0  -0.1347
  C  C143  1  0.166000  0.742430  0.620200  1.0  -0.0576
  C  C144  1  0.226600  0.742260  0.578000  1.0  -0.0256
  C  C145  1  0.196300  0.763570  0.524100  1.0  -0.0258
  C  C146  1  0.099100  0.783370  0.514400  1.0  -0.0443
  C  C147  1  0.034500  0.782500  0.555000  1.0  -0.0156
  C  C148  1  0.267200  0.764520  0.480900  1.0  0.013
  C  C149  1  0.354600  0.791160  0.489200  1.0  0.025
  C  C150  1  0.427700  0.789820  0.454000  1.0  -0.0302
  C  C151  1  0.412700  0.760690  0.407100  1.0  -0.1087
  C  C152  1  0.328500  0.733170  0.397700  1.0  -0.0226
  C  C153  1  0.256700  0.735360  0.434000  1.0  -0.0291
  C  C154  1  0.492800  0.758680  0.368300  1.0  0.7575
  C  C155  1  0.956100  0.668080  0.743600  1.0  0.7512
  C  C156  1  0.932500  0.619160  0.738800  1.0  -0.1263
  C  C157  1  0.006700  0.589180  0.765700  1.0  -0.0154
  C  C158  1  0.982200  0.545020  0.763800  1.0  -0.0352
  C  C159  1  0.886200  0.528330  0.737200  1.0  0.0589
  C  C160  1  0.814000  0.560020  0.710700  1.0  -0.0719
  C  C161  1  0.837300  0.604770  0.710800  1.0  0.0115
  C  C162  1  0.858100  0.480990  0.744600  1.0  0.0485
  C  C163  1  0.855700  0.448720  0.700900  1.0  -0.0561
  C  C164  1  0.827700  0.405870  0.708200  1.0  -0.0373
  C  C165  1  0.803000  0.392650  0.760300  1.0  -0.1394
  C  C166  1  0.809700  0.422440  0.805300  1.0  -0.02
  C  C167  1  0.836000  0.465870  0.796500  1.0  0.0098
  C  C168  1  0.765800  0.346830  0.768100  1.0  0.6942
  C  C169  1  0.047300  0.844440  0.770400  1.0  0.8103
  C  C170  1  0.073300  0.893350  0.769500  1.0  -0.1442
  C  C171  1  0.997800  0.922360  0.743200  1.0  0.0204
  C  C172  1  0.022500  0.966440  0.739600  1.0  -0.013
  C  C173  1  0.121700  0.983580  0.761000  1.0  0.0179
  C  C174  1  0.195000  0.952470  0.786300  1.0  -0.0815
  C  C175  1  0.171800  0.908150  0.790900  1.0  0.015
  C  C176  1  0.146100  0.030660  0.750900  1.0  0.0366
  C  C177  1  0.158400  0.045280  0.696700  1.0  -0.0004
  C  C178  1  0.183300  0.088110  0.685400  1.0  -0.0259
  C  C179  1  0.201700  0.118380  0.730100  1.0  -0.13
  C  C180  1  0.185700  0.106090  0.784800  1.0  -0.0196
  C  C181  1  0.155400  0.063690  0.793700  1.0  -0.0292
  C  C182  1  0.241800  0.163740  0.720600  1.0  0.7173
  C  C183  1  0.497300  0.264170  0.846600  1.0  0.7395
  C  C184  1  0.430000  0.262860  0.891200  1.0  -0.135
  C  C185  1  0.334000  0.242430  0.879800  1.0  -0.0563
  C  C186  1  0.273400  0.242260  0.922000  1.0  -0.0243
  C  C187  1  0.303700  0.263570  0.975900  1.0  -0.0258
  C  C188  1  0.400900  0.283370  0.985600  1.0  -0.0442
  C  C189  1  0.465500  0.282500  0.945000  1.0  -0.0132
  C  C190  1  0.232800  0.264520  0.019100  1.0  0.0126
  C  C191  1  0.145400  0.291160  0.010800  1.0  0.0248
  C  C192  1  0.072300  0.289820  0.046000  1.0  -0.0321
  C  C193  1  0.087300  0.260690  0.092900  1.0  -0.1086
  C  C194  1  0.171500  0.233170  0.102300  1.0  -0.023
  C  C195  1  0.243300  0.235360  0.066000  1.0  -0.028
  C  C196  1  0.007200  0.258680  0.131700  1.0  0.7589
  C  C197  1  0.543900  0.168080  0.756400  1.0  0.7513
  C  C198  1  0.567500  0.119160  0.761200  1.0  -0.1256
  C  C199  1  0.493300  0.089180  0.734300  1.0  -0.0167
  C  C200  1  0.517800  0.045020  0.736200  1.0  -0.0366
  C  C201  1  0.613800  0.028330  0.762800  1.0  0.0595
  C  C202  1  0.686000  0.060020  0.789300  1.0  -0.0727
  C  C203  1  0.662700  0.104770  0.789200  1.0  0.009
  C  C204  1  0.641900  0.980990  0.755400  1.0  0.0487
  C  C205  1  0.644300  0.948720  0.799100  1.0  -0.0549
  C  C206  1  0.672300  0.905870  0.791800  1.0  -0.0358
  C  C207  1  0.697000  0.892650  0.739700  1.0  -0.1394
  C  C208  1  0.690300  0.922440  0.694700  1.0  -0.0149
  C  C209  1  0.664000  0.965870  0.703500  1.0  0.0106
  C  C210  1  0.734200  0.846830  0.731900  1.0  0.6912
  C  C211  1  0.452700  0.344440  0.729600  1.0  0.8097
  C  C212  1  0.426700  0.393350  0.730500  1.0  -0.1449
  C  C213  1  0.502200  0.422360  0.756800  1.0  0.019
  C  C214  1  0.477500  0.466440  0.760400  1.0  -0.0132
  C  C215  1  0.378300  0.483580  0.739000  1.0  0.0179
  C  C216  1  0.305000  0.452470  0.713700  1.0  -0.0808
  C  C217  1  0.328200  0.408150  0.709100  1.0  0.0183
  C  C218  1  0.353900  0.530660  0.749100  1.0  0.0375
  C  C219  1  0.341600  0.545280  0.803300  1.0  0.001
  C  C220  1  0.316700  0.588110  0.814600  1.0  -0.0276
  C  C221  1  0.298300  0.618380  0.769900  1.0  -0.1306
  C  C222  1  0.314300  0.606090  0.715200  1.0  -0.0196
  C  C223  1  0.344600  0.563690  0.706300  1.0  -0.0318
  C  C224  1  0.258200  0.663740  0.779400  1.0  0.7165
  N  N225  1  0.674400  0.282080  0.408000  1.0  0.6337
  N  N226  1  0.939600  0.191620  0.538700  1.0  0.6334
  N  N227  1  0.624900  0.179220  0.460400  1.0  0.6395
  N  N228  1  0.831400  0.295500  0.577700  1.0  0.6431
  N  N229  1  0.936400  0.484600  0.204800  1.0  0.5982
  N  N230  1  0.293300  0.452640  0.315600  1.0  0.649
  N  N231  1  0.116500  0.539530  0.355000  1.0  0.643
  N  N232  1  0.160700  0.504070  0.154100  1.0  0.6056
  N  N233  1  0.060700  0.004660  0.290800  1.0  0.6064
  N  N234  1  0.696000  0.034690  0.189600  1.0  0.6353
  N  N235  1  0.855500  0.985460  0.353900  1.0  0.6064
  N  N236  1  0.865200  0.947190  0.148200  1.0  0.6583
  N  N237  1  0.825600  0.782080  0.092000  1.0  0.6329
  N  N238  1  0.560400  0.691620  0.961300  1.0  0.6327
  N  N239  1  0.875100  0.679220  0.039600  1.0  0.643
  N  N240  1  0.668600  0.795500  0.922300  1.0  0.6423
  N  N241  1  0.563600  0.984600  0.295200  1.0  0.5962
  N  N242  1  0.206700  0.952640  0.184400  1.0  0.6471
  N  N243  1  0.383500  0.039530  0.145000  1.0  0.6416
  N  N244  1  0.339300  0.004070  0.345900  1.0  0.6074
  N  N245  1  0.439300  0.504660  0.209200  1.0  0.6073
  N  N246  1  0.804000  0.534690  0.310400  1.0  0.6369
  N  N247  1  0.644500  0.485460  0.146100  1.0  0.6058
  N  N248  1  0.634800  0.447190  0.351800  1.0  0.6618
  N  N249  1  0.325600  0.717920  0.592000  1.0  0.6324
  N  N250  1  0.060400  0.808380  0.461300  1.0  0.6344
  N  N251  1  0.375100  0.820780  0.539600  1.0  0.6432
  N  N252  1  0.168600  0.704500  0.422300  1.0  0.64
  N  N253  1  0.063600  0.515400  0.795200  1.0  0.5961
  N  N254  1  0.706700  0.547360  0.684400  1.0  0.6483
  N  N255  1  0.883500  0.460470  0.645000  1.0  0.6414
  N  N256  1  0.839300  0.495930  0.845900  1.0  0.6061
  N  N257  1  0.939300  0.995340  0.709200  1.0  0.6075
  N  N258  1  0.304000  0.965310  0.810400  1.0  0.6359
  N  N259  1  0.144500  0.014540  0.646100  1.0  0.6042
  N  N260  1  0.134800  0.052810  0.851800  1.0  0.6615
  N  N261  1  0.174400  0.217920  0.908000  1.0  0.6319
  N  N262  1  0.439600  0.308380  0.038700  1.0  0.6358
  N  N263  1  0.124900  0.320780  0.960400  1.0  0.642
  N  N264  1  0.331400  0.204500  0.077700  1.0  0.6421
  N  N265  1  0.436400  0.015400  0.704800  1.0  0.5983
  N  N266  1  0.793300  0.047360  0.815600  1.0  0.6489
  N  N267  1  0.616500  0.960470  0.855000  1.0  0.643
  N  N268  1  0.660700  0.995930  0.654100  1.0  0.6051
  N  N269  1  0.560700  0.495340  0.790800  1.0  0.6062
  N  N270  1  0.196000  0.465310  0.689600  1.0  0.6353
  N  N271  1  0.355500  0.514540  0.853900  1.0  0.6081
  N  N272  1  0.365200  0.552810  0.648200  1.0  0.6588
  O  O273  1  0.092300  0.227730  0.362660  1.0  -0.5845
  O  O274  1  0.956600  0.243780  0.294060  1.0  -0.7842
  O  O275  1  0.534000  0.258680  0.681470  1.0  -0.7977
  O  O276  1  0.418800  0.226410  0.613500  1.0  -0.608
  O  O277  1  0.636100  0.287200  0.358200  1.0  -0.3366
  O  O278  1  0.636700  0.296000  0.447800  1.0  -0.3093
  O  O279  1  0.876900  0.175600  0.564900  1.0  -0.3227
  O  O280  1  0.032000  0.185900  0.554200  1.0  -0.3405
  O  O281  1  0.697800  0.161250  0.445200  1.0  -0.3488
  O  O282  1  0.533600  0.175380  0.435300  1.0  -0.3653
  O  O283  1  0.917800  0.280700  0.574100  1.0  -0.4039
  O  O284  1  0.818200  0.330840  0.595900  1.0  -0.4308
  O  O285  1  0.111300  0.306930  0.284630  1.0  -0.7126
  O  O286  1  0.960600  0.321370  0.223010  1.0  -0.6913
  O  O287  1  0.252400  0.663980  0.182960  1.0  -0.6381
  O  O288  1  0.250700  0.678670  0.274970  1.0  -0.7009
  O  O289  1  0.870500  0.468410  0.166160  1.0  -0.3845
  O  O290  1  0.938100  0.523160  0.218500  1.0  -0.3728
  O  O291  1  0.359400  0.423440  0.325500  1.0  -0.3761
  O  O292  1  0.312400  0.490680  0.327900  1.0  -0.3608
  O  O293  1  0.079000  0.503550  0.360400  1.0  -0.3618
  O  O294  1  0.130800  0.566850  0.393500  1.0  -0.3616
  O  O295  1  0.181000  0.465490  0.163000  1.0  -0.3405
  O  O296  1  0.135400  0.519790  0.105400  1.0  -0.3208
  O  O297  1  0.042900  0.166150  0.252590  1.0  -0.6563
  O  O298  1  0.880200  0.180050  0.205050  1.0  -0.7263
  O  O299  1  0.758600  0.823880  0.331110  1.0  -0.6397
  O  O300  1  0.723600  0.813340  0.235490  1.0  -0.6628
  O  O301  1  0.122600  0.020200  0.332900  1.0  -0.4231
  O  O302  1  0.063500  0.967050  0.275300  1.0  -0.3592
  O  O303  1  0.632700  0.063840  0.174400  1.0  -0.3901
  O  O304  1  0.674000  0.995860  0.188400  1.0  -0.3392
  O  O305  1  0.829100  0.023500  0.345200  1.0  -0.3871
  O  O306  1  0.893200  0.970020  0.401800  1.0  -0.3295
  O  O307  1  0.896100  0.982460  0.139000  1.0  -0.2917
  O  O308  1  0.858000  0.918800  0.113800  1.0  -0.2944
  O  O309  1  0.407700  0.727730  0.137340  1.0  -0.586
  O  O310  1  0.543400  0.743780  0.205940  1.0  -0.783
  O  O311  1  0.966000  0.758680  0.818530  1.0  -0.7986
  O  O312  1  0.081200  0.726410  0.886500  1.0  -0.6093
  O  O313  1  0.863900  0.787200  0.141800  1.0  -0.3356
  O  O314  1  0.863300  0.796000  0.052200  1.0  -0.3112
  O  O315  1  0.623100  0.675600  0.935100  1.0  -0.3209
  O  O316  1  0.468000  0.685900  0.945800  1.0  -0.3442
  O  O317  1  0.802200  0.661250  0.054800  1.0  -0.3501
  O  O318  1  0.966400  0.675380  0.064700  1.0  -0.3636
  O  O319  1  0.582200  0.780700  0.925900  1.0  -0.4045
  O  O320  1  0.681800  0.830840  0.904100  1.0  -0.4313
  O  O321  1  0.388700  0.806930  0.215370  1.0  -0.7115
  O  O322  1  0.539400  0.821370  0.276990  1.0  -0.6915
  O  O323  1  0.247600  0.163980  0.317040  1.0  -0.6369
  O  O324  1  0.249300  0.178670  0.225030  1.0  -0.7009
  O  O325  1  0.629500  0.968410  0.333840  1.0  -0.3825
  O  O326  1  0.561900  0.023160  0.281500  1.0  -0.3734
  O  O327  1  0.140600  0.923440  0.174500  1.0  -0.3785
  O  O328  1  0.187600  0.990680  0.172100  1.0  -0.362
  O  O329  1  0.421000  0.003550  0.139600  1.0  -0.3613
  O  O330  1  0.369200  0.066850  0.106500  1.0  -0.3581
  O  O331  1  0.319000  0.965490  0.337000  1.0  -0.3403
  O  O332  1  0.364600  0.019790  0.394600  1.0  -0.3162
  O  O333  1  0.457100  0.666150  0.247410  1.0  -0.6549
  O  O334  1  0.619800  0.680050  0.294950  1.0  -0.7276
  O  O335  1  0.741400  0.323880  0.168890  1.0  -0.6413
  O  O336  1  0.776400  0.313340  0.264510  1.0  -0.6644
  O  O337  1  0.377400  0.520200  0.167100  1.0  -0.4238
  O  O338  1  0.436500  0.467050  0.224700  1.0  -0.3604
  O  O339  1  0.867300  0.563840  0.325600  1.0  -0.39
  O  O340  1  0.826000  0.495860  0.311600  1.0  -0.3383
  O  O341  1  0.670900  0.523500  0.154800  1.0  -0.3873
  O  O342  1  0.606800  0.470020  0.098200  1.0  -0.3307
  O  O343  1  0.603900  0.482460  0.361000  1.0  -0.2912
  O  O344  1  0.642000  0.418800  0.386200  1.0  -0.2946
  O  O345  1  0.907700  0.772270  0.637340  1.0  -0.5858
  O  O346  1  0.043400  0.756220  0.705940  1.0  -0.7827
  O  O347  1  0.466000  0.741320  0.318530  1.0  -0.7991
  O  O348  1  0.581200  0.773590  0.386500  1.0  -0.6095
  O  O349  1  0.363900  0.712800  0.641800  1.0  -0.3355
  O  O350  1  0.363300  0.704000  0.552200  1.0  -0.3105
  O  O351  1  0.123100  0.824400  0.435100  1.0  -0.3217
  O  O352  1  0.968000  0.814100  0.445800  1.0  -0.3443
  O  O353  1  0.302200  0.838750  0.554800  1.0  -0.3503
  O  O354  1  0.466400  0.824620  0.564700  1.0  -0.364
  O  O355  1  0.082200  0.719300  0.425900  1.0  -0.4026
  O  O356  1  0.181800  0.669160  0.404100  1.0  -0.43
  O  O357  1  0.888700  0.693070  0.715370  1.0  -0.7103
  O  O358  1  0.039400  0.678630  0.776990  1.0  -0.6916
  O  O359  1  0.747600  0.336020  0.817040  1.0  -0.6385
  O  O360  1  0.749300  0.321330  0.725030  1.0  -0.7013
  O  O361  1  0.129500  0.531590  0.833840  1.0  -0.3826
  O  O362  1  0.061900  0.476840  0.781500  1.0  -0.3712
  O  O363  1  0.640600  0.576560  0.674500  1.0  -0.3807
  O  O364  1  0.687600  0.509320  0.672100  1.0  -0.3625
  O  O365  1  0.921000  0.496450  0.639600  1.0  -0.3607
  O  O366  1  0.869200  0.433150  0.606500  1.0  -0.357
  O  O367  1  0.819000  0.534510  0.837000  1.0  -0.3386
  O  O368  1  0.864600  0.480210  0.894600  1.0  -0.3166
  O  O369  1  0.957100  0.833850  0.747410  1.0  -0.6547
  O  O370  1  0.119800  0.819950  0.794950  1.0  -0.7272
  O  O371  1  0.241400  0.176120  0.668890  1.0  -0.6427
  O  O372  1  0.276400  0.186660  0.764510  1.0  -0.6633
  O  O373  1  0.877400  0.979800  0.667100  1.0  -0.4242
  O  O374  1  0.936500  0.032950  0.724700  1.0  -0.359
  O  O375  1  0.367300  0.936160  0.825600  1.0  -0.3893
  O  O376  1  0.326000  0.004140  0.811600  1.0  -0.3384
  O  O377  1  0.170900  0.976500  0.654800  1.0  -0.3862
  O  O378  1  0.106800  0.029980  0.598200  1.0  -0.33
  O  O379  1  0.103900  0.017540  0.861000  1.0  -0.2912
  O  O380  1  0.142000  0.081200  0.886200  1.0  -0.2955
  O  O381  1  0.592300  0.272270  0.862660  1.0  -0.5842
  O  O382  1  0.456600  0.256220  0.794060  1.0  -0.7843
  O  O383  1  0.034000  0.241320  0.181470  1.0  -0.7984
  O  O384  1  0.918800  0.273590  0.113500  1.0  -0.6088
  O  O385  1  0.136100  0.212800  0.858200  1.0  -0.3359
  O  O386  1  0.136700  0.204000  0.947800  1.0  -0.3086
  O  O387  1  0.376900  0.324400  0.064900  1.0  -0.3212
  O  O388  1  0.532000  0.314100  0.054200  1.0  -0.3396
  O  O389  1  0.197800  0.338750  0.945200  1.0  -0.3517
  O  O390  1  0.033600  0.324620  0.935300  1.0  -0.3662
  O  O391  1  0.417800  0.219300  0.074100  1.0  -0.4053
  O  O392  1  0.318200  0.169160  0.095900  1.0  -0.4292
  O  O393  1  0.611300  0.193070  0.784630  1.0  -0.7133
  O  O394  1  0.460600  0.178630  0.723010  1.0  -0.6913
  O  O395  1  0.752400  0.836020  0.682960  1.0  -0.6387
  O  O396  1  0.750700  0.821330  0.774970  1.0  -0.7006
  O  O397  1  0.370500  0.031590  0.666160  1.0  -0.3844
  O  O398  1  0.438100  0.976840  0.718500  1.0  -0.3707
  O  O399  1  0.859400  0.076560  0.825500  1.0  -0.3766
  O  O400  1  0.812400  0.009320  0.827900  1.0  -0.3619
  O  O401  1  0.579000  0.996450  0.860400  1.0  -0.361
  O  O402  1  0.630800  0.933150  0.893500  1.0  -0.3612
  O  O403  1  0.681000  0.034510  0.663000  1.0  -0.34
  O  O404  1  0.635400  0.980210  0.605400  1.0  -0.3217
  O  O405  1  0.542900  0.333850  0.752590  1.0  -0.6562
  O  O406  1  0.380200  0.319950  0.705050  1.0  -0.7278
  O  O407  1  0.258600  0.676120  0.831110  1.0  -0.6393
  O  O408  1  0.223600  0.686660  0.735490  1.0  -0.6626
  O  O409  1  0.622600  0.479800  0.832900  1.0  -0.4225
  O  O410  1  0.563500  0.532950  0.775300  1.0  -0.3585
  O  O411  1  0.132700  0.436160  0.674400  1.0  -0.3884
  O  O412  1  0.174000  0.504140  0.688400  1.0  -0.3404
  O  O413  1  0.329100  0.476500  0.845200  1.0  -0.3866
  O  O414  1  0.393200  0.529980  0.901800  1.0  -0.3295
  O  O415  1  0.396100  0.517540  0.639000  1.0  -0.2922
  O  O416  1  0.358000  0.581200  0.613800  1.0  -0.2961
