# generated using pymatgen
data_GdH6C21(NO3)6
_symmetry_space_group_name_H-M   'P 1'
_cell_length_a   13.35600000
_cell_length_b   19.44130000
_cell_length_c   19.44130000
_cell_angle_alpha   102.15800000
_cell_angle_beta   93.84740000
_cell_angle_gamma   93.84740000
_symmetry_Int_Tables_number   1
_chemical_formula_structural   GdH6C21(NO3)6
_chemical_formula_sum   'Gd4 H24 C84 N24 O72'
_cell_volume   4906.63633684
_cell_formula_units_Z   4
loop_
 _symmetry_equiv_pos_site_id
 _symmetry_equiv_pos_as_xyz
  1  'x, y, z'
loop_
 _atom_site_type_symbol
 _atom_site_label
 _atom_site_symmetry_multiplicity
 _atom_site_fract_x
 _atom_site_fract_y
 _atom_site_fract_z
 _atom_site_occupancy
 _atom_site_charge
  Gd  Gd1  1  0.352470  0.984790  0.461260  1.0  2.1622
  Gd  Gd2  1  0.147530  0.538740  0.015210  1.0  2.1618
  Gd  Gd3  1  0.647530  0.015210  0.538740  1.0  2.1615
  Gd  Gd4  1  0.852470  0.461260  0.984790  1.0  2.1614
  H  H5  1  0.295900  0.830700  0.598100  1.0  0.1101
  H  H6  1  0.570100  0.883600  0.696400  1.0  0.1194
  H  H7  1  0.340200  0.573400  0.811800  1.0  0.1251
  H  H8  1  0.284700  0.749500  0.943700  1.0  0.1275
  H  H9  1  0.322300  0.146600  0.569800  1.0  0.1114
  H  H10  1  0.506400  0.163300  0.743100  1.0  0.1283
  H  H11  1  0.204100  0.401900  0.169300  1.0  0.1089
  H  H12  1  0.929900  0.303600  0.116400  1.0  0.1194
  H  H13  1  0.159800  0.188200  0.426600  1.0  0.1249
  H  H14  1  0.215300  0.056300  0.250500  1.0  0.1286
  H  H15  1  0.177700  0.430200  0.853400  1.0  0.1102
  H  H16  1  0.993600  0.256900  0.836700  1.0  0.1258
  H  H17  1  0.704100  0.169300  0.401900  1.0  0.1093
  H  H18  1  0.429900  0.116400  0.303600  1.0  0.1194
  H  H19  1  0.659800  0.426600  0.188200  1.0  0.1236
  H  H20  1  0.715300  0.250500  0.056300  1.0  0.1282
  H  H21  1  0.677700  0.853400  0.430200  1.0  0.1124
  H  H22  1  0.493600  0.836700  0.256900  1.0  0.1274
  H  H23  1  0.795900  0.598100  0.830700  1.0  0.1085
  H  H24  1  0.070100  0.696400  0.883600  1.0  0.1201
  H  H25  1  0.840200  0.811800  0.573400  1.0  0.1247
  H  H26  1  0.784700  0.943700  0.749500  1.0  0.128
  H  H27  1  0.822300  0.569800  0.146600  1.0  0.1107
  H  H28  1  0.006400  0.743100  0.163300  1.0  0.1276
  C  C29  1  0.458100  0.908800  0.585200  1.0  0.7976
  C  C30  1  0.437500  0.861900  0.636700  1.0  -0.1547
  C  C31  1  0.344400  0.826400  0.633200  1.0  0.0194
  C  C32  1  0.320400  0.785500  0.678900  1.0  -0.0387
  C  C33  1  0.388600  0.776800  0.732800  1.0  0.0678
  C  C34  1  0.480400  0.814600  0.737200  1.0  -0.0447
  C  C35  1  0.507400  0.858300  0.690700  1.0  0.0328
  C  C36  1  0.364800  0.733500  0.787100  1.0  0.0376
  C  C37  1  0.367800  0.660900  0.775700  1.0  -0.0326
  C  C38  1  0.337500  0.622100  0.822100  1.0  0.0011
  C  C39  1  0.303000  0.655500  0.884100  1.0  -0.1005
  C  C40  1  0.303800  0.726600  0.900200  1.0  -0.0144
  C  C41  1  0.333200  0.765600  0.851800  1.0  -0.0196
  C  C42  1  0.262600  0.612000  0.934400  1.0  0.6977
  C  C43  1  0.495400  0.098900  0.608500  1.0  0.7577
  C  C44  1  0.420500  0.141800  0.650600  1.0  -0.113
  C  C45  1  0.335700  0.160800  0.618600  1.0  -0.0186
  C  C46  1  0.269400  0.201300  0.658300  1.0  -0.0194
  C  C47  1  0.284800  0.223100  0.730700  1.0  0.0341
  C  C48  1  0.376000  0.207900  0.762300  1.0  -0.0257
  C  C49  1  0.444200  0.169800  0.722000  1.0  0.0109
  C  C50  1  0.041900  0.414800  0.091200  1.0  0.7954
  C  C51  1  0.062500  0.363300  0.138100  1.0  -0.1566
  C  C52  1  0.155600  0.366800  0.173600  1.0  0.0163
  C  C53  1  0.179600  0.321100  0.214500  1.0  -0.0393
  C  C54  1  0.111400  0.267200  0.223200  1.0  0.0675
  C  C55  1  0.019600  0.262800  0.185400  1.0  -0.0442
  C  C56  1  0.992600  0.309300  0.141700  1.0  0.0333
  C  C57  1  0.135200  0.212900  0.266500  1.0  0.0381
  C  C58  1  0.132200  0.224300  0.339100  1.0  -0.0338
  C  C59  1  0.162500  0.177900  0.377900  1.0  0.0087
  C  C60  1  0.197000  0.115900  0.344500  1.0  -0.1017
  C  C61  1  0.196200  0.099800  0.273400  1.0  -0.0081
  C  C62  1  0.166800  0.148200  0.234400  1.0  -0.0156
  C  C63  1  0.237400  0.065600  0.388000  1.0  0.6902
  C  C64  1  0.004600  0.391500  0.901100  1.0  0.7566
  C  C65  1  0.079500  0.349400  0.858200  1.0  -0.1138
  C  C66  1  0.164300  0.381400  0.839200  1.0  -0.0134
  C  C67  1  0.230600  0.341700  0.798700  1.0  -0.0143
  C  C68  1  0.215200  0.269300  0.776900  1.0  0.0342
  C  C69  1  0.124000  0.237700  0.792100  1.0  -0.0244
  C  C70  1  0.055800  0.278000  0.830200  1.0  0.0112
  C  C71  1  0.541900  0.091200  0.414800  1.0  0.7982
  C  C72  1  0.562500  0.138100  0.363300  1.0  -0.1542
  C  C73  1  0.655600  0.173600  0.366800  1.0  0.0183
  C  C74  1  0.679600  0.214500  0.321100  1.0  -0.0382
  C  C75  1  0.611400  0.223200  0.267200  1.0  0.0683
  C  C76  1  0.519600  0.185400  0.262800  1.0  -0.0459
  C  C77  1  0.492600  0.141700  0.309300  1.0  0.0341
  C  C78  1  0.635200  0.266500  0.212900  1.0  0.0379
  C  C79  1  0.632200  0.339100  0.224300  1.0  -0.0342
  C  C80  1  0.662500  0.377900  0.177900  1.0  -0.0019
  C  C81  1  0.697000  0.344500  0.115900  1.0  -0.1023
  C  C82  1  0.696200  0.273400  0.099800  1.0  -0.0048
  C  C83  1  0.666800  0.234400  0.148200  1.0  -0.0187
  C  C84  1  0.737400  0.388000  0.065600  1.0  0.6976
  C  C85  1  0.504600  0.901100  0.391500  1.0  0.7576
  C  C86  1  0.579500  0.858200  0.349400  1.0  -0.1131
  C  C87  1  0.664300  0.839200  0.381400  1.0  -0.0132
  C  C88  1  0.730600  0.798700  0.341700  1.0  -0.0154
  C  C89  1  0.715200  0.776900  0.269300  1.0  0.034
  C  C90  1  0.624000  0.792100  0.237700  1.0  -0.0237
  C  C91  1  0.555800  0.830200  0.278000  1.0  0.0108
  C  C92  1  0.958100  0.585200  0.908800  1.0  0.7956
  C  C93  1  0.937500  0.636700  0.861900  1.0  -0.1576
  C  C94  1  0.844400  0.633200  0.826400  1.0  0.0171
  C  C95  1  0.820400  0.678900  0.785500  1.0  -0.0369
  C  C96  1  0.888600  0.732800  0.776800  1.0  0.067
  C  C97  1  0.980400  0.737200  0.814600  1.0  -0.0441
  C  C98  1  0.007400  0.690700  0.858300  1.0  0.0349
  C  C99  1  0.864800  0.787100  0.733500  1.0  0.038
  C  C100  1  0.867800  0.775700  0.660900  1.0  -0.0335
  C  C101  1  0.837500  0.822100  0.622100  1.0  0.0064
  C  C102  1  0.803000  0.884100  0.655500  1.0  -0.1039
  C  C103  1  0.803800  0.900200  0.726600  1.0  -0.0098
  C  C104  1  0.833200  0.851800  0.765600  1.0  -0.0187
  C  C105  1  0.762600  0.934400  0.612000  1.0  0.6943
  C  C106  1  0.995400  0.608500  0.098900  1.0  0.7572
  C  C107  1  0.920500  0.650600  0.141800  1.0  -0.1136
  C  C108  1  0.835700  0.618600  0.160800  1.0  -0.0175
  C  C109  1  0.769400  0.658300  0.201300  1.0  -0.0183
  C  C110  1  0.784800  0.730700  0.223100  1.0  0.0347
  C  C111  1  0.876000  0.762300  0.207900  1.0  -0.0258
  C  C112  1  0.944200  0.722000  0.169800  1.0  0.0055
  N  N113  1  0.220500  0.752100  0.671900  1.0  0.6638
  N  N114  1  0.557300  0.814500  0.795900  1.0  0.5955
  N  N115  1  0.407100  0.622800  0.710000  1.0  0.632
  N  N116  1  0.328400  0.841400  0.870400  1.0  0.584
  N  N117  1  0.183700  0.219800  0.622600  1.0  0.6496
  N  N118  1  0.399700  0.228900  0.836900  1.0  0.6354
  N  N119  1  0.279500  0.328100  0.247900  1.0  0.6613
  N  N120  1  0.942700  0.204100  0.185500  1.0  0.5937
  N  N121  1  0.092900  0.290000  0.377200  1.0  0.6311
  N  N122  1  0.171600  0.129600  0.158600  1.0  0.5908
  N  N123  1  0.316300  0.377400  0.780200  1.0  0.6482
  N  N124  1  0.100300  0.163100  0.771100  1.0  0.6299
  N  N125  1  0.779500  0.247900  0.328100  1.0  0.6604
  N  N126  1  0.442700  0.185500  0.204100  1.0  0.5925
  N  N127  1  0.592900  0.377200  0.290000  1.0  0.6325
  N  N128  1  0.671600  0.158600  0.129600  1.0  0.5846
  N  N129  1  0.816300  0.780200  0.377400  1.0  0.6487
  N  N130  1  0.600300  0.771100  0.163100  1.0  0.6341
  N  N131  1  0.720500  0.671900  0.752100  1.0  0.6613
  N  N132  1  0.057300  0.795900  0.814500  1.0  0.5928
  N  N133  1  0.907100  0.710000  0.622800  1.0  0.6304
  N  N134  1  0.828400  0.870400  0.841400  1.0  0.5912
  N  N135  1  0.683700  0.622600  0.219800  1.0  0.6512
  N  N136  1  0.899700  0.836900  0.228900  1.0  0.6323
  O  O137  1  0.391600  0.910300  0.538900  1.0  -0.7392
  O  O138  1  0.544500  0.943200  0.597600  1.0  -0.6904
  O  O139  1  0.238800  0.547500  0.909700  1.0  -0.6967
  O  O140  1  0.248800  0.641800  0.995600  1.0  -0.6532
  O  O141  1  0.157100  0.768000  0.633800  1.0  -0.367
  O  O142  1  0.196200  0.711100  0.706300  1.0  -0.3645
  O  O143  1  0.619200  0.870600  0.814200  1.0  -0.4495
  O  O144  1  0.555400  0.774600  0.830600  1.0  -0.2895
  O  O145  1  0.437600  0.655500  0.668900  1.0  -0.3636
  O  O146  1  0.420400  0.562900  0.706900  1.0  -0.3397
  O  O147  1  0.314500  0.874400  0.824200  1.0  -0.335
  O  O148  1  0.331700  0.870200  0.934200  1.0  -0.3474
  O  O149  1  0.459700  0.059700  0.550900  1.0  -0.8325
  O  O150  1  0.582200  0.102500  0.632500  1.0  -0.6039
  O  O151  1  0.110000  0.236200  0.649000  1.0  -0.3905
  O  O152  1  0.159000  0.199100  0.560900  1.0  -0.3821
  O  O153  1  0.338200  0.239300  0.877900  1.0  -0.3337
  O  O154  1  0.489900  0.239400  0.856400  1.0  -0.3566
  O  O155  1  0.108400  0.461100  0.089700  1.0  -0.7393
  O  O156  1  0.955500  0.402400  0.056800  1.0  -0.6894
  O  O157  1  0.261200  0.090300  0.452500  1.0  -0.6974
  O  O158  1  0.251200  0.004400  0.358200  1.0  -0.6445
  O  O159  1  0.342900  0.366200  0.232000  1.0  -0.3662
  O  O160  1  0.303800  0.293700  0.288900  1.0  -0.3627
  O  O161  1  0.880800  0.185800  0.129400  1.0  -0.4522
  O  O162  1  0.944600  0.169400  0.225400  1.0  -0.2812
  O  O163  1  0.062400  0.331100  0.344500  1.0  -0.364
  O  O164  1  0.079600  0.293100  0.437100  1.0  -0.3429
  O  O165  1  0.185500  0.175800  0.125600  1.0  -0.3346
  O  O166  1  0.168300  0.065800  0.129800  1.0  -0.3502
  O  O167  1  0.040300  0.449100  0.940300  1.0  -0.8328
  O  O168  1  0.917800  0.367500  0.897500  1.0  -0.6039
  O  O169  1  0.390000  0.351000  0.763800  1.0  -0.3803
  O  O170  1  0.341000  0.439100  0.800900  1.0  -0.3802
  O  O171  1  0.161800  0.122100  0.760700  1.0  -0.3328
  O  O172  1  0.010100  0.143600  0.760600  1.0  -0.3608
  O  O173  1  0.608400  0.089700  0.461100  1.0  -0.7393
  O  O174  1  0.455500  0.056800  0.402400  1.0  -0.6895
  O  O175  1  0.761200  0.452500  0.090300  1.0  -0.6979
  O  O176  1  0.751200  0.358200  0.004400  1.0  -0.652
  O  O177  1  0.842900  0.232000  0.366200  1.0  -0.3676
  O  O178  1  0.803800  0.288900  0.293700  1.0  -0.3644
  O  O179  1  0.380800  0.129400  0.185800  1.0  -0.4528
  O  O180  1  0.444600  0.225400  0.169400  1.0  -0.2813
  O  O181  1  0.562400  0.344500  0.331100  1.0  -0.3622
  O  O182  1  0.579600  0.437100  0.293100  1.0  -0.341
  O  O183  1  0.685500  0.125600  0.175800  1.0  -0.3329
  O  O184  1  0.668300  0.129800  0.065800  1.0  -0.3501
  O  O185  1  0.540300  0.940300  0.449100  1.0  -0.832
  O  O186  1  0.417800  0.897500  0.367500  1.0  -0.6053
  O  O187  1  0.890000  0.763800  0.351000  1.0  -0.3776
  O  O188  1  0.841000  0.800900  0.439100  1.0  -0.3816
  O  O189  1  0.661800  0.760700  0.122100  1.0  -0.3355
  O  O190  1  0.510100  0.760600  0.143600  1.0  -0.3587
  O  O191  1  0.891600  0.538900  0.910300  1.0  -0.7397
  O  O192  1  0.044500  0.597600  0.943200  1.0  -0.6896
  O  O193  1  0.738800  0.909700  0.547500  1.0  -0.6957
  O  O194  1  0.748800  0.995600  0.641800  1.0  -0.6436
  O  O195  1  0.657100  0.633800  0.768000  1.0  -0.3654
  O  O196  1  0.696200  0.706300  0.711100  1.0  -0.3593
  O  O197  1  0.119200  0.814200  0.870600  1.0  -0.4518
  O  O198  1  0.055400  0.830600  0.774600  1.0  -0.2805
  O  O199  1  0.937600  0.668900  0.655500  1.0  -0.3665
  O  O200  1  0.920400  0.706900  0.562900  1.0  -0.3401
  O  O201  1  0.814500  0.824200  0.874400  1.0  -0.3343
  O  O202  1  0.831700  0.934200  0.870200  1.0  -0.3485
  O  O203  1  0.959700  0.550900  0.059700  1.0  -0.833
  O  O204  1  0.082200  0.632500  0.102500  1.0  -0.6026
  O  O205  1  0.610000  0.649000  0.236200  1.0  -0.3836
  O  O206  1  0.659000  0.560900  0.199100  1.0  -0.3808
  O  O207  1  0.838200  0.877900  0.239300  1.0  -0.3332
  O  O208  1  0.989900  0.856400  0.239400  1.0  -0.3574
