# generated using pymatgen
data_GdH6C21(NO3)6
_symmetry_space_group_name_H-M   'P 1'
_cell_length_a   13.36200000
_cell_length_b   19.48680000
_cell_length_c   19.48680000
_cell_angle_alpha   101.90100000
_cell_angle_beta   93.03940000
_cell_angle_gamma   93.03940000
_symmetry_Int_Tables_number   1
_chemical_formula_structural   GdH6C21(NO3)6
_chemical_formula_sum   'Gd4 H24 C84 N24 O72'
_cell_volume   4947.34375347
_cell_formula_units_Z   4
loop_
 _symmetry_equiv_pos_site_id
 _symmetry_equiv_pos_as_xyz
  1  'x, y, z'
loop_
 _atom_site_type_symbol
 _atom_site_label
 _atom_site_symmetry_multiplicity
 _atom_site_fract_x
 _atom_site_fract_y
 _atom_site_fract_z
 _atom_site_occupancy
 _atom_site_charge
  Gd  Gd1  1  0.352520  0.487460  0.963260  1.0  2.1596
  Gd  Gd2  1  0.147480  0.036740  0.512540  1.0  2.155
  Gd  Gd3  1  0.647480  0.512540  0.036740  1.0  2.1548
  Gd  Gd4  1  0.852520  0.963260  0.487460  1.0  2.1539
  H  H5  1  0.569000  0.386000  0.197000  1.0  0.1176
  H  H6  1  0.299500  0.332000  0.098600  1.0  0.1119
  H  H7  1  0.286500  0.248200  0.444200  1.0  0.1281
  H  H8  1  0.340100  0.073000  0.308800  1.0  0.1192
  H  H9  1  0.673300  0.349400  0.932200  1.0  0.1139
  H  H10  1  0.493800  0.337400  0.759400  1.0  0.1292
  H  H11  1  0.931000  0.803000  0.614000  1.0  0.1177
  H  H12  1  0.200500  0.901400  0.668000  1.0  0.1099
  H  H13  1  0.213500  0.555800  0.751800  1.0  0.1302
  H  H14  1  0.159900  0.691200  0.927000  1.0  0.1175
  H  H15  1  0.826700  0.067800  0.650600  1.0  0.1137
  H  H16  1  0.006200  0.240600  0.662600  1.0  0.1293
  H  H17  1  0.431000  0.614000  0.803000  1.0  0.1174
  H  H18  1  0.700500  0.668000  0.901400  1.0  0.1111
  H  H19  1  0.713500  0.751800  0.555800  1.0  0.1291
  H  H20  1  0.659900  0.927000  0.691200  1.0  0.1185
  H  H21  1  0.326700  0.650600  0.067800  1.0  0.1139
  H  H22  1  0.506200  0.662600  0.240600  1.0  0.1292
  H  H23  1  0.069000  0.197000  0.386000  1.0  0.1181
  H  H24  1  0.799500  0.098600  0.332000  1.0  0.1094
  H  H25  1  0.786500  0.444200  0.248200  1.0  0.1303
  H  H26  1  0.840100  0.308800  0.073000  1.0  0.1173
  H  H27  1  0.173300  0.932200  0.349400  1.0  0.1126
  H  H28  1  0.993800  0.759400  0.337400  1.0  0.1274
  C  C29  1  0.460000  0.412500  0.087700  1.0  0.7998
  C  C30  1  0.438100  0.364600  0.139200  1.0  -0.1549
  C  C31  1  0.507400  0.360400  0.192000  1.0  0.0317
  C  C32  1  0.483700  0.317100  0.237700  1.0  -0.057
  C  C33  1  0.393300  0.276700  0.234300  1.0  0.0652
  C  C34  1  0.321700  0.288000  0.181400  1.0  -0.0443
  C  C35  1  0.346400  0.328700  0.134500  1.0  0.0174
  C  C36  1  0.367500  0.234300  0.287700  1.0  0.0324
  C  C37  1  0.333200  0.263800  0.351600  1.0  -0.039
  C  C38  1  0.304900  0.225300  0.400300  1.0  -0.0116
  C  C39  1  0.304000  0.153100  0.383700  1.0  -0.1115
  C  C40  1  0.339600  0.121700  0.321100  1.0  -0.0148
  C  C41  1  0.375200  0.163000  0.275800  1.0  -0.032
  C  C42  1  0.262600  0.109900  0.433300  1.0  0.7051
  C  C43  1  0.506000  0.400400  0.895400  1.0  0.752
  C  C44  1  0.576500  0.355400  0.851800  1.0  -0.1154
  C  C45  1  0.660600  0.335500  0.883700  1.0  -0.0219
  C  C46  1  0.727600  0.294200  0.843400  1.0  -0.0573
  C  C47  1  0.713000  0.274800  0.770600  1.0  0.0331
  C  C48  1  0.623000  0.291800  0.741800  1.0  -0.0054
  C  C49  1  0.555000  0.329400  0.780600  1.0  0.0056
  C  C50  1  0.040000  0.912300  0.587500  1.0  0.797
  C  C51  1  0.061900  0.860800  0.635400  1.0  -0.1558
  C  C52  1  0.992600  0.808000  0.639600  1.0  0.0335
  C  C53  1  0.016300  0.762300  0.682900  1.0  -0.0575
  C  C54  1  0.106700  0.765700  0.723300  1.0  0.0644
  C  C55  1  0.178300  0.818600  0.712000  1.0  -0.0461
  C  C56  1  0.153600  0.865500  0.671300  1.0  0.0149
  C  C57  1  0.132500  0.712300  0.765700  1.0  0.0311
  C  C58  1  0.166800  0.648400  0.736200  1.0  -0.0353
  C  C59  1  0.195100  0.599700  0.774700  1.0  -0.0117
  C  C60  1  0.196000  0.616300  0.846900  1.0  -0.1149
  C  C61  1  0.160400  0.678900  0.878300  1.0  -0.0078
  C  C62  1  0.124800  0.724200  0.837000  1.0  -0.0338
  C  C63  1  0.237400  0.566700  0.890100  1.0  0.6992
  C  C64  1  0.994000  0.104600  0.599600  1.0  0.7511
  C  C65  1  0.923500  0.148200  0.644600  1.0  -0.117
  C  C66  1  0.839400  0.116300  0.664500  1.0  -0.023
  C  C67  1  0.772400  0.156600  0.705800  1.0  -0.0588
  C  C68  1  0.787000  0.229400  0.725200  1.0  0.0333
  C  C69  1  0.877000  0.258200  0.708200  1.0  -0.0056
  C  C70  1  0.945000  0.219400  0.670600  1.0  0.0023
  C  C71  1  0.540000  0.587500  0.912300  1.0  0.7986
  C  C72  1  0.561900  0.635400  0.860800  1.0  -0.1545
  C  C73  1  0.492600  0.639600  0.808000  1.0  0.0329
  C  C74  1  0.516300  0.682900  0.762300  1.0  -0.0575
  C  C75  1  0.606700  0.723300  0.765700  1.0  0.0647
  C  C76  1  0.678300  0.712000  0.818600  1.0  -0.0448
  C  C77  1  0.653600  0.671300  0.865500  1.0  0.0159
  C  C78  1  0.632500  0.765700  0.712300  1.0  0.0321
  C  C79  1  0.666800  0.736200  0.648400  1.0  -0.0373
  C  C80  1  0.695100  0.774700  0.599700  1.0  -0.0083
  C  C81  1  0.696000  0.846900  0.616300  1.0  -0.1121
  C  C82  1  0.660400  0.878300  0.678900  1.0  -0.0143
  C  C83  1  0.624800  0.837000  0.724200  1.0  -0.0334
  C  C84  1  0.737400  0.890100  0.566700  1.0  0.7058
  C  C85  1  0.494000  0.599600  0.104600  1.0  0.7523
  C  C86  1  0.423500  0.644600  0.148200  1.0  -0.1156
  C  C87  1  0.339400  0.664500  0.116300  1.0  -0.0261
  C  C88  1  0.272400  0.705800  0.156600  1.0  -0.0589
  C  C89  1  0.287000  0.725200  0.229400  1.0  0.0335
  C  C90  1  0.377000  0.708200  0.258200  1.0  -0.0048
  C  C91  1  0.445000  0.670600  0.219400  1.0  0.0032
  C  C92  1  0.960000  0.087700  0.412500  1.0  0.7982
  C  C93  1  0.938100  0.139200  0.364600  1.0  -0.157
  C  C94  1  0.007400  0.192000  0.360400  1.0  0.032
  C  C95  1  0.983700  0.237700  0.317100  1.0  -0.0558
  C  C96  1  0.893300  0.234300  0.276700  1.0  0.0641
  C  C97  1  0.821700  0.181400  0.288000  1.0  -0.0463
  C  C98  1  0.846400  0.134500  0.328700  1.0  0.0172
  C  C99  1  0.867500  0.287700  0.234300  1.0  0.0314
  C  C100  1  0.833200  0.351600  0.263800  1.0  -0.0355
  C  C101  1  0.804900  0.400300  0.225300  1.0  -0.0145
  C  C102  1  0.804000  0.383700  0.153100  1.0  -0.1144
  C  C103  1  0.839600  0.321100  0.121700  1.0  -0.0172
  C  C104  1  0.875200  0.275800  0.163000  1.0  -0.0332
  C  C105  1  0.762600  0.433300  0.109900  1.0  0.7086
  C  C106  1  0.006000  0.895400  0.400400  1.0  0.7511
  C  C107  1  0.076500  0.851800  0.355400  1.0  -0.1165
  C  C108  1  0.160600  0.883700  0.335500  1.0  -0.0215
  C  C109  1  0.227600  0.843400  0.294200  1.0  -0.057
  C  C110  1  0.213000  0.770600  0.274800  1.0  0.0332
  C  C111  1  0.123000  0.741800  0.291800  1.0  -0.0063
  C  C112  1  0.055000  0.780600  0.329400  1.0  0.0053
  N  N113  1  0.559400  0.316300  0.295900  1.0  0.6647
  N  N114  1  0.223000  0.252800  0.173400  1.0  0.6391
  N  N115  1  0.329300  0.342900  0.375500  1.0  0.5818
  N  N116  1  0.414700  0.127200  0.211800  1.0  0.6225
  N  N117  1  0.816900  0.274200  0.878400  1.0  0.6826
  N  N118  1  0.602000  0.272200  0.662800  1.0  0.6183
  N  N119  1  0.940600  0.704100  0.683700  1.0  0.6672
  N  N120  1  0.277000  0.826600  0.747200  1.0  0.6368
  N  N121  1  0.170700  0.624500  0.657100  1.0  0.5824
  N  N122  1  0.085300  0.788200  0.872800  1.0  0.6205
  N  N123  1  0.683100  0.121600  0.725800  1.0  0.6814
  N  N124  1  0.898000  0.337200  0.727800  1.0  0.6144
  N  N125  1  0.440600  0.683700  0.704100  1.0  0.6668
  N  N126  1  0.777000  0.747200  0.826600  1.0  0.6397
  N  N127  1  0.670700  0.657100  0.624500  1.0  0.583
  N  N128  1  0.585300  0.872800  0.788200  1.0  0.6209
  N  N129  1  0.183100  0.725800  0.121600  1.0  0.6788
  N  N130  1  0.398000  0.727800  0.337200  1.0  0.6168
  N  N131  1  0.059400  0.295900  0.316300  1.0  0.6672
  N  N132  1  0.723000  0.173400  0.252800  1.0  0.6395
  N  N133  1  0.829300  0.375500  0.342900  1.0  0.5821
  N  N134  1  0.914700  0.211800  0.127200  1.0  0.6198
  N  N135  1  0.316900  0.878400  0.274200  1.0  0.6818
  N  N136  1  0.102000  0.662800  0.272200  1.0  0.6115
  O  O137  1  0.389800  0.416900  0.045100  1.0  -0.7514
  O  O138  1  0.545400  0.444000  0.098200  1.0  -0.6698
  O  O139  1  0.250800  0.139200  0.494200  1.0  -0.642
  O  O140  1  0.236100  0.047900  0.407100  1.0  -0.6947
  O  O141  1  0.619000  0.365700  0.310300  1.0  -0.4113
  O  O142  1  0.552200  0.285200  0.336600  1.0  -0.3156
  O  O143  1  0.158700  0.273700  0.140500  1.0  -0.3648
  O  O144  1  0.203000  0.208900  0.207100  1.0  -0.3505
  O  O145  1  0.318000  0.375700  0.329900  1.0  -0.3531
  O  O146  1  0.335000  0.366900  0.439100  1.0  -0.3259
  O  O147  1  0.452000  0.157400  0.171400  1.0  -0.3541
  O  O148  1  0.425000  0.064300  0.204700  1.0  -0.3785
  O  O149  1  0.415900  0.399100  0.870100  1.0  -0.6339
  O  O150  1  0.538800  0.439300  0.952100  1.0  -0.8109
  O  O151  1  0.818000  0.274600  0.937000  1.0  -0.3449
  O  O152  1  0.892000  0.271800  0.852200  1.0  -0.3635
  O  O153  1  0.670000  0.261600  0.623600  1.0  -0.3548
  O  O154  1  0.517000  0.268300  0.641300  1.0  -0.3339
  O  O155  1  0.110200  0.954900  0.583100  1.0  -0.7528
  O  O156  1  0.954600  0.901800  0.556000  1.0  -0.669
  O  O157  1  0.249200  0.505800  0.860800  1.0  -0.6379
  O  O158  1  0.263900  0.592900  0.952100  1.0  -0.6952
  O  O159  1  0.881000  0.689700  0.634300  1.0  -0.4132
  O  O160  1  0.947800  0.663400  0.714800  1.0  -0.314
  O  O161  1  0.341300  0.859500  0.726300  1.0  -0.3564
  O  O162  1  0.297000  0.792900  0.791100  1.0  -0.3447
  O  O163  1  0.182000  0.670100  0.624300  1.0  -0.3526
  O  O164  1  0.165000  0.560900  0.633100  1.0  -0.3335
  O  O165  1  0.048000  0.828600  0.842600  1.0  -0.352
  O  O166  1  0.075000  0.795300  0.935700  1.0  -0.3786
  O  O167  1  0.084100  0.129900  0.600900  1.0  -0.6345
  O  O168  1  0.961200  0.047900  0.560700  1.0  -0.8122
  O  O169  1  0.682000  0.063000  0.725400  1.0  -0.3427
  O  O170  1  0.608000  0.147800  0.728200  1.0  -0.3688
  O  O171  1  0.830000  0.376400  0.738400  1.0  -0.3509
  O  O172  1  0.983000  0.358700  0.731700  1.0  -0.3328
  O  O173  1  0.610200  0.583100  0.954900  1.0  -0.7529
  O  O174  1  0.454600  0.556000  0.901800  1.0  -0.6686
  O  O175  1  0.749200  0.860800  0.505800  1.0  -0.6421
  O  O176  1  0.763900  0.952100  0.592900  1.0  -0.6967
  O  O177  1  0.381000  0.634300  0.689700  1.0  -0.4112
  O  O178  1  0.447800  0.714800  0.663400  1.0  -0.3137
  O  O179  1  0.841300  0.726300  0.859500  1.0  -0.3572
  O  O180  1  0.797000  0.791100  0.792900  1.0  -0.3471
  O  O181  1  0.682000  0.624300  0.670100  1.0  -0.3518
  O  O182  1  0.665000  0.633100  0.560900  1.0  -0.3371
  O  O183  1  0.548000  0.842600  0.828600  1.0  -0.3525
  O  O184  1  0.575000  0.935700  0.795300  1.0  -0.3795
  O  O185  1  0.584100  0.600900  0.129900  1.0  -0.6346
  O  O186  1  0.461200  0.560700  0.047900  1.0  -0.8107
  O  O187  1  0.182000  0.725400  0.063000  1.0  -0.3437
  O  O188  1  0.108000  0.728200  0.147800  1.0  -0.3691
  O  O189  1  0.330000  0.738400  0.376400  1.0  -0.3533
  O  O190  1  0.483000  0.731700  0.358700  1.0  -0.3321
  O  O191  1  0.889800  0.045100  0.416900  1.0  -0.7543
  O  O192  1  0.045400  0.098200  0.444000  1.0  -0.6694
  O  O193  1  0.750800  0.494200  0.139200  1.0  -0.6369
  O  O194  1  0.736100  0.407100  0.047900  1.0  -0.6952
  O  O195  1  0.119000  0.310300  0.365700  1.0  -0.4123
  O  O196  1  0.052200  0.336600  0.285200  1.0  -0.3139
  O  O197  1  0.658700  0.140500  0.273700  1.0  -0.3544
  O  O198  1  0.703000  0.207100  0.208900  1.0  -0.3429
  O  O199  1  0.818000  0.329900  0.375700  1.0  -0.3551
  O  O200  1  0.835000  0.439100  0.366900  1.0  -0.3277
  O  O201  1  0.952000  0.171400  0.157400  1.0  -0.354
  O  O202  1  0.925000  0.204700  0.064300  1.0  -0.3796
  O  O203  1  0.915900  0.870100  0.399100  1.0  -0.6332
  O  O204  1  0.038800  0.952100  0.439300  1.0  -0.8134
  O  O205  1  0.318000  0.937000  0.274600  1.0  -0.342
  O  O206  1  0.392000  0.852200  0.271800  1.0  -0.3666
  O  O207  1  0.170000  0.623600  0.261600  1.0  -0.3499
  O  O208  1  0.017000  0.641300  0.268300  1.0  -0.3396
