# generated using pymatgen
data_GdH6C21(NO3)6
_symmetry_space_group_name_H-M   'P 1'
_cell_length_a   13.65200000
_cell_length_b   24.69800000
_cell_length_c   30.14300000
_cell_angle_alpha   90.00000000
_cell_angle_beta   90.00000000
_cell_angle_gamma   94.93500000
_symmetry_Int_Tables_number   1
_chemical_formula_structural   GdH6C21(NO3)6
_chemical_formula_sum   'Gd8 H48 C168 N48 O144'
_cell_volume   10125.85231155
_cell_formula_units_Z   8
loop_
 _symmetry_equiv_pos_site_id
 _symmetry_equiv_pos_as_xyz
  1  'x, y, z'
loop_
 _atom_site_type_symbol
 _atom_site_label
 _atom_site_symmetry_multiplicity
 _atom_site_fract_x
 _atom_site_fract_y
 _atom_site_fract_z
 _atom_site_occupancy
 _atom_site_charge
  Gd  Gd1  1  0.357630  0.222220  0.746350  1.0  2.1592
  Gd  Gd2  1  0.640000  0.277320  0.773670  1.0  2.17
  Gd  Gd3  1  0.142370  0.277780  0.246350  1.0  2.1596
  Gd  Gd4  1  0.860000  0.222680  0.273670  1.0  2.1673
  Gd  Gd5  1  0.642370  0.777780  0.253650  1.0  2.1598
  Gd  Gd6  1  0.360000  0.722680  0.226330  1.0  2.1789
  Gd  Gd7  1  0.857630  0.722220  0.753650  1.0  2.1607
  Gd  Gd8  1  0.140000  0.777320  0.726330  1.0  2.177
  H  H9  1  0.679500  0.141400  0.793500  1.0  0.1245
  H  H10  1  0.529500  0.065700  0.693800  1.0  0.1388
  H  H11  1  0.002300  0.953300  0.701300  1.0  0.1428
  H  H12  1  0.811300  0.858600  0.773800  1.0  0.1051
  H  H13  1  0.557900  0.283300  0.917200  1.0  0.1234
  H  H14  1  0.302200  0.197100  0.894000  1.0  0.1417
  H  H15  1  0.260000  0.331600  0.102900  1.0  0.1397
  H  H16  1  0.350900  0.188500  0.134800  1.0  0.1364
  H  H17  1  0.706900  0.294400  0.632300  1.0  0.1403
  H  H18  1  0.433600  0.239300  0.598900  1.0  0.1333
  H  H19  1  0.691200  0.321300  0.393200  1.0  0.135
  H  H20  1  0.725900  0.164700  0.416900  1.0  0.1403
  H  H21  1  0.820500  0.358600  0.293500  1.0  0.1252
  H  H22  1  0.970500  0.434300  0.193800  1.0  0.1388
  H  H23  1  0.497700  0.546700  0.201300  1.0  0.1426
  H  H24  1  0.688700  0.641400  0.273800  1.0  0.105
  H  H25  1  0.942100  0.216700  0.417200  1.0  0.1236
  H  H26  1  0.197800  0.302900  0.394000  1.0  0.1413
  H  H27  1  0.240000  0.168400  0.602900  1.0  0.1399
  H  H28  1  0.149100  0.311500  0.634800  1.0  0.1368
  H  H29  1  0.793100  0.205600  0.132300  1.0  0.1405
  H  H30  1  0.066400  0.260700  0.098900  1.0  0.1337
  H  H31  1  0.808800  0.178700  0.893200  1.0  0.1342
  H  H32  1  0.774100  0.335300  0.916900  1.0  0.1403
  H  H33  1  0.320500  0.858600  0.206500  1.0  0.1253
  H  H34  1  0.470500  0.934300  0.306200  1.0  0.1384
  H  H35  1  0.997700  0.046700  0.298700  1.0  0.1427
  H  H36  1  0.188700  0.141400  0.226200  1.0  0.1056
  H  H37  1  0.442100  0.716700  0.082800  1.0  0.1237
  H  H38  1  0.697800  0.802900  0.106000  1.0  0.1414
  H  H39  1  0.740000  0.668400  0.897100  1.0  0.1395
  H  H40  1  0.649100  0.811500  0.865200  1.0  0.1365
  H  H41  1  0.293100  0.705600  0.367700  1.0  0.1404
  H  H42  1  0.566400  0.760700  0.401100  1.0  0.1342
  H  H43  1  0.308800  0.678700  0.606800  1.0  0.1347
  H  H44  1  0.274100  0.835300  0.583100  1.0  0.1393
  H  H45  1  0.179500  0.641400  0.706500  1.0  0.1248
  H  H46  1  0.029500  0.565700  0.806200  1.0  0.1388
  H  H47  1  0.502300  0.453300  0.798700  1.0  0.1428
  H  H48  1  0.311300  0.358600  0.726200  1.0  0.1053
  H  H49  1  0.057900  0.783300  0.582800  1.0  0.1234
  H  H50  1  0.802200  0.697100  0.606000  1.0  0.1423
  H  H51  1  0.760000  0.831600  0.397100  1.0  0.14
  H  H52  1  0.850900  0.688500  0.365200  1.0  0.1361
  H  H53  1  0.206900  0.794400  0.867700  1.0  0.1404
  H  H54  1  0.933600  0.739300  0.901100  1.0  0.1334
  H  H55  1  0.191200  0.821300  0.106800  1.0  0.1348
  H  H56  1  0.225900  0.664700  0.083100  1.0  0.1397
  C  C57  1  0.515700  0.150300  0.745000  1.0  0.7539
  C  C58  1  0.590800  0.109400  0.744300  1.0  -0.1098
  C  C59  1  0.669500  0.112300  0.773900  1.0  -0.0137
  C  C60  1  0.731900  0.071700  0.773800  1.0  -0.0822
  C  C61  1  0.723500  0.027800  0.744300  1.0  0.0225
  C  C62  1  0.646800  0.028400  0.714200  1.0  -0.0473
  C  C63  1  0.580800  0.067600  0.714200  1.0  -0.0402
  C  C64  1  0.793600  0.983900  0.743700  1.0  0.0199
  C  C65  1  0.882800  0.989000  0.721200  1.0  -0.0498
  C  C66  1  0.943900  0.948100  0.717200  1.0  0.0055
  C  C67  1  0.915800  0.897800  0.737900  1.0  -0.1312
  C  C68  1  0.830500  0.891700  0.760500  1.0  -0.0058
  C  C69  1  0.770700  0.934200  0.764200  1.0  0.0148
  C  C70  1  0.982200  0.852300  0.733000  1.0  0.7713
  C  C71  1  0.454900  0.241600  0.848400  1.0  0.7764
  C  C72  1  0.433300  0.240100  0.897800  1.0  -0.1447
  C  C73  1  0.498900  0.266100  0.927500  1.0  -0.0401
  C  C74  1  0.477700  0.266800  0.971700  1.0  -0.0195
  C  C75  1  0.390500  0.240300  0.989500  1.0  0.0642
  C  C76  1  0.329200  0.213900  0.958400  1.0  -0.0261
  C  C77  1  0.347600  0.214300  0.913500  1.0  -0.0084
  C  C78  1  0.361200  0.247600  0.037200  1.0  0.0399
  C  C79  1  0.315800  0.292300  0.051400  1.0  -0.0593
  C  C80  1  0.287000  0.299700  0.094800  1.0  -0.0912
  C  C81  1  0.298100  0.260600  0.125300  1.0  -0.0966
  C  C82  1  0.342200  0.215200  0.113700  1.0  -0.0243
  C  C83  1  0.374100  0.208900  0.070500  1.0  -0.0447
  C  C84  1  0.259700  0.268400  0.171700  1.0  0.7418
  C  C85  1  0.535600  0.264500  0.671000  1.0  0.8038
  C  C86  1  0.566300  0.266200  0.622400  1.0  -0.1266
  C  C87  1  0.661500  0.281800  0.610900  1.0  0.0153
  C  C88  1  0.689200  0.278600  0.567000  1.0  -0.0719
  C  C89  1  0.624100  0.261200  0.533600  1.0  0.0332
  C  C90  1  0.528800  0.246900  0.547600  1.0  0.0141
  C  C91  1  0.498600  0.249200  0.591100  1.0  -0.0101
  C  C92  1  0.654300  0.255400  0.486100  1.0  0.0267
  C  C93  1  0.653800  0.296400  0.455300  1.0  -0.0238
  C  C94  1  0.686800  0.291500  0.412200  1.0  -0.0127
  C  C95  1  0.713300  0.241600  0.397700  1.0  -0.122
  C  C96  1  0.709400  0.198500  0.426500  1.0  -0.0499
  C  C97  1  0.680800  0.205600  0.470000  1.0  -0.0407
  C  C98  1  0.752500  0.235400  0.351400  1.0  0.7099
  C  C99  1  0.984300  0.349700  0.245000  1.0  0.7555
  C  C100  1  0.909200  0.390600  0.244300  1.0  -0.1103
  C  C101  1  0.830500  0.387700  0.273900  1.0  -0.0136
  C  C102  1  0.768100  0.428300  0.273800  1.0  -0.0803
  C  C103  1  0.776500  0.472200  0.244300  1.0  0.0225
  C  C104  1  0.853200  0.471600  0.214200  1.0  -0.0464
  C  C105  1  0.919200  0.432400  0.214200  1.0  -0.0401
  C  C106  1  0.706400  0.516100  0.243700  1.0  0.0207
  C  C107  1  0.617200  0.511000  0.221200  1.0  -0.0494
  C  C108  1  0.556100  0.551900  0.217200  1.0  0.0046
  C  C109  1  0.584200  0.602200  0.237900  1.0  -0.1313
  C  C110  1  0.669500  0.608300  0.260500  1.0  -0.0049
  C  C111  1  0.729300  0.565800  0.264200  1.0  0.0153
  C  C112  1  0.517800  0.647700  0.233000  1.0  0.7702
  C  C113  1  0.045100  0.258400  0.348400  1.0  0.775
  C  C114  1  0.066700  0.259900  0.397800  1.0  -0.1444
  C  C115  1  0.001100  0.233900  0.427500  1.0  -0.0393
  C  C116  1  0.022300  0.233200  0.471700  1.0  -0.0198
  C  C117  1  0.109500  0.259700  0.489500  1.0  0.0651
  C  C118  1  0.170800  0.286100  0.458400  1.0  -0.0246
  C  C119  1  0.152400  0.285700  0.413500  1.0  -0.0119
  C  C120  1  0.138800  0.252400  0.537200  1.0  0.0395
  C  C121  1  0.184200  0.207700  0.551400  1.0  -0.0593
  C  C122  1  0.213000  0.200300  0.594800  1.0  -0.0904
  C  C123  1  0.201900  0.239400  0.625300  1.0  -0.0972
  C  C124  1  0.157800  0.284800  0.613700  1.0  -0.0254
  C  C125  1  0.125900  0.291100  0.570500  1.0  -0.045
  C  C126  1  0.240300  0.231600  0.671700  1.0  0.7397
  C  C127  1  0.964400  0.235500  0.171000  1.0  0.8043
  C  C128  1  0.933700  0.233800  0.122400  1.0  -0.1271
  C  C129  1  0.838500  0.218200  0.110900  1.0  0.0167
  C  C130  1  0.810800  0.221400  0.067000  1.0  -0.0702
  C  C131  1  0.875900  0.238800  0.033600  1.0  0.0332
  C  C132  1  0.971200  0.253100  0.047600  1.0  0.0146
  C  C133  1  0.001400  0.250800  0.091100  1.0  -0.0077
  C  C134  1  0.845700  0.244600  0.986100  1.0  0.0275
  C  C135  1  0.846200  0.203600  0.955300  1.0  -0.0234
  C  C136  1  0.813200  0.208500  0.912200  1.0  -0.0149
  C  C137  1  0.786700  0.258400  0.897700  1.0  -0.1225
  C  C138  1  0.790600  0.301500  0.926500  1.0  -0.0525
  C  C139  1  0.819200  0.294400  0.970000  1.0  -0.0425
  C  C140  1  0.747500  0.264600  0.851400  1.0  0.7111
  C  C141  1  0.484300  0.849700  0.255000  1.0  0.7556
  C  C142  1  0.409200  0.890600  0.255700  1.0  -0.1106
  C  C143  1  0.330500  0.887700  0.226100  1.0  -0.0119
  C  C144  1  0.268100  0.928300  0.226200  1.0  -0.0793
  C  C145  1  0.276500  0.972200  0.255700  1.0  0.0226
  C  C146  1  0.353200  0.971600  0.285800  1.0  -0.0467
  C  C147  1  0.419200  0.932400  0.285800  1.0  -0.0391
  C  C148  1  0.206400  0.016100  0.256300  1.0  0.0208
  C  C149  1  0.117200  0.011000  0.278800  1.0  -0.0494
  C  C150  1  0.056100  0.051900  0.282800  1.0  0.0041
  C  C151  1  0.084200  0.102200  0.262100  1.0  -0.1315
  C  C152  1  0.169500  0.108300  0.239500  1.0  -0.004
  C  C153  1  0.229300  0.065800  0.235800  1.0  0.0139
  C  C154  1  0.017800  0.147700  0.267000  1.0  0.77
  C  C155  1  0.545100  0.758400  0.151600  1.0  0.7768
  C  C156  1  0.566700  0.759900  0.102200  1.0  -0.1446
  C  C157  1  0.501100  0.733900  0.072500  1.0  -0.04
  C  C158  1  0.522300  0.733200  0.028300  1.0  -0.0208
  C  C159  1  0.609500  0.759700  0.010500  1.0  0.0647
  C  C160  1  0.670800  0.786100  0.041600  1.0  -0.0254
  C  C161  1  0.652400  0.785700  0.086500  1.0  -0.0117
  C  C162  1  0.638800  0.752400  0.962800  1.0  0.0398
  C  C163  1  0.684200  0.707700  0.948600  1.0  -0.0598
  C  C164  1  0.713000  0.700300  0.905200  1.0  -0.0891
  C  C165  1  0.701900  0.739400  0.874700  1.0  -0.0976
  C  C166  1  0.657800  0.784800  0.886300  1.0  -0.0232
  C  C167  1  0.625900  0.791100  0.929500  1.0  -0.0459
  C  C168  1  0.740300  0.731600  0.828300  1.0  0.7406
  C  C169  1  0.464400  0.735500  0.329000  1.0  0.8035
  C  C170  1  0.433700  0.733800  0.377600  1.0  -0.1278
  C  C171  1  0.338500  0.718200  0.389100  1.0  0.0178
  C  C172  1  0.310800  0.721400  0.433000  1.0  -0.0696
  C  C173  1  0.375900  0.738800  0.466400  1.0  0.0336
  C  C174  1  0.471200  0.753100  0.452400  1.0  0.0148
  C  C175  1  0.501400  0.750800  0.408900  1.0  -0.0068
  C  C176  1  0.345700  0.744600  0.513900  1.0  0.0268
  C  C177  1  0.346200  0.703600  0.544700  1.0  -0.0238
  C  C178  1  0.313200  0.708500  0.587800  1.0  -0.0137
  C  C179  1  0.286700  0.758400  0.602300  1.0  -0.1216
  C  C180  1  0.290600  0.801500  0.573500  1.0  -0.053
  C  C181  1  0.319200  0.794400  0.530000  1.0  -0.0424
  C  C182  1  0.247500  0.764600  0.648600  1.0  0.7125
  C  C183  1  0.015700  0.650300  0.755000  1.0  0.754
  C  C184  1  0.090800  0.609400  0.755700  1.0  -0.1102
  C  C185  1  0.169500  0.612300  0.726100  1.0  -0.0116
  C  C186  1  0.231900  0.571700  0.726200  1.0  -0.0813
  C  C187  1  0.223500  0.527800  0.755700  1.0  0.0227
  C  C188  1  0.146800  0.528400  0.785800  1.0  -0.0478
  C  C189  1  0.080800  0.567600  0.785800  1.0  -0.04
  C  C190  1  0.293600  0.483900  0.756300  1.0  0.0201
  C  C191  1  0.382800  0.489000  0.778800  1.0  -0.0507
  C  C192  1  0.443900  0.448100  0.782800  1.0  0.0052
  C  C193  1  0.415800  0.397800  0.762100  1.0  -0.1315
  C  C194  1  0.330500  0.391700  0.739500  1.0  -0.0049
  C  C195  1  0.270700  0.434200  0.735800  1.0  0.0136
  C  C196  1  0.482200  0.352300  0.767000  1.0  0.7712
  C  C197  1  0.954900  0.741600  0.651600  1.0  0.777
  C  C198  1  0.933300  0.740100  0.602200  1.0  -0.1457
  C  C199  1  0.998900  0.766100  0.572500  1.0  -0.0405
  C  C200  1  0.977700  0.766800  0.528300  1.0  -0.0205
  C  C201  1  0.890500  0.740300  0.510500  1.0  0.0642
  C  C202  1  0.829200  0.713900  0.541600  1.0  -0.0262
  C  C203  1  0.847600  0.714300  0.586500  1.0  -0.0093
  C  C204  1  0.861200  0.747600  0.462800  1.0  0.0401
  C  C205  1  0.815800  0.792300  0.448600  1.0  -0.0591
  C  C206  1  0.787000  0.799700  0.405200  1.0  -0.0906
  C  C207  1  0.798100  0.760600  0.374700  1.0  -0.0983
  C  C208  1  0.842200  0.715200  0.386300  1.0  -0.0239
  C  C209  1  0.874100  0.708900  0.429500  1.0  -0.0456
  C  C210  1  0.759700  0.768400  0.328300  1.0  0.7429
  C  C211  1  0.035600  0.764500  0.829000  1.0  0.8027
  C  C212  1  0.066300  0.766200  0.877600  1.0  -0.1268
  C  C213  1  0.161500  0.781800  0.889100  1.0  0.0142
  C  C214  1  0.189200  0.778600  0.933000  1.0  -0.0708
  C  C215  1  0.124100  0.761200  0.966400  1.0  0.0338
  C  C216  1  0.028800  0.746900  0.952400  1.0  0.0141
  C  C217  1  0.998600  0.749200  0.908900  1.0  -0.0092
  C  C218  1  0.154300  0.755400  0.013900  1.0  0.0259
  C  C219  1  0.153800  0.796400  0.044700  1.0  -0.0236
  C  C220  1  0.186800  0.791500  0.087800  1.0  -0.0118
  C  C221  1  0.213300  0.741600  0.102300  1.0  -0.1214
  C  C222  1  0.209400  0.698500  0.073500  1.0  -0.0496
  C  C223  1  0.180800  0.705600  0.030000  1.0  -0.0407
  C  C224  1  0.252500  0.735400  0.148600  1.0  0.7113
  N  N225  1  0.810300  0.074800  0.807700  1.0  0.617
  N  N226  1  0.629400  0.986000  0.679900  1.0  0.6574
  N  N227  1  0.918000  0.041100  0.699300  1.0  0.6353
  N  N228  1  0.680400  0.925400  0.790000  1.0  0.6572
  N  N229  1  0.548800  0.296000  0.001600  1.0  0.6106
  N  N230  1  0.235700  0.183200  0.972100  1.0  0.6165
  N  N231  1  0.295200  0.336400  0.020100  1.0  0.6575
  N  N232  1  0.422900  0.159500  0.060000  1.0  0.6131
  N  N233  1  0.795600  0.292700  0.556800  1.0  0.5936
  N  N234  1  0.453100  0.226800  0.515800  1.0  0.4995
  N  N235  1  0.621300  0.349600  0.466900  1.0  0.6468
  N  N236  1  0.681900  0.157600  0.499400  1.0  0.6336
  N  N237  1  0.689700  0.425200  0.307700  1.0  0.6126
  N  N238  1  0.870600  0.514000  0.179900  1.0  0.6591
  N  N239  1  0.582000  0.458900  0.199300  1.0  0.6352
  N  N240  1  0.819600  0.574600  0.290000  1.0  0.6595
  N  N241  1  0.951200  0.204000  0.501600  1.0  0.6093
  N  N242  1  0.264300  0.316800  0.472100  1.0  0.6152
  N  N243  1  0.204800  0.163600  0.520100  1.0  0.6526
  N  N244  1  0.077100  0.340500  0.560000  1.0  0.6134
  N  N245  1  0.704400  0.207300  0.056800  1.0  0.5934
  N  N246  1  0.046900  0.273200  0.015800  1.0  0.5016
  N  N247  1  0.878700  0.150400  0.966900  1.0  0.6449
  N  N248  1  0.818100  0.342400  0.999400  1.0  0.6365
  N  N249  1  0.189700  0.925200  0.192300  1.0  0.614
  N  N250  1  0.370600  0.014000  0.320100  1.0  0.6581
  N  N251  1  0.082000  0.958900  0.300700  1.0  0.6354
  N  N252  1  0.319600  0.074600  0.210000  1.0  0.6572
  N  N253  1  0.451200  0.704000  0.998400  1.0  0.6108
  N  N254  1  0.764300  0.816800  0.027900  1.0  0.6133
  N  N255  1  0.704800  0.663600  0.979900  1.0  0.6526
  N  N256  1  0.577100  0.840500  0.940000  1.0  0.6136
  N  N257  1  0.204400  0.707300  0.443200  1.0  0.5945
  N  N258  1  0.546900  0.773200  0.484200  1.0  0.5016
  N  N259  1  0.378700  0.650400  0.533100  1.0  0.6447
  N  N260  1  0.318100  0.842400  0.500600  1.0  0.6387
  N  N261  1  0.310300  0.574800  0.692300  1.0  0.6147
  N  N262  1  0.129400  0.486000  0.820100  1.0  0.6553
  N  N263  1  0.418000  0.541100  0.800700  1.0  0.6355
  N  N264  1  0.180400  0.425400  0.710000  1.0  0.6564
  N  N265  1  0.048800  0.796000  0.498400  1.0  0.6102
  N  N266  1  0.735700  0.683200  0.527900  1.0  0.6151
  N  N267  1  0.795200  0.836400  0.479900  1.0  0.656
  N  N268  1  0.922900  0.659500  0.440000  1.0  0.6123
  N  N269  1  0.295600  0.792700  0.943200  1.0  0.5921
  N  N270  1  0.953100  0.726800  0.984200  1.0  0.5005
  N  N271  1  0.121300  0.849600  0.033100  1.0  0.6467
  N  N272  1  0.181900  0.657600  0.000600  1.0  0.6337
  O  O273  1  0.432000  0.137800  0.729900  1.0  -0.62
  O  O274  1  0.538900  0.196300  0.761200  1.0  -0.7881
  O  O275  1  0.069400  0.863800  0.720800  1.0  -0.6029
  O  O276  1  0.946800  0.805300  0.742000  1.0  -0.7691
  O  O277  1  0.828300  0.115200  0.826000  1.0  -0.3169
  O  O278  1  0.851600  0.037300  0.815600  1.0  -0.2798
  O  O279  1  0.579900  0.994200  0.649200  1.0  -0.3095
  O  O280  1  0.655900  0.942300  0.686400  1.0  -0.3046
  O  O281  1  0.888200  0.082600  0.711400  1.0  -0.3147
  O  O282  1  0.980100  0.040700  0.671600  1.0  -0.3257
  O  O283  1  0.637200  0.959900  0.801600  1.0  -0.3081
  O  O284  1  0.647200  0.879300  0.795900  1.0  -0.3311
  O  O285  1  0.390700  0.219200  0.823900  1.0  -0.6999
  O  O286  1  0.536400  0.267000  0.837200  1.0  -0.6856
  O  O287  1  0.244000  0.226900  0.195500  1.0  -0.6988
  O  O288  1  0.242200  0.314700  0.183500  1.0  -0.618
  O  O289  1  0.614000  0.325500  0.984000  1.0  -0.3731
  O  O290  1  0.540600  0.290500  0.041400  1.0  -0.3454
  O  O291  1  0.169100  0.177500  0.945800  1.0  -0.444
  O  O292  1  0.235000  0.161000  0.009400  1.0  -0.4877
  O  O293  1  0.326200  0.338200  0.984300  1.0  -0.2997
  O  O294  1  0.238800  0.367600  0.031800  1.0  -0.3335
  O  O295  1  0.455400  0.152600  0.023200  1.0  -0.3827
  O  O296  1  0.433000  0.126700  0.089400  1.0  -0.3517
  O  O297  1  0.454000  0.243300  0.680800  1.0  -0.6426
  O  O298  1  0.600600  0.283600  0.698600  1.0  -0.7268
  O  O299  1  0.759500  0.187700  0.336800  1.0  -0.651
  O  O300  1  0.778000  0.277300  0.329000  1.0  -0.7005
  O  O301  1  0.819700  0.297000  0.517700  1.0  -0.3844
  O  O302  1  0.852900  0.297100  0.588100  1.0  -0.4116
  O  O303  1  0.469000  0.204000  0.485200  1.0  -0.3403
  O  O304  1  0.372600  0.247300  0.519500  1.0  -0.478
  O  O305  1  0.649900  0.388100  0.445700  1.0  -0.3401
  O  O306  1  0.567600  0.351700  0.498600  1.0  -0.3109
  O  O307  1  0.674800  0.114000  0.482200  1.0  -0.3676
  O  O308  1  0.694600  0.165300  0.539100  1.0  -0.3491
  O  O309  1  0.068000  0.362200  0.229900  1.0  -0.6224
  O  O310  1  0.961100  0.303700  0.261200  1.0  -0.7878
  O  O311  1  0.430600  0.636200  0.220800  1.0  -0.6013
  O  O312  1  0.553200  0.694700  0.242000  1.0  -0.7702
  O  O313  1  0.671700  0.384800  0.326000  1.0  -0.3163
  O  O314  1  0.648400  0.462700  0.315600  1.0  -0.2765
  O  O315  1  0.920100  0.505800  0.149200  1.0  -0.3093
  O  O316  1  0.844100  0.557700  0.186400  1.0  -0.3043
  O  O317  1  0.611800  0.417400  0.211400  1.0  -0.312
  O  O318  1  0.519900  0.459300  0.171600  1.0  -0.3271
  O  O319  1  0.862800  0.540100  0.301600  1.0  -0.3092
  O  O320  1  0.852800  0.620700  0.295900  1.0  -0.3321
  O  O321  1  0.109300  0.280800  0.323900  1.0  -0.6999
  O  O322  1  0.963600  0.233000  0.337200  1.0  -0.6851
  O  O323  1  0.256000  0.273100  0.695500  1.0  -0.7002
  O  O324  1  0.257800  0.185300  0.683500  1.0  -0.619
  O  O325  1  0.886000  0.174500  0.484000  1.0  -0.3726
  O  O326  1  0.959400  0.209500  0.541400  1.0  -0.345
  O  O327  1  0.330900  0.322500  0.445800  1.0  -0.4431
  O  O328  1  0.265000  0.339000  0.509400  1.0  -0.4919
  O  O329  1  0.173800  0.161800  0.484300  1.0  -0.3006
  O  O330  1  0.261200  0.132400  0.531800  1.0  -0.334
  O  O331  1  0.044600  0.347400  0.523200  1.0  -0.3824
  O  O332  1  0.067000  0.373300  0.589400  1.0  -0.352
  O  O333  1  0.046000  0.256700  0.180800  1.0  -0.6427
  O  O334  1  0.899400  0.216400  0.198600  1.0  -0.7258
  O  O335  1  0.740500  0.312300  0.836800  1.0  -0.6503
  O  O336  1  0.722000  0.222700  0.829000  1.0  -0.6979
  O  O337  1  0.680300  0.203000  0.017700  1.0  -0.3849
  O  O338  1  0.647100  0.202900  0.088100  1.0  -0.4128
  O  O339  1  0.031000  0.296000  0.985200  1.0  -0.3385
  O  O340  1  0.127400  0.252700  0.019500  1.0  -0.4784
  O  O341  1  0.850100  0.111900  0.945700  1.0  -0.3415
  O  O342  1  0.932400  0.148300  0.998600  1.0  -0.3088
  O  O343  1  0.825200  0.386000  0.982200  1.0  -0.3652
  O  O344  1  0.805400  0.334700  0.039100  1.0  -0.3475
  O  O345  1  0.568000  0.862200  0.270100  1.0  -0.6217
  O  O346  1  0.461100  0.803700  0.238800  1.0  -0.7881
  O  O347  1  0.930600  0.136200  0.279200  1.0  -0.599
  O  O348  1  0.053200  0.194700  0.258000  1.0  -0.7704
  O  O349  1  0.171700  0.884800  0.174000  1.0  -0.3176
  O  O350  1  0.148400  0.962700  0.184400  1.0  -0.279
  O  O351  1  0.420100  0.005800  0.350800  1.0  -0.3079
  O  O352  1  0.344100  0.057700  0.313600  1.0  -0.3017
  O  O353  1  0.111800  0.917400  0.288600  1.0  -0.3128
  O  O354  1  0.019900  0.959300  0.328400  1.0  -0.3295
  O  O355  1  0.362800  0.040100  0.198400  1.0  -0.3097
  O  O356  1  0.352800  0.120700  0.204100  1.0  -0.3318
  O  O357  1  0.609300  0.780800  0.176100  1.0  -0.7021
  O  O358  1  0.463600  0.733000  0.162800  1.0  -0.6855
  O  O359  1  0.756000  0.773100  0.804500  1.0  -0.6994
  O  O360  1  0.757800  0.685300  0.816500  1.0  -0.6198
  O  O361  1  0.386000  0.674500  0.016000  1.0  -0.3728
  O  O362  1  0.459400  0.709500  0.958600  1.0  -0.3431
  O  O363  1  0.830900  0.822500  0.054200  1.0  -0.4409
  O  O364  1  0.765000  0.839000  0.990600  1.0  -0.4903
  O  O365  1  0.673800  0.661800  0.015700  1.0  -0.3022
  O  O366  1  0.761200  0.632400  0.968200  1.0  -0.3341
  O  O367  1  0.544600  0.847400  0.976800  1.0  -0.3853
  O  O368  1  0.567000  0.873300  0.910600  1.0  -0.3522
  O  O369  1  0.546000  0.756700  0.319200  1.0  -0.6424
  O  O370  1  0.399400  0.716400  0.301400  1.0  -0.7234
  O  O371  1  0.240500  0.812300  0.663200  1.0  -0.6509
  O  O372  1  0.222000  0.722700  0.671000  1.0  -0.6983
  O  O373  1  0.180300  0.703000  0.482300  1.0  -0.3859
  O  O374  1  0.147100  0.702900  0.411900  1.0  -0.4112
  O  O375  1  0.531000  0.796000  0.514800  1.0  -0.3413
  O  O376  1  0.627400  0.752700  0.480500  1.0  -0.4779
  O  O377  1  0.350100  0.611900  0.554300  1.0  -0.3412
  O  O378  1  0.432400  0.648300  0.501400  1.0  -0.3089
  O  O379  1  0.325200  0.886000  0.517800  1.0  -0.3654
  O  O380  1  0.305400  0.834700  0.460900  1.0  -0.3468
  O  O381  1  0.932000  0.637800  0.770100  1.0  -0.62
  O  O382  1  0.038900  0.696300  0.738800  1.0  -0.7893
  O  O383  1  0.569400  0.363800  0.779200  1.0  -0.602
  O  O384  1  0.446800  0.305300  0.758000  1.0  -0.7697
  O  O385  1  0.328300  0.615200  0.674000  1.0  -0.3165
  O  O386  1  0.351600  0.537300  0.684400  1.0  -0.2806
  O  O387  1  0.079900  0.494200  0.850800  1.0  -0.307
  O  O388  1  0.155900  0.442300  0.813600  1.0  -0.3037
  O  O389  1  0.388200  0.582600  0.788600  1.0  -0.3154
  O  O390  1  0.480100  0.540700  0.828400  1.0  -0.3296
  O  O391  1  0.137200  0.459900  0.698400  1.0  -0.3093
  O  O392  1  0.147200  0.379300  0.704100  1.0  -0.3315
  O  O393  1  0.890700  0.719200  0.676100  1.0  -0.7012
  O  O394  1  0.036400  0.767000  0.662800  1.0  -0.686
  O  O395  1  0.744000  0.726900  0.304500  1.0  -0.699
  O  O396  1  0.742200  0.814700  0.316500  1.0  -0.6186
  O  O397  1  0.114000  0.825500  0.516000  1.0  -0.3735
  O  O398  1  0.040600  0.790500  0.458600  1.0  -0.3451
  O  O399  1  0.669100  0.677500  0.554200  1.0  -0.4422
  O  O400  1  0.735000  0.661000  0.490600  1.0  -0.4879
  O  O401  1  0.826200  0.838200  0.515700  1.0  -0.3015
  O  O402  1  0.738800  0.867600  0.468200  1.0  -0.3339
  O  O403  1  0.955400  0.652600  0.476800  1.0  -0.3832
  O  O404  1  0.933000  0.626700  0.410600  1.0  -0.351
  O  O405  1  0.954000  0.743300  0.819200  1.0  -0.6422
  O  O406  1  0.100600  0.783600  0.801400  1.0  -0.7245
  O  O407  1  0.259500  0.687700  0.163200  1.0  -0.6508
  O  O408  1  0.278000  0.777300  0.171000  1.0  -0.7007
  O  O409  1  0.319700  0.797000  0.982300  1.0  -0.3851
  O  O410  1  0.352900  0.797100  0.911900  1.0  -0.4098
  O  O411  1  0.969000  0.704000  0.014800  1.0  -0.3418
  O  O412  1  0.872600  0.747300  0.980500  1.0  -0.4775
  O  O413  1  0.149900  0.888100  0.054300  1.0  -0.3402
  O  O414  1  0.067600  0.851700  0.001400  1.0  -0.3102
  O  O415  1  0.174800  0.614000  0.017800  1.0  -0.3668
  O  O416  1  0.194600  0.665300  0.960900  1.0  -0.3454
