# generated using pymatgen
data_GdH11C27N7O19
_symmetry_space_group_name_H-M   'P 1'
_cell_length_a   14.39200000
_cell_length_b   16.66900000
_cell_length_c   19.63700000
_cell_angle_alpha   105.47100000
_cell_angle_beta   96.28600000
_cell_angle_gamma   95.10000000
_symmetry_Int_Tables_number   1
_chemical_formula_structural   GdH11C27N7O19
_chemical_formula_sum   'Gd4 H44 C108 N28 O76'
_cell_volume   4478.50030933
_cell_formula_units_Z   4
loop_
 _symmetry_equiv_pos_site_id
 _symmetry_equiv_pos_as_xyz
  1  'x, y, z'
loop_
 _atom_site_type_symbol
 _atom_site_label
 _atom_site_symmetry_multiplicity
 _atom_site_fract_x
 _atom_site_fract_y
 _atom_site_fract_z
 _atom_site_occupancy
 _atom_site_charge
  Gd  Gd1  1  0.873280  0.953280  0.942550  1.0  2.1353
  Gd  Gd2  1  0.361700  0.458870  0.490400  1.0  2.1618
  Gd  Gd3  1  0.126720  0.046720  0.057450  1.0  2.1339
  Gd  Gd4  1  0.638300  0.541130  0.509600  1.0  2.1611
  H  H5  1  0.924300  0.130800  0.815500  1.0  0.1185
  H  H6  1  0.156500  0.245800  0.949300  1.0  0.1249
  H  H7  1  0.245200  0.244600  0.597200  1.0  0.1315
  H  H8  1  0.148000  0.463600  0.674800  1.0  0.1208
  H  H9  1  0.786400  0.102800  0.073900  1.0  0.122
  H  H10  1  0.925600  0.082200  0.256200  1.0  0.1354
  H  H11  1  0.650700  0.391600  0.371600  1.0  0.1155
  H  H12  1  0.454000  0.196900  0.338100  1.0  0.1291
  H  H13  1  0.705200  0.429400  0.678700  1.0  0.1185
  H  H14  1  0.433300  0.352600  0.679100  1.0  0.1185
  H  H15  1  0.701500  0.036400  0.754600  1.0  0.1176
  H  H16  1  0.693700  0.195000  0.945700  1.0  0.1296
  H  H17  1  0.718000  0.839600  0.797100  1.0  0.0794
  H  H18  1  0.660500  0.712300  0.719400  1.0  0.1232
  H  H19  1  0.708200  0.592300  0.742400  1.0  0.1198
  H  H20  1  0.879900  0.742000  0.911600  1.0  0.083
  H  H21  1  0.896300  0.595200  0.880300  1.0  0.0915
  H  H22  1  0.371900  0.669400  0.476100  1.0  0.0879
  H  H23  1  0.285100  0.774300  0.461300  1.0  0.133
  H  H24  1  0.125000  0.756800  0.462100  1.0  0.1141
  H  H25  1  0.148900  0.535000  0.501300  1.0  0.0875
  H  H26  1  0.988400  0.697700  0.490100  1.0  0.0727
  H  H27  1  0.075700  0.869200  0.184500  1.0  0.1188
  H  H28  1  0.843500  0.754200  0.050700  1.0  0.1238
  H  H29  1  0.754800  0.755400  0.402800  1.0  0.1316
  H  H30  1  0.852000  0.536400  0.325200  1.0  0.1205
  H  H31  1  0.213600  0.897200  0.926100  1.0  0.1216
  H  H32  1  0.074400  0.917800  0.743800  1.0  0.1359
  H  H33  1  0.349300  0.608400  0.628400  1.0  0.1145
  H  H34  1  0.546000  0.803100  0.661900  1.0  0.13
  H  H35  1  0.294800  0.570600  0.321300  1.0  0.1192
  H  H36  1  0.566700  0.647400  0.320900  1.0  0.1176
  H  H37  1  0.298500  0.963600  0.245400  1.0  0.117
  H  H38  1  0.306300  0.805000  0.054300  1.0  0.1294
  H  H39  1  0.282000  0.160400  0.202900  1.0  0.079
  H  H40  1  0.339500  0.287700  0.280600  1.0  0.1239
  H  H41  1  0.291800  0.407700  0.257600  1.0  0.1196
  H  H42  1  0.120100  0.258000  0.088400  1.0  0.0831
  H  H43  1  0.103700  0.404800  0.119700  1.0  0.0915
  H  H44  1  0.628100  0.330600  0.523900  1.0  0.0866
  H  H45  1  0.714900  0.225700  0.538700  1.0  0.1332
  H  H46  1  0.875000  0.243200  0.537900  1.0  0.114
  H  H47  1  0.851100  0.465000  0.498700  1.0  0.0878
  H  H48  1  0.011600  0.302300  0.509900  1.0  0.0717
  C  C49  1  0.012000  0.130000  0.940000  1.0  0.7437
  C  C50  1  0.037000  0.180000  0.890000  1.0  -0.1459
  C  C51  1  0.980000  0.167000  0.826000  1.0  -0.0067
  C  C52  1  0.006000  0.208000  0.777000  1.0  -0.0434
  C  C53  1  0.090000  0.262000  0.789000  1.0  0.0588
  C  C54  1  0.145000  0.273000  0.855000  1.0  -0.0004
  C  C55  1  0.119000  0.235000  0.905000  1.0  -0.008
  C  C56  1  0.126000  0.297000  0.732000  1.0  0.037
  C  C57  1  0.175000  0.248000  0.681000  1.0  -0.0224
  C  C58  1  0.213000  0.279000  0.630000  1.0  -0.0405
  C  C59  1  0.204000  0.359000  0.628000  1.0  -0.1049
  C  C60  1  0.155000  0.409000  0.677000  1.0  -0.0275
  C  C61  1  0.117000  0.378000  0.728000  1.0  -0.0217
  C  C62  1  0.249000  0.393000  0.574000  1.0  0.6658
  C  C63  1  0.955000  0.072000  0.123000  1.0  0.7216
  C  C64  1  0.869000  0.091000  0.159000  1.0  -0.0996
  C  C65  1  0.791000  0.109000  0.123000  1.0  -0.0577
  C  C66  1  0.717000  0.138000  0.162000  1.0  0.035
  C  C67  1  0.719000  0.149000  0.231000  1.0  0.0431
  C  C68  1  0.798000  0.120000  0.266000  1.0  -0.008
  C  C69  1  0.873000  0.096000  0.232000  1.0  -0.0275
  C  C70  1  0.655000  0.199000  0.276000  1.0  0.0517
  C  C71  1  0.681000  0.281000  0.307000  1.0  -0.0035
  C  C72  1  0.629000  0.335000  0.352000  1.0  -0.0367
  C  C73  1  0.545000  0.300000  0.364000  1.0  -0.1044
  C  C74  1  0.513000  0.219000  0.332000  1.0  -0.0264
  C  C75  1  0.568000  0.169000  0.289000  1.0  -0.0352
  C  C76  1  0.487000  0.354000  0.413000  1.0  0.7045
  C  C77  1  0.537000  0.452000  0.622000  1.0  0.7246
  C  C78  1  0.564000  0.401000  0.672000  1.0  -0.1641
  C  C79  1  0.659000  0.397000  0.693000  1.0  -0.0637
  C  C80  1  0.684000  0.345000  0.734000  1.0  0.0083
  C  C81  1  0.618000  0.292000  0.754000  1.0  0.0418
  C  C82  1  0.525000  0.299000  0.732000  1.0  -0.0616
  C  C83  1  0.497000  0.351000  0.692000  1.0  0.0112
  C  C84  1  0.646000  0.227000  0.790000  1.0  0.0333
  C  C85  1  0.664000  0.148000  0.751000  1.0  -0.0473
  C  C86  1  0.692000  0.089000  0.783000  1.0  -0.0241
  C  C87  1  0.705000  0.105000  0.855000  1.0  -0.112
  C  C88  1  0.686000  0.183000  0.896000  1.0  -0.0032
  C  C89  1  0.658000  0.240000  0.863000  1.0  -0.0157
  C  C90  1  0.745000  0.044000  0.890000  1.0  0.6939
  C  C91  1  0.740000  0.792000  0.806000  1.0  0.2345
  C  C92  1  0.704000  0.716000  0.759000  1.0  -0.1777
  C  C93  1  0.733000  0.645000  0.771000  1.0  0.0652
  C  C94  1  0.801000  0.656000  0.829000  1.0  -0.1754
  C  C95  1  0.834000  0.736000  0.873000  1.0  0.233
  C  C96  1  0.845000  0.585000  0.845000  1.0  0.3876
  C  C97  1  0.307000  0.662000  0.477000  1.0  0.1666
  C  C98  1  0.256000  0.726000  0.469000  1.0  -0.1293
  C  C99  1  0.162000  0.716000  0.471000  1.0  -0.0503
  C  C100  1  0.123000  0.649000  0.485000  1.0  -0.1594
  C  C101  1  0.179000  0.583000  0.493000  1.0  0.2321
  C  C102  1  0.020000  0.652000  0.491000  1.0  0.4835
  C  C103  1  0.988000  0.870000  0.060000  1.0  0.7427
  C  C104  1  0.963000  0.820000  0.110000  1.0  -0.145
  C  C105  1  0.020000  0.833000  0.174000  1.0  -0.0057
  C  C106  1  0.994000  0.792000  0.223000  1.0  -0.0425
  C  C107  1  0.910000  0.738000  0.211000  1.0  0.059
  C  C108  1  0.855000  0.727000  0.145000  1.0  0.0004
  C  C109  1  0.881000  0.765000  0.095000  1.0  -0.0069
  C  C110  1  0.874000  0.703000  0.268000  1.0  0.0364
  C  C111  1  0.825000  0.752000  0.319000  1.0  -0.0229
  C  C112  1  0.787000  0.721000  0.370000  1.0  -0.0398
  C  C113  1  0.796000  0.641000  0.372000  1.0  -0.1048
  C  C114  1  0.845000  0.591000  0.323000  1.0  -0.0288
  C  C115  1  0.883000  0.622000  0.272000  1.0  -0.0225
  C  C116  1  0.751000  0.607000  0.426000  1.0  0.6656
  C  C117  1  0.045000  0.928000  0.877000  1.0  0.7218
  C  C118  1  0.131000  0.909000  0.841000  1.0  -0.0995
  C  C119  1  0.209000  0.891000  0.877000  1.0  -0.0442
  C  C120  1  0.283000  0.862000  0.838000  1.0  0.0345
  C  C121  1  0.281000  0.851000  0.769000  1.0  0.0444
  C  C122  1  0.202000  0.880000  0.734000  1.0  -0.0082
  C  C123  1  0.127000  0.904000  0.768000  1.0  -0.0278
  C  C124  1  0.345000  0.801000  0.724000  1.0  0.0512
  C  C125  1  0.319000  0.719000  0.693000  1.0  -0.0017
  C  C126  1  0.371000  0.665000  0.648000  1.0  -0.0372
  C  C127  1  0.455000  0.700000  0.636000  1.0  -0.1049
  C  C128  1  0.487000  0.781000  0.668000  1.0  -0.0293
  C  C129  1  0.432000  0.831000  0.711000  1.0  -0.034
  C  C130  1  0.513000  0.646000  0.587000  1.0  0.7056
  C  C131  1  0.463000  0.548000  0.378000  1.0  0.7263
  C  C132  1  0.436000  0.599000  0.328000  1.0  -0.1632
  C  C133  1  0.341000  0.603000  0.307000  1.0  -0.0581
  C  C134  1  0.316000  0.655000  0.266000  1.0  0.0084
  C  C135  1  0.382000  0.708000  0.246000  1.0  0.0432
  C  C136  1  0.475000  0.701000  0.268000  1.0  -0.0615
  C  C137  1  0.503000  0.649000  0.308000  1.0  0.0139
  C  C138  1  0.354000  0.773000  0.210000  1.0  0.0344
  C  C139  1  0.336000  0.852000  0.249000  1.0  -0.0477
  C  C140  1  0.308000  0.911000  0.217000  1.0  -0.0258
  C  C141  1  0.295000  0.895000  0.145000  1.0  -0.1128
  C  C142  1  0.314000  0.817000  0.104000  1.0  -0.0062
  C  C143  1  0.342000  0.760000  0.137000  1.0  -0.0167
  C  C144  1  0.255000  0.956000  0.110000  1.0  0.6965
  C  C145  1  0.260000  0.208000  0.194000  1.0  0.2349
  C  C146  1  0.296000  0.284000  0.241000  1.0  -0.1771
  C  C147  1  0.267000  0.355000  0.229000  1.0  0.0639
  C  C148  1  0.199000  0.344000  0.171000  1.0  -0.1693
  C  C149  1  0.166000  0.264000  0.127000  1.0  0.2329
  C  C150  1  0.155000  0.415000  0.155000  1.0  0.3851
  C  C151  1  0.693000  0.338000  0.523000  1.0  0.167
  C  C152  1  0.744000  0.274000  0.531000  1.0  -0.1317
  C  C153  1  0.838000  0.284000  0.529000  1.0  -0.0257
  C  C154  1  0.877000  0.351000  0.515000  1.0  -0.1732
  C  C155  1  0.821000  0.417000  0.507000  1.0  0.2317
  C  C156  1  0.980000  0.348000  0.509000  1.0  0.4861
  N  N157  1  0.943000  0.190000  0.709000  1.0  0.6114
  N  N158  1  0.232000  0.331000  0.875000  1.0  0.6195
  N  N159  1  0.187000  0.161000  0.679000  1.0  0.6056
  N  N160  1  0.064000  0.432000  0.776000  1.0  0.6429
  N  N161  1  0.638000  0.159000  0.121000  1.0  0.6266
  N  N162  1  0.806000  0.128000  0.343000  1.0  0.6232
  N  N163  1  0.774000  0.323000  0.298000  1.0  0.5805
  N  N164  1  0.533000  0.079000  0.257000  1.0  0.6555
  N  N165  1  0.785000  0.339000  0.750000  1.0  0.5934
  N  N166  1  0.448000  0.249000  0.753000  1.0  0.6341
  N  N167  1  0.652000  0.123000  0.671000  1.0  0.6192
  N  N168  1  0.636000  0.321000  0.911000  1.0  0.6174
  N  N169  1  0.803000  0.803000  0.863000  1.0  -0.505
  N  N170  1  0.270000  0.587000  0.488000  1.0  -0.4805
  N  N171  1  0.057000  0.810000  0.291000  1.0  0.6113
  N  N172  1  0.768000  0.669000  0.125000  1.0  0.6179
  N  N173  1  0.813000  0.839000  0.321000  1.0  0.6057
  N  N174  1  0.936000  0.568000  0.224000  1.0  0.6407
  N  N175  1  0.362000  0.841000  0.879000  1.0  0.6239
  N  N176  1  0.194000  0.872000  0.657000  1.0  0.6264
  N  N177  1  0.226000  0.677000  0.702000  1.0  0.5919
  N  N178  1  0.467000  0.921000  0.743000  1.0  0.6594
  N  N179  1  0.215000  0.661000  0.250000  1.0  0.5958
  N  N180  1  0.552000  0.751000  0.247000  1.0  0.612
  N  N181  1  0.348000  0.877000  0.329000  1.0  0.6178
  N  N182  1  0.364000  0.679000  0.089000  1.0  0.618
  N  N183  1  0.197000  0.197000  0.137000  1.0  -0.5027
  N  N184  1  0.730000  0.413000  0.512000  1.0  -0.4804
  O  O185  1  0.939000  0.078000  0.919600  1.0  -0.6601
  O  O186  1  0.068000  0.141000  0.997400  1.0  -0.7072
  O  O187  1  0.282000  0.342000  0.525000  1.0  -0.6594
  O  O188  1  0.257000  0.470000  0.579400  1.0  -0.6411
  O  O189  1  0.863000  0.160000  0.707000  1.0  -0.3688
  O  O190  1  0.975000  0.200000  0.656000  1.0  -0.3932
  O  O191  1  0.296000  0.316000  0.914000  1.0  -0.3556
  O  O192  1  0.241000  0.393000  0.854000  1.0  -0.3659
  O  O193  1  0.191000  0.139000  0.734000  1.0  -0.3616
  O  O194  1  0.190000  0.113000  0.621000  1.0  -0.3455
  O  O195  1  0.031000  0.409000  0.823000  1.0  -0.3432
  O  O196  1  0.057000  0.500000  0.770000  1.0  -0.3522
  O  O197  1  0.942000  0.040000  0.055000  1.0  -0.8271
  O  O198  1  0.034000  0.091000  0.158000  1.0  -0.5812
  O  O199  1  0.528000  0.419000  0.459400  1.0  -0.7787
  O  O200  1  0.401000  0.332000  0.410100  1.0  -0.6342
  O  O201  1  0.657000  0.194000  0.075000  1.0  -0.389
  O  O202  1  0.560000  0.146000  0.135000  1.0  -0.3865
  O  O203  1  0.883000  0.143000  0.377000  1.0  -0.3505
  O  O204  1  0.735000  0.118000  0.369000  1.0  -0.3344
  O  O205  1  0.794000  0.306000  0.236000  1.0  -0.4111
  O  O206  1  0.825000  0.361000  0.346000  1.0  -0.2969
  O  O207  1  0.577000  0.029000  0.236000  1.0  -0.3364
  O  O208  1  0.452000  0.061000  0.248000  1.0  -0.3937
  O  O209  1  0.602000  0.497000  0.610100  1.0  -0.6648
  O  O210  1  0.451000  0.440000  0.594000  1.0  -0.7001
  O  O211  1  0.759000  0.062000  0.956200  1.0  -0.655
  O  O212  1  0.767000  0.977000  0.850200  1.0  -0.6447
  O  O213  1  0.837000  0.354000  0.708000  1.0  -0.3771
  O  O214  1  0.812000  0.320000  0.804000  1.0  -0.3525
  O  O215  1  0.461000  0.204000  0.783000  1.0  -0.3435
  O  O216  1  0.373000  0.273000  0.753000  1.0  -0.4133
  O  O217  1  0.649000  0.176000  0.640000  1.0  -0.3848
  O  O218  1  0.655000  0.049000  0.641000  1.0  -0.3509
  O  O219  1  0.636000  0.382000  0.890000  1.0  -0.3268
  O  O220  1  0.620000  0.321000  0.970000  1.0  -0.3273
  O  O221  1  0.815000  0.512000  0.811000  1.0  -0.4151
  O  O222  1  0.990000  0.597000  0.498000  1.0  -0.3848
  O  O223  1  0.061000  0.922000  0.080400  1.0  -0.6599
  O  O224  1  0.932000  0.859000  0.002600  1.0  -0.7083
  O  O225  1  0.718000  0.658000  0.475000  1.0  -0.6599
  O  O226  1  0.743000  0.530000  0.420600  1.0  -0.6385
  O  O227  1  0.137000  0.840000  0.293000  1.0  -0.3681
  O  O228  1  0.025000  0.800000  0.344000  1.0  -0.3959
  O  O229  1  0.704000  0.684000  0.086000  1.0  -0.3572
  O  O230  1  0.759000  0.607000  0.146000  1.0  -0.3647
  O  O231  1  0.809000  0.861000  0.266000  1.0  -0.3615
  O  O232  1  0.810000  0.887000  0.379000  1.0  -0.3451
  O  O233  1  0.969000  0.591000  0.177000  1.0  -0.3422
  O  O234  1  0.943000  0.500000  0.230000  1.0  -0.3512
  O  O235  1  0.058000  0.960000  0.945000  1.0  -0.8265
  O  O236  1  0.966000  0.909000  0.842000  1.0  -0.5802
  O  O237  1  0.472000  0.581000  0.540600  1.0  -0.7757
  O  O238  1  0.599000  0.668000  0.589900  1.0  -0.6368
  O  O239  1  0.343000  0.806000  0.925000  1.0  -0.3787
  O  O240  1  0.440000  0.854000  0.865000  1.0  -0.3851
  O  O241  1  0.117000  0.857000  0.623000  1.0  -0.3518
  O  O242  1  0.265000  0.882000  0.631000  1.0  -0.334
  O  O243  1  0.206000  0.694000  0.764000  1.0  -0.4099
  O  O244  1  0.175000  0.639000  0.654000  1.0  -0.2962
  O  O245  1  0.423000  0.971000  0.764000  1.0  -0.3377
  O  O246  1  0.548000  0.939000  0.752000  1.0  -0.3943
  O  O247  1  0.398000  0.503000  0.389900  1.0  -0.6659
  O  O248  1  0.549000  0.560000  0.406000  1.0  -0.698
  O  O249  1  0.241000  0.938000  0.043800  1.0  -0.6536
  O  O250  1  0.233000  0.023000  0.149800  1.0  -0.6431
  O  O251  1  0.163000  0.646000  0.292000  1.0  -0.3751
  O  O252  1  0.188000  0.680000  0.196000  1.0  -0.3533
  O  O253  1  0.539000  0.796000  0.217000  1.0  -0.3422
  O  O254  1  0.627000  0.727000  0.247000  1.0  -0.4144
  O  O255  1  0.351000  0.824000  0.360000  1.0  -0.3842
  O  O256  1  0.345000  0.951000  0.359000  1.0  -0.3492
  O  O257  1  0.364000  0.618000  0.110000  1.0  -0.3239
  O  O258  1  0.380000  0.679000  0.030000  1.0  -0.3242
  O  O259  1  0.185000  0.488000  0.189000  1.0  -0.4147
  O  O260  1  0.010000  0.403000  0.502000  1.0  -0.386
