# generated using pymatgen
data_GdH6C21(NO3)6
_symmetry_space_group_name_H-M   'P 1'
_cell_length_a   15.30900000
_cell_length_b   18.77530000
_cell_length_c   18.77530000
_cell_angle_alpha   107.98400000
_cell_angle_beta   95.82210000
_cell_angle_gamma   95.82210000
_symmetry_Int_Tables_number   1
_chemical_formula_structural   GdH6C21(NO3)6
_chemical_formula_sum   'Gd4 H24 C84 N24 O72'
_cell_volume   5055.95393139
_cell_formula_units_Z   4
loop_
 _symmetry_equiv_pos_site_id
 _symmetry_equiv_pos_as_xyz
  1  'x, y, z'
loop_
 _atom_site_type_symbol
 _atom_site_label
 _atom_site_symmetry_multiplicity
 _atom_site_fract_x
 _atom_site_fract_y
 _atom_site_fract_z
 _atom_site_occupancy
 _atom_site_charge
  Gd  Gd1  1  0.617390  0.566680  0.015340  1.0  2.164
  Gd  Gd2  1  0.882610  0.984660  0.433320  1.0  2.1644
  Gd  Gd3  1  0.382610  0.433320  0.984660  1.0  2.1637
  Gd  Gd4  1  0.117390  0.015340  0.566680  1.0  2.1639
  H  H5  1  0.508500  0.301600  0.110600  1.0  0.1248
  H  H6  1  0.741200  0.438200  0.158800  1.0  0.1238
  H  H7  1  0.755800  0.204700  0.401900  1.0  0.1266
  H  H8  1  0.813600  0.068300  0.205100  1.0  0.126
  H  H9  1  0.470500  0.754700  0.183700  1.0  0.1098
  H  H10  1  0.341700  0.551600  0.156600  1.0  0.1104
  H  H11  1  0.991500  0.889400  0.698400  1.0  0.1245
  H  H12  1  0.758800  0.841200  0.561800  1.0  0.1232
  H  H13  1  0.744200  0.598100  0.795300  1.0  0.1268
  H  H14  1  0.686400  0.794900  0.931700  1.0  0.1257
  H  H15  1  0.029500  0.816300  0.245300  1.0  0.1095
  H  H16  1  0.158300  0.843400  0.448400  1.0  0.112
  H  H17  1  0.491500  0.698400  0.889400  1.0  0.1246
  H  H18  1  0.258800  0.561800  0.841200  1.0  0.123
  H  H19  1  0.244200  0.795300  0.598100  1.0  0.1265
  H  H20  1  0.186400  0.931700  0.794900  1.0  0.1261
  H  H21  1  0.529500  0.245300  0.816300  1.0  0.1099
  H  H22  1  0.658300  0.448400  0.843400  1.0  0.1106
  H  H23  1  0.008500  0.110600  0.301600  1.0  0.1243
  H  H24  1  0.241200  0.158800  0.438200  1.0  0.1243
  H  H25  1  0.255800  0.401900  0.204700  1.0  0.1262
  H  H26  1  0.313600  0.205100  0.068300  1.0  0.1257
  H  H27  1  0.970500  0.183700  0.754700  1.0  0.1078
  H  H28  1  0.841700  0.156600  0.551600  1.0  0.1123
  C  C29  1  0.577900  0.423800  0.086000  1.0  0.8037
  C  C30  1  0.620600  0.378100  0.127300  1.0  -0.1414
  C  C31  1  0.568300  0.312800  0.130400  1.0  -0.0259
  C  C32  1  0.609000  0.265700  0.163900  1.0  -0.0294
  C  C33  1  0.698300  0.279100  0.195700  1.0  0.053
  C  C34  1  0.744500  0.344200  0.192200  1.0  -0.023
  C  C35  1  0.706900  0.394500  0.158900  1.0  0.001
  C  C36  1  0.733600  0.230300  0.236900  1.0  0.0333
  C  C37  1  0.729900  0.241900  0.311100  1.0  -0.0081
  C  C38  1  0.757900  0.193000  0.350200  1.0  -0.0225
  C  C39  1  0.789200  0.125900  0.309700  1.0  -0.1066
  C  C40  1  0.793400  0.112000  0.233000  1.0  -0.0159
  C  C41  1  0.768600  0.161600  0.199200  1.0  -0.0029
  C  C42  1  0.818000  0.075400  0.350000  1.0  0.6808
  C  C43  1  0.482900  0.613700  0.111500  1.0  0.7665
  C  C44  1  0.418300  0.648800  0.163000  1.0  -0.1236
  C  C45  1  0.423000  0.724700  0.192100  1.0  0.0076
  C  C46  1  0.361200  0.759900  0.233500  1.0  -0.0185
  C  C47  1  0.286200  0.716100  0.245500  1.0  0.0063
  C  C48  1  0.281800  0.638100  0.218900  1.0  -0.01
  C  C49  1  0.346700  0.604100  0.176100  1.0  0.0103
  C  C50  1  0.922100  0.914000  0.576200  1.0  0.8075
  C  C51  1  0.879400  0.872700  0.621900  1.0  -0.1424
  C  C52  1  0.931700  0.869600  0.687200  1.0  -0.0241
  C  C53  1  0.891000  0.836100  0.734300  1.0  -0.0292
  C  C54  1  0.801700  0.804300  0.720900  1.0  0.0525
  C  C55  1  0.755500  0.807800  0.655800  1.0  -0.0223
  C  C56  1  0.793100  0.841100  0.605500  1.0  0.0033
  C  C57  1  0.766400  0.763100  0.769700  1.0  0.0334
  C  C58  1  0.770100  0.688900  0.758100  1.0  -0.0049
  C  C59  1  0.742100  0.649800  0.807000  1.0  -0.0241
  C  C60  1  0.710800  0.690300  0.874100  1.0  -0.1067
  C  C61  1  0.706600  0.767000  0.888000  1.0  -0.0165
  C  C62  1  0.731400  0.800800  0.838400  1.0  0.0003
  C  C63  1  0.682000  0.650000  0.924600  1.0  0.6871
  C  C64  1  0.017100  0.888500  0.386300  1.0  0.7662
  C  C65  1  0.081700  0.837000  0.351200  1.0  -0.1232
  C  C66  1  0.077000  0.807900  0.275300  1.0  0.0077
  C  C67  1  0.138800  0.766500  0.240100  1.0  -0.018
  C  C68  1  0.213800  0.754500  0.283900  1.0  0.0069
  C  C69  1  0.218200  0.781100  0.361900  1.0  -0.0105
  C  C70  1  0.153300  0.823900  0.395900  1.0  0.0103
  C  C71  1  0.422100  0.576200  0.914000  1.0  0.8045
  C  C72  1  0.379400  0.621900  0.872700  1.0  -0.1421
  C  C73  1  0.431700  0.687200  0.869600  1.0  -0.0251
  C  C74  1  0.391000  0.734300  0.836100  1.0  -0.03
  C  C75  1  0.301700  0.720900  0.804300  1.0  0.0524
  C  C76  1  0.255500  0.655800  0.807800  1.0  -0.0214
  C  C77  1  0.293100  0.605500  0.841100  1.0  0.001
  C  C78  1  0.266400  0.769700  0.763100  1.0  0.0338
  C  C79  1  0.270100  0.758100  0.688900  1.0  -0.0079
  C  C80  1  0.242100  0.807000  0.649800  1.0  -0.0245
  C  C81  1  0.210800  0.874100  0.690300  1.0  -0.1076
  C  C82  1  0.206600  0.888000  0.767000  1.0  -0.0176
  C  C83  1  0.231400  0.838400  0.800800  1.0  -0.0017
  C  C84  1  0.182000  0.924600  0.650000  1.0  0.6809
  C  C85  1  0.517100  0.386300  0.888500  1.0  0.7658
  C  C86  1  0.581700  0.351200  0.837000  1.0  -0.1232
  C  C87  1  0.577000  0.275300  0.807900  1.0  0.008
  C  C88  1  0.638800  0.240100  0.766500  1.0  -0.0193
  C  C89  1  0.713800  0.283900  0.754500  1.0  0.0065
  C  C90  1  0.718200  0.361900  0.781100  1.0  -0.0087
  C  C91  1  0.653300  0.395900  0.823900  1.0  0.0097
  C  C92  1  0.077900  0.086000  0.423800  1.0  0.8065
  C  C93  1  0.120600  0.127300  0.378100  1.0  -0.1427
  C  C94  1  0.068300  0.130400  0.312800  1.0  -0.0249
  C  C95  1  0.109000  0.163900  0.265700  1.0  -0.0303
  C  C96  1  0.198300  0.195700  0.279100  1.0  0.0523
  C  C97  1  0.244500  0.192200  0.344200  1.0  -0.0234
  C  C98  1  0.206900  0.158900  0.394500  1.0  0.0006
  C  C99  1  0.233600  0.236900  0.230300  1.0  0.0335
  C  C100  1  0.229900  0.311100  0.241900  1.0  -0.0045
  C  C101  1  0.257900  0.350200  0.193000  1.0  -0.0234
  C  C102  1  0.289200  0.309700  0.125900  1.0  -0.1066
  C  C103  1  0.293400  0.233000  0.112000  1.0  -0.0163
  C  C104  1  0.268600  0.199200  0.161600  1.0  -0.0006
  C  C105  1  0.318000  0.350000  0.075400  1.0  0.6863
  C  C106  1  0.982900  0.111500  0.613700  1.0  0.7667
  C  C107  1  0.918300  0.163000  0.648800  1.0  -0.1241
  C  C108  1  0.923000  0.192100  0.724700  1.0  0.0085
  C  C109  1  0.861200  0.233500  0.759900  1.0  -0.0207
  C  C110  1  0.786200  0.245500  0.716100  1.0  0.006
  C  C111  1  0.781800  0.218900  0.638100  1.0  -0.0105
  C  C112  1  0.846700  0.176100  0.604100  1.0  0.0078
  N  N113  1  0.549500  0.198000  0.162600  1.0  0.5962
  N  N114  1  0.837900  0.364700  0.226900  1.0  0.6513
  N  N115  1  0.690900  0.307800  0.357200  1.0  0.5492
  N  N116  1  0.776600  0.142500  0.118100  1.0  0.6141
  N  N117  1  0.376600  0.844600  0.264600  1.0  0.5888
  N  N118  1  0.205300  0.600600  0.237600  1.0  0.6023
  N  N119  1  0.950500  0.837400  0.802000  1.0  0.5988
  N  N120  1  0.662100  0.773100  0.635300  1.0  0.6519
  N  N121  1  0.809100  0.642800  0.692200  1.0  0.5513
  N  N122  1  0.723400  0.881900  0.857500  1.0  0.6183
  N  N123  1  0.123400  0.735400  0.155400  1.0  0.5895
  N  N124  1  0.294700  0.762400  0.399400  1.0  0.6004
  N  N125  1  0.450500  0.802000  0.837400  1.0  0.5971
  N  N126  1  0.162100  0.635300  0.773100  1.0  0.6477
  N  N127  1  0.309100  0.692200  0.642800  1.0  0.5508
  N  N128  1  0.223400  0.857500  0.881900  1.0  0.613
  N  N129  1  0.623400  0.155400  0.735400  1.0  0.5849
  N  N130  1  0.794700  0.399400  0.762400  1.0  0.5995
  N  N131  1  0.049500  0.162600  0.198000  1.0  0.5997
  N  N132  1  0.337900  0.226900  0.364700  1.0  0.6537
  N  N133  1  0.190900  0.357200  0.307800  1.0  0.5504
  N  N134  1  0.276600  0.118100  0.142500  1.0  0.6175
  N  N135  1  0.876600  0.264600  0.844600  1.0  0.5915
  N  N136  1  0.705300  0.237600  0.600600  1.0  0.6024
  O  O137  1  0.624900  0.484600  0.091200  1.0  -0.7546
  O  O138  1  0.501800  0.400100  0.052500  1.0  -0.6725
  O  O139  1  0.828900  0.099900  0.422700  1.0  -0.7022
  O  O140  1  0.830500  0.010700  0.312900  1.0  -0.6321
  O  O141  1  0.474300  0.199800  0.164800  1.0  -0.2906
  O  O142  1  0.584700  0.136900  0.143700  1.0  -0.3978
  O  O143  1  0.866400  0.428700  0.243900  1.0  -0.3431
  O  O144  1  0.879500  0.319400  0.240400  1.0  -0.3431
  O  O145  1  0.650000  0.300600  0.408400  1.0  -0.3124
  O  O146  1  0.714800  0.369700  0.344700  1.0  -0.3704
  O  O147  1  0.781200  0.193700  0.091300  1.0  -0.3456
  O  O148  1  0.780100  0.078200  0.084000  1.0  -0.3297
  O  O149  1  0.461800  0.546500  0.067700  1.0  -0.821
  O  O150  1  0.553300  0.652700  0.114500  1.0  -0.6252
  O  O151  1  0.444900  0.877500  0.259500  1.0  -0.3376
  O  O152  1  0.351000  0.873900  0.324900  1.0  -0.3649
  O  O153  1  0.130300  0.610200  0.230200  1.0  -0.3136
  O  O154  1  0.214000  0.535000  0.226400  1.0  -0.3655
  O  O155  1  0.875100  0.908800  0.515400  1.0  -0.7533
  O  O156  1  0.998200  0.947500  0.599900  1.0  -0.6729
  O  O157  1  0.671100  0.577300  0.900100  1.0  -0.7014
  O  O158  1  0.669500  0.687100  0.989300  1.0  -0.6357
  O  O159  1  0.025700  0.835200  0.800200  1.0  -0.2954
  O  O160  1  0.915300  0.856300  0.863100  1.0  -0.4003
  O  O161  1  0.633600  0.756100  0.571300  1.0  -0.3449
  O  O162  1  0.620500  0.759600  0.680600  1.0  -0.3439
  O  O163  1  0.850000  0.591600  0.699400  1.0  -0.3239
  O  O164  1  0.785200  0.655300  0.630300  1.0  -0.3736
  O  O165  1  0.718800  0.908700  0.806300  1.0  -0.3391
  O  O166  1  0.719900  0.916000  0.921800  1.0  -0.3311
  O  O167  1  0.038200  0.932300  0.453500  1.0  -0.8179
  O  O168  1  0.946700  0.885500  0.347300  1.0  -0.624
  O  O169  1  0.055100  0.740500  0.122500  1.0  -0.3397
  O  O170  1  0.149000  0.675100  0.126100  1.0  -0.3687
  O  O171  1  0.369700  0.769800  0.389800  1.0  -0.3115
  O  O172  1  0.286000  0.773600  0.465000  1.0  -0.363
  O  O173  1  0.375100  0.515400  0.908800  1.0  -0.7555
  O  O174  1  0.498200  0.599900  0.947500  1.0  -0.6724
  O  O175  1  0.171100  0.900100  0.577300  1.0  -0.7012
  O  O176  1  0.169500  0.989300  0.687100  1.0  -0.6316
  O  O177  1  0.525700  0.800200  0.835200  1.0  -0.2911
  O  O178  1  0.415300  0.863100  0.856300  1.0  -0.3988
  O  O179  1  0.133600  0.571300  0.756100  1.0  -0.3439
  O  O180  1  0.120500  0.680600  0.759600  1.0  -0.343
  O  O181  1  0.350000  0.699400  0.591600  1.0  -0.3143
  O  O182  1  0.285200  0.630300  0.655300  1.0  -0.3688
  O  O183  1  0.218800  0.806300  0.908700  1.0  -0.3449
  O  O184  1  0.219900  0.921800  0.916000  1.0  -0.3314
  O  O185  1  0.538200  0.453500  0.932300  1.0  -0.8203
  O  O186  1  0.446700  0.347300  0.885500  1.0  -0.6247
  O  O187  1  0.555100  0.122500  0.740500  1.0  -0.3382
  O  O188  1  0.649000  0.126100  0.675100  1.0  -0.3655
  O  O189  1  0.869700  0.389800  0.769800  1.0  -0.3181
  O  O190  1  0.786000  0.465000  0.773600  1.0  -0.3647
  O  O191  1  0.124900  0.091200  0.484600  1.0  -0.7605
  O  O192  1  0.001800  0.052500  0.400100  1.0  -0.6736
  O  O193  1  0.328900  0.422700  0.099900  1.0  -0.7004
  O  O194  1  0.330500  0.312900  0.010700  1.0  -0.6364
  O  O195  1  0.974300  0.164800  0.199800  1.0  -0.2936
  O  O196  1  0.084700  0.143700  0.136900  1.0  -0.4034
  O  O197  1  0.366400  0.243900  0.428700  1.0  -0.3452
  O  O198  1  0.379500  0.240400  0.319400  1.0  -0.3447
  O  O199  1  0.150000  0.408400  0.300600  1.0  -0.316
  O  O200  1  0.214800  0.344700  0.369700  1.0  -0.3731
  O  O201  1  0.281200  0.091300  0.193700  1.0  -0.3333
  O  O202  1  0.280100  0.084000  0.078200  1.0  -0.3356
  O  O203  1  0.961800  0.067700  0.546500  1.0  -0.8184
  O  O204  1  0.053300  0.114500  0.652700  1.0  -0.6242
  O  O205  1  0.944900  0.259500  0.877500  1.0  -0.3349
  O  O206  1  0.851000  0.324900  0.873900  1.0  -0.365
  O  O207  1  0.630300  0.230200  0.610200  1.0  -0.3108
  O  O208  1  0.714000  0.226400  0.535000  1.0  -0.3631
