# generated using pymatgen
data_GdH11C27N7O19
_symmetry_space_group_name_H-M   'P 1'
_cell_length_a   14.63600000
_cell_length_b   19.26620000
_cell_length_c   19.26620000
_cell_angle_alpha   101.24100000
_cell_angle_beta   92.70000000
_cell_angle_gamma   92.70000000
_symmetry_Int_Tables_number   1
_chemical_formula_structural   GdH11C27N7O19
_chemical_formula_sum   'Gd4 H44 C108 N28 O76'
_cell_volume   5313.75668348
_cell_formula_units_Z   4
loop_
 _symmetry_equiv_pos_site_id
 _symmetry_equiv_pos_as_xyz
  1  'x, y, z'
loop_
 _atom_site_type_symbol
 _atom_site_label
 _atom_site_symmetry_multiplicity
 _atom_site_fract_x
 _atom_site_fract_y
 _atom_site_fract_z
 _atom_site_occupancy
 _atom_site_charge
  Gd  Gd1  1  0.368750  0.455270  0.982470  1.0  2.1525
  Gd  Gd2  1  0.131250  0.017530  0.544730  1.0  2.1526
  Gd  Gd3  1  0.631250  0.544730  0.017530  1.0  2.1534
  Gd  Gd4  1  0.868750  0.982470  0.455270  1.0  2.153
  H  H5  1  0.447400  0.309300  0.132100  1.0  0.1098
  H  H6  1  0.696500  0.406600  0.165400  1.0  0.1125
  H  H7  1  0.758000  0.058300  0.237900  1.0  0.1344
  H  H8  1  0.672700  0.174100  0.417900  1.0  0.1298
  H  H9  1  0.685700  0.430500  0.859700  1.0  0.1247
  H  H10  1  0.516100  0.258000  0.841600  1.0  0.1247
  H  H11  1  0.143300  0.489400  0.996000  1.0  0.0732
  H  H12  1  0.027600  0.560200  0.985400  1.0  0.1316
  H  H13  1  0.215600  0.716300  0.977700  1.0  0.1432
  H  H14  1  0.326400  0.638700  0.988100  1.0  0.0673
  H  H15  1  0.050200  0.744100  0.976900  1.0  0.0647
  H  H16  1  0.052600  0.867900  0.690700  1.0  0.1101
  H  H17  1  0.803500  0.834600  0.593400  1.0  0.1119
  H  H18  1  0.742000  0.762100  0.941700  1.0  0.135
  H  H19  1  0.827300  0.582100  0.825900  1.0  0.1317
  H  H20  1  0.814300  0.140300  0.569500  1.0  0.1254
  H  H21  1  0.983900  0.158400  0.742000  1.0  0.1246
  H  H22  1  0.356700  0.004000  0.510600  1.0  0.0731
  H  H23  1  0.472400  0.014600  0.439800  1.0  0.1309
  H  H24  1  0.284400  0.022300  0.283700  1.0  0.1434
  H  H25  1  0.173600  0.011900  0.361300  1.0  0.068
  H  H26  1  0.449800  0.023100  0.255900  1.0  0.065
  H  H27  1  0.552600  0.690700  0.867900  1.0  0.1103
  H  H28  1  0.303500  0.593400  0.834600  1.0  0.1128
  H  H29  1  0.242000  0.941700  0.762100  1.0  0.1344
  H  H30  1  0.327300  0.825900  0.582100  1.0  0.1296
  H  H31  1  0.314300  0.569500  0.140300  1.0  0.1251
  H  H32  1  0.483900  0.742000  0.158400  1.0  0.1257
  H  H33  1  0.856700  0.510600  0.004000  1.0  0.0731
  H  H34  1  0.972400  0.439800  0.014600  1.0  0.1309
  H  H35  1  0.784400  0.283700  0.022300  1.0  0.1439
  H  H36  1  0.673600  0.361300  0.011900  1.0  0.0674
  H  H37  1  0.949800  0.255900  0.023100  1.0  0.0641
  H  H38  1  0.947400  0.132100  0.309300  1.0  0.1098
  H  H39  1  0.196500  0.165400  0.406600  1.0  0.1121
  H  H40  1  0.258000  0.237900  0.058300  1.0  0.1348
  H  H41  1  0.172700  0.417900  0.174100  1.0  0.1321
  H  H42  1  0.185700  0.859700  0.430500  1.0  0.1246
  H  H43  1  0.016100  0.841600  0.258000  1.0  0.1243
  H  H44  1  0.643300  0.996000  0.489400  1.0  0.0729
  H  H45  1  0.527600  0.985400  0.560200  1.0  0.1319
  H  H46  1  0.715600  0.977700  0.716300  1.0  0.1423
  H  H47  1  0.826400  0.988100  0.638700  1.0  0.068
  H  H48  1  0.550200  0.976900  0.744100  1.0  0.0649
  C  C49  1  0.539000  0.421500  0.099900  1.0  0.7791
  C  C50  1  0.567100  0.368200  0.141800  1.0  -0.1441
  C  C51  1  0.507700  0.312500  0.150500  1.0  0.0146
  C  C52  1  0.539100  0.260900  0.187300  1.0  -0.0499
  C  C53  1  0.626600  0.263000  0.216800  1.0  0.0581
  C  C54  1  0.684500  0.318000  0.205600  1.0  -0.0265
  C  C55  1  0.655300  0.369900  0.170100  1.0  -0.0015
  C  C56  1  0.658200  0.206300  0.256100  1.0  0.0316
  C  C57  1  0.699800  0.148400  0.225400  1.0  -0.0241
  C  C58  1  0.731800  0.098600  0.261800  1.0  -0.0227
  C  C59  1  0.724400  0.109400  0.335000  1.0  -0.0848
  C  C60  1  0.680700  0.167300  0.369500  1.0  -0.0097
  C  C61  1  0.649400  0.214300  0.330500  1.0  -0.0223
  C  C62  1  0.766300  0.059400  0.377400  1.0  0.6581
  C  C63  1  0.523700  0.391400  0.905200  1.0  0.7503
  C  C64  1  0.591900  0.350600  0.858200  1.0  -0.1134
  C  C65  1  0.671600  0.382400  0.842800  1.0  -0.0083
  C  C66  1  0.731600  0.340300  0.800500  1.0  -0.0276
  C  C67  1  0.716400  0.270000  0.775000  1.0  0.0337
  C  C68  1  0.634700  0.238700  0.791100  1.0  -0.0385
  C  C69  1  0.571300  0.279100  0.832100  1.0  -0.0185
  C  C70  1  0.158300  0.535800  0.991800  1.0  0.1952
  C  C71  1  0.088100  0.577600  0.985800  1.0  -0.1359
  C  C72  1  0.109000  0.647700  0.980300  1.0  0.0229
  C  C73  1  0.199100  0.670000  0.981200  1.0  -0.1593
  C  C74  1  0.265400  0.622500  0.987300  1.0  0.1913
  C  C75  1  0.034400  0.697200  0.978800  1.0  0.3739
  C  C76  1  0.961000  0.900100  0.578500  1.0  0.7842
  C  C77  1  0.932900  0.858200  0.631800  1.0  -0.1445
  C  C78  1  0.992300  0.849500  0.687500  1.0  0.0157
  C  C79  1  0.960900  0.812700  0.739100  1.0  -0.0494
  C  C80  1  0.873400  0.783200  0.737000  1.0  0.0594
  C  C81  1  0.815500  0.794400  0.682000  1.0  -0.028
  C  C82  1  0.844700  0.829900  0.630100  1.0  -1e-04
  C  C83  1  0.841800  0.743900  0.793700  1.0  0.0315
  C  C84  1  0.800200  0.774600  0.851600  1.0  -0.0223
  C  C85  1  0.768200  0.738200  0.901400  1.0  -0.0246
  C  C86  1  0.775600  0.665000  0.890600  1.0  -0.0815
  C  C87  1  0.819300  0.630500  0.832700  1.0  -0.0136
  C  C88  1  0.850600  0.669500  0.785700  1.0  -0.0225
  C  C89  1  0.733700  0.622600  0.940600  1.0  0.6572
  C  C90  1  0.976300  0.094800  0.608600  1.0  0.7518
  C  C91  1  0.908100  0.141800  0.649400  1.0  -0.1153
  C  C92  1  0.828400  0.157200  0.617600  1.0  -0.0099
  C  C93  1  0.768400  0.199500  0.659700  1.0  -0.028
  C  C94  1  0.783600  0.225000  0.730000  1.0  0.0335
  C  C95  1  0.865300  0.208900  0.761300  1.0  -0.0403
  C  C96  1  0.928700  0.167900  0.720900  1.0  -0.0141
  C  C97  1  0.341700  0.008200  0.464200  1.0  0.1975
  C  C98  1  0.411900  0.014200  0.422400  1.0  -0.1372
  C  C99  1  0.391000  0.019700  0.352300  1.0  0.0226
  C  C100  1  0.300900  0.018800  0.330000  1.0  -0.1546
  C  C101  1  0.234600  0.012700  0.377500  1.0  0.1924
  C  C102  1  0.465600  0.021200  0.302800  1.0  0.3774
  C  C103  1  0.461000  0.578500  0.900100  1.0  0.7798
  C  C104  1  0.432900  0.631800  0.858200  1.0  -0.1436
  C  C105  1  0.492300  0.687500  0.849500  1.0  0.0165
  C  C106  1  0.460900  0.739100  0.812700  1.0  -0.0497
  C  C107  1  0.373400  0.737000  0.783200  1.0  0.059
  C  C108  1  0.315500  0.682000  0.794400  1.0  -0.0266
  C  C109  1  0.344700  0.630100  0.829900  1.0  -0.0017
  C  C110  1  0.341800  0.793700  0.743900  1.0  0.0319
  C  C111  1  0.300200  0.851600  0.774600  1.0  -0.0239
  C  C112  1  0.268200  0.901400  0.738200  1.0  -0.0221
  C  C113  1  0.275600  0.890600  0.665000  1.0  -0.0834
  C  C114  1  0.319300  0.832700  0.630500  1.0  -0.0075
  C  C115  1  0.350600  0.785700  0.669500  1.0  -0.0224
  C  C116  1  0.233700  0.940600  0.622600  1.0  0.6569
  C  C117  1  0.476300  0.608600  0.094800  1.0  0.751
  C  C118  1  0.408100  0.649400  0.141800  1.0  -0.114
  C  C119  1  0.328400  0.617600  0.157200  1.0  -0.0108
  C  C120  1  0.268400  0.659700  0.199500  1.0  -0.0276
  C  C121  1  0.283600  0.730000  0.225000  1.0  0.0343
  C  C122  1  0.365300  0.761300  0.208900  1.0  -0.0386
  C  C123  1  0.428700  0.720900  0.167900  1.0  -0.0165
  C  C124  1  0.841700  0.464200  0.008200  1.0  0.1949
  C  C125  1  0.911900  0.422400  0.014200  1.0  -0.1361
  C  C126  1  0.891000  0.352300  0.019700  1.0  0.0234
  C  C127  1  0.800900  0.330000  0.018800  1.0  -0.1589
  C  C128  1  0.734600  0.377500  0.012700  1.0  0.1916
  C  C129  1  0.965600  0.302800  0.021200  1.0  0.3753
  C  C130  1  0.039000  0.099900  0.421500  1.0  0.7837
  C  C131  1  0.067100  0.141800  0.368200  1.0  -0.1458
  C  C132  1  0.007700  0.150500  0.312500  1.0  0.0136
  C  C133  1  0.039100  0.187300  0.260900  1.0  -0.0495
  C  C134  1  0.126600  0.216800  0.263000  1.0  0.0578
  C  C135  1  0.184500  0.205600  0.318000  1.0  -0.0279
  C  C136  1  0.155300  0.170100  0.369900  1.0  0.0
  C  C137  1  0.158200  0.256100  0.206300  1.0  0.0316
  C  C138  1  0.199800  0.225400  0.148400  1.0  -0.0224
  C  C139  1  0.231800  0.261800  0.098600  1.0  -0.0197
  C  C140  1  0.224400  0.335000  0.109400  1.0  -0.0825
  C  C141  1  0.180700  0.369500  0.167300  1.0  -0.0154
  C  C142  1  0.149400  0.330500  0.214300  1.0  -0.0221
  C  C143  1  0.266300  0.377400  0.059400  1.0  0.6578
  C  C144  1  0.023700  0.905200  0.391400  1.0  0.7487
  C  C145  1  0.091900  0.858200  0.350600  1.0  -0.1146
  C  C146  1  0.171600  0.842800  0.382400  1.0  -0.0092
  C  C147  1  0.231600  0.800500  0.340300  1.0  -0.0283
  C  C148  1  0.216400  0.775000  0.270000  1.0  0.0328
  C  C149  1  0.134700  0.791100  0.238700  1.0  -0.0393
  C  C150  1  0.071300  0.832100  0.279100  1.0  -0.0171
  C  C151  1  0.658300  0.991800  0.535800  1.0  0.1985
  C  C152  1  0.588100  0.985800  0.577600  1.0  -0.1366
  C  C153  1  0.609000  0.980300  0.647700  1.0  0.0231
  C  C154  1  0.699100  0.981200  0.670000  1.0  -0.1537
  C  C155  1  0.765400  0.987300  0.622500  1.0  0.1903
  C  C156  1  0.534400  0.978800  0.697200  1.0  0.3767
  N  N157  1  0.468400  0.204800  0.194800  1.0  0.6095
  N  N158  1  0.782200  0.324300  0.229900  1.0  0.602
  N  N159  1  0.714400  0.132800  0.147800  1.0  0.5893
  N  N160  1  0.600300  0.272800  0.368400  1.0  0.6028
  N  N161  1  0.815700  0.379700  0.784100  1.0  0.6228
  N  N162  1  0.611900  0.163100  0.772300  1.0  0.6401
  N  N163  1  0.248400  0.555000  0.992200  1.0  -0.4851
  N  N164  1  0.031600  0.805200  0.795200  1.0  0.6138
  N  N165  1  0.717800  0.770100  0.675700  1.0  0.6007
  N  N166  1  0.785600  0.852200  0.867200  1.0  0.5889
  N  N167  1  0.899700  0.631600  0.727200  1.0  0.6061
  N  N168  1  0.684300  0.215900  0.620300  1.0  0.6231
  N  N169  1  0.888100  0.227700  0.836900  1.0  0.6413
  N  N170  1  0.251600  0.007800  0.445000  1.0  -0.4881
  N  N171  1  0.531600  0.795200  0.805200  1.0  0.6106
  N  N172  1  0.217800  0.675700  0.770100  1.0  0.6018
  N  N173  1  0.285600  0.867200  0.852200  1.0  0.5893
  N  N174  1  0.399700  0.727200  0.631600  1.0  0.6039
  N  N175  1  0.184300  0.620300  0.215900  1.0  0.6234
  N  N176  1  0.388100  0.836900  0.227700  1.0  0.6397
  N  N177  1  0.751600  0.445000  0.007800  1.0  -0.4885
  N  N178  1  0.968400  0.194800  0.204800  1.0  0.6138
  N  N179  1  0.282200  0.229900  0.324300  1.0  0.6005
  N  N180  1  0.214400  0.147800  0.132800  1.0  0.5883
  N  N181  1  0.100300  0.368400  0.272800  1.0  0.6048
  N  N182  1  0.315700  0.784100  0.379700  1.0  0.6269
  N  N183  1  0.111900  0.772300  0.163100  1.0  0.6374
  N  N184  1  0.748400  0.992200  0.555000  1.0  -0.4896
  O  O185  1  0.461900  0.409300  0.067900  1.0  -0.6883
  O  O186  1  0.594800  0.471800  0.099200  1.0  -0.7196
  O  O187  1  0.767600  0.075000  0.443800  1.0  -0.6526
  O  O188  1  0.795700  0.003600  0.344400  1.0  -0.6291
  O  O189  1  0.406300  0.190600  0.149600  1.0  -0.3527
  O  O190  1  0.477000  0.177300  0.245300  1.0  -0.3524
  O  O191  1  0.833100  0.365800  0.205600  1.0  -0.366
  O  O192  1  0.808000  0.287200  0.269800  1.0  -0.3436
  O  O193  1  0.709900  0.183100  0.116500  1.0  -0.3952
  O  O194  1  0.733600  0.073100  0.120500  1.0  -0.3325
  O  O195  1  0.599000  0.328500  0.346700  1.0  -0.357
  O  O196  1  0.563300  0.264500  0.422500  1.0  -0.3478
  O  O197  1  0.553300  0.447300  0.946500  1.0  -0.7983
  O  O198  1  0.443800  0.367300  0.900300  1.0  -0.6424
  O  O199  1  0.848100  0.427100  0.829100  1.0  -0.34
  O  O200  1  0.849800  0.358000  0.728800  1.0  -0.3408
  O  O201  1  0.677100  0.124200  0.773800  1.0  -0.4193
  O  O202  1  0.539600  0.139600  0.765400  1.0  -0.3143
  O  O203  1  0.953800  0.679500  0.979900  1.0  -0.391
  O  O204  1  0.038100  0.932100  0.590700  1.0  -0.6878
  O  O205  1  0.905200  0.900800  0.528200  1.0  -0.7209
  O  O206  1  0.732400  0.556200  0.925000  1.0  -0.6534
  O  O207  1  0.704300  0.655600  0.996400  1.0  -0.634
  O  O208  1  0.093700  0.850400  0.809400  1.0  -0.3536
  O  O209  1  0.023000  0.754700  0.822700  1.0  -0.3525
  O  O210  1  0.666900  0.794400  0.634200  1.0  -0.3609
  O  O211  1  0.692000  0.730200  0.712800  1.0  -0.3465
  O  O212  1  0.790100  0.883500  0.816900  1.0  -0.3988
  O  O213  1  0.766400  0.879500  0.926900  1.0  -0.3246
  O  O214  1  0.901000  0.653300  0.671500  1.0  -0.3575
  O  O215  1  0.936700  0.577500  0.735500  1.0  -0.3468
  O  O216  1  0.946700  0.053500  0.552700  1.0  -0.7946
  O  O217  1  0.056200  0.099700  0.632700  1.0  -0.6402
  O  O218  1  0.651900  0.170900  0.572900  1.0  -0.3388
  O  O219  1  0.650200  0.271200  0.642000  1.0  -0.3399
  O  O220  1  0.822900  0.226200  0.875800  1.0  -0.4258
  O  O221  1  0.960400  0.234600  0.860400  1.0  -0.3133
  O  O222  1  0.546200  0.020100  0.320500  1.0  -0.3925
  O  O223  1  0.538100  0.590700  0.932100  1.0  -0.6878
  O  O224  1  0.405200  0.528200  0.900800  1.0  -0.7204
  O  O225  1  0.232400  0.925000  0.556200  1.0  -0.6528
  O  O226  1  0.204300  0.996400  0.655600  1.0  -0.6315
  O  O227  1  0.593700  0.809400  0.850400  1.0  -0.3544
  O  O228  1  0.523000  0.822700  0.754700  1.0  -0.3517
  O  O229  1  0.166900  0.634200  0.794400  1.0  -0.3637
  O  O230  1  0.192000  0.712800  0.730200  1.0  -0.3434
  O  O231  1  0.290100  0.816900  0.883500  1.0  -0.3977
  O  O232  1  0.266400  0.926900  0.879500  1.0  -0.3237
  O  O233  1  0.401000  0.671500  0.653300  1.0  -0.3552
  O  O234  1  0.436700  0.735500  0.577500  1.0  -0.3478
  O  O235  1  0.446700  0.552700  0.053500  1.0  -0.7929
  O  O236  1  0.556200  0.632700  0.099700  1.0  -0.6413
  O  O237  1  0.151900  0.572900  0.170900  1.0  -0.3397
  O  O238  1  0.150200  0.642000  0.271200  1.0  -0.3398
  O  O239  1  0.322900  0.875800  0.226200  1.0  -0.4188
  O  O240  1  0.460400  0.860400  0.234600  1.0  -0.3105
  O  O241  1  0.046200  0.320500  0.020100  1.0  -0.3914
  O  O242  1  0.961900  0.067900  0.409300  1.0  -0.6887
  O  O243  1  0.094800  0.099200  0.471800  1.0  -0.7203
  O  O244  1  0.267600  0.443800  0.075000  1.0  -0.6536
  O  O245  1  0.295700  0.344400  0.003600  1.0  -0.6344
  O  O246  1  0.906300  0.149600  0.190600  1.0  -0.3535
  O  O247  1  0.977000  0.245300  0.177300  1.0  -0.3554
  O  O248  1  0.333100  0.205600  0.365800  1.0  -0.3725
  O  O249  1  0.308000  0.269800  0.287200  1.0  -0.3457
  O  O250  1  0.209900  0.116500  0.183100  1.0  -0.3984
  O  O251  1  0.233600  0.120500  0.073100  1.0  -0.3302
  O  O252  1  0.099000  0.346700  0.328500  1.0  -0.3577
  O  O253  1  0.063300  0.422500  0.264500  1.0  -0.3469
  O  O254  1  0.053300  0.946500  0.447300  1.0  -0.7967
  O  O255  1  0.943800  0.900300  0.367300  1.0  -0.6444
  O  O256  1  0.348100  0.829100  0.427100  1.0  -0.3379
  O  O257  1  0.349800  0.728800  0.358000  1.0  -0.3417
  O  O258  1  0.177100  0.773800  0.124200  1.0  -0.4197
  O  O259  1  0.039600  0.765400  0.139600  1.0  -0.312
  O  O260  1  0.453800  0.979900  0.679500  1.0  -0.3926
