# generated using pymatgen
data_Be3P4(HO3)4
_symmetry_space_group_name_H-M   'P 1'
_cell_length_a   31.37900000
_cell_length_b   31.37900000
_cell_length_c   12.68400000
_cell_angle_alpha   90.00000000
_cell_angle_beta   90.00000000
_cell_angle_gamma   120.00000000
_symmetry_Int_Tables_number   1
_chemical_formula_structural   Be3P4(HO3)4
_chemical_formula_sum   'Be54 P72 H72 O216'
_cell_volume   10815.95977428
_cell_formula_units_Z   18
loop_
 _symmetry_equiv_pos_site_id
 _symmetry_equiv_pos_as_xyz
  1  'x, y, z'
loop_
 _atom_site_type_symbol
 _atom_site_label
 _atom_site_symmetry_multiplicity
 _atom_site_fract_x
 _atom_site_fract_y
 _atom_site_fract_z
 _atom_site_occupancy
 _atom_site_charge
  Be  Be1  1  0.003700  0.506500  0.333400  1.0  1.1053
  Be  Be2  1  0.988500  0.554470  0.024300  1.0  1.1559
  Be  Be3  1  0.043640  0.669820  0.578800  1.0  1.1138
  Be  Be4  1  0.670370  0.839830  0.666667  1.0  1.1178
  Be  Be5  1  0.655170  0.887800  0.357630  1.0  1.1559
  Be  Be6  1  0.710310  0.003150  0.912130  1.0  1.1141
  Be  Be7  1  0.337030  0.173170  0.000070  1.0  1.1052
  Be  Be8  1  0.321830  0.221140  0.690970  1.0  1.1559
  Be  Be9  1  0.376970  0.336490  0.245470  1.0  1.1139
  Be  Be10  1  0.493500  0.497200  0.333400  1.0  1.1071
  Be  Be11  1  0.445530  0.434030  0.024300  1.0  1.1554
  Be  Be12  1  0.330180  0.373820  0.578800  1.0  1.115
  Be  Be13  1  0.160170  0.830530  0.666667  1.0  1.1192
  Be  Be14  1  0.112200  0.767360  0.357630  1.0  1.1554
  Be  Be15  1  0.996850  0.707150  0.912130  1.0  1.1142
  Be  Be16  1  0.826830  0.163870  0.000070  1.0  1.1071
  Be  Be17  1  0.778860  0.100700  0.690970  1.0  1.1554
  Be  Be18  1  0.663510  0.040490  0.245470  1.0  1.1153
  Be  Be19  1  0.502800  0.996300  0.333400  1.0  1.1065
  Be  Be20  1  0.565970  0.011500  0.024300  1.0  1.1555
  Be  Be21  1  0.626180  0.956360  0.578800  1.0  1.115
  Be  Be22  1  0.169470  0.329630  0.666667  1.0  1.1181
  Be  Be23  1  0.232640  0.344830  0.357630  1.0  1.1555
  Be  Be24  1  0.292850  0.289690  0.912130  1.0  1.1146
  Be  Be25  1  0.836130  0.662970  0.000070  1.0  1.1063
  Be  Be26  1  0.899300  0.678170  0.690970  1.0  1.1555
  Be  Be27  1  0.959510  0.623030  0.245470  1.0  1.1145
  Be  Be28  1  0.996300  0.493500  0.666667  1.0  1.1178
  Be  Be29  1  0.011500  0.445530  0.975700  1.0  1.1548
  Be  Be30  1  0.956360  0.330180  0.421200  1.0  1.1145
  Be  Be31  1  0.662970  0.826830  0.999930  1.0  1.106
  Be  Be32  1  0.678170  0.778860  0.309030  1.0  1.1548
  Be  Be33  1  0.623030  0.663510  0.754530  1.0  1.1146
  Be  Be34  1  0.329630  0.160170  0.333270  1.0  1.1059
  Be  Be35  1  0.344830  0.112200  0.642370  1.0  1.1548
  Be  Be36  1  0.289690  0.996850  0.087870  1.0  1.1148
  Be  Be37  1  0.506500  0.502800  0.666667  1.0  1.1186
  Be  Be38  1  0.554470  0.565970  0.975700  1.0  1.155
  Be  Be39  1  0.669820  0.626180  0.421200  1.0  1.1153
  Be  Be40  1  0.173170  0.836130  0.999930  1.0  1.1068
  Be  Be41  1  0.221140  0.899300  0.309030  1.0  1.155
  Be  Be42  1  0.336490  0.959510  0.754530  1.0  1.1156
  Be  Be43  1  0.839830  0.169470  0.333270  1.0  1.1068
  Be  Be44  1  0.887800  0.232640  0.642370  1.0  1.155
  Be  Be45  1  0.003150  0.292850  0.087870  1.0  1.1146
  Be  Be46  1  0.497200  0.003700  0.666667  1.0  1.1176
  Be  Be47  1  0.434030  0.988500  0.975700  1.0  1.1547
  Be  Be48  1  0.373820  0.043640  0.421200  1.0  1.1142
  Be  Be49  1  0.163870  0.337030  0.999930  1.0  1.1052
  Be  Be50  1  0.100700  0.321830  0.309030  1.0  1.1547
  Be  Be51  1  0.040490  0.376970  0.754530  1.0  1.1137
  Be  Be52  1  0.830530  0.670370  0.333270  1.0  1.1051
  Be  Be53  1  0.767360  0.655170  0.642370  1.0  1.1547
  Be  Be54  1  0.707150  0.710310  0.087870  1.0  1.1139
  P  P55  1  0.024320  0.655580  0.063060  1.0  1.6846
  P  P56  1  0.006390  0.568140  0.514380  1.0  1.6344
  P  P57  1  0.051560  0.524660  0.130390  1.0  1.5638
  P  P58  1  0.929850  0.520570  0.217700  1.0  1.5259
  P  P59  1  0.690990  0.988910  0.396390  1.0  1.6846
  P  P60  1  0.673060  0.901470  0.847710  1.0  1.6343
  P  P61  1  0.718230  0.857990  0.463720  1.0  1.5637
  P  P62  1  0.596520  0.853900  0.551030  1.0  1.5243
  P  P63  1  0.357650  0.322250  0.729730  1.0  1.6846
  P  P64  1  0.339720  0.234810  0.181050  1.0  1.6345
  P  P65  1  0.384890  0.191330  0.797060  1.0  1.5638
  P  P66  1  0.263180  0.187240  0.884370  1.0  1.5243
  P  P67  1  0.344420  0.368740  0.063060  1.0  1.6825
  P  P68  1  0.431860  0.438250  0.514380  1.0  1.6378
  P  P69  1  0.475340  0.526900  0.130390  1.0  1.5633
  P  P70  1  0.479430  0.409280  0.217700  1.0  1.5348
  P  P71  1  0.011090  0.702070  0.396390  1.0  1.6825
  P  P72  1  0.098530  0.771580  0.847710  1.0  1.6377
  P  P73  1  0.142010  0.860230  0.463720  1.0  1.5633
  P  P74  1  0.146100  0.742610  0.551030  1.0  1.5348
  P  P75  1  0.677750  0.035410  0.729730  1.0  1.6826
  P  P76  1  0.765190  0.104920  0.181050  1.0  1.6377
  P  P77  1  0.808670  0.193570  0.797060  1.0  1.5633
  P  P78  1  0.812760  0.075950  0.884370  1.0  1.5348
  P  P79  1  0.631260  0.975680  0.063060  1.0  1.6871
  P  P80  1  0.561750  0.993610  0.514380  1.0  1.6368
  P  P81  1  0.473100  0.948440  0.130390  1.0  1.5721
  P  P82  1  0.590720  0.070150  0.217700  1.0  1.5419
  P  P83  1  0.297930  0.309010  0.396390  1.0  1.687
  P  P84  1  0.228420  0.326940  0.847710  1.0  1.6368
  P  P85  1  0.139770  0.281770  0.463720  1.0  1.572
  P  P86  1  0.257390  0.403480  0.551030  1.0  1.5419
  P  P87  1  0.964590  0.642350  0.729730  1.0  1.6871
  P  P88  1  0.895080  0.660280  0.181050  1.0  1.6367
  P  P89  1  0.806430  0.615110  0.797060  1.0  1.5721
  P  P90  1  0.924050  0.736820  0.884370  1.0  1.5419
  P  P91  1  0.975680  0.344420  0.936940  1.0  1.6827
  P  P92  1  0.993610  0.431860  0.485620  1.0  1.6336
  P  P93  1  0.948440  0.475340  0.869610  1.0  1.5523
  P  P94  1  0.070150  0.479430  0.782300  1.0  1.5352
  P  P95  1  0.642350  0.677750  0.270270  1.0  1.6827
  P  P96  1  0.660280  0.765190  0.818950  1.0  1.6338
  P  P97  1  0.615110  0.808670  0.202940  1.0  1.5523
  P  P98  1  0.736820  0.812760  0.115630  1.0  1.5352
  P  P99  1  0.309010  0.011090  0.603610  1.0  1.6827
  P  P100  1  0.326940  0.098530  0.152290  1.0  1.6336
  P  P101  1  0.281770  0.142010  0.536280  1.0  1.5523
  P  P102  1  0.403480  0.146100  0.448970  1.0  1.5367
  P  P103  1  0.655580  0.631260  0.936940  1.0  1.6846
  P  P104  1  0.568140  0.561750  0.485620  1.0  1.6358
  P  P105  1  0.524660  0.473100  0.869610  1.0  1.5673
  P  P106  1  0.520570  0.590720  0.782300  1.0  1.5215
  P  P107  1  0.322250  0.964590  0.270270  1.0  1.6846
  P  P108  1  0.234810  0.895080  0.818950  1.0  1.6359
  P  P109  1  0.191330  0.806430  0.202940  1.0  1.5673
  P  P110  1  0.187240  0.924050  0.115630  1.0  1.5216
  P  P111  1  0.988910  0.297930  0.603610  1.0  1.6846
  P  P112  1  0.901470  0.228420  0.152290  1.0  1.6358
  P  P113  1  0.857990  0.139770  0.536280  1.0  1.5673
  P  P114  1  0.853900  0.257390  0.448970  1.0  1.5215
  P  P115  1  0.368740  0.024320  0.936940  1.0  1.6867
  P  P116  1  0.438250  0.006390  0.485620  1.0  1.6354
  P  P117  1  0.526900  0.051560  0.869610  1.0  1.5684
  P  P118  1  0.409280  0.929850  0.782300  1.0  1.5476
  P  P119  1  0.035410  0.357650  0.270270  1.0  1.6867
  P  P120  1  0.104920  0.339720  0.818950  1.0  1.6355
  P  P121  1  0.193570  0.384890  0.202940  1.0  1.5684
  P  P122  1  0.075950  0.263180  0.115630  1.0  1.5476
  P  P123  1  0.702070  0.690990  0.603610  1.0  1.6866
  P  P124  1  0.771580  0.673060  0.152290  1.0  1.6356
  P  P125  1  0.860230  0.718230  0.536280  1.0  1.5684
  P  P126  1  0.742610  0.596520  0.448970  1.0  1.5476
  H  H127  1  0.079700  0.678300  0.057800  1.0  -0.089
  H  H128  1  0.956600  0.557200  0.496200  1.0  -0.1076
  H  H129  1  0.100100  0.542700  0.107200  1.0  -0.0771
  H  H130  1  0.882900  0.490400  0.224100  1.0  -0.0902
  H  H131  1  0.746370  0.011630  0.391130  1.0  -0.089
  H  H132  1  0.623270  0.890530  0.829530  1.0  -0.1075
  H  H133  1  0.766770  0.876030  0.440530  1.0  -0.0824
  H  H134  1  0.549570  0.823730  0.557430  1.0  -0.0905
  H  H135  1  0.413030  0.344970  0.724470  1.0  -0.089
  H  H136  1  0.289930  0.223870  0.162870  1.0  -0.1076
  H  H137  1  0.433430  0.209370  0.773870  1.0  -0.0771
  H  H138  1  0.216230  0.157070  0.890770  1.0  -0.0942
  H  H139  1  0.321700  0.401400  0.057800  1.0  -0.0903
  H  H140  1  0.442800  0.399400  0.496200  1.0  -0.1103
  H  H141  1  0.457300  0.557400  0.107200  1.0  -0.0841
  H  H142  1  0.509600  0.392500  0.224100  1.0  -0.0917
  H  H143  1  0.988370  0.734730  0.391130  1.0  -0.0903
  H  H144  1  0.109470  0.732730  0.829530  1.0  -0.1102
  H  H145  1  0.123970  0.890730  0.440530  1.0  -0.0818
  H  H146  1  0.176270  0.725830  0.557430  1.0  -0.092
  H  H147  1  0.655030  0.068070  0.724470  1.0  -0.0903
  H  H148  1  0.776130  0.066070  0.162870  1.0  -0.1102
  H  H149  1  0.790630  0.224070  0.773870  1.0  -0.0841
  H  H150  1  0.842930  0.059170  0.890770  1.0  -0.0884
  H  H151  1  0.598600  0.920300  0.057800  1.0  -0.0912
  H  H152  1  0.600600  0.043400  0.496200  1.0  -0.1113
  H  H153  1  0.442600  0.899900  0.107200  1.0  -0.0797
  H  H154  1  0.607500  0.117100  0.224100  1.0  -0.0948
  H  H155  1  0.265270  0.253630  0.391130  1.0  -0.0912
  H  H156  1  0.267270  0.376730  0.829530  1.0  -0.1112
  H  H157  1  0.109270  0.233230  0.440530  1.0  -0.0872
  H  H158  1  0.274170  0.450430  0.557430  1.0  -0.0948
  H  H159  1  0.931930  0.586970  0.724470  1.0  -0.0912
  H  H160  1  0.933930  0.710070  0.162870  1.0  -0.1113
  H  H161  1  0.775930  0.566570  0.773870  1.0  -0.0797
  H  H162  1  0.940830  0.783770  0.890770  1.0  -0.0995
  H  H163  1  0.920300  0.321700  0.942200  1.0  -0.0868
  H  H164  1  0.043400  0.442800  0.503800  1.0  -0.1062
  H  H165  1  0.899900  0.457300  0.892800  1.0  -0.0782
  H  H166  1  0.117100  0.509600  0.775900  1.0  -0.0909
  H  H167  1  0.586970  0.655030  0.275530  1.0  -0.0868
  H  H168  1  0.710070  0.776130  0.837130  1.0  -0.1063
  H  H169  1  0.566570  0.790630  0.226130  1.0  -0.0782
  H  H170  1  0.783770  0.842930  0.109230  1.0  -0.0951
  H  H171  1  0.253630  0.988370  0.608870  1.0  -0.0868
  H  H172  1  0.376730  0.109470  0.170470  1.0  -0.1062
  H  H173  1  0.233230  0.123970  0.559470  1.0  -0.0841
  H  H174  1  0.450430  0.176270  0.442570  1.0  -0.0906
  H  H175  1  0.678300  0.598600  0.942200  1.0  -0.0924
  H  H176  1  0.557200  0.600600  0.503800  1.0  -0.1096
  H  H177  1  0.542700  0.442600  0.892800  1.0  -0.0872
  H  H178  1  0.490400  0.607500  0.775900  1.0  -0.0897
  H  H179  1  0.344970  0.931930  0.275530  1.0  -0.0924
  H  H180  1  0.223870  0.933930  0.837130  1.0  -0.1096
  H  H181  1  0.209370  0.775930  0.226130  1.0  -0.0872
  H  H182  1  0.157070  0.940830  0.109230  1.0  -0.0859
  H  H183  1  0.011630  0.265270  0.608870  1.0  -0.0924
  H  H184  1  0.890530  0.267270  0.170470  1.0  -0.1096
  H  H185  1  0.876030  0.109270  0.559470  1.0  -0.0801
  H  H186  1  0.823730  0.274170  0.442570  1.0  -0.0894
  H  H187  1  0.401400  0.079700  0.942200  1.0  -0.0907
  H  H188  1  0.399400  0.956600  0.503800  1.0  -0.1107
  H  H189  1  0.557400  0.100100  0.892800  1.0  -0.0795
  H  H190  1  0.392500  0.882900  0.775900  1.0  -0.0959
  H  H191  1  0.068070  0.413030  0.275530  1.0  -0.0907
  H  H192  1  0.066070  0.289930  0.837130  1.0  -0.1106
  H  H193  1  0.224070  0.433430  0.226130  1.0  -0.0795
  H  H194  1  0.059170  0.216230  0.109230  1.0  -0.1006
  H  H195  1  0.734730  0.746370  0.608870  1.0  -0.0907
  H  H196  1  0.732730  0.623270  0.170470  1.0  -0.1107
  H  H197  1  0.890730  0.766770  0.559470  1.0  -0.0866
  H  H198  1  0.725830  0.549570  0.442570  1.0  -0.0959
  O  O199  1  0.010160  0.643180  0.177450  1.0  -0.8513
  O  O200  1  0.002870  0.610610  0.993600  1.0  -0.8238
  O  O201  1  0.012910  0.693900  0.022630  1.0  -0.735
  O  O202  1  0.039010  0.623510  0.516100  1.0  -0.754
  O  O203  1  0.021570  0.548470  0.422500  1.0  -0.7754
  O  O204  1  0.007680  0.546260  0.618900  1.0  -0.7495
  O  O205  1  0.048780  0.526730  0.249000  1.0  -0.823
  O  O206  1  0.037060  0.557950  0.074700  1.0  -0.7638
  O  O207  1  0.025000  0.472590  0.090200  1.0  -0.7206
  O  O208  1  0.940900  0.528530  0.101100  1.0  -0.865
  O  O209  1  0.953520  0.494880  0.272300  1.0  -0.8631
  O  O210  1  0.938620  0.565830  0.276300  1.0  -0.7048
  O  O211  1  0.676830  0.976510  0.510780  1.0  -0.8514
  O  O212  1  0.669540  0.943940  0.326930  1.0  -0.8238
  O  O213  1  0.679580  0.027230  0.355960  1.0  -0.7344
  O  O214  1  0.705680  0.956840  0.849430  1.0  -0.7539
  O  O215  1  0.688240  0.881800  0.755830  1.0  -0.7757
  O  O216  1  0.674350  0.879590  0.952230  1.0  -0.7495
  O  O217  1  0.715450  0.860060  0.582330  1.0  -0.8228
  O  O218  1  0.703730  0.891280  0.408030  1.0  -0.7638
  O  O219  1  0.691670  0.805920  0.423530  1.0  -0.7206
  O  O220  1  0.607570  0.861860  0.434430  1.0  -0.865
  O  O221  1  0.620190  0.828210  0.605630  1.0  -0.8622
  O  O222  1  0.605290  0.899160  0.609630  1.0  -0.7046
  O  O223  1  0.343490  0.309850  0.844120  1.0  -0.8519
  O  O224  1  0.336200  0.277280  0.660270  1.0  -0.8241
  O  O225  1  0.346240  0.360570  0.689300  1.0  -0.735
  O  O226  1  0.372340  0.290180  0.182770  1.0  -0.7539
  O  O227  1  0.354900  0.215140  0.089170  1.0  -0.7756
  O  O228  1  0.341010  0.212930  0.285570  1.0  -0.7494
  O  O229  1  0.382110  0.193400  0.915670  1.0  -0.823
  O  O230  1  0.370390  0.224620  0.741370  1.0  -0.7638
  O  O231  1  0.358330  0.139260  0.756870  1.0  -0.7206
  O  O232  1  0.274230  0.195200  0.767770  1.0  -0.8648
  O  O233  1  0.286850  0.161550  0.938970  1.0  -0.8631
  O  O234  1  0.271950  0.232500  0.942970  1.0  -0.7047
  O  O235  1  0.356820  0.366980  0.177450  1.0  -0.8501
  O  O236  1  0.389390  0.392260  0.993600  1.0  -0.8248
  O  O237  1  0.306100  0.319010  0.022630  1.0  -0.7312
  O  O238  1  0.376490  0.415500  0.516100  1.0  -0.7549
  O  O239  1  0.451530  0.473100  0.422500  1.0  -0.7728
  O  O240  1  0.453740  0.461420  0.618900  1.0  -0.7481
  O  O241  1  0.473270  0.522050  0.249000  1.0  -0.8246
  O  O242  1  0.442050  0.479110  0.074700  1.0  -0.7595
  O  O243  1  0.527410  0.552410  0.090200  1.0  -0.7243
  O  O244  1  0.471470  0.412370  0.101100  1.0  -0.862
  O  O245  1  0.505120  0.458640  0.272300  1.0  -0.8611
  O  O246  1  0.434170  0.372790  0.276300  1.0  -0.7025
  O  O247  1  0.023490  0.700310  0.510780  1.0  -0.85
  O  O248  1  0.056060  0.725590  0.326930  1.0  -0.8248
  O  O249  1  0.972770  0.652340  0.355960  1.0  -0.7316
  O  O250  1  0.043160  0.748830  0.849430  1.0  -0.7549
  O  O251  1  0.118200  0.806430  0.755830  1.0  -0.7731
  O  O252  1  0.120410  0.794750  0.952230  1.0  -0.7481
  O  O253  1  0.139940  0.855380  0.582330  1.0  -0.8246
  O  O254  1  0.108720  0.812440  0.408030  1.0  -0.7595
  O  O255  1  0.194080  0.885740  0.423530  1.0  -0.7243
  O  O256  1  0.138140  0.745700  0.434430  1.0  -0.862
  O  O257  1  0.171790  0.791970  0.605630  1.0  -0.8602
  O  O258  1  0.100840  0.706120  0.609630  1.0  -0.7026
  O  O259  1  0.690150  0.033650  0.844120  1.0  -0.8496
  O  O260  1  0.722720  0.058930  0.660270  1.0  -0.8253
  O  O261  1  0.639430  0.985680  0.689300  1.0  -0.7311
  O  O262  1  0.709820  0.082170  0.182770  1.0  -0.7549
  O  O263  1  0.784860  0.139770  0.089170  1.0  -0.773
  O  O264  1  0.787070  0.128090  0.285570  1.0  -0.7482
  O  O265  1  0.806600  0.188720  0.915670  1.0  -0.8247
  O  O266  1  0.775380  0.145780  0.741370  1.0  -0.7595
  O  O267  1  0.860740  0.219080  0.756870  1.0  -0.7243
  O  O268  1  0.804800  0.079040  0.767770  1.0  -0.862
  O  O269  1  0.838450  0.125310  0.938970  1.0  -0.8611
  O  O270  1  0.767500  0.039460  0.942970  1.0  -0.7025
  O  O271  1  0.633020  0.989840  0.177450  1.0  -0.8538
  O  O272  1  0.607740  0.997130  0.993600  1.0  -0.8242
  O  O273  1  0.680990  0.987090  0.022630  1.0  -0.7297
  O  O274  1  0.584500  0.960990  0.516100  1.0  -0.7534
  O  O275  1  0.526900  0.978430  0.422500  1.0  -0.7741
  O  O276  1  0.538580  0.992320  0.618900  1.0  -0.7494
  O  O277  1  0.477950  0.951220  0.249000  1.0  -0.8287
  O  O278  1  0.520890  0.962940  0.074700  1.0  -0.7643
  O  O279  1  0.447590  0.975000  0.090200  1.0  -0.7205
  O  O280  1  0.587630  0.059100  0.101100  1.0  -0.8698
  O  O281  1  0.541360  0.046480  0.272300  1.0  -0.8616
  O  O282  1  0.627210  0.061380  0.276300  1.0  -0.7069
  O  O283  1  0.299690  0.323170  0.510780  1.0  -0.8539
  O  O284  1  0.274410  0.330460  0.326930  1.0  -0.8242
  O  O285  1  0.347660  0.320420  0.355960  1.0  -0.7302
  O  O286  1  0.251170  0.294320  0.849430  1.0  -0.7535
  O  O287  1  0.193570  0.311760  0.755830  1.0  -0.7745
  O  O288  1  0.205250  0.325650  0.952230  1.0  -0.7495
  O  O289  1  0.144620  0.284550  0.582330  1.0  -0.8286
  O  O290  1  0.187560  0.296270  0.408030  1.0  -0.7643
  O  O291  1  0.114260  0.308330  0.423530  1.0  -0.7205
  O  O292  1  0.254300  0.392430  0.434430  1.0  -0.8698
  O  O293  1  0.208030  0.379810  0.605630  1.0  -0.8602
  O  O294  1  0.293880  0.394710  0.609630  1.0  -0.7069
  O  O295  1  0.966350  0.656510  0.844120  1.0  -0.8535
  O  O296  1  0.941070  0.663800  0.660270  1.0  -0.8242
  O  O297  1  0.014320  0.653760  0.689300  1.0  -0.7297
  O  O298  1  0.917830  0.627660  0.182770  1.0  -0.7534
  O  O299  1  0.860230  0.645100  0.089170  1.0  -0.7744
  O  O300  1  0.871910  0.658990  0.285570  1.0  -0.7495
  O  O301  1  0.811280  0.617890  0.915670  1.0  -0.8287
  O  O302  1  0.854220  0.629610  0.741370  1.0  -0.7643
  O  O303  1  0.780920  0.641670  0.756870  1.0  -0.7205
  O  O304  1  0.920960  0.725770  0.767770  1.0  -0.8699
  O  O305  1  0.874690  0.713150  0.938970  1.0  -0.8616
  O  O306  1  0.960540  0.728050  0.942970  1.0  -0.707
  O  O307  1  0.989840  0.356820  0.822550  1.0  -0.8492
  O  O308  1  0.997130  0.389390  0.006400  1.0  -0.826
  O  O309  1  0.987090  0.306100  0.977370  1.0  -0.7335
  O  O310  1  0.960990  0.376490  0.483900  1.0  -0.7545
  O  O311  1  0.978430  0.451530  0.577500  1.0  -0.774
  O  O312  1  0.992320  0.453740  0.381100  1.0  -0.746
  O  O313  1  0.951220  0.473270  0.751000  1.0  -0.8209
  O  O314  1  0.962940  0.442050  0.925300  1.0  -0.7645
  O  O315  1  0.975000  0.527410  0.909800  1.0  -0.7213
  O  O316  1  0.059100  0.471470  0.898900  1.0  -0.8702
  O  O317  1  0.046480  0.505120  0.727700  1.0  -0.8631
  O  O318  1  0.061380  0.434170  0.723700  1.0  -0.6989
  O  O319  1  0.656510  0.690150  0.155880  1.0  -0.8497
  O  O320  1  0.663800  0.722720  0.339730  1.0  -0.8263
  O  O321  1  0.653760  0.639430  0.310700  1.0  -0.7335
  O  O322  1  0.627660  0.709820  0.817230  1.0  -0.7545
  O  O323  1  0.645100  0.784860  0.910830  1.0  -0.7737
  O  O324  1  0.658990  0.787070  0.714430  1.0  -0.746
  O  O325  1  0.617890  0.806600  0.084330  1.0  -0.8211
  O  O326  1  0.629610  0.775380  0.258630  1.0  -0.7645
  O  O327  1  0.641670  0.860740  0.243130  1.0  -0.7213
  O  O328  1  0.725770  0.804800  0.232230  1.0  -0.8702
  O  O329  1  0.713150  0.838450  0.061030  1.0  -0.8646
  O  O330  1  0.728050  0.767500  0.057030  1.0  -0.6988
  O  O331  1  0.323170  0.023490  0.489220  1.0  -0.8491
  O  O332  1  0.330460  0.056060  0.673070  1.0  -0.826
  O  O333  1  0.320420  0.972770  0.644040  1.0  -0.733
  O  O334  1  0.294320  0.043160  0.150570  1.0  -0.7544
  O  O335  1  0.311760  0.118200  0.244170  1.0  -0.774
  O  O336  1  0.325650  0.120410  0.047770  1.0  -0.746
  O  O337  1  0.284550  0.139940  0.417670  1.0  -0.8211
  O  O338  1  0.296270  0.108720  0.591970  1.0  -0.7645
  O  O339  1  0.308330  0.194080  0.576470  1.0  -0.7213
  O  O340  1  0.392430  0.138140  0.565570  1.0  -0.8702
  O  O341  1  0.379810  0.171790  0.394370  1.0  -0.8646
  O  O342  1  0.394710  0.100840  0.390370  1.0  -0.6988
  O  O343  1  0.643180  0.633020  0.822550  1.0  -0.8507
  O  O344  1  0.610610  0.607740  0.006400  1.0  -0.8242
  O  O345  1  0.693900  0.680990  0.977370  1.0  -0.7296
  O  O346  1  0.623510  0.584500  0.483900  1.0  -0.7547
  O  O347  1  0.548470  0.526900  0.577500  1.0  -0.7743
  O  O348  1  0.546260  0.538580  0.381100  1.0  -0.7448
  O  O349  1  0.526730  0.477950  0.751000  1.0  -0.8215
  O  O350  1  0.557950  0.520890  0.925300  1.0  -0.7608
  O  O351  1  0.472590  0.447590  0.909800  1.0  -0.7212
  O  O352  1  0.528530  0.587630  0.898900  1.0  -0.8692
  O  O353  1  0.494880  0.541360  0.727700  1.0  -0.8595
  O  O354  1  0.565830  0.627210  0.723700  1.0  -0.7008
  O  O355  1  0.309850  0.966350  0.155880  1.0  -0.8502
  O  O356  1  0.277280  0.941070  0.339730  1.0  -0.8246
  O  O357  1  0.360570  0.014320  0.310700  1.0  -0.7295
  O  O358  1  0.290180  0.917830  0.817230  1.0  -0.7547
  O  O359  1  0.215140  0.860230  0.910830  1.0  -0.774
  O  O360  1  0.212930  0.871910  0.714430  1.0  -0.7448
  O  O361  1  0.193400  0.811280  0.084330  1.0  -0.8216
  O  O362  1  0.224620  0.854220  0.258630  1.0  -0.7608
  O  O363  1  0.139260  0.780920  0.243130  1.0  -0.7212
  O  O364  1  0.195200  0.920960  0.232230  1.0  -0.8692
  O  O365  1  0.161550  0.874690  0.061030  1.0  -0.8604
  O  O366  1  0.232500  0.960540  0.057030  1.0  -0.7008
  O  O367  1  0.976510  0.299690  0.489220  1.0  -0.8506
  O  O368  1  0.943940  0.274410  0.673070  1.0  -0.8242
  O  O369  1  0.027230  0.347660  0.644040  1.0  -0.73
  O  O370  1  0.956840  0.251170  0.150570  1.0  -0.7547
  O  O371  1  0.881800  0.193570  0.244170  1.0  -0.7743
  O  O372  1  0.879590  0.205250  0.047770  1.0  -0.7448
  O  O373  1  0.860060  0.144620  0.417670  1.0  -0.8216
  O  O374  1  0.891280  0.187560  0.591970  1.0  -0.7608
  O  O375  1  0.805920  0.114260  0.576470  1.0  -0.7212
  O  O376  1  0.861860  0.254300  0.565570  1.0  -0.8692
  O  O377  1  0.828210  0.208030  0.394370  1.0  -0.8604
  O  O378  1  0.899160  0.293880  0.390370  1.0  -0.701
  O  O379  1  0.366980  0.010160  0.822550  1.0  -0.8526
  O  O380  1  0.392260  0.002870  0.006400  1.0  -0.8242
  O  O381  1  0.319010  0.012910  0.977370  1.0  -0.7295
  O  O382  1  0.415500  0.039010  0.483900  1.0  -0.7553
  O  O383  1  0.473100  0.021570  0.577500  1.0  -0.7781
  O  O384  1  0.461420  0.007680  0.381100  1.0  -0.7459
  O  O385  1  0.522050  0.048780  0.751000  1.0  -0.823
  O  O386  1  0.479110  0.037060  0.925300  1.0  -0.7671
  O  O387  1  0.552410  0.025000  0.909800  1.0  -0.7194
  O  O388  1  0.412370  0.940900  0.898900  1.0  -0.8727
  O  O389  1  0.458640  0.953520  0.727700  1.0  -0.8624
  O  O390  1  0.372790  0.938620  0.723700  1.0  -0.7037
  O  O391  1  0.033650  0.343490  0.155880  1.0  -0.8523
  O  O392  1  0.058930  0.336200  0.339730  1.0  -0.8242
  O  O393  1  0.985680  0.346240  0.310700  1.0  -0.7295
  O  O394  1  0.082170  0.372340  0.817230  1.0  -0.7553
  O  O395  1  0.139770  0.354900  0.910830  1.0  -0.7778
  O  O396  1  0.128090  0.341010  0.714430  1.0  -0.746
  O  O397  1  0.188720  0.382110  0.084330  1.0  -0.8232
  O  O398  1  0.145780  0.370390  0.258630  1.0  -0.7671
  O  O399  1  0.219080  0.358330  0.243130  1.0  -0.7194
  O  O400  1  0.079040  0.274230  0.232230  1.0  -0.8728
  O  O401  1  0.125310  0.286850  0.061030  1.0  -0.8634
  O  O402  1  0.039460  0.271950  0.057030  1.0  -0.7039
  O  O403  1  0.700310  0.676830  0.489220  1.0  -0.8527
  O  O404  1  0.725590  0.669540  0.673070  1.0  -0.8241
  O  O405  1  0.652340  0.679580  0.644040  1.0  -0.7301
  O  O406  1  0.748830  0.705680  0.150570  1.0  -0.7553
  O  O407  1  0.806430  0.688240  0.244170  1.0  -0.7781
  O  O408  1  0.794750  0.674350  0.047770  1.0  -0.746
  O  O409  1  0.855380  0.715450  0.417670  1.0  -0.8232
  O  O410  1  0.812440  0.703730  0.591970  1.0  -0.7671
  O  O411  1  0.885740  0.691670  0.576470  1.0  -0.7194
  O  O412  1  0.745700  0.607570  0.565570  1.0  -0.8727
  O  O413  1  0.791970  0.620190  0.394370  1.0  -0.8634
  O  O414  1  0.706120  0.605290  0.390370  1.0  -0.7037
