# generated using pymatgen
data_YC2O5
_symmetry_space_group_name_H-M   'P 1'
_cell_length_a   7.81980000
_cell_length_b   8.43540000
_cell_length_c   9.49080000
_cell_angle_alpha   90.00000000
_cell_angle_beta   90.00000000
_cell_angle_gamma   117.61400000
_symmetry_Int_Tables_number   1
_chemical_formula_structural   YC2O5
_chemical_formula_sum   'Y4 C8 O20'
_cell_volume   554.73064023
_cell_formula_units_Z   4
loop_
 _symmetry_equiv_pos_site_id
 _symmetry_equiv_pos_as_xyz
  1  'x, y, z'
loop_
 _atom_site_type_symbol
 _atom_site_label
 _atom_site_symmetry_multiplicity
 _atom_site_fract_x
 _atom_site_fract_y
 _atom_site_fract_z
 _atom_site_occupancy
 _atom_site_charge
  Y  Y1  1  0.707160  0.414320  0.750000  1.0  2.0702
  Y  Y2  1  0.292770  0.585540  0.750000  1.0  2.0747
  Y  Y3  1  0.292840  0.585680  0.250000  1.0  2.0697
  Y  Y4  1  0.707230  0.414460  0.250000  1.0  2.0749
  C  C5  1  0.598200  0.997800  0.742700  1.0  0.5637
  C  C6  1  0.080300  0.550800  0.500500  1.0  1.0334
  C  C7  1  0.401800  0.002200  0.242700  1.0  0.5643
  C  C8  1  0.919700  0.449200  0.000500  1.0  1.0332
  C  C9  1  0.399600  0.997800  0.757300  1.0  0.5642
  C  C10  1  0.470500  0.550800  0.999500  1.0  1.0316
  C  C11  1  0.600400  0.002200  0.257300  1.0  0.5638
  C  C12  1  0.529500  0.449200  0.499500  1.0  1.0344
  O  O13  1  0.742900  0.145200  0.737000  1.0  -0.6056
  O  O14  1  0.591300  0.845600  0.736100  1.0  -0.6187
  O  O15  1  0.997500  0.506800  0.619700  1.0  -0.8184
  O  O16  1  0.265500  0.639600  0.503200  1.0  -0.8074
  O  O17  1  0.996700  0.505200  0.381400  1.0  -0.8221
  O  O18  1  0.257100  0.854800  0.237000  1.0  -0.6046
  O  O19  1  0.408700  0.154400  0.236100  1.0  -0.6184
  O  O20  1  0.002500  0.493200  0.119700  1.0  -0.819
  O  O21  1  0.734500  0.360400  0.003200  1.0  -0.8063
  O  O22  1  0.003300  0.494800  0.881400  1.0  -0.8186
  O  O23  1  0.402300  0.145200  0.763000  1.0  -0.6062
  O  O24  1  0.254300  0.845600  0.763900  1.0  -0.6176
  O  O25  1  0.509300  0.506800  0.880300  1.0  -0.8205
  O  O26  1  0.374100  0.639600  0.996800  1.0  -0.8062
  O  O27  1  0.508500  0.505200  0.118600  1.0  -0.8177
  O  O28  1  0.597700  0.854800  0.263000  1.0  -0.6042
  O  O29  1  0.745700  0.154400  0.263900  1.0  -0.6204
  O  O30  1  0.490700  0.493200  0.380300  1.0  -0.8198
  O  O31  1  0.625900  0.360400  0.496800  1.0  -0.808
  O  O32  1  0.491500  0.494800  0.618600  1.0  -0.8183
