# generated using pymatgen
data_YC2O5
_symmetry_space_group_name_H-M   'P 1'
_cell_length_a   7.81770000
_cell_length_b   8.43220000
_cell_length_c   9.48450000
_cell_angle_alpha   90.00000000
_cell_angle_beta   90.00000000
_cell_angle_gamma   117.61700000
_symmetry_Int_Tables_number   1
_chemical_formula_structural   YC2O5
_chemical_formula_sum   'Y4 C8 O20'
_cell_volume   553.98811861
_cell_formula_units_Z   4
loop_
 _symmetry_equiv_pos_site_id
 _symmetry_equiv_pos_as_xyz
  1  'x, y, z'
loop_
 _atom_site_type_symbol
 _atom_site_label
 _atom_site_symmetry_multiplicity
 _atom_site_fract_x
 _atom_site_fract_y
 _atom_site_fract_z
 _atom_site_occupancy
 _atom_site_charge
  Y  Y1  1  0.706800  0.413600  0.750000  1.0  2.0885
  Y  Y2  1  0.292600  0.585200  0.750000  1.0  2.0532
  Y  Y3  1  0.293200  0.586400  0.250000  1.0  2.0887
  Y  Y4  1  0.707400  0.414800  0.250000  1.0  2.0535
  C  C5  1  0.593000  0.986000  0.747000  1.0  0.5549
  C  C6  1  0.083000  0.550000  0.497000  1.0  0.9849
  C  C7  1  0.407000  0.014000  0.247000  1.0  0.5548
  C  C8  1  0.917000  0.450000  0.997000  1.0  0.9844
  C  C9  1  0.393000  0.986000  0.753000  1.0  0.5545
  C  C10  1  0.467000  0.550000  0.003000  1.0  0.9846
  C  C11  1  0.607000  0.014000  0.253000  1.0  0.5554
  C  C12  1  0.533000  0.450000  0.503000  1.0  0.9853
  O  O13  1  0.740000  0.142000  0.754000  1.0  -0.6052
  O  O14  1  0.584500  0.837000  0.717000  1.0  -0.6238
  O  O15  1  0.990000  0.474000  0.613000  1.0  -0.8031
  O  O16  1  0.265100  0.629800  0.495000  1.0  -0.7637
  O  O17  1  0.993000  0.526000  0.377000  1.0  -0.817
  O  O18  1  0.260000  0.858000  0.254000  1.0  -0.6056
  O  O19  1  0.415500  0.163000  0.217000  1.0  -0.6234
  O  O20  1  0.010000  0.526000  0.113000  1.0  -0.8039
  O  O21  1  0.734900  0.370200  0.995000  1.0  -0.7634
  O  O22  1  0.007000  0.474000  0.877000  1.0  -0.8159
  O  O23  1  0.402000  0.142000  0.746000  1.0  -0.6025
  O  O24  1  0.252500  0.837000  0.783000  1.0  -0.6251
  O  O25  1  0.484000  0.474000  0.887000  1.0  -0.8044
  O  O26  1  0.364700  0.629800  0.005000  1.0  -0.7625
  O  O27  1  0.533000  0.526000  0.123000  1.0  -0.8158
  O  O28  1  0.598000  0.858000  0.246000  1.0  -0.6042
  O  O29  1  0.747500  0.163000  0.283000  1.0  -0.6227
  O  O30  1  0.516000  0.526000  0.387000  1.0  -0.8001
  O  O31  1  0.635300  0.370200  0.505000  1.0  -0.7641
  O  O32  1  0.467000  0.474000  0.623000  1.0  -0.8162
