# generated using pymatgen
data_MgH2(CO2)2
_symmetry_space_group_name_H-M   'P 1'
_cell_length_a   11.38050000
_cell_length_b   9.84060000
_cell_length_c   14.50570000
_cell_angle_alpha   90.00000000
_cell_angle_beta   91.42900000
_cell_angle_gamma   90.00000000
_symmetry_Int_Tables_number   1
_chemical_formula_structural   MgH2(CO2)2
_chemical_formula_sum   'Mg12 H24 C24 O48'
_cell_volume   1624.00186972
_cell_formula_units_Z   12
loop_
 _symmetry_equiv_pos_site_id
 _symmetry_equiv_pos_as_xyz
  1  'x, y, z'
loop_
 _atom_site_type_symbol
 _atom_site_label
 _atom_site_symmetry_multiplicity
 _atom_site_fract_x
 _atom_site_fract_y
 _atom_site_fract_z
 _atom_site_occupancy
 _atom_site_charge
  Mg  Mg1  1  0.256470  0.419050  0.634370  1.0  1.5201
  Mg  Mg2  1  0.239290  0.609220  0.810600  1.0  1.4974
  Mg  Mg3  1  0.243530  0.919050  0.865630  1.0  1.5203
  Mg  Mg4  1  0.260710  0.109220  0.689400  1.0  1.4972
  Mg  Mg5  1  0.743530  0.580950  0.365630  1.0  1.5203
  Mg  Mg6  1  0.760710  0.390780  0.189400  1.0  1.4975
  Mg  Mg7  1  0.756470  0.080950  0.134370  1.0  1.5201
  Mg  Mg8  1  0.739290  0.890780  0.310600  1.0  1.4975
  Mg  Mg9  1  0.000000  0.500000  0.500000  1.0  1.4957
  Mg  Mg10  1  0.500000  0.000000  0.000000  1.0  1.4957
  Mg  Mg11  1  0.500000  0.500000  0.500000  1.0  1.5063
  Mg  Mg12  1  0.000000  0.000000  0.000000  1.0  1.5063
  H  H13  1  0.979200  0.538700  0.763100  1.0  0.0073
  H  H14  1  0.060200  0.119300  0.543200  1.0  0.0032
  H  H15  1  0.496100  0.206000  0.518900  1.0  -0.0005
  H  H16  1  0.358900  0.258800  0.869000  1.0  -0.0067
  H  H17  1  0.199300  0.653400  0.429100  1.0  0.0006
  H  H18  1  0.473600  0.698500  0.727000  1.0  -0.0016
  H  H19  1  0.520800  0.038700  0.736900  1.0  0.0065
  H  H20  1  0.439800  0.619300  0.956800  1.0  0.0039
  H  H21  1  0.003900  0.706000  0.981100  1.0  0.0002
  H  H22  1  0.141100  0.758800  0.631000  1.0  -0.0067
  H  H23  1  0.300700  0.153400  0.070900  1.0  -1e-04
  H  H24  1  0.026400  0.198500  0.773000  1.0  -0.001
  H  H25  1  0.020800  0.461300  0.236900  1.0  0.0062
  H  H26  1  0.939800  0.880700  0.456800  1.0  0.0037
  H  H27  1  0.503900  0.794000  0.481100  1.0  -0.0005
  H  H28  1  0.641100  0.741200  0.131000  1.0  -0.0066
  H  H29  1  0.800700  0.346600  0.570900  1.0  0.0003
  H  H30  1  0.526400  0.301500  0.273000  1.0  -0.0017
  H  H31  1  0.479200  0.961300  0.263100  1.0  0.0074
  H  H32  1  0.560200  0.380700  0.043200  1.0  0.0034
  H  H33  1  0.996100  0.294000  0.018900  1.0  -0.0004
  H  H34  1  0.858900  0.241200  0.369000  1.0  -0.0068
  H  H35  1  0.699300  0.846600  0.929100  1.0  -0.0003
  H  H36  1  0.973600  0.801500  0.227000  1.0  -0.0012
  C  C37  1  0.020530  0.516460  0.710690  1.0  0.7131
  C  C38  1  0.076630  0.211140  0.551380  1.0  0.7324
  C  C39  1  0.433390  0.223550  0.557050  1.0  0.7408
  C  C40  1  0.328760  0.327430  0.831250  1.0  0.7299
  C  C41  1  0.241740  0.597880  0.469700  1.0  0.7559
  C  C42  1  0.448220  0.634350  0.683840  1.0  0.7369
  C  C43  1  0.479470  0.016460  0.789310  1.0  0.7173
  C  C44  1  0.423370  0.711140  0.948620  1.0  0.7333
  C  C45  1  0.066610  0.723550  0.942950  1.0  0.7428
  C  C46  1  0.171240  0.827430  0.668750  1.0  0.7303
  C  C47  1  0.258260  0.097880  0.030300  1.0  0.7572
  C  C48  1  0.051780  0.134350  0.816160  1.0  0.7371
  C  C49  1  0.979470  0.483540  0.289310  1.0  0.7165
  C  C50  1  0.923370  0.788860  0.448620  1.0  0.7338
  C  C51  1  0.566610  0.776450  0.442950  1.0  0.7415
  C  C52  1  0.671240  0.672570  0.168750  1.0  0.7288
  C  C53  1  0.758260  0.402120  0.530300  1.0  0.7576
  C  C54  1  0.551780  0.365650  0.316160  1.0  0.737
  C  C55  1  0.520530  0.983540  0.210690  1.0  0.7139
  C  C56  1  0.576630  0.288860  0.051380  1.0  0.7329
  C  C57  1  0.933390  0.276450  0.057050  1.0  0.7399
  C  C58  1  0.828760  0.172570  0.331250  1.0  0.7288
  C  C59  1  0.741740  0.902120  0.969700  1.0  0.7567
  C  C60  1  0.948220  0.865650  0.183840  1.0  0.7372
  O  O61  1  0.131090  0.503750  0.719820  1.0  -0.8002
  O  O62  1  0.963100  0.501720  0.637880  1.0  -0.6543
  O  O63  1  0.157220  0.241870  0.610460  1.0  -0.8307
  O  O64  1  0.018370  0.292290  0.503960  1.0  -0.6619
  O  O65  1  0.399860  0.347260  0.563330  1.0  -0.8248
  O  O66  1  0.390080  0.125110  0.597080  1.0  -0.6696
  O  O67  1  0.307480  0.297320  0.746870  1.0  -0.8199
  O  O68  1  0.312860  0.440120  0.867410  1.0  -0.6693
  O  O69  1  0.182770  0.523890  0.524660  1.0  -0.8435
  O  O70  1  0.349810  0.601950  0.465890  1.0  -0.6717
  O  O71  1  0.348290  0.579420  0.696610  1.0  -0.8291
  O  O72  1  0.514280  0.610490  0.619690  1.0  -0.6584
  O  O73  1  0.368910  0.003750  0.780180  1.0  -0.8014
  O  O74  1  0.536900  0.001720  0.862120  1.0  -0.6549
  O  O75  1  0.342780  0.741870  0.889540  1.0  -0.8308
  O  O76  1  0.481630  0.792290  0.996040  1.0  -0.6608
  O  O77  1  0.100140  0.847260  0.936670  1.0  -0.8254
  O  O78  1  0.109920  0.625110  0.902920  1.0  -0.6688
  O  O79  1  0.192520  0.797320  0.753130  1.0  -0.8194
  O  O80  1  0.187140  0.940120  0.632590  1.0  -0.6687
  O  O81  1  0.317230  0.023890  0.975340  1.0  -0.8433
  O  O82  1  0.150190  0.101950  0.034110  1.0  -0.6715
  O  O83  1  0.151710  0.079420  0.803390  1.0  -0.8296
  O  O84  1  0.985720  0.110490  0.880310  1.0  -0.657
  O  O85  1  0.868910  0.496250  0.280180  1.0  -0.8011
  O  O86  1  0.036900  0.498280  0.362120  1.0  -0.6546
  O  O87  1  0.842780  0.758130  0.389540  1.0  -0.831
  O  O88  1  0.981630  0.707710  0.496040  1.0  -0.6618
  O  O89  1  0.600140  0.652740  0.436670  1.0  -0.8257
  O  O90  1  0.609920  0.874890  0.402920  1.0  -0.6689
  O  O91  1  0.692520  0.702680  0.253130  1.0  -0.8195
  O  O92  1  0.687140  0.559880  0.132590  1.0  -0.6694
  O  O93  1  0.817230  0.476110  0.475340  1.0  -0.8433
  O  O94  1  0.650190  0.398050  0.534110  1.0  -0.6718
  O  O95  1  0.651710  0.420580  0.303390  1.0  -0.8298
  O  O96  1  0.485720  0.389510  0.380310  1.0  -0.657
  O  O97  1  0.631090  0.996250  0.219820  1.0  -0.8002
  O  O98  1  0.463100  0.998280  0.137880  1.0  -0.6548
  O  O99  1  0.657220  0.258130  0.110460  1.0  -0.8313
  O  O100  1  0.518370  0.207710  0.003960  1.0  -0.6627
  O  O101  1  0.899860  0.152740  0.063330  1.0  -0.8251
  O  O102  1  0.890080  0.374890  0.097080  1.0  -0.6688
  O  O103  1  0.807480  0.202680  0.246870  1.0  -0.8197
  O  O104  1  0.812860  0.059880  0.367410  1.0  -0.6698
  O  O105  1  0.682770  0.976110  0.024660  1.0  -0.8426
  O  O106  1  0.849810  0.898050  0.965890  1.0  -0.6728
  O  O107  1  0.848290  0.920580  0.196610  1.0  -0.8292
  O  O108  1  0.014280  0.889510  0.119690  1.0  -0.6584
