# generated using pymatgen
data_MgH2(CO2)2
_symmetry_space_group_name_H-M   'P 1'
_cell_length_a   9.83390000
_cell_length_b   11.27900000
_cell_length_c   14.76600000
_cell_angle_alpha   91.56500000
_cell_angle_beta   90.00000000
_cell_angle_gamma   90.00000000
_symmetry_Int_Tables_number   1
_chemical_formula_structural   MgH2(CO2)2
_chemical_formula_sum   'Mg12 H24 C24 O48'
_cell_volume   1637.18297504
_cell_formula_units_Z   12
loop_
 _symmetry_equiv_pos_site_id
 _symmetry_equiv_pos_as_xyz
  1  'x, y, z'
loop_
 _atom_site_type_symbol
 _atom_site_label
 _atom_site_symmetry_multiplicity
 _atom_site_fract_x
 _atom_site_fract_y
 _atom_site_fract_z
 _atom_site_occupancy
 _atom_site_charge
  Mg  Mg1  1  0.074980  0.756740  0.134930  1.0  1.5179
  Mg  Mg2  1  0.883050  0.739800  0.306020  1.0  1.492
  Mg  Mg3  1  0.574980  0.743260  0.365070  1.0  1.5184
  Mg  Mg4  1  0.383050  0.760200  0.193980  1.0  1.4919
  Mg  Mg5  1  0.925020  0.243260  0.865070  1.0  1.5184
  Mg  Mg6  1  0.116950  0.260200  0.693980  1.0  1.4921
  Mg  Mg7  1  0.425020  0.256740  0.634930  1.0  1.5179
  Mg  Mg8  1  0.616950  0.239800  0.806020  1.0  1.492
  Mg  Mg9  1  0.000000  0.500000  0.000000  1.0  1.4912
  Mg  Mg10  1  0.500000  0.000000  0.500000  1.0  1.4912
  Mg  Mg11  1  0.000000  0.000000  0.000000  1.0  1.5038
  Mg  Mg12  1  0.500000  0.500000  0.500000  1.0  1.5038
  H  H13  1  0.951500  0.475400  0.258600  1.0  0.0071
  H  H14  1  0.380600  0.559100  0.049000  1.0  0.004
  H  H15  1  0.292200  0.998700  0.023100  1.0  0.0032
  H  H16  1  0.233900  0.858100  0.369200  1.0  -0.0103
  H  H17  1  0.838300  0.695700  0.931900  1.0  0.0127
  H  H18  1  0.789300  0.976200  0.220900  1.0  -0.0021
  H  H19  1  0.451500  0.024600  0.241400  1.0  0.0073
  H  H20  1  0.880600  0.940900  0.451000  1.0  0.0041
  H  H21  1  0.792200  0.501300  0.476900  1.0  0.0034
  H  H22  1  0.733900  0.641900  0.130800  1.0  -0.0102
  H  H23  1  0.338300  0.804300  0.568100  1.0  0.0125
  H  H24  1  0.289300  0.523800  0.279100  1.0  -0.0025
  H  H25  1  0.048500  0.524600  0.741400  1.0  0.0071
  H  H26  1  0.619400  0.440900  0.951000  1.0  0.0053
  H  H27  1  0.707800  0.001300  0.976900  1.0  0.0036
  H  H28  1  0.766100  0.141900  0.630800  1.0  -0.0099
  H  H29  1  0.161700  0.304300  0.068100  1.0  0.0129
  H  H30  1  0.210700  0.023800  0.779100  1.0  -0.0024
  H  H31  1  0.548500  0.975400  0.758600  1.0  0.0069
  H  H32  1  0.119400  0.059100  0.549000  1.0  0.0055
  H  H33  1  0.207800  0.498700  0.523100  1.0  0.0033
  H  H34  1  0.266100  0.358100  0.869200  1.0  -0.0098
  H  H35  1  0.661700  0.195700  0.431900  1.0  0.0131
  H  H36  1  0.710700  0.476200  0.720900  1.0  -0.0022
  C  C37  1  0.976370  0.518350  0.206640  1.0  0.7357
  C  C38  1  0.286580  0.577340  0.054700  1.0  0.7279
  C  C39  1  0.272910  0.935290  0.062190  1.0  0.7288
  C  C40  1  0.164260  0.827230  0.330690  1.0  0.7337
  C  C41  1  0.897440  0.740770  0.970330  1.0  0.7423
  C  C42  1  0.856960  0.949250  0.179270  1.0  0.7366
  C  C43  1  0.476370  0.981650  0.293360  1.0  0.7363
  C  C44  1  0.786580  0.922660  0.445300  1.0  0.7275
  C  C45  1  0.772910  0.564710  0.437810  1.0  0.7299
  C  C46  1  0.664260  0.672770  0.169310  1.0  0.733
  C  C47  1  0.397440  0.759230  0.529670  1.0  0.7435
  C  C48  1  0.356960  0.550750  0.320730  1.0  0.7375
  C  C49  1  0.023630  0.481650  0.793360  1.0  0.7361
  C  C50  1  0.713420  0.422660  0.945300  1.0  0.7274
  C  C51  1  0.727090  0.064710  0.937810  1.0  0.7301
  C  C52  1  0.835740  0.172770  0.669310  1.0  0.7332
  C  C53  1  0.102560  0.259230  0.029670  1.0  0.7433
  C  C54  1  0.143040  0.050750  0.820730  1.0  0.7377
  C  C55  1  0.523630  0.018350  0.706640  1.0  0.7359
  C  C56  1  0.213420  0.077340  0.554700  1.0  0.7272
  C  C57  1  0.227090  0.435290  0.562190  1.0  0.7289
  C  C58  1  0.335740  0.327230  0.830690  1.0  0.7337
  C  C59  1  0.602560  0.240770  0.470330  1.0  0.7415
  C  C60  1  0.643040  0.449250  0.679270  1.0  0.7376
  O  O61  1  0.988340  0.630330  0.216680  1.0  -0.8246
  O  O62  1  0.994200  0.460620  0.135340  1.0  -0.6493
  O  O63  1  0.252890  0.657970  0.113220  1.0  -0.8172
  O  O64  1  0.206750  0.521320  0.005000  1.0  -0.6583
  O  O65  1  0.149450  0.900210  0.065900  1.0  -0.8234
  O  O66  1  0.369730  0.894110  0.104910  1.0  -0.6753
  O  O67  1  0.194700  0.808090  0.247680  1.0  -0.8191
  O  O68  1  0.051750  0.809110  0.365670  1.0  -0.6732
  O  O69  1  0.971670  0.683460  0.025650  1.0  -0.8288
  O  O70  1  0.896330  0.849580  0.962830  1.0  -0.6787
  O  O71  1  0.913860  0.849730  0.194760  1.0  -0.8172
  O  O72  1  0.882330  0.013290  0.114890  1.0  -0.6645
  O  O73  1  0.488340  0.869670  0.283320  1.0  -0.8254
  O  O74  1  0.494200  0.039380  0.364660  1.0  -0.6486
  O  O75  1  0.752890  0.842030  0.386780  1.0  -0.818
  O  O76  1  0.706750  0.978680  0.495000  1.0  -0.6581
  O  O77  1  0.649450  0.599790  0.434100  1.0  -0.8227
  O  O78  1  0.869730  0.605890  0.395090  1.0  -0.674
  O  O79  1  0.694700  0.691910  0.252320  1.0  -0.8189
  O  O80  1  0.551750  0.690890  0.134330  1.0  -0.6725
  O  O81  1  0.471670  0.816540  0.474350  1.0  -0.8293
  O  O82  1  0.396330  0.650420  0.537170  1.0  -0.6811
  O  O83  1  0.413860  0.650270  0.305240  1.0  -0.8161
  O  O84  1  0.382330  0.486710  0.385110  1.0  -0.6651
  O  O85  1  0.011660  0.369670  0.783320  1.0  -0.8251
  O  O86  1  0.005800  0.539380  0.864660  1.0  -0.6488
  O  O87  1  0.747110  0.342030  0.886780  1.0  -0.8187
  O  O88  1  0.793250  0.478680  0.995000  1.0  -0.6588
  O  O89  1  0.850550  0.099790  0.934100  1.0  -0.8213
  O  O90  1  0.630270  0.105890  0.895090  1.0  -0.6754
  O  O91  1  0.805300  0.191910  0.752320  1.0  -0.819
  O  O92  1  0.948250  0.190890  0.634330  1.0  -0.6717
  O  O93  1  0.028330  0.316540  0.974350  1.0  -0.829
  O  O94  1  0.103670  0.150420  0.037170  1.0  -0.6804
  O  O95  1  0.086140  0.150270  0.805240  1.0  -0.8166
  O  O96  1  0.117670  0.986710  0.885110  1.0  -0.6649
  O  O97  1  0.511660  0.130330  0.716680  1.0  -0.8245
  O  O98  1  0.505800  0.960620  0.635340  1.0  -0.6498
  O  O99  1  0.247110  0.157970  0.613220  1.0  -0.8181
  O  O100  1  0.293250  0.021320  0.505000  1.0  -0.6593
  O  O101  1  0.350550  0.400210  0.565900  1.0  -0.8218
  O  O102  1  0.130270  0.394110  0.604910  1.0  -0.6767
  O  O103  1  0.305300  0.308090  0.747680  1.0  -0.8191
  O  O104  1  0.448250  0.309110  0.865670  1.0  -0.6722
  O  O105  1  0.528330  0.183460  0.525650  1.0  -0.8287
  O  O106  1  0.603670  0.349580  0.462830  1.0  -0.6788
  O  O107  1  0.586140  0.349730  0.694760  1.0  -0.8172
  O  O108  1  0.617670  0.513290  0.614890  1.0  -0.6641
