# generated using pymatgen
data_MgH2(CO2)2
_symmetry_space_group_name_H-M   'P 1'
_cell_length_a   9.81840000
_cell_length_b   11.29620000
_cell_length_c   14.58470000
_cell_angle_alpha   91.66200000
_cell_angle_beta   90.00000000
_cell_angle_gamma   90.00000000
_symmetry_Int_Tables_number   1
_chemical_formula_structural   MgH2(CO2)2
_chemical_formula_sum   'Mg12 H24 C24 O48'
_cell_volume   1616.91747673
_cell_formula_units_Z   12
loop_
 _symmetry_equiv_pos_site_id
 _symmetry_equiv_pos_as_xyz
  1  'x, y, z'
loop_
 _atom_site_type_symbol
 _atom_site_label
 _atom_site_symmetry_multiplicity
 _atom_site_fract_x
 _atom_site_fract_y
 _atom_site_fract_z
 _atom_site_occupancy
 _atom_site_charge
  Mg  Mg1  1  0.579600  0.743550  0.364890  1.0  1.5173
  Mg  Mg2  1  0.388860  0.759830  0.190740  1.0  1.4949
  Mg  Mg3  1  0.079600  0.756450  0.135110  1.0  1.5171
  Mg  Mg4  1  0.888860  0.740170  0.309260  1.0  1.4951
  Mg  Mg5  1  0.420400  0.256450  0.635110  1.0  1.5169
  Mg  Mg6  1  0.611140  0.240170  0.809260  1.0  1.4953
  Mg  Mg7  1  0.920400  0.243550  0.864890  1.0  1.5171
  Mg  Mg8  1  0.111140  0.259830  0.690740  1.0  1.495
  Mg  Mg9  1  0.500000  0.000000  0.500000  1.0  1.4873
  Mg  Mg10  1  0.000000  0.500000  0.000000  1.0  1.4873
  Mg  Mg11  1  0.500000  0.500000  0.500000  1.0  1.5044
  Mg  Mg12  1  0.000000  0.000000  0.000000  1.0  1.5044
  H  H13  1  0.455000  0.023300  0.238100  1.0  0.0108
  H  H14  1  0.881200  0.946400  0.451100  1.0  0.0015
  H  H15  1  0.795100  0.505800  0.483000  1.0  0.0022
  H  H16  1  0.741000  0.639300  0.130700  1.0  -0.0076
  H  H17  1  0.342600  0.804700  0.570000  1.0  -0.001
  H  H18  1  0.299900  0.522400  0.272700  1.0  0.0015
  H  H19  1  0.955000  0.476700  0.261900  1.0  0.0111
  H  H20  1  0.381200  0.553600  0.048900  1.0  0.0016
  H  H21  1  0.295100  0.994200  0.017000  1.0  0.0022
  H  H22  1  0.241000  0.860700  0.369300  1.0  -0.0075
  H  H23  1  0.842600  0.695300  0.930000  1.0  -0.0012
  H  H24  1  0.799900  0.977600  0.227300  1.0  0.0015
  H  H25  1  0.545000  0.976700  0.761900  1.0  0.011
  H  H26  1  0.118800  0.053600  0.548900  1.0  0.001
  H  H27  1  0.204900  0.494200  0.517000  1.0  0.0023
  H  H28  1  0.259000  0.360700  0.869300  1.0  -0.0073
  H  H29  1  0.657400  0.195300  0.430000  1.0  -0.0015
  H  H30  1  0.700100  0.477600  0.727300  1.0  0.0013
  H  H31  1  0.045000  0.523300  0.738100  1.0  0.0106
  H  H32  1  0.618800  0.446400  0.951100  1.0  0.0011
  H  H33  1  0.704900  0.005800  0.983000  1.0  0.0023
  H  H34  1  0.759000  0.139300  0.630700  1.0  -0.0075
  H  H35  1  0.157400  0.304700  0.070000  1.0  -0.001
  H  H36  1  0.200100  0.022400  0.772700  1.0  0.0018
  C  C37  1  0.479500  0.980600  0.290800  1.0  0.7424
  C  C38  1  0.787400  0.926600  0.445450  1.0  0.734
  C  C39  1  0.776100  0.568700  0.443080  1.0  0.7516
  C  C40  1  0.670700  0.670300  0.169210  1.0  0.7358
  C  C41  1  0.400200  0.759300  0.530250  1.0  0.7482
  C  C42  1  0.364800  0.549900  0.316670  1.0  0.744
  C  C43  1  0.979500  0.519400  0.209200  1.0  0.7422
  C  C44  1  0.287400  0.573400  0.054550  1.0  0.7344
  C  C45  1  0.276100  0.931300  0.056920  1.0  0.7491
  C  C46  1  0.170700  0.829700  0.330790  1.0  0.7371
  C  C47  1  0.900200  0.740700  0.969750  1.0  0.7457
  C  C48  1  0.864800  0.950100  0.183330  1.0  0.7431
  C  C49  1  0.520500  0.019400  0.709200  1.0  0.7422
  C  C50  1  0.212600  0.073400  0.554550  1.0  0.7348
  C  C51  1  0.223900  0.431300  0.556920  1.0  0.7497
  C  C52  1  0.329300  0.329700  0.830790  1.0  0.7367
  C  C53  1  0.599800  0.240700  0.469750  1.0  0.7457
  C  C54  1  0.635200  0.450100  0.683330  1.0  0.7448
  C  C55  1  0.020500  0.480600  0.790800  1.0  0.7426
  C  C56  1  0.712600  0.426600  0.945450  1.0  0.7344
  C  C57  1  0.723900  0.068700  0.943080  1.0  0.7522
  C  C58  1  0.829300  0.170300  0.669210  1.0  0.7357
  C  C59  1  0.099800  0.259300  0.030250  1.0  0.7489
  C  C60  1  0.135200  0.049900  0.816670  1.0  0.7451
  O  O61  1  0.493660  0.869180  0.280800  1.0  -0.8144
  O  O62  1  0.494870  0.037840  0.363370  1.0  -0.674
  O  O63  1  0.756140  0.844070  0.387480  1.0  -0.8201
  O  O64  1  0.706920  0.982930  0.494660  1.0  -0.6594
  O  O65  1  0.652100  0.600750  0.436440  1.0  -0.8303
  O  O66  1  0.873860  0.611730  0.402640  1.0  -0.6811
  O  O67  1  0.700710  0.691840  0.252970  1.0  -0.8141
  O  O68  1  0.557770  0.686100  0.133570  1.0  -0.6836
  O  O69  1  0.474370  0.816060  0.474740  1.0  -0.8137
  O  O70  1  0.396750  0.650710  0.536940  1.0  -0.6818
  O  O71  1  0.418860  0.650310  0.303780  1.0  -0.8314
  O  O72  1  0.389260  0.484880  0.381330  1.0  -0.6676
  O  O73  1  0.993660  0.630820  0.219200  1.0  -0.8127
  O  O74  1  0.994870  0.462160  0.136630  1.0  -0.6749
  O  O75  1  0.256140  0.655930  0.112520  1.0  -0.821
  O  O76  1  0.206920  0.517070  0.005340  1.0  -0.6595
  O  O77  1  0.152100  0.899250  0.063560  1.0  -0.8303
  O  O78  1  0.373860  0.888270  0.097360  1.0  -0.683
  O  O79  1  0.200710  0.808160  0.247030  1.0  -0.8147
  O  O80  1  0.057770  0.813900  0.366430  1.0  -0.6835
  O  O81  1  0.974370  0.683940  0.025260  1.0  -0.8147
  O  O82  1  0.896750  0.849290  0.963060  1.0  -0.6785
  O  O83  1  0.918860  0.849690  0.196220  1.0  -0.8323
  O  O84  1  0.889260  0.015120  0.118670  1.0  -0.668
  O  O85  1  0.506340  0.130820  0.719200  1.0  -0.8124
  O  O86  1  0.505130  0.962160  0.636630  1.0  -0.674
  O  O87  1  0.243860  0.155930  0.612520  1.0  -0.821
  O  O88  1  0.293080  0.017070  0.505340  1.0  -0.6582
  O  O89  1  0.347900  0.399250  0.563560  1.0  -0.83
  O  O90  1  0.126140  0.388270  0.597360  1.0  -0.6832
  O  O91  1  0.299290  0.308160  0.747030  1.0  -0.8145
  O  O92  1  0.442230  0.313900  0.866430  1.0  -0.6823
  O  O93  1  0.525630  0.183940  0.525260  1.0  -0.8145
  O  O94  1  0.603250  0.349290  0.463060  1.0  -0.679
  O  O95  1  0.581140  0.349690  0.696220  1.0  -0.8319
  O  O96  1  0.610740  0.515120  0.618670  1.0  -0.6683
  O  O97  1  0.006340  0.369180  0.780800  1.0  -0.8139
  O  O98  1  0.005130  0.537840  0.863370  1.0  -0.6729
  O  O99  1  0.743860  0.344070  0.887480  1.0  -0.8201
  O  O100  1  0.793080  0.482930  0.994660  1.0  -0.6577
  O  O101  1  0.847900  0.100750  0.936440  1.0  -0.8304
  O  O102  1  0.626140  0.111730  0.902640  1.0  -0.6815
  O  O103  1  0.799290  0.191840  0.752970  1.0  -0.8141
  O  O104  1  0.942230  0.186100  0.633570  1.0  -0.6829
  O  O105  1  0.025630  0.316060  0.974740  1.0  -0.8132
  O  O106  1  0.103250  0.150710  0.036940  1.0  -0.6809
  O  O107  1  0.081140  0.150310  0.803780  1.0  -0.8314
  O  O108  1  0.110740  0.984880  0.881330  1.0  -0.6684
