# generated using pymatgen
data_MgH2(CO2)2
_symmetry_space_group_name_H-M   'P 1'
_cell_length_a   9.81790000
_cell_length_b   11.28880000
_cell_length_c   14.54650000
_cell_angle_alpha   91.62200000
_cell_angle_beta   90.00000000
_cell_angle_gamma   90.00000000
_symmetry_Int_Tables_number   1
_chemical_formula_structural   MgH2(CO2)2
_chemical_formula_sum   'Mg12 H24 C24 O48'
_cell_volume   1611.57620559
_cell_formula_units_Z   12
loop_
 _symmetry_equiv_pos_site_id
 _symmetry_equiv_pos_as_xyz
  1  'x, y, z'
loop_
 _atom_site_type_symbol
 _atom_site_label
 _atom_site_symmetry_multiplicity
 _atom_site_fract_x
 _atom_site_fract_y
 _atom_site_fract_z
 _atom_site_occupancy
 _atom_site_charge
  Mg  Mg1  1  0.581270  0.743890  0.365030  1.0  1.5176
  Mg  Mg2  1  0.391200  0.760390  0.189580  1.0  1.4946
  Mg  Mg3  1  0.081270  0.756110  0.134970  1.0  1.5175
  Mg  Mg4  1  0.891200  0.739610  0.310420  1.0  1.4946
  Mg  Mg5  1  0.418730  0.256110  0.634970  1.0  1.5174
  Mg  Mg6  1  0.608800  0.239610  0.810420  1.0  1.4945
  Mg  Mg7  1  0.918730  0.243890  0.865030  1.0  1.5175
  Mg  Mg8  1  0.108800  0.260390  0.689580  1.0  1.4944
  Mg  Mg9  1  0.500000  0.000000  0.500000  1.0  1.4889
  Mg  Mg10  1  0.000000  0.500000  0.000000  1.0  1.4889
  Mg  Mg11  1  0.500000  0.500000  0.500000  1.0  1.4993
  Mg  Mg12  1  0.000000  0.000000  0.000000  1.0  1.4993
  H  H13  1  0.463900  0.024500  0.236300  1.0  0.0094
  H  H14  1  0.882500  0.945400  0.454300  1.0  0.0026
  H  H15  1  0.796300  0.507600  0.486600  1.0  0.001
  H  H16  1  0.742100  0.632500  0.132500  1.0  -0.0079
  H  H17  1  0.340800  0.804100  0.569000  1.0  -0.0035
  H  H18  1  0.307400  0.520000  0.269000  1.0  -0.0056
  H  H19  1  0.963900  0.475500  0.263700  1.0  0.0094
  H  H20  1  0.382500  0.554600  0.045700  1.0  0.0031
  H  H21  1  0.296300  0.992400  0.013400  1.0  0.0011
  H  H22  1  0.242100  0.867500  0.367500  1.0  -0.008
  H  H23  1  0.840800  0.695900  0.931000  1.0  -0.0038
  H  H24  1  0.807400  0.980000  0.231000  1.0  -0.0045
  H  H25  1  0.536100  0.975500  0.763700  1.0  0.0096
  H  H26  1  0.117500  0.054600  0.545700  1.0  0.0027
  H  H27  1  0.203700  0.492400  0.513400  1.0  0.0013
  H  H28  1  0.257900  0.367500  0.867500  1.0  -0.0077
  H  H29  1  0.659200  0.195900  0.431000  1.0  -0.0039
  H  H30  1  0.692600  0.480000  0.731000  1.0  -0.0053
  H  H31  1  0.036100  0.524500  0.736300  1.0  0.0095
  H  H32  1  0.617500  0.445400  0.954300  1.0  0.0028
  H  H33  1  0.703700  0.007600  0.986600  1.0  0.0012
  H  H34  1  0.757900  0.132500  0.632500  1.0  -0.0079
  H  H35  1  0.159200  0.304100  0.069000  1.0  -0.0034
  H  H36  1  0.192600  0.020000  0.769000  1.0  -0.0046
  C  C37  1  0.485100  0.981300  0.289540  1.0  0.7356
  C  C38  1  0.788900  0.925800  0.447590  1.0  0.7366
  C  C39  1  0.777800  0.569500  0.445590  1.0  0.7482
  C  C40  1  0.672900  0.667200  0.170160  1.0  0.7509
  C  C41  1  0.398800  0.758700  0.529390  1.0  0.7527
  C  C42  1  0.369400  0.548600  0.314520  1.0  0.7381
  C  C43  1  0.985100  0.518700  0.210460  1.0  0.7368
  C  C44  1  0.288900  0.574200  0.052410  1.0  0.7365
  C  C45  1  0.277800  0.930500  0.054410  1.0  0.7461
  C  C46  1  0.172900  0.832800  0.329840  1.0  0.7517
  C  C47  1  0.898800  0.741300  0.970610  1.0  0.7504
  C  C48  1  0.869400  0.951400  0.185480  1.0  0.7372
  C  C49  1  0.514900  0.018700  0.710460  1.0  0.7365
  C  C50  1  0.211100  0.074200  0.552410  1.0  0.7372
  C  C51  1  0.222200  0.430500  0.554410  1.0  0.7468
  C  C52  1  0.327100  0.332800  0.829840  1.0  0.7517
  C  C53  1  0.601200  0.241300  0.470610  1.0  0.75
  C  C54  1  0.630600  0.451400  0.685480  1.0  0.738
  C  C55  1  0.014900  0.481300  0.789540  1.0  0.7356
  C  C56  1  0.711100  0.425800  0.947590  1.0  0.737
  C  C57  1  0.722200  0.069500  0.945590  1.0  0.7489
  C  C58  1  0.827100  0.167200  0.670160  1.0  0.7511
  C  C59  1  0.101200  0.258700  0.029390  1.0  0.753
  C  C60  1  0.130600  0.048600  0.814520  1.0  0.7381
  O  O61  1  0.496960  0.869670  0.279610  1.0  -0.8269
  O  O62  1  0.498900  0.038330  0.362430  1.0  -0.6726
  O  O63  1  0.758460  0.843920  0.388750  1.0  -0.8277
  O  O64  1  0.706900  0.981720  0.496470  1.0  -0.6642
  O  O65  1  0.653410  0.601220  0.437750  1.0  -0.8207
  O  O66  1  0.876340  0.611740  0.404920  1.0  -0.6807
  O  O67  1  0.703210  0.690430  0.253700  1.0  -0.8167
  O  O68  1  0.561110  0.685650  0.133270  1.0  -0.6787
  O  O69  1  0.474160  0.815790  0.474200  1.0  -0.8341
  O  O70  1  0.394700  0.650100  0.535930  1.0  -0.6671
  O  O71  1  0.420000  0.650510  0.303220  1.0  -0.8094
  O  O72  1  0.393100  0.482970  0.378950  1.0  -0.6656
  O  O73  1  0.996960  0.630330  0.220390  1.0  -0.8254
  O  O74  1  0.998900  0.461670  0.137570  1.0  -0.6735
  O  O75  1  0.258460  0.656080  0.111250  1.0  -0.8277
  O  O76  1  0.206900  0.518280  0.003530  1.0  -0.6644
  O  O77  1  0.153410  0.898780  0.062250  1.0  -0.8205
  O  O78  1  0.376340  0.888260  0.095080  1.0  -0.6831
  O  O79  1  0.203210  0.809570  0.246300  1.0  -0.8172
  O  O80  1  0.061110  0.814350  0.366730  1.0  -0.6793
  O  O81  1  0.974160  0.684210  0.025800  1.0  -0.8338
  O  O82  1  0.894700  0.849900  0.964070  1.0  -0.6653
  O  O83  1  0.920000  0.849490  0.196780  1.0  -0.8105
  O  O84  1  0.893100  0.017030  0.121050  1.0  -0.6659
  O  O85  1  0.503040  0.130330  0.720390  1.0  -0.8252
  O  O86  1  0.501100  0.961670  0.637570  1.0  -0.6737
  O  O87  1  0.241540  0.156080  0.611250  1.0  -0.8287
  O  O88  1  0.293100  0.018280  0.503530  1.0  -0.6639
  O  O89  1  0.346590  0.398780  0.562250  1.0  -0.8205
  O  O90  1  0.123660  0.388260  0.595080  1.0  -0.6831
  O  O91  1  0.296790  0.309570  0.746300  1.0  -0.8167
  O  O92  1  0.438890  0.314350  0.866730  1.0  -0.6769
  O  O93  1  0.525840  0.184210  0.525800  1.0  -0.8335
  O  O94  1  0.605300  0.349900  0.464070  1.0  -0.6656
  O  O95  1  0.580000  0.349490  0.696780  1.0  -0.81
  O  O96  1  0.606900  0.517030  0.621050  1.0  -0.6659
  O  O97  1  0.003040  0.369670  0.779610  1.0  -0.8267
  O  O98  1  0.001100  0.538330  0.862430  1.0  -0.6723
  O  O99  1  0.741540  0.343920  0.888750  1.0  -0.8292
  O  O100  1  0.793100  0.481720  0.996470  1.0  -0.6633
  O  O101  1  0.846590  0.101220  0.937750  1.0  -0.8208
  O  O102  1  0.623660  0.111740  0.904920  1.0  -0.6808
  O  O103  1  0.796790  0.190430  0.753700  1.0  -0.8164
  O  O104  1  0.938890  0.185650  0.633270  1.0  -0.6768
  O  O105  1  0.025840  0.315790  0.974200  1.0  -0.8335
  O  O106  1  0.105300  0.150100  0.035930  1.0  -0.667
  O  O107  1  0.080000  0.150510  0.803220  1.0  -0.8091
  O  O108  1  0.106900  0.982970  0.878950  1.0  -0.666
