# generated using pymatgen
data_MgH2(CO2)2
_symmetry_space_group_name_H-M   'P 1'
_cell_length_a   9.90470000
_cell_length_b   11.40070000
_cell_length_c   14.53570000
_cell_angle_alpha   91.31700000
_cell_angle_beta   90.00000000
_cell_angle_gamma   90.00000000
_symmetry_Int_Tables_number   1
_chemical_formula_structural   MgH2(CO2)2
_chemical_formula_sum   'Mg12 H24 C24 O48'
_cell_volume   1640.94510834
_cell_formula_units_Z   12
loop_
 _symmetry_equiv_pos_site_id
 _symmetry_equiv_pos_as_xyz
  1  'x, y, z'
loop_
 _atom_site_type_symbol
 _atom_site_label
 _atom_site_symmetry_multiplicity
 _atom_site_fract_x
 _atom_site_fract_y
 _atom_site_fract_z
 _atom_site_occupancy
 _atom_site_charge
  Mg  Mg1  1  0.579200  0.744720  0.365090  1.0  1.5204
  Mg  Mg2  1  0.387630  0.761270  0.190410  1.0  1.4954
  Mg  Mg3  1  0.079200  0.755280  0.134910  1.0  1.5205
  Mg  Mg4  1  0.887630  0.738730  0.309590  1.0  1.4957
  Mg  Mg5  1  0.420800  0.255280  0.634910  1.0  1.5207
  Mg  Mg6  1  0.612370  0.238730  0.809590  1.0  1.4953
  Mg  Mg7  1  0.920800  0.244720  0.865090  1.0  1.5205
  Mg  Mg8  1  0.112370  0.261270  0.690410  1.0  1.4959
  Mg  Mg9  1  0.500000  0.000000  0.500000  1.0  1.4947
  Mg  Mg10  1  0.000000  0.500000  0.000000  1.0  1.4947
  Mg  Mg11  1  0.500000  0.500000  0.500000  1.0  1.5054
  Mg  Mg12  1  0.000000  0.000000  0.000000  1.0  1.5054
  H  H13  1  0.463000  0.022400  0.237600  1.0  0.0022
  H  H14  1  0.877500  0.937700  0.458100  1.0  -0.0009
  H  H15  1  0.786900  0.494800  0.471500  1.0  -0.0011
  H  H16  1  0.739700  0.655400  0.127200  1.0  -0.0045
  H  H17  1  0.347800  0.802300  0.572300  1.0  -0.0008
  H  H18  1  0.291700  0.533500  0.278500  1.0  -0.001
  H  H19  1  0.963000  0.477600  0.262400  1.0  0.0021
  H  H20  1  0.377500  0.562300  0.041900  1.0  -0.0011
  H  H21  1  0.286900  0.005200  0.028500  1.0  -0.001
  H  H22  1  0.239700  0.844600  0.372800  1.0  -0.0049
  H  H23  1  0.847800  0.697700  0.927700  1.0  -0.0013
  H  H24  1  0.791700  0.966500  0.221500  1.0  -0.0011
  H  H25  1  0.537000  0.977600  0.762400  1.0  0.0022
  H  H26  1  0.122500  0.062300  0.541900  1.0  -0.0016
  H  H27  1  0.213100  0.505200  0.528500  1.0  -0.0011
  H  H28  1  0.260300  0.344600  0.872800  1.0  -0.0039
  H  H29  1  0.652200  0.197700  0.427700  1.0  -0.0018
  H  H30  1  0.708300  0.466500  0.721500  1.0  -0.0013
  H  H31  1  0.037000  0.522400  0.737600  1.0  0.002
  H  H32  1  0.622500  0.437700  0.958100  1.0  -0.0014
  H  H33  1  0.713100  0.994800  0.971500  1.0  -0.001
  H  H34  1  0.760300  0.155400  0.627200  1.0  -0.0034
  H  H35  1  0.152200  0.302300  0.072300  1.0  -0.0013
  H  H36  1  0.208300  0.033500  0.778500  1.0  -0.0009
  C  C37  1  0.482880  0.980740  0.290110  1.0  0.755
  C  C38  1  0.786490  0.920430  0.449980  1.0  0.7335
  C  C39  1  0.771260  0.560760  0.436520  1.0  0.7511
  C  C40  1  0.670570  0.680660  0.166170  1.0  0.7484
  C  C41  1  0.404100  0.759200  0.533050  1.0  0.7462
  C  C42  1  0.358960  0.557150  0.319540  1.0  0.7482
  C  C43  1  0.982880  0.519260  0.209890  1.0  0.7551
  C  C44  1  0.286490  0.579570  0.050020  1.0  0.7363
  C  C45  1  0.271260  0.939240  0.063480  1.0  0.7504
  C  C46  1  0.170570  0.819340  0.333830  1.0  0.7488
  C  C47  1  0.904100  0.740800  0.966950  1.0  0.7448
  C  C48  1  0.858960  0.942850  0.180460  1.0  0.7466
  C  C49  1  0.517120  0.019260  0.709890  1.0  0.7543
  C  C50  1  0.213510  0.079570  0.550020  1.0  0.7376
  C  C51  1  0.228740  0.439240  0.563480  1.0  0.7506
  C  C52  1  0.329430  0.319340  0.833830  1.0  0.7481
  C  C53  1  0.595900  0.240800  0.466950  1.0  0.7445
  C  C54  1  0.641040  0.442850  0.680460  1.0  0.7481
  C  C55  1  0.017120  0.480740  0.790110  1.0  0.7545
  C  C56  1  0.713510  0.420430  0.949980  1.0  0.7355
  C  C57  1  0.728740  0.060760  0.936520  1.0  0.7512
  C  C58  1  0.829430  0.180660  0.666170  1.0  0.7483
  C  C59  1  0.095900  0.259200  0.033050  1.0  0.7463
  C  C60  1  0.141040  0.057150  0.819540  1.0  0.7488
  O  O61  1  0.493250  0.869790  0.280840  1.0  -0.8292
  O  O62  1  0.496900  0.037900  0.362590  1.0  -0.6708
  O  O63  1  0.756520  0.840160  0.389990  1.0  -0.8321
  O  O64  1  0.705130  0.976530  0.497700  1.0  -0.6582
  O  O65  1  0.649810  0.597840  0.432710  1.0  -0.8211
  O  O66  1  0.870290  0.604320  0.398040  1.0  -0.6758
  O  O67  1  0.699720  0.696000  0.251210  1.0  -0.8163
  O  O68  1  0.558140  0.696480  0.131010  1.0  -0.6824
  O  O69  1  0.475240  0.816310  0.475500  1.0  -0.8244
  O  O70  1  0.404420  0.651660  0.540470  1.0  -0.6836
  O  O71  1  0.420250  0.652670  0.302800  1.0  -0.8317
  O  O72  1  0.380760  0.493300  0.385210  1.0  -0.6674
  O  O73  1  0.993250  0.630210  0.219160  1.0  -0.828
  O  O74  1  0.996900  0.462100  0.137410  1.0  -0.6717
  O  O75  1  0.256520  0.659840  0.110010  1.0  -0.8307
  O  O76  1  0.205130  0.523470  0.002300  1.0  -0.659
  O  O77  1  0.149810  0.902160  0.067290  1.0  -0.8214
  O  O78  1  0.370290  0.895680  0.101960  1.0  -0.6774
  O  O79  1  0.199720  0.804000  0.248790  1.0  -0.8174
  O  O80  1  0.058140  0.803520  0.368990  1.0  -0.6812
  O  O81  1  0.975240  0.683690  0.024500  1.0  -0.8253
  O  O82  1  0.904420  0.848340  0.959530  1.0  -0.6807
  O  O83  1  0.920250  0.847330  0.197200  1.0  -0.8314
  O  O84  1  0.880760  0.006700  0.114790  1.0  -0.667
  O  O85  1  0.506750  0.130210  0.719160  1.0  -0.8282
  O  O86  1  0.503100  0.962100  0.637410  1.0  -0.6725
  O  O87  1  0.243480  0.159840  0.610010  1.0  -0.8322
  O  O88  1  0.294870  0.023470  0.502300  1.0  -0.6599
  O  O89  1  0.350190  0.402160  0.567290  1.0  -0.8209
  O  O90  1  0.129710  0.395680  0.601960  1.0  -0.6777
  O  O91  1  0.300280  0.304000  0.748790  1.0  -0.8173
  O  O92  1  0.441860  0.303520  0.868990  1.0  -0.6798
  O  O93  1  0.524760  0.183690  0.524500  1.0  -0.8257
  O  O94  1  0.595580  0.348340  0.459530  1.0  -0.6806
  O  O95  1  0.579750  0.347330  0.697200  1.0  -0.8312
  O  O96  1  0.619240  0.506700  0.614790  1.0  -0.667
  O  O97  1  0.006750  0.369790  0.780840  1.0  -0.8293
  O  O98  1  0.003100  0.537900  0.862590  1.0  -0.6712
  O  O99  1  0.743480  0.340160  0.889990  1.0  -0.8317
  O  O100  1  0.794870  0.476530  0.997700  1.0  -0.6588
  O  O101  1  0.850190  0.097840  0.932710  1.0  -0.8209
  O  O102  1  0.629710  0.104320  0.898040  1.0  -0.6763
  O  O103  1  0.800280  0.196000  0.751210  1.0  -0.8164
  O  O104  1  0.941860  0.196480  0.631010  1.0  -0.6815
  O  O105  1  0.024760  0.316310  0.975500  1.0  -0.8244
  O  O106  1  0.095580  0.151660  0.040470  1.0  -0.6828
  O  O107  1  0.079750  0.152670  0.802800  1.0  -0.8317
  O  O108  1  0.119240  0.993300  0.885210  1.0  -0.6676
