# generated using pymatgen
data_MgH2(CO2)2
_symmetry_space_group_name_H-M   'P 1'
_cell_length_a   9.98310000
_cell_length_b   11.37620000
_cell_length_c   15.03580000
_cell_angle_alpha   91.20300000
_cell_angle_beta   90.00000000
_cell_angle_gamma   90.00000000
_symmetry_Int_Tables_number   1
_chemical_formula_structural   MgH2(CO2)2
_chemical_formula_sum   'Mg12 H24 C24 O48'
_cell_volume   1707.23554775
_cell_formula_units_Z   12
loop_
 _symmetry_equiv_pos_site_id
 _symmetry_equiv_pos_as_xyz
  1  'x, y, z'
loop_
 _atom_site_type_symbol
 _atom_site_label
 _atom_site_symmetry_multiplicity
 _atom_site_fract_x
 _atom_site_fract_y
 _atom_site_fract_z
 _atom_site_occupancy
 _atom_site_charge
  Mg  Mg1  1  0.570620  0.745030  0.364480  1.0  1.5199
  Mg  Mg2  1  0.373740  0.760020  0.198240  1.0  1.4972
  Mg  Mg3  1  0.070620  0.754970  0.135520  1.0  1.5201
  Mg  Mg4  1  0.873740  0.739980  0.301760  1.0  1.497
  Mg  Mg5  1  0.429380  0.254970  0.635520  1.0  1.52
  Mg  Mg6  1  0.626260  0.239980  0.801760  1.0  1.497
  Mg  Mg7  1  0.929380  0.245030  0.864480  1.0  1.5201
  Mg  Mg8  1  0.126260  0.260020  0.698240  1.0  1.4973
  Mg  Mg9  1  0.500000  0.000000  0.500000  1.0  1.494
  Mg  Mg10  1  0.000000  0.500000  0.000000  1.0  1.494
  Mg  Mg11  1  0.500000  0.500000  0.500000  1.0  1.508
  Mg  Mg12  1  0.000000  0.000000  0.000000  1.0  1.508
  H  H13  1  0.439200  0.023400  0.245500  1.0  0.0052
  H  H14  1  0.868500  0.959800  0.426200  1.0  0.0004
  H  H15  1  0.785200  0.499100  0.467600  1.0  0.0008
  H  H16  1  0.718500  0.643000  0.132000  1.0  0.002
  H  H17  1  0.368900  0.804400  0.579900  1.0  -0.0033
  H  H18  1  0.270900  0.537100  0.294100  1.0  -0.0066
  H  H19  1  0.939200  0.476600  0.254500  1.0  0.0051
  H  H20  1  0.368500  0.540200  0.073800  1.0  -0.0004
  H  H21  1  0.285200  0.000900  0.032400  1.0  0.0011
  H  H22  1  0.218500  0.857000  0.368000  1.0  0.0015
  H  H23  1  0.868900  0.695600  0.920100  1.0  -0.0027
  H  H24  1  0.770900  0.962900  0.205900  1.0  -0.0064
  H  H25  1  0.560800  0.976600  0.754500  1.0  0.0052
  H  H26  1  0.131500  0.040200  0.573800  1.0  -0.0004
  H  H27  1  0.214800  0.500900  0.532400  1.0  0.0011
  H  H28  1  0.281500  0.357000  0.868000  1.0  0.002
  H  H29  1  0.631100  0.195600  0.420100  1.0  -0.0024
  H  H30  1  0.729100  0.462900  0.705900  1.0  -0.0063
  H  H31  1  0.060800  0.523400  0.745500  1.0  0.005
  H  H32  1  0.631500  0.459800  0.926200  1.0  -0.0007
  H  H33  1  0.714800  0.999100  0.967600  1.0  0.0008
  H  H34  1  0.781500  0.143000  0.632000  1.0  0.0024
  H  H35  1  0.131100  0.304400  0.079900  1.0  -0.0031
  H  H36  1  0.229100  0.037100  0.794100  1.0  -0.0064
  C  C37  1  0.462380  0.979650  0.296440  1.0  0.7266
  C  C38  1  0.777900  0.934350  0.428300  1.0  0.7235
  C  C39  1  0.765400  0.564510  0.431630  1.0  0.7419
  C  C40  1  0.651590  0.672540  0.171490  1.0  0.723
  C  C41  1  0.416300  0.759060  0.536370  1.0  0.7388
  C  C42  1  0.344550  0.559900  0.330540  1.0  0.7299
  C  C43  1  0.962380  0.520350  0.203560  1.0  0.7268
  C  C44  1  0.277900  0.565650  0.071700  1.0  0.7242
  C  C45  1  0.265400  0.935490  0.068370  1.0  0.7414
  C  C46  1  0.151590  0.827460  0.328510  1.0  0.7231
  C  C47  1  0.916300  0.740940  0.963630  1.0  0.7377
  C  C48  1  0.844550  0.940100  0.169460  1.0  0.7281
  C  C49  1  0.537620  0.020350  0.703560  1.0  0.7271
  C  C50  1  0.222100  0.065650  0.571700  1.0  0.7272
  C  C51  1  0.234600  0.435490  0.568370  1.0  0.7428
  C  C52  1  0.348410  0.327460  0.828510  1.0  0.7229
  C  C53  1  0.583700  0.240940  0.463630  1.0  0.7371
  C  C54  1  0.655450  0.440100  0.669460  1.0  0.7281
  C  C55  1  0.037620  0.479650  0.796440  1.0  0.728
  C  C56  1  0.722100  0.434350  0.928300  1.0  0.7267
  C  C57  1  0.734600  0.064510  0.931630  1.0  0.7428
  C  C58  1  0.848410  0.172540  0.671490  1.0  0.7232
  C  C59  1  0.083700  0.259060  0.036370  1.0  0.7388
  C  C60  1  0.155450  0.059900  0.830540  1.0  0.729
  O  O61  1  0.479510  0.868970  0.285170  1.0  -0.818
  O  O62  1  0.473290  0.034500  0.367550  1.0  -0.6582
  O  O63  1  0.746090  0.845760  0.378840  1.0  -0.8205
  O  O64  1  0.702010  0.989670  0.478300  1.0  -0.6657
  O  O65  1  0.643590  0.599050  0.429950  1.0  -0.802
  O  O66  1  0.860020  0.608430  0.390630  1.0  -0.6738
  O  O67  1  0.685900  0.692590  0.251930  1.0  -0.8102
  O  O68  1  0.538130  0.688350  0.140280  1.0  -0.6692
  O  O69  1  0.480390  0.815730  0.477200  1.0  -0.8134
  O  O70  1  0.410240  0.651030  0.542230  1.0  -0.6836
  O  O71  1  0.406080  0.653800  0.310000  1.0  -0.8227
  O  O72  1  0.371670  0.495840  0.393300  1.0  -0.6644
  O  O73  1  0.979510  0.631030  0.214830  1.0  -0.8164
  O  O74  1  0.973290  0.465500  0.132450  1.0  -0.6585
  O  O75  1  0.246090  0.654240  0.121160  1.0  -0.8208
  O  O76  1  0.202010  0.510330  0.021700  1.0  -0.6663
  O  O77  1  0.143590  0.900950  0.070050  1.0  -0.8028
  O  O78  1  0.360020  0.891570  0.109370  1.0  -0.6746
  O  O79  1  0.185900  0.807410  0.248070  1.0  -0.8101
  O  O80  1  0.038130  0.811650  0.359720  1.0  -0.6694
  O  O81  1  0.980390  0.684270  0.022800  1.0  -0.8136
  O  O82  1  0.910240  0.848970  0.957770  1.0  -0.6818
  O  O83  1  0.906080  0.846200  0.190000  1.0  -0.8228
  O  O84  1  0.871670  0.004160  0.106700  1.0  -0.6652
  O  O85  1  0.520490  0.131030  0.714830  1.0  -0.8168
  O  O86  1  0.526710  0.965500  0.632450  1.0  -0.6587
  O  O87  1  0.253910  0.154240  0.621160  1.0  -0.8209
  O  O88  1  0.297990  0.010330  0.521700  1.0  -0.6671
  O  O89  1  0.356410  0.400950  0.570050  1.0  -0.8016
  O  O90  1  0.139980  0.391570  0.609370  1.0  -0.6763
  O  O91  1  0.314100  0.307410  0.748070  1.0  -0.8098
  O  O92  1  0.461870  0.311650  0.859720  1.0  -0.6676
  O  O93  1  0.519610  0.184270  0.522800  1.0  -0.8127
  O  O94  1  0.589760  0.348970  0.457770  1.0  -0.682
  O  O95  1  0.593920  0.346200  0.690000  1.0  -0.8236
  O  O96  1  0.628330  0.504160  0.606700  1.0  -0.6648
  O  O97  1  0.020490  0.368970  0.785170  1.0  -0.818
  O  O98  1  0.026710  0.534500  0.867550  1.0  -0.6573
  O  O99  1  0.753910  0.345760  0.878840  1.0  -0.8204
  O  O100  1  0.797990  0.489670  0.978300  1.0  -0.6658
  O  O101  1  0.856410  0.099050  0.929950  1.0  -0.8007
  O  O102  1  0.639980  0.108430  0.890630  1.0  -0.6752
  O  O103  1  0.814100  0.192590  0.751930  1.0  -0.8101
  O  O104  1  0.961870  0.188350  0.640280  1.0  -0.6682
  O  O105  1  0.019610  0.315730  0.977200  1.0  -0.8123
  O  O106  1  0.089760  0.151030  0.042230  1.0  -0.6828
  O  O107  1  0.093920  0.153800  0.810000  1.0  -0.8236
  O  O108  1  0.128330  0.995840  0.893300  1.0  -0.6644
