# generated using pymatgen
data_Cd2H5C10N5O6
_symmetry_space_group_name_H-M   'P 1'
_cell_length_a   6.80400000
_cell_length_b   10.34700000
_cell_length_c   11.49800000
_cell_angle_alpha   68.14500000
_cell_angle_beta   77.49200000
_cell_angle_gamma   73.83700000
_symmetry_Int_Tables_number   1
_chemical_formula_structural   Cd2H5C10N5O6
_chemical_formula_sum   'Cd4 H10 C20 N10 O12'
_cell_volume   715.78145372
_cell_formula_units_Z   2
loop_
 _symmetry_equiv_pos_site_id
 _symmetry_equiv_pos_as_xyz
  1  'x, y, z'
loop_
 _atom_site_type_symbol
 _atom_site_label
 _atom_site_symmetry_multiplicity
 _atom_site_fract_x
 _atom_site_fract_y
 _atom_site_fract_z
 _atom_site_occupancy
 _atom_site_charge
  Cd  Cd1  1  0.890000  0.577190  0.629640  1.0  1.0434
  Cd  Cd2  1  0.637990  0.321230  0.922370  1.0  1.1162
  Cd  Cd3  1  0.110000  0.422810  0.370360  1.0  1.044
  Cd  Cd4  1  0.362010  0.678770  0.077630  1.0  1.119
  H  H5  1  0.329100  0.945000  0.672700  1.0  0.1062
  H  H6  1  0.198800  0.956100  0.343500  1.0  0.1036
  H  H7  1  0.403600  0.580000  0.604100  1.0  0.0972
  H  H8  1  0.192000  0.195000  0.144000  1.0  0.3521
  H  H9  1  0.987000  0.206000  0.140000  1.0  0.3543
  H  H10  1  0.670900  0.055000  0.327300  1.0  0.1082
  H  H11  1  0.801200  0.043900  0.656500  1.0  0.1028
  H  H12  1  0.596400  0.420000  0.395900  1.0  0.0977
  H  H13  1  0.808000  0.805000  0.856000  1.0  0.3502
  H  H14  1  0.013000  0.794000  0.860000  1.0  0.3559
  C  C15  1  0.375400  0.749900  0.657200  1.0  -0.1373
  C  C16  1  0.321100  0.898200  0.619300  1.0  0.0125
  C  C17  1  0.255000  0.976400  0.501400  1.0  -0.1472
  C  C18  1  0.240500  0.904600  0.423000  1.0  0.0191
  C  C19  1  0.288400  0.756200  0.463800  1.0  -0.1438
  C  C20  1  0.362700  0.678900  0.579400  1.0  -0.0303
  C  C21  1  0.455000  0.667700  0.783300  1.0  0.7114
  C  C22  1  0.201200  0.136800  0.456000  1.0  0.6245
  C  C23  1  0.248900  0.677900  0.387000  1.0  0.7223
  C  C24  1  0.123000  0.290200  0.981200  1.0  0.6172
  C  C25  1  0.624600  0.250100  0.342800  1.0  -0.1421
  C  C26  1  0.678900  0.101800  0.380700  1.0  0.0123
  C  C27  1  0.745000  0.023600  0.498600  1.0  -0.1471
  C  C28  1  0.759500  0.095400  0.577000  1.0  0.0218
  C  C29  1  0.711600  0.243800  0.536200  1.0  -0.1453
  C  C30  1  0.637300  0.321100  0.420600  1.0  -0.0324
  C  C31  1  0.545000  0.332300  0.216700  1.0  0.7122
  C  C32  1  0.798800  0.863200  0.544000  1.0  0.6248
  C  C33  1  0.751100  0.322100  0.613000  1.0  0.719
  C  C34  1  0.877000  0.709800  0.018800  1.0  0.6179
  N  N35  1  0.973700  0.343400  0.906000  1.0  -0.3918
  N  N36  1  0.056200  0.429300  0.798600  1.0  -0.0225
  N  N37  1  0.243900  0.431100  0.806200  1.0  -0.0625
  N  N38  1  0.294400  0.342000  0.921300  1.0  -0.4048
  N  N39  1  0.108800  0.190700  0.099400  1.0  -0.739
  N  N40  1  0.026300  0.656600  0.094000  1.0  -0.3958
  N  N41  1  0.943800  0.570700  0.201400  1.0  -0.0262
  N  N42  1  0.756100  0.568900  0.193800  1.0  -0.0524
  N  N43  1  0.705600  0.658000  0.078700  1.0  -0.3908
  N  N44  1  0.891200  0.809300  0.900600  1.0  -0.7382
  O  O45  1  0.601900  0.557600  0.791000  1.0  -0.7003
  O  O46  1  0.365700  0.711500  0.872700  1.0  -0.6287
  O  O47  1  0.203200  0.200800  0.530200  1.0  -0.5845
  O  O48  1  0.159000  0.203300  0.346500  1.0  -0.602
  O  O49  1  0.287300  0.722500  0.271600  1.0  -0.6447
  O  O50  1  0.179400  0.565000  0.453200  1.0  -0.6542
  O  O51  1  0.398100  0.442400  0.209000  1.0  -0.6991
  O  O52  1  0.634300  0.288500  0.127300  1.0  -0.6281
  O  O53  1  0.796800  0.799200  0.469800  1.0  -0.5783
  O  O54  1  0.841000  0.796700  0.653500  1.0  -0.6025
  O  O55  1  0.712700  0.277500  0.728400  1.0  -0.6435
  O  O56  1  0.820600  0.435000  0.546800  1.0  -0.6507
