# generated using pymatgen
data_DyH9(C2O)6
_symmetry_space_group_name_H-M   'P 1'
_cell_length_a   7.64800000
_cell_length_b   9.67600000
_cell_length_c   10.56200000
_cell_angle_alpha   106.67200000
_cell_angle_beta   105.28300000
_cell_angle_gamma   100.70600000
_symmetry_Int_Tables_number   1
_chemical_formula_structural   DyH9(C2O)6
_chemical_formula_sum   'Dy2 H18 C24 O12'
_cell_volume   692.77612930
_cell_formula_units_Z   2
loop_
 _symmetry_equiv_pos_site_id
 _symmetry_equiv_pos_as_xyz
  1  'x, y, z'
loop_
 _atom_site_type_symbol
 _atom_site_label
 _atom_site_symmetry_multiplicity
 _atom_site_fract_x
 _atom_site_fract_y
 _atom_site_fract_z
 _atom_site_occupancy
 _atom_site_charge
  Dy  Dy1  1  0.753320  0.967920  0.548330  1.0  2.3232
  Dy  Dy2  1  0.246680  0.032080  0.451670  1.0  2.3245
  H  H3  1  0.185700  0.507400  0.036300  1.0  0.1102
  H  H4  1  0.463300  0.197600  0.953100  1.0  0.1099
  H  H5  1  0.450500  0.376900  0.344800  1.0  0.1047
  H  H6  1  0.151800  0.603300  0.259600  1.0  0.1359
  H  H7  1  0.220100  0.530300  0.375400  1.0  0.1404
  H  H8  1  0.238500  0.429500  0.811300  1.0  0.1313
  H  H9  1  0.366800  0.318200  0.786500  1.0  0.1331
  H  H10  1  0.633600  0.124800  0.123400  1.0  0.153
  H  H11  1  0.736400  0.264600  0.266600  1.0  0.1461
  H  H12  1  0.814300  0.492600  0.963700  1.0  0.1097
  H  H13  1  0.536700  0.802400  0.046900  1.0  0.1102
  H  H14  1  0.549500  0.623100  0.655200  1.0  0.1068
  H  H15  1  0.848200  0.396700  0.740400  1.0  0.1358
  H  H16  1  0.779900  0.469700  0.624600  1.0  0.1409
  H  H17  1  0.761500  0.570500  0.188700  1.0  0.1323
  H  H18  1  0.633200  0.681800  0.213500  1.0  0.1321
  H  H19  1  0.366400  0.875200  0.876600  1.0  0.1533
  H  H20  1  0.263600  0.735400  0.733400  1.0  0.1475
  C  C21  1  0.308500  0.458600  0.205900  1.0  0.1329
  C  C22  1  0.259300  0.446500  0.066600  1.0  -0.2373
  C  C23  1  0.313100  0.349200  0.969700  1.0  0.1551
  C  C24  1  0.423600  0.264300  0.017600  1.0  -0.2322
  C  C25  1  0.478500  0.273100  0.156700  1.0  0.1591
  C  C26  1  0.417100  0.370700  0.249700  1.0  -0.2147
  C  C27  1  0.259600  0.574700  0.310200  1.0  -0.3795
  C  C28  1  0.426500  0.715000  0.394400  1.0  0.8004
  C  C29  1  0.260100  0.334300  0.819700  1.0  -0.384
  C  C30  1  0.084000  0.205600  0.725600  1.0  0.7786
  C  C31  1  0.613400  0.189800  0.206400  1.0  -0.4025
  C  C32  1  0.557100  0.092400  0.287500  1.0  0.8034
  C  C33  1  0.691500  0.541400  0.794100  1.0  0.132
  C  C34  1  0.740700  0.553500  0.933400  1.0  -0.2338
  C  C35  1  0.686900  0.650800  0.030300  1.0  0.1553
  C  C36  1  0.576400  0.735700  0.982400  1.0  -0.2372
  C  C37  1  0.521500  0.726900  0.843300  1.0  0.1588
  C  C38  1  0.582900  0.629300  0.750300  1.0  -0.2134
  C  C39  1  0.740400  0.425300  0.689800  1.0  -0.3788
  C  C40  1  0.573500  0.285000  0.605600  1.0  0.7999
  C  C41  1  0.739900  0.665700  0.180300  1.0  -0.3851
  C  C42  1  0.916000  0.794400  0.274400  1.0  0.7788
  C  C43  1  0.386600  0.810200  0.793600  1.0  -0.4045
  C  C44  1  0.442900  0.907600  0.712500  1.0  0.8014
  O  O45  1  0.401500  0.844400  0.416100  1.0  -0.8166
  O  O46  1  0.588000  0.702900  0.441700  1.0  -0.6772
  O  O47  1  0.065600  0.138400  0.596400  1.0  -0.8729
  O  O48  1  0.957400  0.168100  0.772300  1.0  -0.6465
  O  O49  1  0.392300  0.068300  0.290600  1.0  -0.7005
  O  O50  1  0.685000  0.039900  0.344900  1.0  -0.7586
  O  O51  1  0.598500  0.155600  0.583900  1.0  -0.8124
  O  O52  1  0.412000  0.297100  0.558300  1.0  -0.6792
  O  O53  1  0.934400  0.861600  0.403600  1.0  -0.8733
  O  O54  1  0.042600  0.831900  0.227700  1.0  -0.6444
  O  O55  1  0.607700  0.931700  0.709400  1.0  -0.6938
  O  O56  1  0.315000  0.960100  0.655100  1.0  -0.7583
