# generated using pymatgen
data_GdH9(C2O)6
_symmetry_space_group_name_H-M   'P 1'
_cell_length_a   7.70700000
_cell_length_b   9.68600000
_cell_length_c   10.57000000
_cell_angle_alpha   106.65000000
_cell_angle_beta   105.25200000
_cell_angle_gamma   100.68900000
_symmetry_Int_Tables_number   1
_chemical_formula_structural   GdH9(C2O)6
_chemical_formula_sum   'Gd2 H18 C24 O12'
_cell_volume   699.69600847
_cell_formula_units_Z   2
loop_
 _symmetry_equiv_pos_site_id
 _symmetry_equiv_pos_as_xyz
  1  'x, y, z'
loop_
 _atom_site_type_symbol
 _atom_site_label
 _atom_site_symmetry_multiplicity
 _atom_site_fract_x
 _atom_site_fract_y
 _atom_site_fract_z
 _atom_site_occupancy
 _atom_site_charge
  Gd  Gd1  1  0.753270  0.968170  0.549170  1.0  2.2383
  Gd  Gd2  1  0.246730  0.031830  0.450830  1.0  2.2385
  H  H3  1  0.187100  0.508800  0.035900  1.0  0.1082
  H  H4  1  0.465300  0.197800  0.950400  1.0  0.1189
  H  H5  1  0.452200  0.376200  0.344400  1.0  0.1109
  H  H6  1  0.154700  0.601100  0.261700  1.0  0.1368
  H  H7  1  0.224600  0.527200  0.376100  1.0  0.1418
  H  H8  1  0.362700  0.319400  0.784000  1.0  0.1377
  H  H9  1  0.235300  0.430000  0.810400  1.0  0.1379
  H  H10  1  0.635100  0.125200  0.121900  1.0  0.1561
  H  H11  1  0.735400  0.265300  0.265000  1.0  0.149
  H  H12  1  0.812900  0.491200  0.964100  1.0  0.1072
  H  H13  1  0.534700  0.802200  0.049600  1.0  0.1188
  H  H14  1  0.547800  0.623800  0.655600  1.0  0.1119
  H  H15  1  0.845300  0.398900  0.738300  1.0  0.1365
  H  H16  1  0.775400  0.472800  0.623900  1.0  0.1426
  H  H17  1  0.637300  0.680600  0.216000  1.0  0.1367
  H  H18  1  0.764700  0.570000  0.189600  1.0  0.1386
  H  H19  1  0.364900  0.874800  0.878100  1.0  0.1562
  H  H20  1  0.264600  0.734700  0.735000  1.0  0.1505
  C  C21  1  0.310000  0.458900  0.206400  1.0  0.1262
  C  C22  1  0.259900  0.447800  0.066100  1.0  -0.2283
  C  C23  1  0.313700  0.350100  0.969900  1.0  0.1553
  C  C24  1  0.425200  0.263300  0.015200  1.0  -0.2322
  C  C25  1  0.477800  0.272000  0.154200  1.0  0.1501
  C  C26  1  0.418000  0.370500  0.249500  1.0  -0.2041
  C  C27  1  0.262500  0.572500  0.311200  1.0  -0.376
  C  C28  1  0.427100  0.712700  0.395200  1.0  0.8029
  C  C29  1  0.257500  0.334900  0.818300  1.0  -0.3891
  C  C30  1  0.086700  0.209300  0.726500  1.0  0.7827
  C  C31  1  0.614100  0.190100  0.204400  1.0  -0.3849
  C  C32  1  0.555600  0.092500  0.286000  1.0  0.7747
  C  C33  1  0.690000  0.541100  0.793600  1.0  0.1244
  C  C34  1  0.740100  0.552200  0.933900  1.0  -0.2222
  C  C35  1  0.686300  0.649900  0.030100  1.0  0.1503
  C  C36  1  0.574800  0.736700  0.984800  1.0  -0.2367
  C  C37  1  0.522200  0.728000  0.845800  1.0  0.1491
  C  C38  1  0.582000  0.629500  0.750500  1.0  -0.2035
  C  C39  1  0.737500  0.427500  0.688800  1.0  -0.3755
  C  C40  1  0.572900  0.287300  0.604800  1.0  0.8029
  C  C41  1  0.742500  0.665100  0.181700  1.0  -0.3909
  C  C42  1  0.913300  0.790700  0.273500  1.0  0.7794
  C  C43  1  0.385900  0.809900  0.795600  1.0  -0.3887
  C  C44  1  0.444400  0.907500  0.714000  1.0  0.7756
  O  O45  1  0.403300  0.843000  0.415800  1.0  -0.8281
  O  O46  1  0.588100  0.701200  0.444300  1.0  -0.6707
  O  O47  1  0.066700  0.139400  0.596700  1.0  -0.8566
  O  O48  1  0.958100  0.171300  0.772600  1.0  -0.6495
  O  O49  1  0.394400  0.066700  0.289000  1.0  -0.6668
  O  O50  1  0.685400  0.040300  0.342800  1.0  -0.7388
  O  O51  1  0.596700  0.157000  0.584200  1.0  -0.8283
  O  O52  1  0.411900  0.298800  0.555700  1.0  -0.6716
  O  O53  1  0.933300  0.860600  0.403300  1.0  -0.8574
  O  O54  1  0.041900  0.828700  0.227400  1.0  -0.6492
  O  O55  1  0.605600  0.933300  0.711000  1.0  -0.6587
  O  O56  1  0.314600  0.959700  0.657200  1.0  -0.739
