# generated using pymatgen
data_AlCuH16C28(NO)4
_symmetry_space_group_name_H-M   'P 1'
_cell_length_a   12.44860000
_cell_length_b   15.03600000
_cell_length_c   16.59610000
_cell_angle_alpha   90.00000000
_cell_angle_beta   92.07400000
_cell_angle_gamma   90.00000000
_symmetry_Int_Tables_number   1
_chemical_formula_structural   AlCuH16C28(NO)4
_chemical_formula_sum   'Al4 Cu4 H64 C112 N16 O16'
_cell_volume   3104.37574271
_cell_formula_units_Z   4
loop_
 _symmetry_equiv_pos_site_id
 _symmetry_equiv_pos_as_xyz
  1  'x, y, z'
loop_
 _atom_site_type_symbol
 _atom_site_label
 _atom_site_symmetry_multiplicity
 _atom_site_fract_x
 _atom_site_fract_y
 _atom_site_fract_z
 _atom_site_occupancy
 _atom_site_charge
  Al  Al1  1  0.518230  0.516790  0.253770  1.0  1.7707
  Al  Al2  1  0.518230  0.983210  0.753770  1.0  1.7701
  Al  Al3  1  0.481770  0.016790  0.246230  1.0  1.7713
  Al  Al4  1  0.481770  0.483210  0.746230  1.0  1.7706
  Cu  Cu5  1  0.977410  0.478630  0.768510  1.0  0.6185
  Cu  Cu6  1  0.977410  0.021370  0.268510  1.0  0.6181
  Cu  Cu7  1  0.022590  0.978630  0.731490  1.0  0.6192
  Cu  Cu8  1  0.022590  0.521370  0.231490  1.0  0.6188
  H  H9  1  0.562700  0.478900  0.441200  1.0  0.1208
  H  H10  1  0.658700  0.460400  0.561800  1.0  0.1054
  H  H11  1  0.920100  0.571600  0.465100  1.0  0.1107
  H  H12  1  0.823400  0.590600  0.344200  1.0  0.1174
  H  H13  1  0.301900  0.430400  0.195300  1.0  0.1168
  H  H14  1  0.164300  0.326600  0.183200  1.0  0.1124
  H  H15  1  0.257500  0.223200  0.400400  1.0  0.1121
  H  H16  1  0.392400  0.329400  0.413100  1.0  0.1279
  H  H17  1  0.280000  0.590500  0.292700  1.0  0.1124
  H  H18  1  0.147700  0.695800  0.312400  1.0  0.1086
  H  H19  1  0.310700  0.871900  0.180500  1.0  0.0904
  H  H20  1  0.444500  0.767700  0.162300  1.0  0.1214
  H  H21  1  0.859400  0.541900  0.070000  1.0  0.103
  H  H22  1  0.740000  0.532500  0.173700  1.0  0.1252
  H  H23  1  0.645500  0.414100  0.921100  1.0  0.1038
  H  H24  1  0.527200  0.403500  0.025100  1.0  0.1364
  H  H25  1  0.562700  0.021100  0.941200  1.0  0.1209
  H  H26  1  0.658700  0.039600  0.061800  1.0  0.1051
  H  H27  1  0.920100  0.928400  0.965100  1.0  0.1104
  H  H28  1  0.823400  0.909400  0.844200  1.0  0.1174
  H  H29  1  0.301900  0.069600  0.695300  1.0  0.1168
  H  H30  1  0.164300  0.173400  0.683200  1.0  0.1127
  H  H31  1  0.257500  0.276800  0.900400  1.0  0.1116
  H  H32  1  0.392400  0.170600  0.913100  1.0  0.1276
  H  H33  1  0.280000  0.909500  0.792700  1.0  0.1126
  H  H34  1  0.147700  0.804200  0.812400  1.0  0.1088
  H  H35  1  0.310700  0.628100  0.680500  1.0  0.09
  H  H36  1  0.444500  0.732300  0.662300  1.0  0.1215
  H  H37  1  0.859400  0.958100  0.570000  1.0  0.1028
  H  H38  1  0.740000  0.967500  0.673700  1.0  0.1255
  H  H39  1  0.645500  0.085900  0.421100  1.0  0.1041
  H  H40  1  0.527200  0.096500  0.525100  1.0  0.1371
  H  H41  1  0.437300  0.978900  0.058800  1.0  0.1218
  H  H42  1  0.341300  0.960400  0.938200  1.0  0.105
  H  H43  1  0.079900  0.071600  0.034900  1.0  0.1117
  H  H44  1  0.176600  0.090600  0.155800  1.0  0.1162
  H  H45  1  0.698100  0.930400  0.304700  1.0  0.117
  H  H46  1  0.835700  0.826600  0.316800  1.0  0.1114
  H  H47  1  0.742500  0.723200  0.099600  1.0  0.1119
  H  H48  1  0.607600  0.829400  0.086900  1.0  0.128
  H  H49  1  0.720000  0.090500  0.207300  1.0  0.1125
  H  H50  1  0.852300  0.195800  0.187600  1.0  0.1087
  H  H51  1  0.689300  0.371900  0.319500  1.0  0.0909
  H  H52  1  0.555500  0.267700  0.337700  1.0  0.1227
  H  H53  1  0.140600  0.041900  0.430000  1.0  0.1027
  H  H54  1  0.260000  0.032500  0.326300  1.0  0.125
  H  H55  1  0.354500  0.914100  0.578900  1.0  0.1039
  H  H56  1  0.472800  0.903500  0.474900  1.0  0.1366
  H  H57  1  0.437300  0.521100  0.558800  1.0  0.1219
  H  H58  1  0.341300  0.539600  0.438200  1.0  0.1048
  H  H59  1  0.079900  0.428400  0.534900  1.0  0.1114
  H  H60  1  0.176600  0.409400  0.655800  1.0  0.1168
  H  H61  1  0.698100  0.569600  0.804700  1.0  0.1173
  H  H62  1  0.835700  0.673400  0.816800  1.0  0.111
  H  H63  1  0.742500  0.776800  0.599600  1.0  0.1116
  H  H64  1  0.607600  0.670600  0.586900  1.0  0.1279
  H  H65  1  0.720000  0.409500  0.707300  1.0  0.1128
  H  H66  1  0.852300  0.304200  0.687600  1.0  0.1088
  H  H67  1  0.689300  0.128100  0.819500  1.0  0.0907
  H  H68  1  0.555500  0.232300  0.837700  1.0  0.1225
  H  H69  1  0.140600  0.458100  0.930000  1.0  0.1025
  H  H70  1  0.260000  0.467500  0.826300  1.0  0.1253
  H  H71  1  0.354500  0.585900  0.078900  1.0  0.1038
  H  H72  1  0.472800  0.596500  0.974900  1.0  0.1374
  C  C73  1  0.683170  0.537330  0.380590  1.0  0.4545
  C  C74  1  0.635300  0.498110  0.446000  1.0  -0.2757
  C  C75  1  0.692400  0.487050  0.517400  1.0  -0.001
  C  C76  1  0.798700  0.514130  0.525740  1.0  -0.1518
  C  C77  1  0.847200  0.552900  0.460380  1.0  -0.0493
  C  C78  1  0.789700  0.564140  0.388750  1.0  -0.2454
  C  C79  1  0.857300  0.501020  0.600500  1.0  0.3818
  C  C80  1  0.361680  0.389790  0.304680  1.0  0.4221
  C  C81  1  0.292700  0.388180  0.237040  1.0  -0.2363
  C  C82  1  0.211500  0.326510  0.229490  1.0  -0.0235
  C  C83  1  0.198570  0.263610  0.290450  1.0  -0.1345
  C  C84  1  0.266500  0.265440  0.358630  1.0  -0.0338
  C  C85  1  0.346800  0.328130  0.365920  1.0  -0.2506
  C  C86  1  0.119200  0.194760  0.282020  1.0  0.3878
  C  C87  1  0.377300  0.669370  0.227740  1.0  0.4339
  C  C88  1  0.287200  0.648440  0.270720  1.0  -0.2734
  C  C89  1  0.208300  0.710530  0.281880  1.0  -0.0207
  C  C90  1  0.216900  0.794770  0.248690  1.0  -0.1342
  C  C91  1  0.304900  0.814600  0.204160  1.0  -0.0272
  C  C92  1  0.384500  0.752990  0.193390  1.0  -0.2494
  C  C93  1  0.136400  0.861280  0.260070  1.0  0.3917
  C  C94  1  0.621400  0.466100  0.110740  1.0  0.4304
  C  C95  1  0.791800  0.513630  0.060970  1.0  -0.0177
  C  C96  1  0.720900  0.507780  0.122490  1.0  -0.2478
  C  C97  1  0.764400  0.478170  0.985630  1.0  -0.1434
  C  C98  1  0.665000  0.437660  0.972740  1.0  -0.0382
  C  C99  1  0.594800  0.431580  0.034450  1.0  -0.244
  C  C100  1  0.836700  0.482560  0.920090  1.0  0.3918
  C  C101  1  0.683170  0.962670  0.880590  1.0  0.4527
  C  C102  1  0.635300  0.001890  0.946000  1.0  -0.2759
  C  C103  1  0.692400  0.012950  0.017400  1.0  -0.0018
  C  C104  1  0.798700  0.985870  0.025740  1.0  -0.1519
  C  C105  1  0.847200  0.947100  0.960380  1.0  -0.048
  C  C106  1  0.789700  0.935860  0.888750  1.0  -0.2444
  C  C107  1  0.857300  0.998980  0.100500  1.0  0.3818
  C  C108  1  0.361680  0.110210  0.804680  1.0  0.4204
  C  C109  1  0.292700  0.111820  0.737040  1.0  -0.2388
  C  C110  1  0.211500  0.173490  0.729490  1.0  -0.0231
  C  C111  1  0.198570  0.236390  0.790450  1.0  -0.134
  C  C112  1  0.266500  0.234560  0.858630  1.0  -0.0318
  C  C113  1  0.346800  0.171870  0.865920  1.0  -0.2507
  C  C114  1  0.119200  0.305240  0.782020  1.0  0.388
  C  C115  1  0.377300  0.830630  0.727740  1.0  0.4359
  C  C116  1  0.287200  0.851560  0.770720  1.0  -0.2731
  C  C117  1  0.208300  0.789470  0.781880  1.0  -0.02
  C  C118  1  0.216900  0.705230  0.748690  1.0  -0.1336
  C  C119  1  0.304900  0.685400  0.704160  1.0  -0.0248
  C  C120  1  0.384500  0.747010  0.693390  1.0  -0.2492
  C  C121  1  0.136400  0.638720  0.760070  1.0  0.3921
  C  C122  1  0.621400  0.033900  0.610740  1.0  0.43
  C  C123  1  0.791800  0.986370  0.560970  1.0  -0.0177
  C  C124  1  0.720900  0.992220  0.622490  1.0  -0.2463
  C  C125  1  0.764400  0.021830  0.485630  1.0  -0.1434
  C  C126  1  0.665000  0.062340  0.472740  1.0  -0.0371
  C  C127  1  0.594800  0.068420  0.534450  1.0  -0.2427
  C  C128  1  0.836700  0.017440  0.420090  1.0  0.3921
  C  C129  1  0.316830  0.037330  0.119410  1.0  0.4512
  C  C130  1  0.364700  0.998110  0.054000  1.0  -0.2712
  C  C131  1  0.307600  0.987050  0.982600  1.0  -0.0045
  C  C132  1  0.201300  0.014130  0.974260  1.0  -0.1533
  C  C133  1  0.152800  0.052900  0.039620  1.0  -0.0456
  C  C134  1  0.210300  0.064140  0.111250  1.0  -0.2432
  C  C135  1  0.142700  0.001020  0.899500  1.0  0.382
  C  C136  1  0.638320  0.889790  0.195320  1.0  0.4232
  C  C137  1  0.707300  0.888180  0.262960  1.0  -0.2362
  C  C138  1  0.788500  0.826510  0.270510  1.0  -0.0246
  C  C139  1  0.801430  0.763610  0.209550  1.0  -0.1338
  C  C140  1  0.733500  0.765440  0.141370  1.0  -0.038
  C  C141  1  0.653200  0.828130  0.134080  1.0  -0.251
  C  C142  1  0.880800  0.694760  0.217980  1.0  0.3884
  C  C143  1  0.622700  0.169370  0.272260  1.0  0.4287
  C  C144  1  0.712800  0.148440  0.229280  1.0  -0.2705
  C  C145  1  0.791700  0.210530  0.218120  1.0  -0.0224
  C  C146  1  0.783100  0.294770  0.251310  1.0  -0.1331
  C  C147  1  0.695100  0.314600  0.295840  1.0  -0.0295
  C  C148  1  0.615500  0.252990  0.306610  1.0  -0.2516
  C  C149  1  0.863600  0.361280  0.239930  1.0  0.3919
  C  C150  1  0.378600  0.966100  0.389260  1.0  0.4327
  C  C151  1  0.208200  0.013630  0.439030  1.0  -0.0148
  C  C152  1  0.279100  0.007780  0.377510  1.0  -0.2441
  C  C153  1  0.235600  0.978170  0.514370  1.0  -0.1441
  C  C154  1  0.335000  0.937660  0.527260  1.0  -0.0357
  C  C155  1  0.405200  0.931580  0.465550  1.0  -0.2424
  C  C156  1  0.163300  0.982560  0.579910  1.0  0.3898
  C  C157  1  0.316830  0.462670  0.619410  1.0  0.45
  C  C158  1  0.364700  0.501890  0.554000  1.0  -0.2715
  C  C159  1  0.307600  0.512950  0.482600  1.0  -0.0037
  C  C160  1  0.201300  0.485870  0.474260  1.0  -0.1528
  C  C161  1  0.152800  0.447100  0.539620  1.0  -0.0444
  C  C162  1  0.210300  0.435860  0.611250  1.0  -0.2419
  C  C163  1  0.142700  0.498980  0.399500  1.0  0.3819
  C  C164  1  0.638320  0.610210  0.695320  1.0  0.4219
  C  C165  1  0.707300  0.611820  0.762960  1.0  -0.2386
  C  C166  1  0.788500  0.673490  0.770510  1.0  -0.0248
  C  C167  1  0.801430  0.736390  0.709550  1.0  -0.1342
  C  C168  1  0.733500  0.734560  0.641370  1.0  -0.0353
  C  C169  1  0.653200  0.671870  0.634080  1.0  -0.2517
  C  C170  1  0.880800  0.805240  0.717980  1.0  0.388
  C  C171  1  0.622700  0.330630  0.772260  1.0  0.4308
  C  C172  1  0.712800  0.351560  0.729280  1.0  -0.2702
  C  C173  1  0.791700  0.289470  0.718120  1.0  -0.0226
  C  C174  1  0.783100  0.205230  0.751310  1.0  -0.1326
  C  C175  1  0.695100  0.185400  0.795840  1.0  -0.0262
  C  C176  1  0.615500  0.247010  0.806610  1.0  -0.2515
  C  C177  1  0.863600  0.138720  0.739930  1.0  0.3922
  C  C178  1  0.378600  0.533900  0.889260  1.0  0.4324
  C  C179  1  0.208200  0.486370  0.939030  1.0  -0.0149
  C  C180  1  0.279100  0.492220  0.877510  1.0  -0.2427
  C  C181  1  0.235600  0.521830  0.014370  1.0  -0.1439
  C  C182  1  0.335000  0.562340  0.027260  1.0  -0.0355
  C  C183  1  0.405200  0.568420  0.965550  1.0  -0.2403
  C  C184  1  0.163300  0.517440  0.079910  1.0  0.3901
  N  N185  1  0.890070  0.482420  0.865470  1.0  -0.4567
  N  N186  1  0.059570  0.136920  0.277000  1.0  -0.4443
  N  N187  1  0.075770  0.916900  0.267180  1.0  -0.4538
  N  N188  1  0.901580  0.488860  0.660840  1.0  -0.4465
  N  N189  1  0.890070  0.017580  0.365470  1.0  -0.4569
  N  N190  1  0.059570  0.363080  0.777000  1.0  -0.4444
  N  N191  1  0.075770  0.583100  0.767180  1.0  -0.4517
  N  N192  1  0.901580  0.011140  0.160840  1.0  -0.447
  N  N193  1  0.109930  0.982420  0.634530  1.0  -0.4591
  N  N194  1  0.940430  0.636920  0.223000  1.0  -0.4428
  N  N195  1  0.924230  0.416900  0.232820  1.0  -0.4538
  N  N196  1  0.098420  0.988860  0.839160  1.0  -0.4458
  N  N197  1  0.109930  0.517580  0.134530  1.0  -0.4592
  N  N198  1  0.940430  0.863080  0.723000  1.0  -0.4431
  N  N199  1  0.924230  0.083100  0.732820  1.0  -0.451
  N  N200  1  0.098420  0.511140  0.339160  1.0  -0.4458
  O  O201  1  0.630960  0.550620  0.310180  1.0  -0.7232
  O  O202  1  0.440820  0.449760  0.313850  1.0  -0.735
  O  O203  1  0.455650  0.611110  0.216520  1.0  -0.7406
  O  O204  1  0.552340  0.456090  0.169210  1.0  -0.7195
  O  O205  1  0.630960  0.949380  0.810180  1.0  -0.7211
  O  O206  1  0.440820  0.050240  0.813850  1.0  -0.7355
  O  O207  1  0.455650  0.888890  0.716520  1.0  -0.7402
  O  O208  1  0.552340  0.043910  0.669210  1.0  -0.7186
  O  O209  1  0.369040  0.050620  0.189820  1.0  -0.7234
  O  O210  1  0.559180  0.949760  0.186150  1.0  -0.7364
  O  O211  1  0.544350  0.111110  0.283480  1.0  -0.7399
  O  O212  1  0.447660  0.956090  0.330790  1.0  -0.7169
  O  O213  1  0.369040  0.449380  0.689820  1.0  -0.7215
  O  O214  1  0.559180  0.550240  0.686150  1.0  -0.737
  O  O215  1  0.544350  0.388890  0.783480  1.0  -0.7393
  O  O216  1  0.447660  0.543910  0.830790  1.0  -0.7163
