# generated using pymatgen
data_CoH8C9NO5
_symmetry_space_group_name_H-M   'P 1'
_cell_length_a   6.74600000
_cell_length_b   22.33400000
_cell_length_c   7.59700000
_cell_angle_alpha   90.00000000
_cell_angle_beta   90.00000000
_cell_angle_gamma   90.00000000
_symmetry_Int_Tables_number   1
_chemical_formula_structural   CoH8C9NO5
_chemical_formula_sum   'Co4 H32 C36 N4 O20'
_cell_volume   1144.60325091
_cell_formula_units_Z   4
loop_
 _symmetry_equiv_pos_site_id
 _symmetry_equiv_pos_as_xyz
  1  'x, y, z'
loop_
 _atom_site_type_symbol
 _atom_site_label
 _atom_site_symmetry_multiplicity
 _atom_site_fract_x
 _atom_site_fract_y
 _atom_site_fract_z
 _atom_site_occupancy
 _atom_site_charge
  Co  Co1  1  0.464660  0.289100  0.248490  1.0  1.0343
  Co  Co2  1  0.535340  0.710900  0.248490  1.0  1.0363
  Co  Co3  1  0.964660  0.210900  0.751510  1.0  1.0355
  Co  Co4  1  0.035340  0.789100  0.751510  1.0  1.0349
  H  H5  1  0.372500  0.114800  0.368700  1.0  0.1281
  H  H6  1  0.180000  0.121500  0.248700  1.0  0.1425
  H  H7  1  0.477000  0.128600  0.084300  1.0  0.0738
  H  H8  1  0.714200  0.185200  0.243800  1.0  0.426
  H  H9  1  0.045700  0.333200  0.336300  1.0  0.086
  H  H10  1  0.847400  0.418200  0.319000  1.0  0.1263
  H  H11  1  0.304800  0.504400  0.090700  1.0  0.1137
  H  H12  1  0.478800  0.415100  0.088900  1.0  0.0776
  H  H13  1  0.627500  0.885200  0.368700  1.0  0.1286
  H  H14  1  0.820000  0.878500  0.248700  1.0  0.1407
  H  H15  1  0.523000  0.871400  0.084300  1.0  0.0751
  H  H16  1  0.285800  0.814800  0.243800  1.0  0.4296
  H  H17  1  0.954300  0.666800  0.336300  1.0  0.086
  H  H18  1  0.152600  0.581800  0.319000  1.0  0.1262
  H  H19  1  0.695200  0.495600  0.090700  1.0  0.1134
  H  H20  1  0.521200  0.584900  0.088900  1.0  0.0782
  H  H21  1  0.872500  0.385200  0.631300  1.0  0.1273
  H  H22  1  0.680000  0.378500  0.751300  1.0  0.1414
  H  H23  1  0.977000  0.371400  0.915700  1.0  0.0747
  H  H24  1  0.214200  0.314800  0.756200  1.0  0.425
  H  H25  1  0.545700  0.166800  0.663700  1.0  0.0861
  H  H26  1  0.347400  0.081800  0.681000  1.0  0.1263
  H  H27  1  0.804800  0.995600  0.909300  1.0  0.1135
  H  H28  1  0.978800  0.084900  0.911100  1.0  0.0782
  H  H29  1  0.127500  0.614800  0.631300  1.0  0.1279
  H  H30  1  0.320000  0.621500  0.751300  1.0  0.1408
  H  H31  1  0.023000  0.628600  0.915700  1.0  0.0741
  H  H32  1  0.785800  0.685200  0.756200  1.0  0.4307
  H  H33  1  0.454300  0.833200  0.663700  1.0  0.0864
  H  H34  1  0.652600  0.918200  0.681000  1.0  0.1261
  H  H35  1  0.195200  0.004400  0.909300  1.0  0.1133
  H  H36  1  0.021200  0.915100  0.911100  1.0  0.0786
  C  C37  1  0.214100  0.191390  0.422700  1.0  0.75
  C  C38  1  0.294300  0.143620  0.298200  1.0  -0.4199
  C  C39  1  0.422300  0.164480  0.146300  1.0  0.1601
  C  C40  1  0.300400  0.201220  0.015400  1.0  0.6178
  C  C41  1  0.099100  0.368600  0.285900  1.0  0.1658
  C  C42  1  0.980300  0.419500  0.277800  1.0  -0.216
  C  C43  1  0.058500  0.472200  0.208800  1.0  0.1154
  C  C44  1  0.246900  0.469600  0.140900  1.0  -0.2171
  C  C45  1  0.353200  0.416500  0.145300  1.0  0.1633
  C  C46  1  0.785900  0.808610  0.422700  1.0  0.7509
  C  C47  1  0.705700  0.856380  0.298200  1.0  -0.4209
  C  C48  1  0.577700  0.835520  0.146300  1.0  0.159
  C  C49  1  0.699600  0.798780  0.015400  1.0  0.6177
  C  C50  1  0.900900  0.631400  0.285900  1.0  0.1666
  C  C51  1  0.019700  0.580500  0.277800  1.0  -0.2154
  C  C52  1  0.941500  0.527800  0.208800  1.0  0.1148
  C  C53  1  0.753100  0.530400  0.140900  1.0  -0.2175
  C  C54  1  0.646800  0.583500  0.145300  1.0  0.1645
  C  C55  1  0.714100  0.308610  0.577300  1.0  0.7513
  C  C56  1  0.794300  0.356380  0.701800  1.0  -0.4212
  C  C57  1  0.922300  0.335520  0.853700  1.0  0.1599
  C  C58  1  0.800400  0.298780  0.984600  1.0  0.6188
  C  C59  1  0.599100  0.131400  0.714100  1.0  0.1665
  C  C60  1  0.480300  0.080500  0.722200  1.0  -0.2144
  C  C61  1  0.558500  0.027800  0.791200  1.0  0.1149
  C  C62  1  0.746900  0.030400  0.859100  1.0  -0.2173
  C  C63  1  0.853200  0.083500  0.854700  1.0  0.163
  C  C64  1  0.285900  0.691390  0.577300  1.0  0.751
  C  C65  1  0.205700  0.643620  0.701800  1.0  -0.4201
  C  C66  1  0.077700  0.664480  0.853700  1.0  0.1609
  C  C67  1  0.199600  0.701220  0.984600  1.0  0.6185
  C  C68  1  0.400900  0.868600  0.714100  1.0  0.165
  C  C69  1  0.519700  0.919500  0.722200  1.0  -0.2138
  C  C70  1  0.441500  0.972200  0.791200  1.0  0.1148
  C  C71  1  0.253100  0.969600  0.859100  1.0  -0.2174
  C  C72  1  0.146800  0.916500  0.854700  1.0  0.1642
  N  N73  1  0.287000  0.367480  0.225000  1.0  -0.3264
  N  N74  1  0.713000  0.632520  0.225000  1.0  -0.3289
  N  N75  1  0.787000  0.132520  0.775000  1.0  -0.3269
  N  N76  1  0.213000  0.867480  0.775000  1.0  -0.3285
  O  O77  1  0.253300  0.245970  0.400200  1.0  -0.6134
  O  O78  1  0.107800  0.171480  0.544600  1.0  -0.6184
  O  O79  1  0.584200  0.198790  0.216900  1.0  -0.6142
  O  O80  1  0.324500  0.257670  0.018500  1.0  -0.5689
  O  O81  1  0.182400  0.173740  0.918400  1.0  -0.5886
  O  O82  1  0.746700  0.754030  0.400200  1.0  -0.6137
  O  O83  1  0.892200  0.828520  0.544600  1.0  -0.6189
  O  O84  1  0.415800  0.801210  0.216900  1.0  -0.6143
  O  O85  1  0.675500  0.742330  0.018500  1.0  -0.5688
  O  O86  1  0.817600  0.826260  0.918400  1.0  -0.5885
  O  O87  1  0.753300  0.254030  0.599800  1.0  -0.6136
  O  O88  1  0.607800  0.328520  0.455400  1.0  -0.6181
  O  O89  1  0.084200  0.301210  0.783100  1.0  -0.6135
  O  O90  1  0.824500  0.242330  0.981500  1.0  -0.5692
  O  O91  1  0.682400  0.326260  0.081600  1.0  -0.5879
  O  O92  1  0.246700  0.745970  0.599800  1.0  -0.6137
  O  O93  1  0.392200  0.671480  0.455400  1.0  -0.6193
  O  O94  1  0.915800  0.698790  0.783100  1.0  -0.615
  O  O95  1  0.175500  0.757670  0.981500  1.0  -0.5698
  O  O96  1  0.317600  0.673740  0.081600  1.0  -0.5881
