# generated using pymatgen
data_NiH8C9NO5
_symmetry_space_group_name_H-M   'P 1'
_cell_length_a   6.73100000
_cell_length_b   22.18600000
_cell_length_c   7.57500000
_cell_angle_alpha   90.00000000
_cell_angle_beta   90.00000000
_cell_angle_gamma   90.00000000
_symmetry_Int_Tables_number   1
_chemical_formula_structural   NiH8C9NO5
_chemical_formula_sum   'Ni4 H32 C36 N4 O20'
_cell_volume   1131.20479245
_cell_formula_units_Z   4
loop_
 _symmetry_equiv_pos_site_id
 _symmetry_equiv_pos_as_xyz
  1  'x, y, z'
loop_
 _atom_site_type_symbol
 _atom_site_label
 _atom_site_symmetry_multiplicity
 _atom_site_fract_x
 _atom_site_fract_y
 _atom_site_fract_z
 _atom_site_occupancy
 _atom_site_charge
  Ni  Ni1  1  0.457670  0.288940  0.245970  1.0  0.9619
  Ni  Ni2  1  0.542330  0.711060  0.245970  1.0  0.9624
  Ni  Ni3  1  0.957670  0.211060  0.754030  1.0  0.9623
  Ni  Ni4  1  0.042330  0.788940  0.754030  1.0  0.9619
  H  H5  1  0.364100  0.115500  0.370900  1.0  0.1323
  H  H6  1  0.170900  0.122800  0.251300  1.0  0.1432
  H  H7  1  0.469400  0.128900  0.086900  1.0  0.0728
  H  H8  1  0.706500  0.187400  0.247400  1.0  0.4399
  H  H9  1  0.030600  0.328600  0.303900  1.0  0.093
  H  H10  1  0.836400  0.415300  0.292900  1.0  0.1263
  H  H11  1  0.323700  0.509900  0.138600  1.0  0.128
  H  H12  1  0.505400  0.420700  0.143900  1.0  0.0806
  H  H13  1  0.635900  0.884500  0.370900  1.0  0.1321
  H  H14  1  0.829100  0.877200  0.251300  1.0  0.1425
  H  H15  1  0.530600  0.871100  0.086900  1.0  0.0724
  H  H16  1  0.293500  0.812600  0.247400  1.0  0.4405
  H  H17  1  0.969400  0.671400  0.303900  1.0  0.0925
  H  H18  1  0.163600  0.584700  0.292900  1.0  0.1265
  H  H19  1  0.676300  0.490100  0.138600  1.0  0.1287
  H  H20  1  0.494600  0.579300  0.143900  1.0  0.0809
  H  H21  1  0.864100  0.384500  0.629100  1.0  0.1313
  H  H22  1  0.670900  0.377200  0.748700  1.0  0.1421
  H  H23  1  0.969400  0.371100  0.913100  1.0  0.0722
  H  H24  1  0.206500  0.312600  0.752600  1.0  0.4379
  H  H25  1  0.530600  0.171400  0.696100  1.0  0.0924
  H  H26  1  0.336400  0.084700  0.707100  1.0  0.1259
  H  H27  1  0.823700  0.990100  0.861400  1.0  0.1297
  H  H28  1  0.005400  0.079300  0.856100  1.0  0.0804
  H  H29  1  0.135900  0.615500  0.629100  1.0  0.1322
  H  H30  1  0.329100  0.622800  0.748700  1.0  0.1429
  H  H31  1  0.030600  0.628900  0.913100  1.0  0.0726
  H  H32  1  0.793500  0.687400  0.752600  1.0  0.4392
  H  H33  1  0.469400  0.828600  0.696100  1.0  0.0928
  H  H34  1  0.663600  0.915300  0.707100  1.0  0.1267
  H  H35  1  0.176300  0.009900  0.861400  1.0  0.1288
  H  H36  1  0.994600  0.920700  0.856100  1.0  0.0803
  C  C37  1  0.208300  0.193300  0.425700  1.0  0.7432
  C  C38  1  0.286500  0.144700  0.300400  1.0  -0.4109
  C  C39  1  0.414000  0.165100  0.148500  1.0  0.161
  C  C40  1  0.289200  0.202200  0.016200  1.0  0.613
  C  C41  1  0.089900  0.365700  0.269200  1.0  0.156
  C  C42  1  0.973100  0.417200  0.262400  1.0  -0.1998
  C  C43  1  0.058100  0.472000  0.210300  1.0  0.0761
  C  C44  1  0.260700  0.473100  0.170000  1.0  -0.2179
  C  C45  1  0.369100  0.419800  0.176000  1.0  0.1495
  C  C46  1  0.791700  0.806700  0.425700  1.0  0.7437
  C  C47  1  0.713500  0.855300  0.300400  1.0  -0.4121
  C  C48  1  0.586000  0.834900  0.148500  1.0  0.1609
  C  C49  1  0.710800  0.797800  0.016200  1.0  0.6124
  C  C50  1  0.910100  0.634300  0.269200  1.0  0.1576
  C  C51  1  0.026900  0.582800  0.262400  1.0  -0.2017
  C  C52  1  0.941900  0.528000  0.210300  1.0  0.076
  C  C53  1  0.739300  0.526900  0.170000  1.0  -0.2175
  C  C54  1  0.630900  0.580200  0.176000  1.0  0.1497
  C  C55  1  0.708300  0.306700  0.574300  1.0  0.7432
  C  C56  1  0.786500  0.355300  0.699600  1.0  -0.4111
  C  C57  1  0.914000  0.334900  0.851500  1.0  0.1611
  C  C58  1  0.789200  0.297800  0.983800  1.0  0.615
  C  C59  1  0.589900  0.134300  0.730800  1.0  0.1567
  C  C60  1  0.473100  0.082800  0.737600  1.0  -0.1995
  C  C61  1  0.558100  0.028000  0.789700  1.0  0.0761
  C  C62  1  0.760700  0.026900  0.830000  1.0  -0.2176
  C  C63  1  0.869100  0.080200  0.824000  1.0  0.1493
  C  C64  1  0.291700  0.693300  0.574300  1.0  0.7427
  C  C65  1  0.213500  0.644700  0.699600  1.0  -0.4119
  C  C66  1  0.086000  0.665100  0.851500  1.0  0.1615
  C  C67  1  0.210800  0.702200  0.983800  1.0  0.6138
  C  C68  1  0.410100  0.865700  0.730800  1.0  0.1567
  C  C69  1  0.526900  0.917200  0.737600  1.0  -0.2018
  C  C70  1  0.441900  0.972000  0.789700  1.0  0.0757
  C  C71  1  0.239300  0.973100  0.830000  1.0  -0.2178
  C  C72  1  0.130900  0.919800  0.824000  1.0  0.1495
  N  N73  1  0.287300  0.366490  0.227500  1.0  -0.3012
  N  N74  1  0.712700  0.633510  0.227500  1.0  -0.3017
  N  N75  1  0.787300  0.133510  0.772500  1.0  -0.3011
  N  N76  1  0.212700  0.866490  0.772500  1.0  -0.3025
  O  O77  1  0.249400  0.248250  0.402900  1.0  -0.6045
  O  O78  1  0.101300  0.172980  0.547000  1.0  -0.6095
  O  O79  1  0.576100  0.200620  0.219200  1.0  -0.6027
  O  O80  1  0.313200  0.259010  0.020600  1.0  -0.562
  O  O81  1  0.175000  0.174540  0.917700  1.0  -0.5669
  O  O82  1  0.750600  0.751750  0.402900  1.0  -0.605
  O  O83  1  0.898700  0.827020  0.547000  1.0  -0.6104
  O  O84  1  0.423900  0.799380  0.219200  1.0  -0.6036
  O  O85  1  0.686800  0.740990  0.020600  1.0  -0.5615
  O  O86  1  0.825000  0.825460  0.917700  1.0  -0.5665
  O  O87  1  0.749400  0.251750  0.597100  1.0  -0.6041
  O  O88  1  0.601300  0.327020  0.453000  1.0  -0.6088
  O  O89  1  0.076100  0.299380  0.780800  1.0  -0.6021
  O  O90  1  0.813200  0.240990  0.979400  1.0  -0.562
  O  O91  1  0.675000  0.325460  0.082300  1.0  -0.5659
  O  O92  1  0.250600  0.748250  0.597100  1.0  -0.605
  O  O93  1  0.398700  0.672980  0.453000  1.0  -0.6091
  O  O94  1  0.923900  0.700620  0.780800  1.0  -0.6042
  O  O95  1  0.186800  0.759010  0.979400  1.0  -0.5622
  O  O96  1  0.325000  0.674540  0.082300  1.0  -0.5663
