# generated using pymatgen
data_NiH9C10NO5
_symmetry_space_group_name_H-M   'P 1'
_cell_length_a   9.68790000
_cell_length_b   23.69870000
_cell_length_c   10.45690000
_cell_angle_alpha   90.00000000
_cell_angle_beta   90.00000000
_cell_angle_gamma   90.00000000
_symmetry_Int_Tables_number   1
_chemical_formula_structural   NiH9C10NO5
_chemical_formula_sum   'Ni8 H72 C80 N8 O40'
_cell_volume   2400.80631877
_cell_formula_units_Z   8
loop_
 _symmetry_equiv_pos_site_id
 _symmetry_equiv_pos_as_xyz
  1  'x, y, z'
loop_
 _atom_site_type_symbol
 _atom_site_label
 _atom_site_symmetry_multiplicity
 _atom_site_fract_x
 _atom_site_fract_y
 _atom_site_fract_z
 _atom_site_occupancy
 _atom_site_charge
  Ni  Ni1  1  0.616850  0.212480  0.505330  1.0  0.9187
  Ni  Ni2  1  0.642390  0.286400  0.995060  1.0  0.9086
  Ni  Ni3  1  0.383150  0.787520  0.505330  1.0  0.9191
  Ni  Ni4  1  0.357610  0.713600  0.995060  1.0  0.9096
  Ni  Ni5  1  0.116850  0.287520  0.494670  1.0  0.9189
  Ni  Ni6  1  0.142390  0.213600  0.004940  1.0  0.9091
  Ni  Ni7  1  0.883150  0.712480  0.494670  1.0  0.9188
  Ni  Ni8  1  0.857610  0.786400  0.004940  1.0  0.9084
  H  H9  1  0.743400  0.355000  0.591600  1.0  0.0763
  H  H10  1  0.788100  0.278900  0.474000  1.0  0.3637
  H  H11  1  0.544700  0.378300  0.479500  1.0  0.1251
  H  H12  1  0.508500  0.376900  0.628500  1.0  0.1445
  H  H13  1  0.572600  0.134700  0.926100  1.0  0.0766
  H  H14  1  0.692000  0.207800  0.846900  1.0  0.3678
  H  H15  1  0.700900  0.136300  0.121100  1.0  0.1423
  H  H16  1  0.540100  0.126200  0.145000  1.0  0.1403
  H  H17  1  0.518500  0.097400  0.408400  1.0  0.0878
  H  H18  1  0.380300  0.022900  0.472000  1.0  0.1282
  H  H19  1  0.319500  0.103300  0.809000  1.0  0.1306
  H  H20  1  0.452400  0.176900  0.732500  1.0  0.0814
  H  H21  1  0.232900  0.977100  0.630300  1.0  0.1033
  H  H22  1  0.244700  0.020800  0.876500  1.0  0.109
  H  H23  1  0.994500  0.891800  0.109900  1.0  0.0865
  H  H24  1  0.134700  0.965900  0.044900  1.0  0.1321
  H  H25  1  0.107500  0.906200  0.682600  1.0  0.1281
  H  H26  1  0.963200  0.835500  0.757700  1.0  0.0902
  H  H27  1  0.256600  0.645000  0.591600  1.0  0.0767
  H  H28  1  0.211900  0.721100  0.474000  1.0  0.3634
  H  H29  1  0.455300  0.621700  0.479500  1.0  0.125
  H  H30  1  0.491500  0.623100  0.628500  1.0  0.1451
  H  H31  1  0.427400  0.865300  0.926100  1.0  0.0762
  H  H32  1  0.308000  0.792200  0.846900  1.0  0.3673
  H  H33  1  0.299100  0.863700  0.121100  1.0  0.1401
  H  H34  1  0.459900  0.873800  0.145000  1.0  0.1394
  H  H35  1  0.481500  0.902600  0.408400  1.0  0.0879
  H  H36  1  0.619700  0.977100  0.472000  1.0  0.1287
  H  H37  1  0.680500  0.896700  0.809000  1.0  0.1303
  H  H38  1  0.547600  0.823100  0.732500  1.0  0.0817
  H  H39  1  0.767100  0.022900  0.630300  1.0  0.1036
  H  H40  1  0.755300  0.979200  0.876500  1.0  0.1094
  H  H41  1  0.005500  0.108200  0.109900  1.0  0.0863
  H  H42  1  0.865300  0.034100  0.044900  1.0  0.1326
  H  H43  1  0.892500  0.093800  0.682600  1.0  0.1281
  H  H44  1  0.036800  0.164500  0.757700  1.0  0.0903
  H  H45  1  0.243400  0.145000  0.408400  1.0  0.0766
  H  H46  1  0.288100  0.221100  0.526000  1.0  0.3633
  H  H47  1  0.044700  0.121700  0.520500  1.0  0.1271
  H  H48  1  0.008500  0.123100  0.371500  1.0  0.145
  H  H49  1  0.072600  0.365300  0.073900  1.0  0.0762
  H  H50  1  0.192000  0.292200  0.153100  1.0  0.371
  H  H51  1  0.200900  0.363700  0.878900  1.0  0.1411
  H  H52  1  0.040100  0.373800  0.855000  1.0  0.1397
  H  H53  1  0.018500  0.402600  0.591600  1.0  0.0876
  H  H54  1  0.880300  0.477100  0.528000  1.0  0.1288
  H  H55  1  0.819500  0.396700  0.191000  1.0  0.1315
  H  H56  1  0.952400  0.323100  0.267500  1.0  0.0815
  H  H57  1  0.732900  0.522900  0.369700  1.0  0.1034
  H  H58  1  0.744700  0.479200  0.123500  1.0  0.1092
  H  H59  1  0.494500  0.608200  0.890100  1.0  0.0865
  H  H60  1  0.634700  0.534100  0.955100  1.0  0.1317
  H  H61  1  0.607500  0.593800  0.317400  1.0  0.1276
  H  H62  1  0.463200  0.664500  0.242300  1.0  0.0904
  H  H63  1  0.756600  0.855000  0.408400  1.0  0.0772
  H  H64  1  0.711900  0.778900  0.526000  1.0  0.3644
  H  H65  1  0.955300  0.878300  0.520500  1.0  0.1262
  H  H66  1  0.991500  0.876900  0.371500  1.0  0.1456
  H  H67  1  0.927400  0.634700  0.073900  1.0  0.0768
  H  H68  1  0.808000  0.707800  0.153100  1.0  0.3699
  H  H69  1  0.799100  0.636300  0.878900  1.0  0.1404
  H  H70  1  0.959900  0.626200  0.855000  1.0  0.1395
  H  H71  1  0.981500  0.597400  0.591600  1.0  0.0873
  H  H72  1  0.119700  0.522900  0.528000  1.0  0.1292
  H  H73  1  0.180500  0.603300  0.191000  1.0  0.1313
  H  H74  1  0.047600  0.676900  0.267500  1.0  0.0813
  H  H75  1  0.267100  0.477100  0.369700  1.0  0.104
  H  H76  1  0.255300  0.520800  0.123500  1.0  0.1092
  H  H77  1  0.505500  0.391800  0.890100  1.0  0.0865
  H  H78  1  0.365300  0.465900  0.955100  1.0  0.1318
  H  H79  1  0.392500  0.406200  0.317400  1.0  0.1274
  H  H80  1  0.536800  0.335500  0.242300  1.0  0.0903
  C  C81  1  0.665830  0.289930  0.704700  1.0  0.6149
  C  C82  1  0.671400  0.325040  0.581640  1.0  0.1246
  C  C83  1  0.533500  0.353100  0.554300  1.0  -0.3815
  C  C84  1  0.414700  0.312830  0.527530  1.0  0.7301
  C  C85  1  0.442500  0.203150  0.968250  1.0  0.5884
  C  C86  1  0.579100  0.169930  0.978490  1.0  0.1096
  C  C87  1  0.608900  0.154460  0.117100  1.0  -0.3893
  C  C88  1  0.606800  0.203540  0.211900  1.0  0.7381
  C  C89  1  0.478000  0.098470  0.491100  1.0  0.1627
  C  C90  1  0.396800  0.053410  0.529000  1.0  -0.2352
  C  C91  1  0.339400  0.052990  0.650800  1.0  0.1295
  C  C92  1  0.360200  0.100790  0.726500  1.0  -0.2023
  C  C93  1  0.440400  0.144490  0.680300  1.0  0.1639
  C  C94  1  0.258300  0.004060  0.693300  1.0  -0.1222
  C  C95  1  0.217500  0.994330  0.813100  1.0  -0.1183
  C  C96  1  0.015600  0.895490  0.021500  1.0  0.1684
  C  C97  1  0.100300  0.939890  0.983500  1.0  -0.2195
  C  C98  1  0.134100  0.945960  0.855100  1.0  0.1268
  C  C99  1  0.083500  0.904940  0.770600  1.0  -0.1961
  C  C100  1  0.998200  0.862530  0.816500  1.0  0.173
  C  C101  1  0.334170  0.710070  0.704700  1.0  0.6149
  C  C102  1  0.328600  0.674960  0.581640  1.0  0.1239
  C  C103  1  0.466500  0.646900  0.554300  1.0  -0.3842
  C  C104  1  0.585300  0.687170  0.527530  1.0  0.731
  C  C105  1  0.557500  0.796850  0.968250  1.0  0.5895
  C  C106  1  0.420900  0.830070  0.978490  1.0  0.109
  C  C107  1  0.391100  0.845540  0.117100  1.0  -0.3906
  C  C108  1  0.393200  0.796460  0.211900  1.0  0.7376
  C  C109  1  0.522000  0.901530  0.491100  1.0  0.1638
  C  C110  1  0.603200  0.946590  0.529000  1.0  -0.2358
  C  C111  1  0.660600  0.947010  0.650800  1.0  0.1294
  C  C112  1  0.639800  0.899210  0.726500  1.0  -0.2024
  C  C113  1  0.559600  0.855510  0.680300  1.0  0.1629
  C  C114  1  0.741700  0.995940  0.693300  1.0  -0.122
  C  C115  1  0.782500  0.005670  0.813100  1.0  -0.1177
  C  C116  1  0.984400  0.104510  0.021500  1.0  0.1689
  C  C117  1  0.899700  0.060110  0.983500  1.0  -0.2192
  C  C118  1  0.865900  0.054040  0.855100  1.0  0.1264
  C  C119  1  0.916500  0.095060  0.770600  1.0  -0.1953
  C  C120  1  0.001800  0.137470  0.816500  1.0  0.1734
  C  C121  1  0.165830  0.210070  0.295300  1.0  0.6143
  C  C122  1  0.171400  0.174960  0.418360  1.0  0.1244
  C  C123  1  0.033500  0.146900  0.445700  1.0  -0.3835
  C  C124  1  0.914700  0.187170  0.472470  1.0  0.7298
  C  C125  1  0.942500  0.296850  0.031750  1.0  0.5882
  C  C126  1  0.079100  0.330070  0.021510  1.0  0.1089
  C  C127  1  0.108900  0.345540  0.882900  1.0  -0.3902
  C  C128  1  0.106800  0.296460  0.788100  1.0  0.7388
  C  C129  1  0.978000  0.401530  0.508900  1.0  0.1641
  C  C130  1  0.896800  0.446590  0.471000  1.0  -0.2354
  C  C131  1  0.839400  0.447010  0.349200  1.0  0.1295
  C  C132  1  0.860200  0.399210  0.273500  1.0  -0.2014
  C  C133  1  0.940400  0.355510  0.319700  1.0  0.1633
  C  C134  1  0.758300  0.495940  0.306700  1.0  -0.1218
  C  C135  1  0.717500  0.505670  0.186900  1.0  -0.1193
  C  C136  1  0.515600  0.604510  0.978500  1.0  0.1694
  C  C137  1  0.600300  0.560110  0.016500  1.0  -0.2206
  C  C138  1  0.634100  0.554040  0.144900  1.0  0.1265
  C  C139  1  0.583500  0.595060  0.229400  1.0  -0.1985
  C  C140  1  0.498200  0.637470  0.183500  1.0  0.1741
  C  C141  1  0.834170  0.789930  0.295300  1.0  0.6144
  C  C142  1  0.828600  0.825040  0.418360  1.0  0.1234
  C  C143  1  0.966500  0.853100  0.445700  1.0  -0.3827
  C  C144  1  0.085300  0.812830  0.472470  1.0  0.7312
  C  C145  1  0.057500  0.703150  0.031750  1.0  0.5896
  C  C146  1  0.920900  0.669930  0.021510  1.0  0.1096
  C  C147  1  0.891100  0.654460  0.882900  1.0  -0.3899
  C  C148  1  0.893200  0.703540  0.788100  1.0  0.7389
  C  C149  1  0.022000  0.598470  0.508900  1.0  0.1641
  C  C150  1  0.103200  0.553410  0.471000  1.0  -0.2354
  C  C151  1  0.160600  0.552990  0.349200  1.0  0.1296
  C  C152  1  0.139800  0.600790  0.273500  1.0  -0.2008
  C  C153  1  0.059600  0.644490  0.319700  1.0  0.1642
  C  C154  1  0.241700  0.504060  0.306700  1.0  -0.1223
  C  C155  1  0.282500  0.494330  0.186900  1.0  -0.1189
  C  C156  1  0.484400  0.395490  0.978500  1.0  0.1694
  C  C157  1  0.399700  0.439890  0.016500  1.0  -0.2188
  C  C158  1  0.365900  0.445960  0.144900  1.0  0.1267
  C  C159  1  0.416500  0.404940  0.229400  1.0  -0.1984
  C  C160  1  0.501800  0.362530  0.183500  1.0  0.1726
  N  N161  1  0.502420  0.143540  0.565390  1.0  -0.3142
  N  N162  1  0.962650  0.857840  0.940370  1.0  -0.3003
  N  N163  1  0.497580  0.856460  0.565390  1.0  -0.3149
  N  N164  1  0.037350  0.142160  0.940370  1.0  -0.3017
  N  N165  1  0.002420  0.356460  0.434610  1.0  -0.3145
  N  N166  1  0.462650  0.642160  0.059630  1.0  -0.2999
  N  N167  1  0.997580  0.643540  0.434610  1.0  -0.3143
  N  N168  1  0.537350  0.357840  0.059630  1.0  -0.3014
  O  O169  1  0.666200  0.236490  0.692210  1.0  -0.5682
  O  O170  1  0.660560  0.316770  0.807590  1.0  -0.5684
  O  O171  1  0.705260  0.291030  0.473290  1.0  -0.5244
  O  O172  1  0.438200  0.260140  0.524190  1.0  -0.6009
  O  O173  1  0.297970  0.334190  0.511670  1.0  -0.5898
  O  O174  1  0.451600  0.254910  0.949480  1.0  -0.5423
  O  O175  1  0.331620  0.175490  0.981570  1.0  -0.5746
  O  O176  1  0.692190  0.203730  0.933200  1.0  -0.5239
  O  O177  1  0.632560  0.252890  0.176230  1.0  -0.581
  O  O178  1  0.580560  0.188900  0.324730  1.0  -0.6136
  O  O179  1  0.333800  0.763510  0.692210  1.0  -0.5682
  O  O180  1  0.339440  0.683230  0.807590  1.0  -0.5692
  O  O181  1  0.294740  0.708970  0.473290  1.0  -0.5257
  O  O182  1  0.561800  0.739860  0.524190  1.0  -0.6006
  O  O183  1  0.702030  0.665810  0.511670  1.0  -0.5901
  O  O184  1  0.548400  0.745090  0.949480  1.0  -0.5428
  O  O185  1  0.668380  0.824510  0.981570  1.0  -0.5761
  O  O186  1  0.307810  0.796270  0.933200  1.0  -0.5258
  O  O187  1  0.367440  0.747110  0.176230  1.0  -0.5817
  O  O188  1  0.419440  0.811100  0.324730  1.0  -0.6131
  O  O189  1  0.166200  0.263510  0.307790  1.0  -0.5684
  O  O190  1  0.160560  0.183230  0.192410  1.0  -0.5698
  O  O191  1  0.205260  0.208970  0.526710  1.0  -0.5237
  O  O192  1  0.938200  0.239860  0.475810  1.0  -0.5999
  O  O193  1  0.797970  0.165810  0.488330  1.0  -0.5905
  O  O194  1  0.951600  0.245090  0.050520  1.0  -0.5428
  O  O195  1  0.831620  0.324510  0.018430  1.0  -0.5755
  O  O196  1  0.192190  0.296270  0.066800  1.0  -0.5285
  O  O197  1  0.132560  0.247110  0.823770  1.0  -0.5815
  O  O198  1  0.080560  0.311100  0.675270  1.0  -0.6147
  O  O199  1  0.833800  0.736490  0.307790  1.0  -0.5683
  O  O200  1  0.839440  0.816770  0.192410  1.0  -0.5687
  O  O201  1  0.794740  0.791030  0.526710  1.0  -0.5252
  O  O202  1  0.061800  0.760140  0.475810  1.0  -0.6001
  O  O203  1  0.202030  0.834190  0.488330  1.0  -0.5903
  O  O204  1  0.048400  0.754910  0.050520  1.0  -0.5427
  O  O205  1  0.168380  0.675490  0.018430  1.0  -0.575
  O  O206  1  0.807810  0.703730  0.066800  1.0  -0.5267
  O  O207  1  0.867440  0.752890  0.823770  1.0  -0.5813
  O  O208  1  0.919440  0.688900  0.675270  1.0  -0.615
