# generated using pymatgen
data_MgH2(C3O2)2
_symmetry_space_group_name_H-M   'P 1'
_cell_length_a   17.49000000
_cell_length_b   11.94000000
_cell_length_c   18.46000000
_cell_angle_alpha   90.00000000
_cell_angle_beta   116.87000000
_cell_angle_gamma   90.00000000
_symmetry_Int_Tables_number   1
_chemical_formula_structural   MgH2(C3O2)2
_chemical_formula_sum   'Mg12 H24 C72 O48'
_cell_volume   3438.80371853
_cell_formula_units_Z   12
loop_
 _symmetry_equiv_pos_site_id
 _symmetry_equiv_pos_as_xyz
  1  'x, y, z'
loop_
 _atom_site_type_symbol
 _atom_site_label
 _atom_site_symmetry_multiplicity
 _atom_site_fract_x
 _atom_site_fract_y
 _atom_site_fract_z
 _atom_site_occupancy
 _atom_site_charge
  Mg  Mg1  1  0.287080  0.417960  0.027560  1.0  1.4854
  Mg  Mg2  1  0.287820  0.947570  0.699560  1.0  1.6392
  Mg  Mg3  1  0.834100  0.820950  0.118240  1.0  1.5276
  Mg  Mg4  1  0.712920  0.917960  0.472440  1.0  1.485
  Mg  Mg5  1  0.712180  0.447570  0.800440  1.0  1.64
  Mg  Mg6  1  0.165900  0.320950  0.381760  1.0  1.5263
  Mg  Mg7  1  0.712920  0.582040  0.972440  1.0  1.4851
  Mg  Mg8  1  0.712180  0.052430  0.300440  1.0  1.6375
  Mg  Mg9  1  0.165900  0.179050  0.881760  1.0  1.5275
  Mg  Mg10  1  0.287080  0.082040  0.527560  1.0  1.4854
  Mg  Mg11  1  0.287820  0.552430  0.199560  1.0  1.6441
  Mg  Mg12  1  0.834100  0.679050  0.618240  1.0  1.5292
  H  H13  1  0.033500  0.543800  0.865500  1.0  0.103
  H  H14  1  0.825400  0.658900  0.878900  1.0  0.0762
  H  H15  1  0.054500  0.681700  0.071800  1.0  0.0979
  H  H16  1  0.299600  0.190000  0.773500  1.0  0.0827
  H  H17  1  0.471500  0.402400  0.931900  1.0  0.0969
  H  H18  1  0.501100  0.287700  0.742200  1.0  0.0937
  H  H19  1  0.966500  0.043800  0.634500  1.0  0.1028
  H  H20  1  0.174600  0.158900  0.621100  1.0  0.0762
  H  H21  1  0.945500  0.181700  0.428200  1.0  0.0984
  H  H22  1  0.700400  0.690000  0.726500  1.0  0.0824
  H  H23  1  0.528500  0.902400  0.568100  1.0  0.0967
  H  H24  1  0.498900  0.787700  0.757800  1.0  0.0939
  H  H25  1  0.966500  0.456200  0.134500  1.0  0.1022
  H  H26  1  0.174600  0.341100  0.121100  1.0  0.0762
  H  H27  1  0.945500  0.318300  0.928200  1.0  0.0975
  H  H28  1  0.700400  0.810000  0.226500  1.0  0.082
  H  H29  1  0.528500  0.597600  0.068100  1.0  0.0964
  H  H30  1  0.498900  0.712300  0.257800  1.0  0.0939
  H  H31  1  0.033500  0.956200  0.365500  1.0  0.103
  H  H32  1  0.825400  0.841100  0.378900  1.0  0.0761
  H  H33  1  0.054500  0.818300  0.571800  1.0  0.0973
  H  H34  1  0.299600  0.310000  0.273500  1.0  0.0823
  H  H35  1  0.471500  0.097600  0.431900  1.0  0.0968
  H  H36  1  0.501100  0.212300  0.242200  1.0  0.0937
  C  C37  1  0.921200  0.597210  0.858430  1.0  -0.1466
  C  C38  1  0.151110  0.572960  0.020970  1.0  0.7274
  C  C39  1  0.892570  0.727010  0.031880  1.0  0.6794
  C  C40  1  0.863640  0.563650  0.771960  1.0  0.7706
  C  C41  1  0.356600  0.176030  0.663720  1.0  0.6884
  C  C42  1  0.058490  0.606300  0.975900  1.0  -0.195
  C  C43  1  0.933250  0.678100  0.982900  1.0  -0.183
  C  C44  1  0.588570  0.403010  0.872980  1.0  0.7516
  C  C45  1  0.393020  0.233420  0.743560  1.0  -0.1569
  C  C46  1  0.501640  0.349830  0.843690  1.0  -0.1662
  C  C47  1  0.377210  0.296760  0.859570  1.0  -0.136
  C  C48  1  0.323950  0.295370  0.904880  1.0  0.7402
  C  C49  1  0.008280  0.577040  0.895000  1.0  -0.0221
  C  C50  1  0.884280  0.646690  0.903180  1.0  -0.0774
  C  C51  1  0.020670  0.658940  0.018540  1.0  -0.0486
  C  C52  1  0.348810  0.233270  0.789740  1.0  -0.0188
  C  C53  1  0.453230  0.357270  0.886090  1.0  0.0028
  C  C54  1  0.470000  0.289930  0.771870  1.0  -0.0302
  C  C55  1  0.078800  0.097210  0.641570  1.0  -0.1424
  C  C56  1  0.848890  0.072960  0.479030  1.0  0.7246
  C  C57  1  0.107430  0.227010  0.468120  1.0  0.6788
  C  C58  1  0.136360  0.063650  0.728040  1.0  0.7684
  C  C59  1  0.643400  0.676030  0.836280  1.0  0.6896
  C  C60  1  0.941510  0.106300  0.524100  1.0  -0.1965
  C  C61  1  0.066750  0.178100  0.517100  1.0  -0.1831
  C  C62  1  0.411430  0.903010  0.627020  1.0  0.7518
  C  C63  1  0.606980  0.733420  0.756440  1.0  -0.1567
  C  C64  1  0.498360  0.849830  0.656310  1.0  -0.166
  C  C65  1  0.622790  0.796760  0.640430  1.0  -0.1357
  C  C66  1  0.676050  0.795370  0.595120  1.0  0.7398
  C  C67  1  0.991720  0.077040  0.605000  1.0  -0.0219
  C  C68  1  0.115720  0.146690  0.596820  1.0  -0.0765
  C  C69  1  0.979330  0.158940  0.481460  1.0  -0.0481
  C  C70  1  0.651190  0.733270  0.710260  1.0  -0.0182
  C  C71  1  0.546770  0.857270  0.613910  1.0  0.0025
  C  C72  1  0.530000  0.789930  0.728130  1.0  -0.0298
  C  C73  1  0.078800  0.402790  0.141570  1.0  -0.1421
  C  C74  1  0.848890  0.427040  0.979030  1.0  0.7239
  C  C75  1  0.107430  0.272990  0.968120  1.0  0.6808
  C  C76  1  0.136360  0.436350  0.228040  1.0  0.7682
  C  C77  1  0.643400  0.823970  0.336280  1.0  0.6901
  C  C78  1  0.941510  0.393700  0.024100  1.0  -0.1952
  C  C79  1  0.066750  0.321900  0.017100  1.0  -0.1844
  C  C80  1  0.411430  0.596990  0.127020  1.0  0.7513
  C  C81  1  0.606980  0.766580  0.256440  1.0  -0.1574
  C  C82  1  0.498360  0.650170  0.156310  1.0  -0.166
  C  C83  1  0.622790  0.703240  0.140430  1.0  -0.1358
  C  C84  1  0.676050  0.704630  0.095120  1.0  0.74
  C  C85  1  0.991720  0.422960  0.105000  1.0  -0.0206
  C  C86  1  0.115720  0.353310  0.096820  1.0  -0.0757
  C  C87  1  0.979330  0.341060  0.981460  1.0  -0.0484
  C  C88  1  0.651190  0.766730  0.210260  1.0  -0.0184
  C  C89  1  0.546770  0.642730  0.113910  1.0  0.0025
  C  C90  1  0.530000  0.710070  0.228130  1.0  -0.0296
  C  C91  1  0.921200  0.902790  0.358430  1.0  -0.1465
  C  C92  1  0.151110  0.927040  0.520970  1.0  0.7259
  C  C93  1  0.892570  0.772990  0.531880  1.0  0.6819
  C  C94  1  0.863640  0.936350  0.271960  1.0  0.7704
  C  C95  1  0.356600  0.323970  0.163720  1.0  0.6887
  C  C96  1  0.058490  0.893700  0.475900  1.0  -0.1959
  C  C97  1  0.933250  0.821900  0.482900  1.0  -0.1845
  C  C98  1  0.588570  0.096990  0.372980  1.0  0.7512
  C  C99  1  0.393020  0.266580  0.243560  1.0  -0.1572
  C  C100  1  0.501640  0.150170  0.343690  1.0  -0.1659
  C  C101  1  0.377210  0.203240  0.359570  1.0  -0.1359
  C  C102  1  0.323950  0.204630  0.404880  1.0  0.7403
  C  C103  1  0.008280  0.922960  0.395000  1.0  -0.0224
  C  C104  1  0.884280  0.853310  0.403180  1.0  -0.0787
  C  C105  1  0.020670  0.841060  0.518540  1.0  -0.05
  C  C106  1  0.348810  0.266730  0.289740  1.0  -0.0188
  C  C107  1  0.453230  0.142730  0.386090  1.0  0.0031
  C  C108  1  0.470000  0.210070  0.271870  1.0  -0.0302
  O  O109  1  0.320840  0.382360  0.940210  1.0  -0.6584
  O  O110  1  0.305230  0.094630  0.650730  1.0  -0.8366
  O  O111  1  0.185110  0.523880  0.982680  1.0  -0.6774
  O  O112  1  0.186900  0.594690  0.094960  1.0  -0.7256
  O  O113  1  0.372980  0.209910  0.608800  1.0  -0.5772
  O  O114  1  0.793330  0.520920  0.757110  1.0  -0.7376
  O  O115  1  0.813340  0.712960  0.009710  1.0  -0.709
  O  O116  1  0.628000  0.377400  0.833360  1.0  -0.7209
  O  O117  1  0.614870  0.465930  0.933280  1.0  -0.6329
  O  O118  1  0.286380  0.205020  0.902220  1.0  -0.7279
  O  O119  1  0.937350  0.782680  0.094000  1.0  -0.6406
  O  O120  1  0.889200  0.583180  0.719590  1.0  -0.7426
  O  O121  1  0.679160  0.882360  0.559790  1.0  -0.657
  O  O122  1  0.694770  0.594630  0.849270  1.0  -0.8374
  O  O123  1  0.814890  0.023880  0.517320  1.0  -0.6702
  O  O124  1  0.813100  0.094690  0.405040  1.0  -0.7209
  O  O125  1  0.627020  0.709910  0.891200  1.0  -0.5755
  O  O126  1  0.206670  0.020920  0.742890  1.0  -0.7359
  O  O127  1  0.186660  0.212960  0.490290  1.0  -0.71
  O  O128  1  0.372000  0.877400  0.666667  1.0  -0.7307
  O  O129  1  0.385130  0.965930  0.566720  1.0  -0.6341
  O  O130  1  0.713620  0.705020  0.597780  1.0  -0.7267
  O  O131  1  0.062650  0.282680  0.406000  1.0  -0.642
  O  O132  1  0.110800  0.083180  0.780410  1.0  -0.7433
  O  O133  1  0.679160  0.617640  0.059790  1.0  -0.6563
  O  O134  1  0.694770  0.905370  0.349270  1.0  -0.8373
  O  O135  1  0.814890  0.476120  0.017320  1.0  -0.6704
  O  O136  1  0.813100  0.405310  0.905040  1.0  -0.7176
  O  O137  1  0.627020  0.790090  0.391200  1.0  -0.5779
  O  O138  1  0.206670  0.479080  0.242890  1.0  -0.7362
  O  O139  1  0.186660  0.287040  0.990290  1.0  -0.7092
  O  O140  1  0.372000  0.622600  0.166640  1.0  -0.7266
  O  O141  1  0.385130  0.534070  0.066720  1.0  -0.6339
  O  O142  1  0.713620  0.794980  0.097780  1.0  -0.7257
  O  O143  1  0.062650  0.217320  0.906000  1.0  -0.6426
  O  O144  1  0.110800  0.416820  0.280410  1.0  -0.742
  O  O145  1  0.320840  0.117640  0.440210  1.0  -0.6584
  O  O146  1  0.305230  0.405370  0.150730  1.0  -0.8364
  O  O147  1  0.185110  0.976120  0.482680  1.0  -0.6746
  O  O148  1  0.186900  0.905310  0.594960  1.0  -0.7203
  O  O149  1  0.372980  0.290090  0.108800  1.0  -0.5772
  O  O150  1  0.793330  0.979080  0.257110  1.0  -0.7385
  O  O151  1  0.813340  0.787040  0.509710  1.0  -0.7085
  O  O152  1  0.628000  0.122600  0.333333  1.0  -0.7229
  O  O153  1  0.614870  0.034070  0.433280  1.0  -0.6341
  O  O154  1  0.286380  0.294980  0.402220  1.0  -0.7266
  O  O155  1  0.937350  0.717320  0.594000  1.0  -0.6424
  O  O156  1  0.889200  0.916820  0.219590  1.0  -0.7438
