# generated using pymatgen
data_K2Nd2Pt4C16N16O
_symmetry_space_group_name_H-M   'P 1'
_cell_length_a   19.42810000
_cell_length_b   26.85870000
_cell_length_c   34.72700000
_cell_angle_alpha   90.00000000
_cell_angle_beta   90.00000000
_cell_angle_gamma   90.00000000
_symmetry_Int_Tables_number   1
_chemical_formula_structural   K2Nd2Pt4C16N16O
_chemical_formula_sum   'K32 Nd32 Pt64 C256 N256 O16'
_cell_volume   18121.01774336
_cell_formula_units_Z   16
loop_
 _symmetry_equiv_pos_site_id
 _symmetry_equiv_pos_as_xyz
  1  'x, y, z'
loop_
 _atom_site_type_symbol
 _atom_site_label
 _atom_site_symmetry_multiplicity
 _atom_site_fract_x
 _atom_site_fract_y
 _atom_site_fract_z
 _atom_site_occupancy
 _atom_site_charge
  K  K1  1  0.560640  0.634820  0.483730  1.0  0.9313
  K  K2  1  0.560640  0.134820  0.983730  1.0  0.9313
  K  K3  1  0.060640  0.634820  0.983730  1.0  0.9313
  K  K4  1  0.060640  0.134820  0.483730  1.0  0.9313
  K  K5  1  0.439360  0.365180  0.483730  1.0  0.931
  K  K6  1  0.439360  0.865180  0.983730  1.0  0.931
  K  K7  1  0.939360  0.365180  0.983730  1.0  0.931
  K  K8  1  0.939360  0.865180  0.483730  1.0  0.931
  K  K9  1  0.810640  0.615180  0.733730  1.0  0.9314
  K  K10  1  0.810640  0.115180  0.233730  1.0  0.9314
  K  K11  1  0.310640  0.615180  0.233730  1.0  0.9314
  K  K12  1  0.310640  0.115180  0.733730  1.0  0.9314
  K  K13  1  0.689360  0.884820  0.733730  1.0  0.9309
  K  K14  1  0.689360  0.384820  0.233730  1.0  0.9309
  K  K15  1  0.189360  0.884820  0.233730  1.0  0.9309
  K  K16  1  0.189360  0.384820  0.733730  1.0  0.9309
  K  K17  1  0.500000  0.500000  0.144360  1.0  0.9347
  K  K18  1  0.500000  0.500000  0.545150  1.0  0.9346
  K  K19  1  0.500000  0.000000  0.644360  1.0  0.9347
  K  K20  1  0.500000  0.000000  0.045150  1.0  0.9346
  K  K21  1  0.000000  0.500000  0.644360  1.0  0.9347
  K  K22  1  0.000000  0.500000  0.045150  1.0  0.9346
  K  K23  1  0.000000  0.000000  0.144360  1.0  0.9347
  K  K24  1  0.000000  0.000000  0.545150  1.0  0.9346
  K  K25  1  0.750000  0.750000  0.394360  1.0  0.9347
  K  K26  1  0.750000  0.750000  0.795150  1.0  0.9346
  K  K27  1  0.750000  0.250000  0.894360  1.0  0.9347
  K  K28  1  0.750000  0.250000  0.295150  1.0  0.9346
  K  K29  1  0.250000  0.750000  0.894360  1.0  0.9347
  K  K30  1  0.250000  0.750000  0.295150  1.0  0.9346
  K  K31  1  0.250000  0.250000  0.394360  1.0  0.9347
  K  K32  1  0.250000  0.250000  0.795150  1.0  0.9346
  Nd  Nd33  1  0.743860  0.558140  0.932020  1.0  1.8561
  Nd  Nd34  1  0.742770  0.568950  0.259880  1.0  1.8345
  Nd  Nd35  1  0.743860  0.058140  0.432020  1.0  1.8561
  Nd  Nd36  1  0.742770  0.068950  0.759880  1.0  1.8345
  Nd  Nd37  1  0.243860  0.558140  0.432020  1.0  1.8561
  Nd  Nd38  1  0.242770  0.568950  0.759880  1.0  1.8598
  Nd  Nd39  1  0.243860  0.058140  0.932020  1.0  1.8561
  Nd  Nd40  1  0.242770  0.068950  0.259880  1.0  1.8598
  Nd  Nd41  1  0.256140  0.441860  0.932020  1.0  1.8562
  Nd  Nd42  1  0.257230  0.431050  0.259880  1.0  1.8346
  Nd  Nd43  1  0.256140  0.941860  0.432020  1.0  1.8562
  Nd  Nd44  1  0.257230  0.931050  0.759880  1.0  1.8346
  Nd  Nd45  1  0.756140  0.441860  0.432020  1.0  1.8562
  Nd  Nd46  1  0.757230  0.431050  0.759880  1.0  1.8442
  Nd  Nd47  1  0.756140  0.941860  0.932020  1.0  1.8562
  Nd  Nd48  1  0.757230  0.931050  0.259880  1.0  1.8442
  Nd  Nd49  1  0.993860  0.691860  0.182020  1.0  1.8561
  Nd  Nd50  1  0.992770  0.681050  0.509880  1.0  1.8346
  Nd  Nd51  1  0.993860  0.191860  0.682020  1.0  1.8561
  Nd  Nd52  1  0.992770  0.181050  0.009880  1.0  1.8346
  Nd  Nd53  1  0.493860  0.691860  0.682020  1.0  1.8561
  Nd  Nd54  1  0.492770  0.681050  0.009880  1.0  1.8442
  Nd  Nd55  1  0.493860  0.191860  0.182020  1.0  1.8561
  Nd  Nd56  1  0.492770  0.181050  0.509880  1.0  1.8442
  Nd  Nd57  1  0.506140  0.808140  0.182020  1.0  1.8561
  Nd  Nd58  1  0.507230  0.818950  0.509880  1.0  1.8344
  Nd  Nd59  1  0.506140  0.308140  0.682020  1.0  1.8561
  Nd  Nd60  1  0.507230  0.318950  0.009880  1.0  1.8344
  Nd  Nd61  1  0.006140  0.808140  0.682020  1.0  1.8561
  Nd  Nd62  1  0.007230  0.818950  0.009880  1.0  1.8398
  Nd  Nd63  1  0.006140  0.308140  0.182020  1.0  1.8561
  Nd  Nd64  1  0.007230  0.318950  0.509880  1.0  1.8398
  Pt  Pt65  1  0.752910  0.564440  0.096280  1.0  0.2422
  Pt  Pt66  1  0.992050  0.561660  0.844740  1.0  0.3183
  Pt  Pt67  1  0.500650  0.563620  0.839430  1.0  0.2955
  Pt  Pt68  1  0.244780  0.557650  0.094950  1.0  0.3415
  Pt  Pt69  1  0.752910  0.064440  0.596280  1.0  0.2422
  Pt  Pt70  1  0.992050  0.061660  0.344740  1.0  0.3183
  Pt  Pt71  1  0.500650  0.063620  0.339430  1.0  0.2955
  Pt  Pt72  1  0.244780  0.057650  0.594950  1.0  0.3415
  Pt  Pt73  1  0.252910  0.564440  0.596280  1.0  0.2422
  Pt  Pt74  1  0.492050  0.561660  0.344740  1.0  0.3183
  Pt  Pt75  1  0.000650  0.563620  0.339430  1.0  0.2955
  Pt  Pt76  1  0.744780  0.557650  0.594950  1.0  0.3415
  Pt  Pt77  1  0.252910  0.064440  0.096280  1.0  0.2422
  Pt  Pt78  1  0.492050  0.061660  0.844740  1.0  0.3183
  Pt  Pt79  1  0.000650  0.063620  0.839430  1.0  0.2955
  Pt  Pt80  1  0.744780  0.057650  0.094950  1.0  0.3415
  Pt  Pt81  1  0.247090  0.435560  0.096280  1.0  0.2424
  Pt  Pt82  1  0.007950  0.438340  0.844740  1.0  0.318
  Pt  Pt83  1  0.499350  0.436380  0.839430  1.0  0.2945
  Pt  Pt84  1  0.755220  0.442350  0.094950  1.0  0.3406
  Pt  Pt85  1  0.247090  0.935560  0.596280  1.0  0.2424
  Pt  Pt86  1  0.007950  0.938340  0.344740  1.0  0.318
  Pt  Pt87  1  0.499350  0.936380  0.339430  1.0  0.2945
  Pt  Pt88  1  0.755220  0.942350  0.594950  1.0  0.3406
  Pt  Pt89  1  0.747090  0.435560  0.596280  1.0  0.2424
  Pt  Pt90  1  0.507950  0.438340  0.344740  1.0  0.318
  Pt  Pt91  1  0.999350  0.436380  0.339430  1.0  0.2945
  Pt  Pt92  1  0.255220  0.442350  0.594950  1.0  0.3406
  Pt  Pt93  1  0.747090  0.935560  0.096280  1.0  0.2424
  Pt  Pt94  1  0.507950  0.938340  0.844740  1.0  0.318
  Pt  Pt95  1  0.999350  0.936380  0.839430  1.0  0.2945
  Pt  Pt96  1  0.255220  0.942350  0.094950  1.0  0.3406
  Pt  Pt97  1  0.002910  0.685560  0.346280  1.0  0.2423
  Pt  Pt98  1  0.242050  0.688340  0.094740  1.0  0.3185
  Pt  Pt99  1  0.750650  0.686380  0.089430  1.0  0.2951
  Pt  Pt100  1  0.494780  0.692350  0.344950  1.0  0.3418
  Pt  Pt101  1  0.002910  0.185560  0.846280  1.0  0.2423
  Pt  Pt102  1  0.242050  0.188340  0.594740  1.0  0.3185
  Pt  Pt103  1  0.750650  0.186380  0.589430  1.0  0.2951
  Pt  Pt104  1  0.494780  0.192350  0.844950  1.0  0.3418
  Pt  Pt105  1  0.502910  0.685560  0.846280  1.0  0.2423
  Pt  Pt106  1  0.742050  0.688340  0.594740  1.0  0.3185
  Pt  Pt107  1  0.250650  0.686380  0.589430  1.0  0.2951
  Pt  Pt108  1  0.994780  0.692350  0.844950  1.0  0.3418
  Pt  Pt109  1  0.502910  0.185560  0.346280  1.0  0.2423
  Pt  Pt110  1  0.742050  0.188340  0.094740  1.0  0.3185
  Pt  Pt111  1  0.250650  0.186380  0.089430  1.0  0.2951
  Pt  Pt112  1  0.994780  0.192350  0.344950  1.0  0.3418
  Pt  Pt113  1  0.497090  0.814440  0.346280  1.0  0.2423
  Pt  Pt114  1  0.257950  0.811660  0.094740  1.0  0.3179
  Pt  Pt115  1  0.749350  0.813620  0.089430  1.0  0.2948
  Pt  Pt116  1  0.005220  0.807650  0.344950  1.0  0.3404
  Pt  Pt117  1  0.497090  0.314440  0.846280  1.0  0.2423
  Pt  Pt118  1  0.257950  0.311660  0.594740  1.0  0.3179
  Pt  Pt119  1  0.749350  0.313620  0.589430  1.0  0.2948
  Pt  Pt120  1  0.005220  0.307650  0.844950  1.0  0.3404
  Pt  Pt121  1  0.997090  0.814440  0.846280  1.0  0.2423
  Pt  Pt122  1  0.757950  0.811660  0.594740  1.0  0.3179
  Pt  Pt123  1  0.249350  0.813620  0.589430  1.0  0.2948
  Pt  Pt124  1  0.505220  0.807650  0.844950  1.0  0.3404
  Pt  Pt125  1  0.997090  0.314440  0.346280  1.0  0.2423
  Pt  Pt126  1  0.757950  0.311660  0.094740  1.0  0.3179
  Pt  Pt127  1  0.249350  0.313620  0.089430  1.0  0.2948
  Pt  Pt128  1  0.505220  0.307650  0.344950  1.0  0.3404
  C  C129  1  0.651800  0.564900  0.098400  1.0  0.0465
  C  C130  1  0.748900  0.562000  0.039200  1.0  0.1542
  C  C131  1  0.855500  0.562200  0.094200  1.0  0.1009
  C  C132  1  0.757600  0.568700  0.153000  1.0  0.1691
  C  C133  1  0.039500  0.560500  0.895100  1.0  0.1029
  C  C134  1  0.082300  0.567800  0.816700  1.0  0.0421
  C  C135  1  0.946600  0.561900  0.793900  1.0  0.0657
  C  C136  1  0.902000  0.554900  0.871200  1.0  0.148
  C  C137  1  0.586700  0.563000  0.871300  1.0  0.1218
  C  C138  1  0.560100  0.563800  0.792500  1.0  0.1276
  C  C139  1  0.418700  0.565400  0.807400  1.0  0.0747
  C  C140  1  0.444500  0.563200  0.887700  1.0  0.1144
  C  C141  1  0.175300  0.561400  0.134000  1.0  0.1477
  C  C142  1  0.315400  0.555100  0.137700  1.0  0.1286
  C  C143  1  0.315500  0.554300  0.055800  1.0  0.0695
  C  C144  1  0.172700  0.558500  0.053000  1.0  0.04
  C  C145  1  0.651800  0.064900  0.598400  1.0  0.0465
  C  C146  1  0.748900  0.062000  0.539200  1.0  0.1542
  C  C147  1  0.855500  0.062200  0.594200  1.0  0.1009
  C  C148  1  0.757600  0.068700  0.653000  1.0  0.1691
  C  C149  1  0.039500  0.060500  0.395100  1.0  0.1029
  C  C150  1  0.082300  0.067800  0.316700  1.0  0.0421
  C  C151  1  0.946600  0.061900  0.293900  1.0  0.0657
  C  C152  1  0.902000  0.054900  0.371200  1.0  0.148
  C  C153  1  0.586700  0.063000  0.371300  1.0  0.1218
  C  C154  1  0.560100  0.063800  0.292500  1.0  0.1276
  C  C155  1  0.418700  0.065400  0.307400  1.0  0.0747
  C  C156  1  0.444500  0.063200  0.387700  1.0  0.1144
  C  C157  1  0.175300  0.061400  0.634000  1.0  0.1477
  C  C158  1  0.315400  0.055100  0.637700  1.0  0.1286
  C  C159  1  0.315500  0.054300  0.555800  1.0  0.0695
  C  C160  1  0.172700  0.058500  0.553000  1.0  0.04
  C  C161  1  0.151800  0.564900  0.598400  1.0  0.0465
  C  C162  1  0.248900  0.562000  0.539200  1.0  0.1542
  C  C163  1  0.355500  0.562200  0.594200  1.0  0.1009
  C  C164  1  0.257600  0.568700  0.653000  1.0  0.1691
  C  C165  1  0.539500  0.560500  0.395100  1.0  0.1029
  C  C166  1  0.582300  0.567800  0.316700  1.0  0.0421
  C  C167  1  0.446600  0.561900  0.293900  1.0  0.0657
  C  C168  1  0.402000  0.554900  0.371200  1.0  0.148
  C  C169  1  0.086700  0.563000  0.371300  1.0  0.1218
  C  C170  1  0.060100  0.563800  0.292500  1.0  0.1276
  C  C171  1  0.918700  0.565400  0.307400  1.0  0.0747
  C  C172  1  0.944500  0.563200  0.387700  1.0  0.1144
  C  C173  1  0.675300  0.561400  0.634000  1.0  0.1477
  C  C174  1  0.815400  0.555100  0.637700  1.0  0.1286
  C  C175  1  0.815500  0.554300  0.555800  1.0  0.0695
  C  C176  1  0.672700  0.558500  0.553000  1.0  0.04
  C  C177  1  0.151800  0.064900  0.098400  1.0  0.0465
  C  C178  1  0.248900  0.062000  0.039200  1.0  0.1542
  C  C179  1  0.355500  0.062200  0.094200  1.0  0.1009
  C  C180  1  0.257600  0.068700  0.153000  1.0  0.1691
  C  C181  1  0.539500  0.060500  0.895100  1.0  0.1029
  C  C182  1  0.582300  0.067800  0.816700  1.0  0.0421
  C  C183  1  0.446600  0.061900  0.793900  1.0  0.0657
  C  C184  1  0.402000  0.054900  0.871200  1.0  0.148
  C  C185  1  0.086700  0.063000  0.871300  1.0  0.1218
  C  C186  1  0.060100  0.063800  0.792500  1.0  0.1276
  C  C187  1  0.918700  0.065400  0.807400  1.0  0.0747
  C  C188  1  0.944500  0.063200  0.887700  1.0  0.1144
  C  C189  1  0.675300  0.061400  0.134000  1.0  0.1477
  C  C190  1  0.815400  0.055100  0.137700  1.0  0.1286
  C  C191  1  0.815500  0.054300  0.055800  1.0  0.0695
  C  C192  1  0.672700  0.058500  0.053000  1.0  0.04
  C  C193  1  0.348200  0.435100  0.098400  1.0  0.0476
  C  C194  1  0.251100  0.438000  0.039200  1.0  0.1543
  C  C195  1  0.144500  0.437800  0.094200  1.0  0.1008
  C  C196  1  0.242400  0.431300  0.153000  1.0  0.1691
  C  C197  1  0.960500  0.439500  0.895100  1.0  0.1027
  C  C198  1  0.917700  0.432200  0.816700  1.0  0.0415
  C  C199  1  0.053400  0.438100  0.793900  1.0  0.0651
  C  C200  1  0.098000  0.445100  0.871200  1.0  0.148
  C  C201  1  0.413300  0.437000  0.871300  1.0  0.1212
  C  C202  1  0.439900  0.436200  0.792500  1.0  0.1268
  C  C203  1  0.581300  0.434600  0.807400  1.0  0.0761
  C  C204  1  0.555500  0.436800  0.887700  1.0  0.1157
  C  C205  1  0.824700  0.438600  0.134000  1.0  0.1477
  C  C206  1  0.684600  0.444900  0.137700  1.0  0.129
  C  C207  1  0.684500  0.445700  0.055800  1.0  0.0697
  C  C208  1  0.827300  0.441500  0.053000  1.0  0.0403
  C  C209  1  0.348200  0.935100  0.598400  1.0  0.0476
  C  C210  1  0.251100  0.938000  0.539200  1.0  0.1543
  C  C211  1  0.144500  0.937800  0.594200  1.0  0.1008
  C  C212  1  0.242400  0.931300  0.653000  1.0  0.1691
  C  C213  1  0.960500  0.939500  0.395100  1.0  0.1027
  C  C214  1  0.917700  0.932200  0.316700  1.0  0.0415
  C  C215  1  0.053400  0.938100  0.293900  1.0  0.0651
  C  C216  1  0.098000  0.945100  0.371200  1.0  0.148
  C  C217  1  0.413300  0.937000  0.371300  1.0  0.1212
  C  C218  1  0.439900  0.936200  0.292500  1.0  0.1268
  C  C219  1  0.581300  0.934600  0.307400  1.0  0.0761
  C  C220  1  0.555500  0.936800  0.387700  1.0  0.1157
  C  C221  1  0.824700  0.938600  0.634000  1.0  0.1477
  C  C222  1  0.684600  0.944900  0.637700  1.0  0.129
  C  C223  1  0.684500  0.945700  0.555800  1.0  0.0697
  C  C224  1  0.827300  0.941500  0.553000  1.0  0.0403
  C  C225  1  0.848200  0.435100  0.598400  1.0  0.0476
  C  C226  1  0.751100  0.438000  0.539200  1.0  0.1543
  C  C227  1  0.644500  0.437800  0.594200  1.0  0.1008
  C  C228  1  0.742400  0.431300  0.653000  1.0  0.1691
  C  C229  1  0.460500  0.439500  0.395100  1.0  0.1027
  C  C230  1  0.417700  0.432200  0.316700  1.0  0.0415
  C  C231  1  0.553400  0.438100  0.293900  1.0  0.0651
  C  C232  1  0.598000  0.445100  0.371200  1.0  0.148
  C  C233  1  0.913300  0.437000  0.371300  1.0  0.1212
  C  C234  1  0.939900  0.436200  0.292500  1.0  0.1268
  C  C235  1  0.081300  0.434600  0.307400  1.0  0.0761
  C  C236  1  0.055500  0.436800  0.387700  1.0  0.1157
  C  C237  1  0.324700  0.438600  0.634000  1.0  0.1477
  C  C238  1  0.184600  0.444900  0.637700  1.0  0.129
  C  C239  1  0.184500  0.445700  0.555800  1.0  0.0697
  C  C240  1  0.327300  0.441500  0.553000  1.0  0.0403
  C  C241  1  0.848200  0.935100  0.098400  1.0  0.0476
  C  C242  1  0.751100  0.938000  0.039200  1.0  0.1543
  C  C243  1  0.644500  0.937800  0.094200  1.0  0.1008
  C  C244  1  0.742400  0.931300  0.153000  1.0  0.1691
  C  C245  1  0.460500  0.939500  0.895100  1.0  0.1027
  C  C246  1  0.417700  0.932200  0.816700  1.0  0.0415
  C  C247  1  0.553400  0.938100  0.793900  1.0  0.0651
  C  C248  1  0.598000  0.945100  0.871200  1.0  0.148
  C  C249  1  0.913300  0.937000  0.871300  1.0  0.1212
  C  C250  1  0.939900  0.936200  0.792500  1.0  0.1268
  C  C251  1  0.081300  0.934600  0.807400  1.0  0.0761
  C  C252  1  0.055500  0.936800  0.887700  1.0  0.1157
  C  C253  1  0.324700  0.938600  0.134000  1.0  0.1477
  C  C254  1  0.184600  0.944900  0.137700  1.0  0.129
  C  C255  1  0.184500  0.945700  0.055800  1.0  0.0697
  C  C256  1  0.327300  0.941500  0.053000  1.0  0.0403
  C  C257  1  0.901800  0.685100  0.348400  1.0  0.0475
  C  C258  1  0.998900  0.688000  0.289200  1.0  0.154
  C  C259  1  0.105500  0.687800  0.344200  1.0  0.1009
  C  C260  1  0.007600  0.681300  0.403000  1.0  0.1692
  C  C261  1  0.289500  0.689500  0.145100  1.0  0.1029
  C  C262  1  0.332300  0.682200  0.066700  1.0  0.042
  C  C263  1  0.196600  0.688100  0.043900  1.0  0.0666
  C  C264  1  0.152000  0.695100  0.121200  1.0  0.1481
  C  C265  1  0.836700  0.687000  0.121300  1.0  0.1218
  C  C266  1  0.810100  0.686200  0.042500  1.0  0.1275
  C  C267  1  0.668700  0.684600  0.057400  1.0  0.0748
  C  C268  1  0.694500  0.686800  0.137700  1.0  0.1144
  C  C269  1  0.425300  0.688600  0.384000  1.0  0.1478
  C  C270  1  0.565400  0.694900  0.387700  1.0  0.1284
  C  C271  1  0.565500  0.695700  0.305800  1.0  0.0691
  C  C272  1  0.422700  0.691500  0.303000  1.0  0.0396
  C  C273  1  0.901800  0.185100  0.848400  1.0  0.0475
  C  C274  1  0.998900  0.188000  0.789200  1.0  0.154
  C  C275  1  0.105500  0.187800  0.844200  1.0  0.1009
  C  C276  1  0.007600  0.181300  0.903000  1.0  0.1692
  C  C277  1  0.289500  0.189500  0.645100  1.0  0.1029
  C  C278  1  0.332300  0.182200  0.566700  1.0  0.042
  C  C279  1  0.196600  0.188100  0.543900  1.0  0.0666
  C  C280  1  0.152000  0.195100  0.621200  1.0  0.1481
  C  C281  1  0.836700  0.187000  0.621300  1.0  0.1218
  C  C282  1  0.810100  0.186200  0.542500  1.0  0.1275
  C  C283  1  0.668700  0.184600  0.557400  1.0  0.0748
  C  C284  1  0.694500  0.186800  0.637700  1.0  0.1144
  C  C285  1  0.425300  0.188600  0.884000  1.0  0.1478
  C  C286  1  0.565400  0.194900  0.887700  1.0  0.1284
  C  C287  1  0.565500  0.195700  0.805800  1.0  0.0691
  C  C288  1  0.422700  0.191500  0.803000  1.0  0.0396
  C  C289  1  0.401800  0.685100  0.848400  1.0  0.0475
  C  C290  1  0.498900  0.688000  0.789200  1.0  0.154
  C  C291  1  0.605500  0.687800  0.844200  1.0  0.1009
  C  C292  1  0.507600  0.681300  0.903000  1.0  0.1692
  C  C293  1  0.789500  0.689500  0.645100  1.0  0.1029
  C  C294  1  0.832300  0.682200  0.566700  1.0  0.042
  C  C295  1  0.696600  0.688100  0.543900  1.0  0.0666
  C  C296  1  0.652000  0.695100  0.621200  1.0  0.1481
  C  C297  1  0.336700  0.687000  0.621300  1.0  0.1218
  C  C298  1  0.310100  0.686200  0.542500  1.0  0.1275
  C  C299  1  0.168700  0.684600  0.557400  1.0  0.0748
  C  C300  1  0.194500  0.686800  0.637700  1.0  0.1144
  C  C301  1  0.925300  0.688600  0.884000  1.0  0.1478
  C  C302  1  0.065400  0.694900  0.887700  1.0  0.1284
  C  C303  1  0.065500  0.695700  0.805800  1.0  0.0691
  C  C304  1  0.922700  0.691500  0.803000  1.0  0.0396
  C  C305  1  0.401800  0.185100  0.348400  1.0  0.0475
  C  C306  1  0.498900  0.188000  0.289200  1.0  0.154
  C  C307  1  0.605500  0.187800  0.344200  1.0  0.1009
  C  C308  1  0.507600  0.181300  0.403000  1.0  0.1692
  C  C309  1  0.789500  0.189500  0.145100  1.0  0.1029
  C  C310  1  0.832300  0.182200  0.066700  1.0  0.042
  C  C311  1  0.696600  0.188100  0.043900  1.0  0.0666
  C  C312  1  0.652000  0.195100  0.121200  1.0  0.1481
  C  C313  1  0.336700  0.187000  0.121300  1.0  0.1218
  C  C314  1  0.310100  0.186200  0.042500  1.0  0.1275
  C  C315  1  0.168700  0.184600  0.057400  1.0  0.0748
  C  C316  1  0.194500  0.186800  0.137700  1.0  0.1144
  C  C317  1  0.925300  0.188600  0.384000  1.0  0.1478
  C  C318  1  0.065400  0.194900  0.387700  1.0  0.1284
  C  C319  1  0.065500  0.195700  0.305800  1.0  0.0691
  C  C320  1  0.922700  0.191500  0.303000  1.0  0.0396
  C  C321  1  0.598200  0.814900  0.348400  1.0  0.0483
  C  C322  1  0.501100  0.812000  0.289200  1.0  0.1545
  C  C323  1  0.394500  0.812200  0.344200  1.0  0.1009
  C  C324  1  0.492400  0.818700  0.403000  1.0  0.1689
  C  C325  1  0.210500  0.810500  0.145100  1.0  0.1026
  C  C326  1  0.167700  0.817800  0.066700  1.0  0.0414
  C  C327  1  0.303400  0.811900  0.043900  1.0  0.0656
  C  C328  1  0.348000  0.804900  0.121200  1.0  0.1481
  C  C329  1  0.663300  0.813000  0.121300  1.0  0.1212
  C  C330  1  0.689900  0.813800  0.042500  1.0  0.1268
  C  C331  1  0.831300  0.815400  0.057400  1.0  0.076
  C  C332  1  0.805500  0.813200  0.137700  1.0  0.1157
  C  C333  1  0.074700  0.811400  0.384000  1.0  0.1476
  C  C334  1  0.934600  0.805100  0.387700  1.0  0.1289
  C  C335  1  0.934500  0.804300  0.305800  1.0  0.0714
  C  C336  1  0.077300  0.808500  0.303000  1.0  0.0406
  C  C337  1  0.598200  0.314900  0.848400  1.0  0.0483
  C  C338  1  0.501100  0.312000  0.789200  1.0  0.1545
  C  C339  1  0.394500  0.312200  0.844200  1.0  0.1009
  C  C340  1  0.492400  0.318700  0.903000  1.0  0.1689
  C  C341  1  0.210500  0.310500  0.645100  1.0  0.1026
  C  C342  1  0.167700  0.317800  0.566700  1.0  0.0414
  C  C343  1  0.303400  0.311900  0.543900  1.0  0.0656
  C  C344  1  0.348000  0.304900  0.621200  1.0  0.1481
  C  C345  1  0.663300  0.313000  0.621300  1.0  0.1212
  C  C346  1  0.689900  0.313800  0.542500  1.0  0.1268
  C  C347  1  0.831300  0.315400  0.557400  1.0  0.076
  C  C348  1  0.805500  0.313200  0.637700  1.0  0.1157
  C  C349  1  0.074700  0.311400  0.884000  1.0  0.1476
  C  C350  1  0.934600  0.305100  0.887700  1.0  0.1289
  C  C351  1  0.934500  0.304300  0.805800  1.0  0.0714
  C  C352  1  0.077300  0.308500  0.803000  1.0  0.0406
  C  C353  1  0.098200  0.814900  0.848400  1.0  0.0483
  C  C354  1  0.001100  0.812000  0.789200  1.0  0.1545
  C  C355  1  0.894500  0.812200  0.844200  1.0  0.1009
  C  C356  1  0.992400  0.818700  0.903000  1.0  0.1689
  C  C357  1  0.710500  0.810500  0.645100  1.0  0.1026
  C  C358  1  0.667700  0.817800  0.566700  1.0  0.0414
  C  C359  1  0.803400  0.811900  0.543900  1.0  0.0656
  C  C360  1  0.848000  0.804900  0.621200  1.0  0.1481
  C  C361  1  0.163300  0.813000  0.621300  1.0  0.1212
  C  C362  1  0.189900  0.813800  0.542500  1.0  0.1268
  C  C363  1  0.331300  0.815400  0.557400  1.0  0.076
  C  C364  1  0.305500  0.813200  0.637700  1.0  0.1157
  C  C365  1  0.574700  0.811400  0.884000  1.0  0.1476
  C  C366  1  0.434600  0.805100  0.887700  1.0  0.1289
  C  C367  1  0.434500  0.804300  0.805800  1.0  0.0714
  C  C368  1  0.577300  0.808500  0.803000  1.0  0.0406
  C  C369  1  0.098200  0.314900  0.348400  1.0  0.0483
  C  C370  1  0.001100  0.312000  0.289200  1.0  0.1545
  C  C371  1  0.894500  0.312200  0.344200  1.0  0.1009
  C  C372  1  0.992400  0.318700  0.403000  1.0  0.1689
  C  C373  1  0.710500  0.310500  0.145100  1.0  0.1026
  C  C374  1  0.667700  0.317800  0.066700  1.0  0.0414
  C  C375  1  0.803400  0.311900  0.043900  1.0  0.0656
  C  C376  1  0.848000  0.304900  0.121200  1.0  0.1481
  C  C377  1  0.163300  0.313000  0.121300  1.0  0.1212
  C  C378  1  0.189900  0.313800  0.042500  1.0  0.1268
  C  C379  1  0.331300  0.315400  0.057400  1.0  0.076
  C  C380  1  0.305500  0.313200  0.137700  1.0  0.1157
  C  C381  1  0.574700  0.311400  0.384000  1.0  0.1476
  C  C382  1  0.434600  0.305100  0.387700  1.0  0.1289
  C  C383  1  0.434500  0.304300  0.305800  1.0  0.0714
  C  C384  1  0.577300  0.308500  0.303000  1.0  0.0406
  N  N385  1  0.592600  0.558600  0.100300  1.0  -0.5416
  N  N386  1  0.746600  0.560600  0.006000  1.0  -0.5458
  N  N387  1  0.914400  0.563500  0.090700  1.0  -0.5288
  N  N388  1  0.761600  0.570700  0.186200  1.0  -0.5767
  N  N389  1  0.069900  0.563500  0.923100  1.0  -0.5222
  N  N390  1  0.130500  0.567800  0.799500  1.0  -0.466
  N  N391  1  0.923200  0.559300  0.762800  1.0  -0.5213
  N  N392  1  0.851000  0.551900  0.887900  1.0  -0.5841
  N  N393  1  0.636000  0.563000  0.888000  1.0  -0.4899
  N  N394  1  0.591600  0.565500  0.765600  1.0  -0.3953
  N  N395  1  0.369000  0.567600  0.786700  1.0  -0.5571
  N  N396  1  0.414600  0.561800  0.915100  1.0  -0.3735
  N  N397  1  0.131500  0.561400  0.157400  1.0  -0.4109
  N  N398  1  0.349600  0.552700  0.162700  1.0  -0.4197
  N  N399  1  0.358400  0.548400  0.032000  1.0  -0.3964
  N  N400  1  0.127700  0.558900  0.031300  1.0  -0.5827
  N  N401  1  0.592600  0.058600  0.600300  1.0  -0.5416
  N  N402  1  0.746600  0.060600  0.506000  1.0  -0.5458
  N  N403  1  0.914400  0.063500  0.590700  1.0  -0.5288
  N  N404  1  0.761600  0.070700  0.686200  1.0  -0.5767
  N  N405  1  0.069900  0.063500  0.423100  1.0  -0.5222
  N  N406  1  0.130500  0.067800  0.299500  1.0  -0.466
  N  N407  1  0.923200  0.059300  0.262800  1.0  -0.5213
  N  N408  1  0.851000  0.051900  0.387900  1.0  -0.5841
  N  N409  1  0.636000  0.063000  0.388000  1.0  -0.4899
  N  N410  1  0.591600  0.065500  0.265600  1.0  -0.3953
  N  N411  1  0.369000  0.067600  0.286700  1.0  -0.5571
  N  N412  1  0.414600  0.061800  0.415100  1.0  -0.3735
  N  N413  1  0.131500  0.061400  0.657400  1.0  -0.4109
  N  N414  1  0.349600  0.052700  0.662700  1.0  -0.4197
  N  N415  1  0.358400  0.048400  0.532000  1.0  -0.3964
  N  N416  1  0.127700  0.058900  0.531300  1.0  -0.5827
  N  N417  1  0.092600  0.558600  0.600300  1.0  -0.5416
  N  N418  1  0.246600  0.560600  0.506000  1.0  -0.5458
  N  N419  1  0.414400  0.563500  0.590700  1.0  -0.5288
  N  N420  1  0.261600  0.570700  0.686200  1.0  -0.5767
  N  N421  1  0.569900  0.563500  0.423100  1.0  -0.5222
  N  N422  1  0.630500  0.567800  0.299500  1.0  -0.466
  N  N423  1  0.423200  0.559300  0.262800  1.0  -0.5213
  N  N424  1  0.351000  0.551900  0.387900  1.0  -0.5841
  N  N425  1  0.136000  0.563000  0.388000  1.0  -0.4899
  N  N426  1  0.091600  0.565500  0.265600  1.0  -0.3953
  N  N427  1  0.869000  0.567600  0.286700  1.0  -0.5571
  N  N428  1  0.914600  0.561800  0.415100  1.0  -0.3735
  N  N429  1  0.631500  0.561400  0.657400  1.0  -0.4109
  N  N430  1  0.849600  0.552700  0.662700  1.0  -0.4197
  N  N431  1  0.858400  0.548400  0.532000  1.0  -0.3964
  N  N432  1  0.627700  0.558900  0.531300  1.0  -0.5827
  N  N433  1  0.092600  0.058600  0.100300  1.0  -0.5416
  N  N434  1  0.246600  0.060600  0.006000  1.0  -0.5458
  N  N435  1  0.414400  0.063500  0.090700  1.0  -0.5288
  N  N436  1  0.261600  0.070700  0.186200  1.0  -0.5767
  N  N437  1  0.569900  0.063500  0.923100  1.0  -0.5222
  N  N438  1  0.630500  0.067800  0.799500  1.0  -0.466
  N  N439  1  0.423200  0.059300  0.762800  1.0  -0.5213
  N  N440  1  0.351000  0.051900  0.887900  1.0  -0.5841
  N  N441  1  0.136000  0.063000  0.888000  1.0  -0.4899
  N  N442  1  0.091600  0.065500  0.765600  1.0  -0.3953
  N  N443  1  0.869000  0.067600  0.786700  1.0  -0.5571
  N  N444  1  0.914600  0.061800  0.915100  1.0  -0.3735
  N  N445  1  0.631500  0.061400  0.157400  1.0  -0.4109
  N  N446  1  0.849600  0.052700  0.162700  1.0  -0.4197
  N  N447  1  0.858400  0.048400  0.032000  1.0  -0.3964
  N  N448  1  0.627700  0.058900  0.031300  1.0  -0.5827
  N  N449  1  0.407400  0.441400  0.100300  1.0  -0.5424
  N  N450  1  0.253400  0.439400  0.006000  1.0  -0.5457
  N  N451  1  0.085600  0.436500  0.090700  1.0  -0.5281
  N  N452  1  0.238400  0.429300  0.186200  1.0  -0.5765
  N  N453  1  0.930100  0.436500  0.923100  1.0  -0.5215
  N  N454  1  0.869500  0.432200  0.799500  1.0  -0.4655
  N  N455  1  0.076800  0.440700  0.762800  1.0  -0.5217
  N  N456  1  0.149000  0.448100  0.887900  1.0  -0.5872
  N  N457  1  0.364000  0.437000  0.888000  1.0  -0.4887
  N  N458  1  0.408400  0.434500  0.765600  1.0  -0.3957
  N  N459  1  0.631000  0.432400  0.786700  1.0  -0.5598
  N  N460  1  0.585400  0.438200  0.915100  1.0  -0.3745
  N  N461  1  0.868500  0.438600  0.157400  1.0  -0.4116
  N  N462  1  0.650400  0.447300  0.162700  1.0  -0.4199
  N  N463  1  0.641600  0.451600  0.032000  1.0  -0.3969
  N  N464  1  0.872300  0.441100  0.031300  1.0  -0.5867
  N  N465  1  0.407400  0.941400  0.600300  1.0  -0.5424
  N  N466  1  0.253400  0.939400  0.506000  1.0  -0.5457
  N  N467  1  0.085600  0.936500  0.590700  1.0  -0.5281
  N  N468  1  0.238400  0.929300  0.686200  1.0  -0.5765
  N  N469  1  0.930100  0.936500  0.423100  1.0  -0.5215
  N  N470  1  0.869500  0.932200  0.299500  1.0  -0.4655
  N  N471  1  0.076800  0.940700  0.262800  1.0  -0.5217
  N  N472  1  0.149000  0.948100  0.387900  1.0  -0.5872
  N  N473  1  0.364000  0.937000  0.388000  1.0  -0.4887
  N  N474  1  0.408400  0.934500  0.265600  1.0  -0.3957
  N  N475  1  0.631000  0.932400  0.286700  1.0  -0.5598
  N  N476  1  0.585400  0.938200  0.415100  1.0  -0.3745
  N  N477  1  0.868500  0.938600  0.657400  1.0  -0.4116
  N  N478  1  0.650400  0.947300  0.662700  1.0  -0.4199
  N  N479  1  0.641600  0.951600  0.532000  1.0  -0.3969
  N  N480  1  0.872300  0.941100  0.531300  1.0  -0.5867
  N  N481  1  0.907400  0.441400  0.600300  1.0  -0.5424
  N  N482  1  0.753400  0.439400  0.506000  1.0  -0.5457
  N  N483  1  0.585600  0.436500  0.590700  1.0  -0.5281
  N  N484  1  0.738400  0.429300  0.686200  1.0  -0.5765
  N  N485  1  0.430100  0.436500  0.423100  1.0  -0.5215
  N  N486  1  0.369500  0.432200  0.299500  1.0  -0.4655
  N  N487  1  0.576800  0.440700  0.262800  1.0  -0.5217
  N  N488  1  0.649000  0.448100  0.387900  1.0  -0.5872
  N  N489  1  0.864000  0.437000  0.388000  1.0  -0.4887
  N  N490  1  0.908400  0.434500  0.265600  1.0  -0.3957
  N  N491  1  0.131000  0.432400  0.286700  1.0  -0.5598
  N  N492  1  0.085400  0.438200  0.415100  1.0  -0.3745
  N  N493  1  0.368500  0.438600  0.657400  1.0  -0.4116
  N  N494  1  0.150400  0.447300  0.662700  1.0  -0.4199
  N  N495  1  0.141600  0.451600  0.532000  1.0  -0.3969
  N  N496  1  0.372300  0.441100  0.531300  1.0  -0.5867
  N  N497  1  0.907400  0.941400  0.100300  1.0  -0.5424
  N  N498  1  0.753400  0.939400  0.006000  1.0  -0.5457
  N  N499  1  0.585600  0.936500  0.090700  1.0  -0.5281
  N  N500  1  0.738400  0.929300  0.186200  1.0  -0.5765
  N  N501  1  0.430100  0.936500  0.923100  1.0  -0.5215
  N  N502  1  0.369500  0.932200  0.799500  1.0  -0.4655
  N  N503  1  0.576800  0.940700  0.762800  1.0  -0.5217
  N  N504  1  0.649000  0.948100  0.887900  1.0  -0.5872
  N  N505  1  0.864000  0.937000  0.888000  1.0  -0.4887
  N  N506  1  0.908400  0.934500  0.765600  1.0  -0.3957
  N  N507  1  0.131000  0.932400  0.786700  1.0  -0.5598
  N  N508  1  0.085400  0.938200  0.915100  1.0  -0.3745
  N  N509  1  0.368500  0.938600  0.157400  1.0  -0.4116
  N  N510  1  0.150400  0.947300  0.162700  1.0  -0.4199
  N  N511  1  0.141600  0.951600  0.032000  1.0  -0.3969
  N  N512  1  0.372300  0.941100  0.031300  1.0  -0.5867
  N  N513  1  0.842600  0.691400  0.350300  1.0  -0.5414
  N  N514  1  0.996600  0.689400  0.256000  1.0  -0.5458
  N  N515  1  0.164400  0.686500  0.340700  1.0  -0.5287
  N  N516  1  0.011600  0.679300  0.436200  1.0  -0.5764
  N  N517  1  0.319900  0.686500  0.173100  1.0  -0.522
  N  N518  1  0.380500  0.682200  0.049500  1.0  -0.4661
  N  N519  1  0.173200  0.690700  0.012800  1.0  -0.5215
  N  N520  1  0.101000  0.698100  0.137900  1.0  -0.5842
  N  N521  1  0.886000  0.687000  0.138000  1.0  -0.4899
  N  N522  1  0.841600  0.684500  0.015600  1.0  -0.3953
  N  N523  1  0.619000  0.682400  0.036700  1.0  -0.5572
  N  N524  1  0.664600  0.688200  0.165100  1.0  -0.3738
  N  N525  1  0.381500  0.688600  0.407400  1.0  -0.4109
  N  N526  1  0.599600  0.697300  0.412700  1.0  -0.42
  N  N527  1  0.608400  0.701600  0.282000  1.0  -0.3962
  N  N528  1  0.377700  0.691100  0.281300  1.0  -0.583
  N  N529  1  0.842600  0.191400  0.850300  1.0  -0.5414
  N  N530  1  0.996600  0.189400  0.756000  1.0  -0.5458
  N  N531  1  0.164400  0.186500  0.840700  1.0  -0.5287
  N  N532  1  0.011600  0.179300  0.936200  1.0  -0.5764
  N  N533  1  0.319900  0.186500  0.673100  1.0  -0.522
  N  N534  1  0.380500  0.182200  0.549500  1.0  -0.4661
  N  N535  1  0.173200  0.190700  0.512800  1.0  -0.5215
  N  N536  1  0.101000  0.198100  0.637900  1.0  -0.5842
  N  N537  1  0.886000  0.187000  0.638000  1.0  -0.4899
  N  N538  1  0.841600  0.184500  0.515600  1.0  -0.3953
  N  N539  1  0.619000  0.182400  0.536700  1.0  -0.5572
  N  N540  1  0.664600  0.188200  0.665100  1.0  -0.3738
  N  N541  1  0.381500  0.188600  0.907400  1.0  -0.4109
  N  N542  1  0.599600  0.197300  0.912700  1.0  -0.42
  N  N543  1  0.608400  0.201600  0.782000  1.0  -0.3962
  N  N544  1  0.377700  0.191100  0.781300  1.0  -0.583
  N  N545  1  0.342600  0.691400  0.850300  1.0  -0.5414
  N  N546  1  0.496600  0.689400  0.756000  1.0  -0.5458
  N  N547  1  0.664400  0.686500  0.840700  1.0  -0.5287
  N  N548  1  0.511600  0.679300  0.936200  1.0  -0.5764
  N  N549  1  0.819900  0.686500  0.673100  1.0  -0.522
  N  N550  1  0.880500  0.682200  0.549500  1.0  -0.4661
  N  N551  1  0.673200  0.690700  0.512800  1.0  -0.5215
  N  N552  1  0.601000  0.698100  0.637900  1.0  -0.5842
  N  N553  1  0.386000  0.687000  0.638000  1.0  -0.4899
  N  N554  1  0.341600  0.684500  0.515600  1.0  -0.3953
  N  N555  1  0.119000  0.682400  0.536700  1.0  -0.5572
  N  N556  1  0.164600  0.688200  0.665100  1.0  -0.3738
  N  N557  1  0.881500  0.688600  0.907400  1.0  -0.4109
  N  N558  1  0.099600  0.697300  0.912700  1.0  -0.42
  N  N559  1  0.108400  0.701600  0.782000  1.0  -0.3962
  N  N560  1  0.877700  0.691100  0.781300  1.0  -0.583
  N  N561  1  0.342600  0.191400  0.350300  1.0  -0.5414
  N  N562  1  0.496600  0.189400  0.256000  1.0  -0.5458
  N  N563  1  0.664400  0.186500  0.340700  1.0  -0.5287
  N  N564  1  0.511600  0.179300  0.436200  1.0  -0.5764
  N  N565  1  0.819900  0.186500  0.173100  1.0  -0.522
  N  N566  1  0.880500  0.182200  0.049500  1.0  -0.4661
  N  N567  1  0.673200  0.190700  0.012800  1.0  -0.5215
  N  N568  1  0.601000  0.198100  0.137900  1.0  -0.5842
  N  N569  1  0.386000  0.187000  0.138000  1.0  -0.4899
  N  N570  1  0.341600  0.184500  0.015600  1.0  -0.3953
  N  N571  1  0.119000  0.182400  0.036700  1.0  -0.5572
  N  N572  1  0.164600  0.188200  0.165100  1.0  -0.3738
  N  N573  1  0.881500  0.188600  0.407400  1.0  -0.4109
  N  N574  1  0.099600  0.197300  0.412700  1.0  -0.42
  N  N575  1  0.108400  0.201600  0.282000  1.0  -0.3962
  N  N576  1  0.877700  0.191100  0.281300  1.0  -0.583
  N  N577  1  0.657400  0.808600  0.350300  1.0  -0.5425
  N  N578  1  0.503400  0.810600  0.256000  1.0  -0.5458
  N  N579  1  0.335600  0.813500  0.340700  1.0  -0.5283
  N  N580  1  0.488400  0.820700  0.436200  1.0  -0.5769
  N  N581  1  0.180100  0.813500  0.173100  1.0  -0.522
  N  N582  1  0.119500  0.817800  0.049500  1.0  -0.4655
  N  N583  1  0.326800  0.809300  0.012800  1.0  -0.5218
  N  N584  1  0.399000  0.801900  0.137900  1.0  -0.5872
  N  N585  1  0.614000  0.813000  0.138000  1.0  -0.4887
  N  N586  1  0.658400  0.815500  0.015600  1.0  -0.3957
  N  N587  1  0.881000  0.817600  0.036700  1.0  -0.5601
  N  N588  1  0.835400  0.811800  0.165100  1.0  -0.3746
  N  N589  1  0.118500  0.811400  0.407400  1.0  -0.4115
  N  N590  1  0.900400  0.802700  0.412700  1.0  -0.4198
  N  N591  1  0.891600  0.798400  0.282000  1.0  -0.3969
  N  N592  1  0.122300  0.808900  0.281300  1.0  -0.5865
  N  N593  1  0.657400  0.308600  0.850300  1.0  -0.5425
  N  N594  1  0.503400  0.310600  0.756000  1.0  -0.5458
  N  N595  1  0.335600  0.313500  0.840700  1.0  -0.5283
  N  N596  1  0.488400  0.320700  0.936200  1.0  -0.5769
  N  N597  1  0.180100  0.313500  0.673100  1.0  -0.522
  N  N598  1  0.119500  0.317800  0.549500  1.0  -0.4655
  N  N599  1  0.326800  0.309300  0.512800  1.0  -0.5218
  N  N600  1  0.399000  0.301900  0.637900  1.0  -0.5872
  N  N601  1  0.614000  0.313000  0.638000  1.0  -0.4887
  N  N602  1  0.658400  0.315500  0.515600  1.0  -0.3957
  N  N603  1  0.881000  0.317600  0.536700  1.0  -0.5601
  N  N604  1  0.835400  0.311800  0.665100  1.0  -0.3746
  N  N605  1  0.118500  0.311400  0.907400  1.0  -0.4115
  N  N606  1  0.900400  0.302700  0.912700  1.0  -0.4198
  N  N607  1  0.891600  0.298400  0.782000  1.0  -0.3969
  N  N608  1  0.122300  0.308900  0.781300  1.0  -0.5865
  N  N609  1  0.157400  0.808600  0.850300  1.0  -0.5425
  N  N610  1  0.003400  0.810600  0.756000  1.0  -0.5458
  N  N611  1  0.835600  0.813500  0.840700  1.0  -0.5283
  N  N612  1  0.988400  0.820700  0.936200  1.0  -0.5769
  N  N613  1  0.680100  0.813500  0.673100  1.0  -0.522
  N  N614  1  0.619500  0.817800  0.549500  1.0  -0.4655
  N  N615  1  0.826800  0.809300  0.512800  1.0  -0.5218
  N  N616  1  0.899000  0.801900  0.637900  1.0  -0.5872
  N  N617  1  0.114000  0.813000  0.638000  1.0  -0.4887
  N  N618  1  0.158400  0.815500  0.515600  1.0  -0.3957
  N  N619  1  0.381000  0.817600  0.536700  1.0  -0.5601
  N  N620  1  0.335400  0.811800  0.665100  1.0  -0.3746
  N  N621  1  0.618500  0.811400  0.907400  1.0  -0.4115
  N  N622  1  0.400400  0.802700  0.912700  1.0  -0.4198
  N  N623  1  0.391600  0.798400  0.782000  1.0  -0.3969
  N  N624  1  0.622300  0.808900  0.781300  1.0  -0.5865
  N  N625  1  0.157400  0.308600  0.350300  1.0  -0.5425
  N  N626  1  0.003400  0.310600  0.256000  1.0  -0.5458
  N  N627  1  0.835600  0.313500  0.340700  1.0  -0.5283
  N  N628  1  0.988400  0.320700  0.436200  1.0  -0.5769
  N  N629  1  0.680100  0.313500  0.173100  1.0  -0.522
  N  N630  1  0.619500  0.317800  0.049500  1.0  -0.4655
  N  N631  1  0.826800  0.309300  0.012800  1.0  -0.5218
  N  N632  1  0.899000  0.301900  0.137900  1.0  -0.5872
  N  N633  1  0.114000  0.313000  0.138000  1.0  -0.4887
  N  N634  1  0.158400  0.315500  0.015600  1.0  -0.3957
  N  N635  1  0.381000  0.317600  0.036700  1.0  -0.5601
  N  N636  1  0.335400  0.311800  0.165100  1.0  -0.3746
  N  N637  1  0.618500  0.311400  0.407400  1.0  -0.4115
  N  N638  1  0.400400  0.302700  0.412700  1.0  -0.4198
  N  N639  1  0.391600  0.298400  0.282000  1.0  -0.3969
  N  N640  1  0.622300  0.308900  0.281300  1.0  -0.5865
  O  O641  1  0.459100  0.556900  0.483900  1.0  -0.4972
  O  O642  1  0.459100  0.056900  0.983900  1.0  -0.4972
  O  O643  1  0.959100  0.556900  0.983900  1.0  -0.4972
  O  O644  1  0.959100  0.056900  0.483900  1.0  -0.4972
  O  O645  1  0.540900  0.443100  0.483900  1.0  -0.497
  O  O646  1  0.540900  0.943100  0.983900  1.0  -0.497
  O  O647  1  0.040900  0.443100  0.983900  1.0  -0.497
  O  O648  1  0.040900  0.943100  0.483900  1.0  -0.497
  O  O649  1  0.709100  0.693100  0.733900  1.0  -0.4972
  O  O650  1  0.709100  0.193100  0.233900  1.0  -0.4972
  O  O651  1  0.209100  0.693100  0.233900  1.0  -0.4972
  O  O652  1  0.209100  0.193100  0.733900  1.0  -0.4972
  O  O653  1  0.790900  0.806900  0.733900  1.0  -0.4972
  O  O654  1  0.790900  0.306900  0.233900  1.0  -0.4972
  O  O655  1  0.290900  0.806900  0.233900  1.0  -0.4972
  O  O656  1  0.290900  0.306900  0.733900  1.0  -0.4972
