# generated using pymatgen
data_K2Pr2Pt4C16N16O
_symmetry_space_group_name_H-M   'P 1'
_cell_length_a   19.44980000
_cell_length_b   26.85720000
_cell_length_c   34.81200000
_cell_angle_alpha   90.00000000
_cell_angle_beta   90.00000000
_cell_angle_gamma   90.00000000
_symmetry_Int_Tables_number   1
_chemical_formula_structural   K2Pr2Pt4C16N16O
_chemical_formula_sum   'K32 Pr32 Pt64 C256 N256 O16'
_cell_volume   18184.64587191
_cell_formula_units_Z   16
loop_
 _symmetry_equiv_pos_site_id
 _symmetry_equiv_pos_as_xyz
  1  'x, y, z'
loop_
 _atom_site_type_symbol
 _atom_site_label
 _atom_site_symmetry_multiplicity
 _atom_site_fract_x
 _atom_site_fract_y
 _atom_site_fract_z
 _atom_site_occupancy
 _atom_site_charge
  K  K1  1  0.561030  0.635100  0.483980  1.0  0.9048
  K  K2  1  0.561030  0.135100  0.983980  1.0  0.9048
  K  K3  1  0.061030  0.635100  0.983980  1.0  0.9048
  K  K4  1  0.061030  0.135100  0.483980  1.0  0.9048
  K  K5  1  0.438970  0.364900  0.483980  1.0  0.9049
  K  K6  1  0.438970  0.864900  0.983980  1.0  0.9049
  K  K7  1  0.938970  0.364900  0.983980  1.0  0.9049
  K  K8  1  0.938970  0.864900  0.483980  1.0  0.9049
  K  K9  1  0.811030  0.614900  0.733980  1.0  0.905
  K  K10  1  0.811030  0.114900  0.233980  1.0  0.905
  K  K11  1  0.311030  0.614900  0.233980  1.0  0.905
  K  K12  1  0.311030  0.114900  0.733980  1.0  0.905
  K  K13  1  0.688970  0.885100  0.733980  1.0  0.9048
  K  K14  1  0.688970  0.385100  0.233980  1.0  0.9048
  K  K15  1  0.188970  0.885100  0.233980  1.0  0.9048
  K  K16  1  0.188970  0.385100  0.733980  1.0  0.9048
  K  K17  1  0.500000  0.500000  0.144270  1.0  0.9275
  K  K18  1  0.500000  0.500000  0.545300  1.0  0.9242
  K  K19  1  0.500000  0.000000  0.644270  1.0  0.9275
  K  K20  1  0.500000  0.000000  0.045300  1.0  0.9242
  K  K21  1  0.000000  0.500000  0.644270  1.0  0.9275
  K  K22  1  0.000000  0.500000  0.045300  1.0  0.9242
  K  K23  1  0.000000  0.000000  0.144270  1.0  0.9275
  K  K24  1  0.000000  0.000000  0.545300  1.0  0.9242
  K  K25  1  0.750000  0.750000  0.394270  1.0  0.9275
  K  K26  1  0.750000  0.750000  0.795300  1.0  0.9242
  K  K27  1  0.750000  0.250000  0.894270  1.0  0.9275
  K  K28  1  0.750000  0.250000  0.295300  1.0  0.9242
  K  K29  1  0.250000  0.750000  0.894270  1.0  0.9275
  K  K30  1  0.250000  0.750000  0.295300  1.0  0.9242
  K  K31  1  0.250000  0.250000  0.394270  1.0  0.9275
  K  K32  1  0.250000  0.250000  0.795300  1.0  0.9242
  Pr  Pr33  1  0.743950  0.558110  0.932120  1.0  1.7967
  Pr  Pr34  1  0.743050  0.568950  0.259930  1.0  1.7729
  Pr  Pr35  1  0.743950  0.058110  0.432120  1.0  1.7967
  Pr  Pr36  1  0.743050  0.068950  0.759930  1.0  1.7729
  Pr  Pr37  1  0.243950  0.558110  0.432120  1.0  1.7967
  Pr  Pr38  1  0.243050  0.568950  0.759930  1.0  1.7729
  Pr  Pr39  1  0.243950  0.058110  0.932120  1.0  1.7967
  Pr  Pr40  1  0.243050  0.068950  0.259930  1.0  1.7729
  Pr  Pr41  1  0.256050  0.441890  0.932120  1.0  1.7967
  Pr  Pr42  1  0.256950  0.431050  0.259930  1.0  1.8116
  Pr  Pr43  1  0.256050  0.941890  0.432120  1.0  1.7967
  Pr  Pr44  1  0.256950  0.931050  0.759930  1.0  1.812
  Pr  Pr45  1  0.756050  0.441890  0.432120  1.0  1.7967
  Pr  Pr46  1  0.756950  0.431050  0.759930  1.0  1.8116
  Pr  Pr47  1  0.756050  0.941890  0.932120  1.0  1.7967
  Pr  Pr48  1  0.756950  0.931050  0.259930  1.0  1.812
  Pr  Pr49  1  0.993950  0.691890  0.182120  1.0  1.7967
  Pr  Pr50  1  0.993050  0.681050  0.509930  1.0  1.7731
  Pr  Pr51  1  0.993950  0.191890  0.682120  1.0  1.7967
  Pr  Pr52  1  0.993050  0.181050  0.009930  1.0  1.7731
  Pr  Pr53  1  0.493950  0.691890  0.682120  1.0  1.7967
  Pr  Pr54  1  0.493050  0.681050  0.009930  1.0  1.7731
  Pr  Pr55  1  0.493950  0.191890  0.182120  1.0  1.7967
  Pr  Pr56  1  0.493050  0.181050  0.509930  1.0  1.7731
  Pr  Pr57  1  0.506050  0.808110  0.182120  1.0  1.7966
  Pr  Pr58  1  0.506950  0.818950  0.509930  1.0  1.7975
  Pr  Pr59  1  0.506050  0.308110  0.682120  1.0  1.7966
  Pr  Pr60  1  0.506950  0.318950  0.009930  1.0  1.7975
  Pr  Pr61  1  0.006050  0.808110  0.682120  1.0  1.7966
  Pr  Pr62  1  0.006950  0.818950  0.009930  1.0  1.7975
  Pr  Pr63  1  0.006050  0.308110  0.182120  1.0  1.7966
  Pr  Pr64  1  0.006950  0.318950  0.509930  1.0  1.7975
  Pt  Pt65  1  0.753050  0.564350  0.096330  1.0  0.2331
  Pt  Pt66  1  0.992010  0.561640  0.844660  1.0  0.3262
  Pt  Pt67  1  0.500810  0.563670  0.839440  1.0  0.2379
  Pt  Pt68  1  0.244790  0.557670  0.094850  1.0  0.3372
  Pt  Pt69  1  0.753050  0.064350  0.596330  1.0  0.2331
  Pt  Pt70  1  0.992010  0.061640  0.344660  1.0  0.3262
  Pt  Pt71  1  0.500810  0.063670  0.339440  1.0  0.2379
  Pt  Pt72  1  0.244790  0.057670  0.594850  1.0  0.3372
  Pt  Pt73  1  0.253050  0.564350  0.596330  1.0  0.2331
  Pt  Pt74  1  0.492010  0.561640  0.344660  1.0  0.3262
  Pt  Pt75  1  0.000810  0.563670  0.339440  1.0  0.2379
  Pt  Pt76  1  0.744790  0.557670  0.594850  1.0  0.3372
  Pt  Pt77  1  0.253050  0.064350  0.096330  1.0  0.2331
  Pt  Pt78  1  0.492010  0.061640  0.844660  1.0  0.3262
  Pt  Pt79  1  0.000810  0.063670  0.839440  1.0  0.2379
  Pt  Pt80  1  0.744790  0.057670  0.094850  1.0  0.3372
  Pt  Pt81  1  0.246950  0.435650  0.096330  1.0  0.2337
  Pt  Pt82  1  0.007990  0.438360  0.844660  1.0  0.3252
  Pt  Pt83  1  0.499190  0.436330  0.839440  1.0  0.2371
  Pt  Pt84  1  0.755210  0.442330  0.094850  1.0  0.3374
  Pt  Pt85  1  0.246950  0.935650  0.596330  1.0  0.2337
  Pt  Pt86  1  0.007990  0.938360  0.344660  1.0  0.3252
  Pt  Pt87  1  0.499190  0.936330  0.339440  1.0  0.2371
  Pt  Pt88  1  0.755210  0.942330  0.594850  1.0  0.3374
  Pt  Pt89  1  0.746950  0.435650  0.596330  1.0  0.2337
  Pt  Pt90  1  0.507990  0.438360  0.344660  1.0  0.3252
  Pt  Pt91  1  0.999190  0.436330  0.339440  1.0  0.2371
  Pt  Pt92  1  0.255210  0.442330  0.594850  1.0  0.3374
  Pt  Pt93  1  0.746950  0.935650  0.096330  1.0  0.2337
  Pt  Pt94  1  0.507990  0.938360  0.844660  1.0  0.3252
  Pt  Pt95  1  0.999190  0.936330  0.839440  1.0  0.2371
  Pt  Pt96  1  0.255210  0.942330  0.094850  1.0  0.3374
  Pt  Pt97  1  0.003050  0.685650  0.346330  1.0  0.2332
  Pt  Pt98  1  0.242010  0.688360  0.094660  1.0  0.3261
  Pt  Pt99  1  0.750810  0.686330  0.089440  1.0  0.2373
  Pt  Pt100  1  0.494790  0.692330  0.344850  1.0  0.3372
  Pt  Pt101  1  0.003050  0.185650  0.846330  1.0  0.2332
  Pt  Pt102  1  0.242010  0.188360  0.594660  1.0  0.3261
  Pt  Pt103  1  0.750810  0.186330  0.589440  1.0  0.2373
  Pt  Pt104  1  0.494790  0.192330  0.844850  1.0  0.3372
  Pt  Pt105  1  0.503050  0.685650  0.846330  1.0  0.2332
  Pt  Pt106  1  0.742010  0.688360  0.594660  1.0  0.3261
  Pt  Pt107  1  0.250810  0.686330  0.589440  1.0  0.2373
  Pt  Pt108  1  0.994790  0.692330  0.844850  1.0  0.3372
  Pt  Pt109  1  0.503050  0.185650  0.346330  1.0  0.2332
  Pt  Pt110  1  0.742010  0.188360  0.094660  1.0  0.3261
  Pt  Pt111  1  0.250810  0.186330  0.089440  1.0  0.2373
  Pt  Pt112  1  0.994790  0.192330  0.344850  1.0  0.3372
  Pt  Pt113  1  0.496950  0.814350  0.346330  1.0  0.2336
  Pt  Pt114  1  0.257990  0.811640  0.094660  1.0  0.3252
  Pt  Pt115  1  0.749190  0.813670  0.089440  1.0  0.2376
  Pt  Pt116  1  0.005210  0.807670  0.344850  1.0  0.3372
  Pt  Pt117  1  0.496950  0.314350  0.846330  1.0  0.2336
  Pt  Pt118  1  0.257990  0.311640  0.594660  1.0  0.3252
  Pt  Pt119  1  0.749190  0.313670  0.589440  1.0  0.2376
  Pt  Pt120  1  0.005210  0.307670  0.844850  1.0  0.3372
  Pt  Pt121  1  0.996950  0.814350  0.846330  1.0  0.2336
  Pt  Pt122  1  0.757990  0.811640  0.594660  1.0  0.3252
  Pt  Pt123  1  0.249190  0.813670  0.589440  1.0  0.2376
  Pt  Pt124  1  0.505210  0.807670  0.844850  1.0  0.3372
  Pt  Pt125  1  0.996950  0.314350  0.346330  1.0  0.2336
  Pt  Pt126  1  0.757990  0.311640  0.094660  1.0  0.3252
  Pt  Pt127  1  0.249190  0.313670  0.089440  1.0  0.2376
  Pt  Pt128  1  0.505210  0.307670  0.344850  1.0  0.3372
  C  C129  1  0.651600  0.563000  0.098700  1.0  0.059
  C  C130  1  0.747700  0.561900  0.039400  1.0  0.1741
  C  C131  1  0.854500  0.563100  0.092900  1.0  0.159
  C  C132  1  0.759400  0.568100  0.153700  1.0  0.1324
  C  C133  1  0.041000  0.562700  0.895200  1.0  0.1179
  C  C134  1  0.081400  0.566900  0.816800  1.0  0.1161
  C  C135  1  0.945700  0.561000  0.793300  1.0  0.1111
  C  C136  1  0.902300  0.555500  0.872100  1.0  0.1209
  C  C137  1  0.586100  0.562800  0.871000  1.0  0.1518
  C  C138  1  0.559200  0.564500  0.793500  1.0  0.1824
  C  C139  1  0.418200  0.566000  0.807000  1.0  0.1565
  C  C140  1  0.445200  0.562100  0.887900  1.0  0.1062
  C  C141  1  0.171500  0.560400  0.134200  1.0  0.1222
  C  C142  1  0.315000  0.555400  0.137400  1.0  0.105
  C  C143  1  0.317100  0.553200  0.055500  1.0  0.1533
  C  C144  1  0.172300  0.558900  0.053000  1.0  0.0911
  C  C145  1  0.651600  0.063000  0.598700  1.0  0.059
  C  C146  1  0.747700  0.061900  0.539400  1.0  0.1741
  C  C147  1  0.854500  0.063100  0.592900  1.0  0.159
  C  C148  1  0.759400  0.068100  0.653700  1.0  0.1324
  C  C149  1  0.041000  0.062700  0.395200  1.0  0.1179
  C  C150  1  0.081400  0.066900  0.316800  1.0  0.1161
  C  C151  1  0.945700  0.061000  0.293300  1.0  0.1111
  C  C152  1  0.902300  0.055500  0.372100  1.0  0.1209
  C  C153  1  0.586100  0.062800  0.371000  1.0  0.1519
  C  C154  1  0.559200  0.064500  0.293500  1.0  0.1824
  C  C155  1  0.418200  0.066000  0.307000  1.0  0.1565
  C  C156  1  0.445200  0.062100  0.387900  1.0  0.1062
  C  C157  1  0.171500  0.060400  0.634200  1.0  0.1222
  C  C158  1  0.315000  0.055400  0.637400  1.0  0.105
  C  C159  1  0.317100  0.053200  0.555500  1.0  0.1533
  C  C160  1  0.172300  0.058900  0.553000  1.0  0.0911
  C  C161  1  0.151600  0.563000  0.598700  1.0  0.059
  C  C162  1  0.247700  0.561900  0.539400  1.0  0.1741
  C  C163  1  0.354500  0.563100  0.592900  1.0  0.159
  C  C164  1  0.259400  0.568100  0.653700  1.0  0.1324
  C  C165  1  0.541000  0.562700  0.395200  1.0  0.1179
  C  C166  1  0.581400  0.566900  0.316800  1.0  0.1161
  C  C167  1  0.445700  0.561000  0.293300  1.0  0.1111
  C  C168  1  0.402300  0.555500  0.372100  1.0  0.1209
  C  C169  1  0.086100  0.562800  0.371000  1.0  0.1518
  C  C170  1  0.059200  0.564500  0.293500  1.0  0.1824
  C  C171  1  0.918200  0.566000  0.307000  1.0  0.1548
  C  C172  1  0.945200  0.562100  0.387900  1.0  0.1062
  C  C173  1  0.671500  0.560400  0.634200  1.0  0.1222
  C  C174  1  0.815000  0.555400  0.637400  1.0  0.105
  C  C175  1  0.817100  0.553200  0.555500  1.0  0.1533
  C  C176  1  0.672300  0.558900  0.553000  1.0  0.0911
  C  C177  1  0.151600  0.063000  0.098700  1.0  0.059
  C  C178  1  0.247700  0.061900  0.039400  1.0  0.1741
  C  C179  1  0.354500  0.063100  0.092900  1.0  0.159
  C  C180  1  0.259400  0.068100  0.153700  1.0  0.1324
  C  C181  1  0.541000  0.062700  0.895200  1.0  0.1179
  C  C182  1  0.581400  0.066900  0.816800  1.0  0.1161
  C  C183  1  0.445700  0.061000  0.793300  1.0  0.1111
  C  C184  1  0.402300  0.055500  0.872100  1.0  0.1209
  C  C185  1  0.086100  0.062800  0.871000  1.0  0.1518
  C  C186  1  0.059200  0.064500  0.793500  1.0  0.1824
  C  C187  1  0.918200  0.066000  0.807000  1.0  0.1548
  C  C188  1  0.945200  0.062100  0.887900  1.0  0.1062
  C  C189  1  0.671500  0.060400  0.134200  1.0  0.1222
  C  C190  1  0.815000  0.055400  0.137400  1.0  0.105
  C  C191  1  0.817100  0.053200  0.055500  1.0  0.1533
  C  C192  1  0.672300  0.058900  0.053000  1.0  0.0911
  C  C193  1  0.348400  0.437000  0.098700  1.0  0.0592
  C  C194  1  0.252300  0.438100  0.039400  1.0  0.1739
  C  C195  1  0.145500  0.436900  0.092900  1.0  0.1582
  C  C196  1  0.240600  0.431900  0.153700  1.0  0.132
  C  C197  1  0.959000  0.437300  0.895200  1.0  0.1178
  C  C198  1  0.918600  0.433100  0.816800  1.0  0.1161
  C  C199  1  0.054300  0.439000  0.793300  1.0  0.111
  C  C200  1  0.097700  0.444500  0.872100  1.0  0.1208
  C  C201  1  0.413900  0.437200  0.871000  1.0  0.1522
  C  C202  1  0.440800  0.435500  0.793500  1.0  0.1659
  C  C203  1  0.581800  0.434000  0.807000  1.0  0.1568
  C  C204  1  0.554800  0.437900  0.887900  1.0  0.1075
  C  C205  1  0.828500  0.439600  0.134200  1.0  0.1241
  C  C206  1  0.685000  0.444600  0.137400  1.0  0.1054
  C  C207  1  0.682900  0.446800  0.055500  1.0  0.1532
  C  C208  1  0.827700  0.441100  0.053000  1.0  0.0915
  C  C209  1  0.348400  0.937000  0.598700  1.0  0.0592
  C  C210  1  0.252300  0.938100  0.539400  1.0  0.1739
  C  C211  1  0.145500  0.936900  0.592900  1.0  0.1582
  C  C212  1  0.240600  0.931900  0.653700  1.0  0.132
  C  C213  1  0.959000  0.937300  0.395200  1.0  0.1178
  C  C214  1  0.918600  0.933100  0.316800  1.0  0.1161
  C  C215  1  0.054300  0.939000  0.293300  1.0  0.111
  C  C216  1  0.097700  0.944500  0.372100  1.0  0.1208
  C  C217  1  0.413900  0.937200  0.371000  1.0  0.1522
  C  C218  1  0.440800  0.935500  0.293500  1.0  0.1656
  C  C219  1  0.581800  0.934000  0.307000  1.0  0.1568
  C  C220  1  0.554800  0.937900  0.387900  1.0  0.1075
  C  C221  1  0.828500  0.939600  0.634200  1.0  0.1241
  C  C222  1  0.685000  0.944600  0.637400  1.0  0.1054
  C  C223  1  0.682900  0.946800  0.555500  1.0  0.1532
  C  C224  1  0.827700  0.941100  0.553000  1.0  0.0915
  C  C225  1  0.848400  0.437000  0.598700  1.0  0.0592
  C  C226  1  0.752300  0.438100  0.539400  1.0  0.1739
  C  C227  1  0.645500  0.436900  0.592900  1.0  0.1582
  C  C228  1  0.740600  0.431900  0.653700  1.0  0.132
  C  C229  1  0.459000  0.437300  0.395200  1.0  0.1178
  C  C230  1  0.418600  0.433100  0.316800  1.0  0.1161
  C  C231  1  0.554300  0.439000  0.293300  1.0  0.111
  C  C232  1  0.597700  0.444500  0.372100  1.0  0.1208
  C  C233  1  0.913900  0.437200  0.371000  1.0  0.1522
  C  C234  1  0.940800  0.435500  0.293500  1.0  0.1659
  C  C235  1  0.081800  0.434000  0.307000  1.0  0.1568
  C  C236  1  0.054800  0.437900  0.387900  1.0  0.1075
  C  C237  1  0.328500  0.439600  0.634200  1.0  0.1241
  C  C238  1  0.185000  0.444600  0.637400  1.0  0.1054
  C  C239  1  0.182900  0.446800  0.555500  1.0  0.1532
  C  C240  1  0.327700  0.441100  0.553000  1.0  0.0915
  C  C241  1  0.848400  0.937000  0.098700  1.0  0.0592
  C  C242  1  0.752300  0.938100  0.039400  1.0  0.1739
  C  C243  1  0.645500  0.936900  0.092900  1.0  0.1582
  C  C244  1  0.740600  0.931900  0.153700  1.0  0.132
  C  C245  1  0.459000  0.937300  0.895200  1.0  0.1178
  C  C246  1  0.418600  0.933100  0.816800  1.0  0.1161
  C  C247  1  0.554300  0.939000  0.793300  1.0  0.111
  C  C248  1  0.597700  0.944500  0.872100  1.0  0.1208
  C  C249  1  0.913900  0.937200  0.871000  1.0  0.1522
  C  C250  1  0.940800  0.935500  0.793500  1.0  0.1656
  C  C251  1  0.081800  0.934000  0.807000  1.0  0.1568
  C  C252  1  0.054800  0.937900  0.887900  1.0  0.1075
  C  C253  1  0.328500  0.939600  0.134200  1.0  0.1241
  C  C254  1  0.185000  0.944600  0.137400  1.0  0.1054
  C  C255  1  0.182900  0.946800  0.055500  1.0  0.1532
  C  C256  1  0.327700  0.941100  0.053000  1.0  0.0915
  C  C257  1  0.901600  0.687000  0.348700  1.0  0.0588
  C  C258  1  0.997700  0.688100  0.289400  1.0  0.174
  C  C259  1  0.104500  0.686900  0.342900  1.0  0.1591
  C  C260  1  0.009400  0.681900  0.403700  1.0  0.132
  C  C261  1  0.291000  0.687300  0.145200  1.0  0.1181
  C  C262  1  0.331400  0.683100  0.066800  1.0  0.1162
  C  C263  1  0.195700  0.689000  0.043300  1.0  0.1113
  C  C264  1  0.152300  0.694500  0.122100  1.0  0.1208
  C  C265  1  0.836100  0.687200  0.121000  1.0  0.1517
  C  C266  1  0.809200  0.685500  0.043500  1.0  0.1825
  C  C267  1  0.668200  0.684000  0.057000  1.0  0.1572
  C  C268  1  0.695200  0.687900  0.137900  1.0  0.1061
  C  C269  1  0.421500  0.689600  0.384200  1.0  0.1221
  C  C270  1  0.565000  0.694600  0.387400  1.0  0.1053
  C  C271  1  0.567100  0.696800  0.305500  1.0  0.1553
  C  C272  1  0.422300  0.691100  0.303000  1.0  0.0907
  C  C273  1  0.901600  0.187000  0.848700  1.0  0.0588
  C  C274  1  0.997700  0.188100  0.789400  1.0  0.174
  C  C275  1  0.104500  0.186900  0.842900  1.0  0.1591
  C  C276  1  0.009400  0.181900  0.903700  1.0  0.132
  C  C277  1  0.291000  0.187300  0.645200  1.0  0.1181
  C  C278  1  0.331400  0.183100  0.566800  1.0  0.1162
  C  C279  1  0.195700  0.189000  0.543300  1.0  0.1113
  C  C280  1  0.152300  0.194500  0.622100  1.0  0.1208
  C  C281  1  0.836100  0.187200  0.621000  1.0  0.1517
  C  C282  1  0.809200  0.185500  0.543500  1.0  0.1825
  C  C283  1  0.668200  0.184000  0.557000  1.0  0.1572
  C  C284  1  0.695200  0.187900  0.637900  1.0  0.1061
  C  C285  1  0.421500  0.189600  0.884200  1.0  0.1221
  C  C286  1  0.565000  0.194600  0.887400  1.0  0.1053
  C  C287  1  0.567100  0.196800  0.805500  1.0  0.1553
  C  C288  1  0.422300  0.191100  0.803000  1.0  0.0907
  C  C289  1  0.401600  0.687000  0.848700  1.0  0.0588
  C  C290  1  0.497700  0.688100  0.789400  1.0  0.174
  C  C291  1  0.604500  0.686900  0.842900  1.0  0.1591
  C  C292  1  0.509400  0.681900  0.903700  1.0  0.132
  C  C293  1  0.791000  0.687300  0.645200  1.0  0.1181
  C  C294  1  0.831400  0.683100  0.566800  1.0  0.1162
  C  C295  1  0.695700  0.689000  0.543300  1.0  0.1113
  C  C296  1  0.652300  0.694500  0.622100  1.0  0.1208
  C  C297  1  0.336100  0.687200  0.621000  1.0  0.1517
  C  C298  1  0.309200  0.685500  0.543500  1.0  0.1825
  C  C299  1  0.168200  0.684000  0.557000  1.0  0.1572
  C  C300  1  0.195200  0.687900  0.637900  1.0  0.1061
  C  C301  1  0.921500  0.689600  0.884200  1.0  0.1221
  C  C302  1  0.065000  0.694600  0.887400  1.0  0.1053
  C  C303  1  0.067100  0.696800  0.805500  1.0  0.1553
  C  C304  1  0.922300  0.691100  0.803000  1.0  0.0907
  C  C305  1  0.401600  0.187000  0.348700  1.0  0.0588
  C  C306  1  0.497700  0.188100  0.289400  1.0  0.174
  C  C307  1  0.604500  0.186900  0.342900  1.0  0.1591
  C  C308  1  0.509400  0.181900  0.403700  1.0  0.132
  C  C309  1  0.791000  0.187300  0.145200  1.0  0.1181
  C  C310  1  0.831400  0.183100  0.066800  1.0  0.1162
  C  C311  1  0.695700  0.189000  0.043300  1.0  0.1113
  C  C312  1  0.652300  0.194500  0.122100  1.0  0.1208
  C  C313  1  0.336100  0.187200  0.121000  1.0  0.1517
  C  C314  1  0.309200  0.185500  0.043500  1.0  0.1825
  C  C315  1  0.168200  0.184000  0.057000  1.0  0.1572
  C  C316  1  0.195200  0.187900  0.137900  1.0  0.1061
  C  C317  1  0.921500  0.189600  0.384200  1.0  0.1221
  C  C318  1  0.065000  0.194600  0.387400  1.0  0.1053
  C  C319  1  0.067100  0.196800  0.305500  1.0  0.1553
  C  C320  1  0.922300  0.191100  0.303000  1.0  0.0907
  C  C321  1  0.598400  0.813000  0.348700  1.0  0.0593
  C  C322  1  0.502300  0.811900  0.289400  1.0  0.1741
  C  C323  1  0.395500  0.813100  0.342900  1.0  0.1582
  C  C324  1  0.490600  0.818100  0.403700  1.0  0.1325
  C  C325  1  0.209000  0.812700  0.145200  1.0  0.1176
  C  C326  1  0.168600  0.816900  0.066800  1.0  0.1161
  C  C327  1  0.304300  0.811000  0.043300  1.0  0.1103
  C  C328  1  0.347700  0.805500  0.122100  1.0  0.1209
  C  C329  1  0.663900  0.812800  0.121000  1.0  0.1521
  C  C330  1  0.690800  0.814500  0.043500  1.0  0.1656
  C  C331  1  0.831800  0.816000  0.057000  1.0  0.157
  C  C332  1  0.804800  0.812100  0.137900  1.0  0.1075
  C  C333  1  0.078500  0.810400  0.384200  1.0  0.1242
  C  C334  1  0.935000  0.805400  0.387400  1.0  0.1052
  C  C335  1  0.932900  0.803200  0.305500  1.0  0.1532
  C  C336  1  0.077700  0.808900  0.303000  1.0  0.0918
  C  C337  1  0.598400  0.313000  0.848700  1.0  0.0593
  C  C338  1  0.502300  0.311900  0.789400  1.0  0.1741
  C  C339  1  0.395500  0.313100  0.842900  1.0  0.1582
  C  C340  1  0.490600  0.318100  0.903700  1.0  0.1325
  C  C341  1  0.209000  0.312700  0.645200  1.0  0.1176
  C  C342  1  0.168600  0.316900  0.566800  1.0  0.1161
  C  C343  1  0.304300  0.311000  0.543300  1.0  0.1103
  C  C344  1  0.347700  0.305500  0.622100  1.0  0.1209
  C  C345  1  0.663900  0.312800  0.621000  1.0  0.1521
  C  C346  1  0.690800  0.314500  0.543500  1.0  0.1656
  C  C347  1  0.831800  0.316000  0.557000  1.0  0.157
  C  C348  1  0.804800  0.312100  0.637900  1.0  0.1075
  C  C349  1  0.078500  0.310400  0.884200  1.0  0.1242
  C  C350  1  0.935000  0.305400  0.887400  1.0  0.1052
  C  C351  1  0.932900  0.303200  0.805500  1.0  0.1532
  C  C352  1  0.077700  0.308900  0.803000  1.0  0.0918
  C  C353  1  0.098400  0.813000  0.848700  1.0  0.0593
  C  C354  1  0.002300  0.811900  0.789400  1.0  0.1741
  C  C355  1  0.895500  0.813100  0.842900  1.0  0.1582
  C  C356  1  0.990600  0.818100  0.903700  1.0  0.1325
  C  C357  1  0.709000  0.812700  0.645200  1.0  0.1176
  C  C358  1  0.668600  0.816900  0.566800  1.0  0.1161
  C  C359  1  0.804300  0.811000  0.543300  1.0  0.1103
  C  C360  1  0.847700  0.805500  0.622100  1.0  0.1209
  C  C361  1  0.163900  0.812800  0.621000  1.0  0.1521
  C  C362  1  0.190800  0.814500  0.543500  1.0  0.1656
  C  C363  1  0.331800  0.816000  0.557000  1.0  0.157
  C  C364  1  0.304800  0.812100  0.637900  1.0  0.1075
  C  C365  1  0.578500  0.810400  0.884200  1.0  0.1242
  C  C366  1  0.435000  0.805400  0.887400  1.0  0.1052
  C  C367  1  0.432900  0.803200  0.805500  1.0  0.1534
  C  C368  1  0.577700  0.808900  0.803000  1.0  0.0918
  C  C369  1  0.098400  0.313000  0.348700  1.0  0.0593
  C  C370  1  0.002300  0.311900  0.289400  1.0  0.1741
  C  C371  1  0.895500  0.313100  0.342900  1.0  0.1582
  C  C372  1  0.990600  0.318100  0.403700  1.0  0.1325
  C  C373  1  0.709000  0.312700  0.145200  1.0  0.1176
  C  C374  1  0.668600  0.316900  0.066800  1.0  0.1161
  C  C375  1  0.804300  0.311000  0.043300  1.0  0.1103
  C  C376  1  0.847700  0.305500  0.122100  1.0  0.1209
  C  C377  1  0.163900  0.312800  0.121000  1.0  0.1521
  C  C378  1  0.190800  0.314500  0.043500  1.0  0.1656
  C  C379  1  0.331800  0.316000  0.057000  1.0  0.157
  C  C380  1  0.304800  0.312100  0.137900  1.0  0.1075
  C  C381  1  0.578500  0.310400  0.384200  1.0  0.1242
  C  C382  1  0.435000  0.305400  0.387400  1.0  0.1052
  C  C383  1  0.432900  0.303200  0.305500  1.0  0.1534
  C  C384  1  0.577700  0.308900  0.303000  1.0  0.0918
  N  N385  1  0.593100  0.558400  0.100200  1.0  -0.5368
  N  N386  1  0.746700  0.560600  0.006380  1.0  -0.5728
  N  N387  1  0.912900  0.563600  0.090800  1.0  -0.5286
  N  N388  1  0.761700  0.571100  0.186250  1.0  -0.525
  N  N389  1  0.070200  0.563100  0.922900  1.0  -0.5064
  N  N390  1  0.130800  0.567800  0.799930  1.0  -0.5201
  N  N391  1  0.923500  0.560300  0.763000  1.0  -0.5203
  N  N392  1  0.851200  0.551900  0.887490  1.0  -0.5121
  N  N393  1  0.635400  0.563400  0.888500  1.0  -0.5483
  N  N394  1  0.592800  0.565500  0.766300  1.0  -0.445
  N  N395  1  0.371000  0.568100  0.787200  1.0  -0.5797
  N  N396  1  0.414000  0.563000  0.915100  1.0  -0.3958
  N  N397  1  0.133100  0.561500  0.157500  1.0  -0.3893
  N  N398  1  0.351500  0.552900  0.162100  1.0  -0.4542
  N  N399  1  0.357100  0.549200  0.031900  1.0  -0.4038
  N  N400  1  0.128900  0.558500  0.031300  1.0  -0.5116
  N  N401  1  0.593100  0.058400  0.600200  1.0  -0.5368
  N  N402  1  0.746700  0.060600  0.506380  1.0  -0.5728
  N  N403  1  0.912900  0.063600  0.590800  1.0  -0.5286
  N  N404  1  0.761700  0.071100  0.686250  1.0  -0.525
  N  N405  1  0.070200  0.063100  0.422900  1.0  -0.5064
  N  N406  1  0.130800  0.067800  0.299930  1.0  -0.5201
  N  N407  1  0.923500  0.060300  0.263000  1.0  -0.5203
  N  N408  1  0.851200  0.051900  0.387490  1.0  -0.5121
  N  N409  1  0.635400  0.063400  0.388500  1.0  -0.5483
  N  N410  1  0.592800  0.065500  0.266300  1.0  -0.445
  N  N411  1  0.371000  0.068100  0.287200  1.0  -0.58
  N  N412  1  0.414000  0.063000  0.415100  1.0  -0.3958
  N  N413  1  0.133100  0.061500  0.657500  1.0  -0.3893
  N  N414  1  0.351500  0.052900  0.662100  1.0  -0.4542
  N  N415  1  0.357100  0.049200  0.531900  1.0  -0.4038
  N  N416  1  0.128900  0.058500  0.531300  1.0  -0.5116
  N  N417  1  0.093100  0.558400  0.600200  1.0  -0.5368
  N  N418  1  0.246700  0.560600  0.506380  1.0  -0.5728
  N  N419  1  0.412900  0.563600  0.590800  1.0  -0.5286
  N  N420  1  0.261700  0.571100  0.686250  1.0  -0.525
  N  N421  1  0.570200  0.563100  0.422900  1.0  -0.5064
  N  N422  1  0.630800  0.567800  0.299930  1.0  -0.5201
  N  N423  1  0.423500  0.560300  0.263000  1.0  -0.5203
  N  N424  1  0.351200  0.551900  0.387490  1.0  -0.5121
  N  N425  1  0.135400  0.563400  0.388500  1.0  -0.5483
  N  N426  1  0.092800  0.565500  0.266300  1.0  -0.445
  N  N427  1  0.871000  0.568100  0.287200  1.0  -0.5804
  N  N428  1  0.914000  0.563000  0.415100  1.0  -0.3954
  N  N429  1  0.633100  0.561500  0.657500  1.0  -0.3893
  N  N430  1  0.851500  0.552900  0.662100  1.0  -0.4542
  N  N431  1  0.857100  0.549200  0.531900  1.0  -0.4038
  N  N432  1  0.628900  0.558500  0.531300  1.0  -0.5116
  N  N433  1  0.093100  0.058400  0.100200  1.0  -0.5368
  N  N434  1  0.246700  0.060600  0.006380  1.0  -0.5728
  N  N435  1  0.412900  0.063600  0.090800  1.0  -0.5286
  N  N436  1  0.261700  0.071100  0.186250  1.0  -0.525
  N  N437  1  0.570200  0.063100  0.922900  1.0  -0.5064
  N  N438  1  0.630800  0.067800  0.799930  1.0  -0.5207
  N  N439  1  0.423500  0.060300  0.763000  1.0  -0.5203
  N  N440  1  0.351200  0.051900  0.887490  1.0  -0.5121
  N  N441  1  0.135400  0.063400  0.888500  1.0  -0.5483
  N  N442  1  0.092800  0.065500  0.766300  1.0  -0.445
  N  N443  1  0.871000  0.068100  0.787200  1.0  -0.5804
  N  N444  1  0.914000  0.063000  0.915100  1.0  -0.3954
  N  N445  1  0.633100  0.061500  0.157500  1.0  -0.3893
  N  N446  1  0.851500  0.052900  0.162100  1.0  -0.4542
  N  N447  1  0.857100  0.049200  0.031900  1.0  -0.4038
  N  N448  1  0.628900  0.058500  0.031300  1.0  -0.5116
  N  N449  1  0.406900  0.441600  0.100200  1.0  -0.5367
  N  N450  1  0.253300  0.439400  0.006380  1.0  -0.5726
  N  N451  1  0.087100  0.436400  0.090800  1.0  -0.5261
  N  N452  1  0.238300  0.428900  0.186250  1.0  -0.5245
  N  N453  1  0.929800  0.436900  0.922900  1.0  -0.5051
  N  N454  1  0.869200  0.432200  0.799930  1.0  -0.5192
  N  N455  1  0.076500  0.439700  0.763000  1.0  -0.5196
  N  N456  1  0.148800  0.448100  0.887490  1.0  -0.5145
  N  N457  1  0.364600  0.436600  0.888500  1.0  -0.5465
  N  N458  1  0.407200  0.434500  0.766300  1.0  -0.4456
  N  N459  1  0.629000  0.431900  0.787200  1.0  -0.5815
  N  N460  1  0.586000  0.437000  0.915100  1.0  -0.3984
  N  N461  1  0.866900  0.438500  0.157500  1.0  -0.3897
  N  N462  1  0.648500  0.447100  0.162100  1.0  -0.4548
  N  N463  1  0.642900  0.450800  0.031900  1.0  -0.4044
  N  N464  1  0.871100  0.441500  0.031300  1.0  -0.5139
  N  N465  1  0.406900  0.941600  0.600200  1.0  -0.5367
  N  N466  1  0.253300  0.939400  0.506380  1.0  -0.5726
  N  N467  1  0.087100  0.936400  0.590800  1.0  -0.5261
  N  N468  1  0.238300  0.928900  0.686250  1.0  -0.5245
  N  N469  1  0.929800  0.936900  0.422900  1.0  -0.5051
  N  N470  1  0.869200  0.932200  0.299930  1.0  -0.5192
  N  N471  1  0.076500  0.939700  0.263000  1.0  -0.5196
  N  N472  1  0.148800  0.948100  0.387490  1.0  -0.5145
  N  N473  1  0.364600  0.936600  0.388500  1.0  -0.5465
  N  N474  1  0.407200  0.934500  0.266300  1.0  -0.4456
  N  N475  1  0.629000  0.931900  0.287200  1.0  -0.5815
  N  N476  1  0.586000  0.937000  0.415100  1.0  -0.3984
  N  N477  1  0.866900  0.938500  0.657500  1.0  -0.3897
  N  N478  1  0.648500  0.947100  0.662100  1.0  -0.4548
  N  N479  1  0.642900  0.950800  0.531900  1.0  -0.4044
  N  N480  1  0.871100  0.941500  0.531300  1.0  -0.5139
  N  N481  1  0.906900  0.441600  0.600200  1.0  -0.5367
  N  N482  1  0.753300  0.439400  0.506380  1.0  -0.5726
  N  N483  1  0.587100  0.436400  0.590800  1.0  -0.5261
  N  N484  1  0.738300  0.428900  0.686250  1.0  -0.5245
  N  N485  1  0.429800  0.436900  0.422900  1.0  -0.5051
  N  N486  1  0.369200  0.432200  0.299930  1.0  -0.5198
  N  N487  1  0.576500  0.439700  0.263000  1.0  -0.5196
  N  N488  1  0.648800  0.448100  0.387490  1.0  -0.5145
  N  N489  1  0.864600  0.436600  0.388500  1.0  -0.5465
  N  N490  1  0.907200  0.434500  0.266300  1.0  -0.4456
  N  N491  1  0.129000  0.431900  0.287200  1.0  -0.5814
  N  N492  1  0.086000  0.437000  0.415100  1.0  -0.3984
  N  N493  1  0.366900  0.438500  0.657500  1.0  -0.3897
  N  N494  1  0.148500  0.447100  0.662100  1.0  -0.4548
  N  N495  1  0.142900  0.450800  0.531900  1.0  -0.4044
  N  N496  1  0.371100  0.441500  0.531300  1.0  -0.5139
  N  N497  1  0.906900  0.941600  0.100200  1.0  -0.5367
  N  N498  1  0.753300  0.939400  0.006380  1.0  -0.5726
  N  N499  1  0.587100  0.936400  0.090800  1.0  -0.5261
  N  N500  1  0.738300  0.928900  0.186250  1.0  -0.5245
  N  N501  1  0.429800  0.936900  0.922900  1.0  -0.5051
  N  N502  1  0.369200  0.932200  0.799930  1.0  -0.5192
  N  N503  1  0.576500  0.939700  0.763000  1.0  -0.5196
  N  N504  1  0.648800  0.948100  0.887490  1.0  -0.5145
  N  N505  1  0.864600  0.936600  0.888500  1.0  -0.5465
  N  N506  1  0.907200  0.934500  0.766300  1.0  -0.4456
  N  N507  1  0.129000  0.931900  0.787200  1.0  -0.5815
  N  N508  1  0.086000  0.937000  0.915100  1.0  -0.3984
  N  N509  1  0.366900  0.938500  0.157500  1.0  -0.3897
  N  N510  1  0.148500  0.947100  0.162100  1.0  -0.4548
  N  N511  1  0.142900  0.950800  0.031900  1.0  -0.4044
  N  N512  1  0.371100  0.941500  0.031300  1.0  -0.5139
  N  N513  1  0.843100  0.691600  0.350200  1.0  -0.5369
  N  N514  1  0.996700  0.689400  0.256380  1.0  -0.5728
  N  N515  1  0.162900  0.686400  0.340800  1.0  -0.5286
  N  N516  1  0.011700  0.678900  0.436250  1.0  -0.5248
  N  N517  1  0.320200  0.686900  0.172900  1.0  -0.5063
  N  N518  1  0.380800  0.682200  0.049930  1.0  -0.5207
  N  N519  1  0.173500  0.689700  0.013000  1.0  -0.5202
  N  N520  1  0.101200  0.698100  0.137490  1.0  -0.5126
  N  N521  1  0.885400  0.686600  0.138500  1.0  -0.5483
  N  N522  1  0.842800  0.684500  0.016300  1.0  -0.4451
  N  N523  1  0.621000  0.681900  0.037200  1.0  -0.5793
  N  N524  1  0.664000  0.687000  0.165100  1.0  -0.3962
  N  N525  1  0.383100  0.688500  0.407500  1.0  -0.3893
  N  N526  1  0.601500  0.697100  0.412100  1.0  -0.4543
  N  N527  1  0.607100  0.700800  0.281900  1.0  -0.4038
  N  N528  1  0.378900  0.691500  0.281300  1.0  -0.5119
  N  N529  1  0.843100  0.191600  0.850200  1.0  -0.5369
  N  N530  1  0.996700  0.189400  0.756380  1.0  -0.5728
  N  N531  1  0.162900  0.186400  0.840800  1.0  -0.5286
  N  N532  1  0.011700  0.178900  0.936250  1.0  -0.5248
  N  N533  1  0.320200  0.186900  0.672900  1.0  -0.5063
  N  N534  1  0.380800  0.182200  0.549930  1.0  -0.5207
  N  N535  1  0.173500  0.189700  0.513000  1.0  -0.5202
  N  N536  1  0.101200  0.198100  0.637490  1.0  -0.5126
  N  N537  1  0.885400  0.186600  0.638500  1.0  -0.5483
  N  N538  1  0.842800  0.184500  0.516300  1.0  -0.4451
  N  N539  1  0.621000  0.181900  0.537200  1.0  -0.5793
  N  N540  1  0.664000  0.187000  0.665100  1.0  -0.3962
  N  N541  1  0.383100  0.188500  0.907500  1.0  -0.3893
  N  N542  1  0.601500  0.197100  0.912100  1.0  -0.4543
  N  N543  1  0.607100  0.200800  0.781900  1.0  -0.4038
  N  N544  1  0.378900  0.191500  0.781300  1.0  -0.5119
  N  N545  1  0.343100  0.691600  0.850200  1.0  -0.5369
  N  N546  1  0.496700  0.689400  0.756380  1.0  -0.5728
  N  N547  1  0.662900  0.686400  0.840800  1.0  -0.5286
  N  N548  1  0.511700  0.678900  0.936250  1.0  -0.5248
  N  N549  1  0.820200  0.686900  0.672900  1.0  -0.5063
  N  N550  1  0.880800  0.682200  0.549930  1.0  -0.5207
  N  N551  1  0.673500  0.689700  0.513000  1.0  -0.5202
  N  N552  1  0.601200  0.698100  0.637490  1.0  -0.5126
  N  N553  1  0.385400  0.686600  0.638500  1.0  -0.5483
  N  N554  1  0.342800  0.684500  0.516300  1.0  -0.4451
  N  N555  1  0.121000  0.681900  0.537200  1.0  -0.5793
  N  N556  1  0.164000  0.687000  0.665100  1.0  -0.3962
  N  N557  1  0.883100  0.688500  0.907500  1.0  -0.3893
  N  N558  1  0.101500  0.697100  0.912100  1.0  -0.4543
  N  N559  1  0.107100  0.700800  0.781900  1.0  -0.4038
  N  N560  1  0.878900  0.691500  0.781300  1.0  -0.5119
  N  N561  1  0.343100  0.191600  0.350200  1.0  -0.5369
  N  N562  1  0.496700  0.189400  0.256380  1.0  -0.5728
  N  N563  1  0.662900  0.186400  0.340800  1.0  -0.5286
  N  N564  1  0.511700  0.178900  0.436250  1.0  -0.5248
  N  N565  1  0.820200  0.186900  0.172900  1.0  -0.5063
  N  N566  1  0.880800  0.182200  0.049930  1.0  -0.5207
  N  N567  1  0.673500  0.189700  0.013000  1.0  -0.5202
  N  N568  1  0.601200  0.198100  0.137490  1.0  -0.5126
  N  N569  1  0.385400  0.186600  0.138500  1.0  -0.5483
  N  N570  1  0.342800  0.184500  0.016300  1.0  -0.4451
  N  N571  1  0.121000  0.181900  0.037200  1.0  -0.5793
  N  N572  1  0.164000  0.187000  0.165100  1.0  -0.3962
  N  N573  1  0.883100  0.188500  0.407500  1.0  -0.3893
  N  N574  1  0.101500  0.197100  0.412100  1.0  -0.4543
  N  N575  1  0.107100  0.200800  0.281900  1.0  -0.4038
  N  N576  1  0.878900  0.191500  0.281300  1.0  -0.5119
  N  N577  1  0.656900  0.808400  0.350200  1.0  -0.5367
  N  N578  1  0.503300  0.810600  0.256380  1.0  -0.5726
  N  N579  1  0.337100  0.813600  0.340800  1.0  -0.526
  N  N580  1  0.488300  0.821100  0.436250  1.0  -0.5248
  N  N581  1  0.179800  0.813100  0.172900  1.0  -0.5052
  N  N582  1  0.119200  0.817800  0.049930  1.0  -0.5199
  N  N583  1  0.326500  0.810300  0.013000  1.0  -0.5198
  N  N584  1  0.398800  0.801900  0.137490  1.0  -0.5143
  N  N585  1  0.614600  0.813400  0.138500  1.0  -0.5464
  N  N586  1  0.657200  0.815500  0.016300  1.0  -0.4455
  N  N587  1  0.879000  0.818100  0.037200  1.0  -0.5816
  N  N588  1  0.836000  0.813000  0.165100  1.0  -0.3985
  N  N589  1  0.116900  0.811500  0.407500  1.0  -0.3896
  N  N590  1  0.898500  0.802900  0.412100  1.0  -0.4546
  N  N591  1  0.892900  0.799200  0.281900  1.0  -0.4043
  N  N592  1  0.121100  0.808500  0.281300  1.0  -0.5136
  N  N593  1  0.656900  0.308400  0.850200  1.0  -0.5367
  N  N594  1  0.503300  0.310600  0.756380  1.0  -0.5726
  N  N595  1  0.337100  0.313600  0.840800  1.0  -0.526
  N  N596  1  0.488300  0.321100  0.936250  1.0  -0.5248
  N  N597  1  0.179800  0.313100  0.672900  1.0  -0.5052
  N  N598  1  0.119200  0.317800  0.549930  1.0  -0.5199
  N  N599  1  0.326500  0.310300  0.513000  1.0  -0.5198
  N  N600  1  0.398800  0.301900  0.637490  1.0  -0.5143
  N  N601  1  0.614600  0.313400  0.638500  1.0  -0.5464
  N  N602  1  0.657200  0.315500  0.516300  1.0  -0.4455
  N  N603  1  0.879000  0.318100  0.537200  1.0  -0.5816
  N  N604  1  0.836000  0.313000  0.665100  1.0  -0.3985
  N  N605  1  0.116900  0.311500  0.907500  1.0  -0.3896
  N  N606  1  0.898500  0.302900  0.912100  1.0  -0.4546
  N  N607  1  0.892900  0.299200  0.781900  1.0  -0.4043
  N  N608  1  0.121100  0.308500  0.781300  1.0  -0.5136
  N  N609  1  0.156900  0.808400  0.850200  1.0  -0.5367
  N  N610  1  0.003300  0.810600  0.756380  1.0  -0.5726
  N  N611  1  0.837100  0.813600  0.840800  1.0  -0.526
  N  N612  1  0.988300  0.821100  0.936250  1.0  -0.5248
  N  N613  1  0.679800  0.813100  0.672900  1.0  -0.5052
  N  N614  1  0.619200  0.817800  0.549930  1.0  -0.5199
  N  N615  1  0.826500  0.810300  0.513000  1.0  -0.5198
  N  N616  1  0.898800  0.801900  0.637490  1.0  -0.5143
  N  N617  1  0.114600  0.813400  0.638500  1.0  -0.5464
  N  N618  1  0.157200  0.815500  0.516300  1.0  -0.4455
  N  N619  1  0.379000  0.818100  0.537200  1.0  -0.5816
  N  N620  1  0.336000  0.813000  0.665100  1.0  -0.3985
  N  N621  1  0.616900  0.811500  0.907500  1.0  -0.3896
  N  N622  1  0.398500  0.802900  0.912100  1.0  -0.4546
  N  N623  1  0.392900  0.799200  0.781900  1.0  -0.4043
  N  N624  1  0.621100  0.808500  0.781300  1.0  -0.5136
  N  N625  1  0.156900  0.308400  0.350200  1.0  -0.5367
  N  N626  1  0.003300  0.310600  0.256380  1.0  -0.5726
  N  N627  1  0.837100  0.313600  0.340800  1.0  -0.526
  N  N628  1  0.988300  0.321100  0.436250  1.0  -0.5248
  N  N629  1  0.679800  0.313100  0.172900  1.0  -0.5052
  N  N630  1  0.619200  0.317800  0.049930  1.0  -0.5199
  N  N631  1  0.826500  0.310300  0.013000  1.0  -0.5198
  N  N632  1  0.898800  0.301900  0.137490  1.0  -0.5143
  N  N633  1  0.114600  0.313400  0.138500  1.0  -0.5464
  N  N634  1  0.157200  0.315500  0.016300  1.0  -0.4455
  N  N635  1  0.379000  0.318100  0.037200  1.0  -0.5816
  N  N636  1  0.336000  0.313000  0.165100  1.0  -0.3985
  N  N637  1  0.616900  0.311500  0.407500  1.0  -0.3896
  N  N638  1  0.398500  0.302900  0.412100  1.0  -0.4546
  N  N639  1  0.392900  0.299200  0.281900  1.0  -0.4043
  N  N640  1  0.621100  0.308500  0.281300  1.0  -0.5136
  O  O641  1  0.458100  0.558300  0.484010  1.0  -0.6511
  O  O642  1  0.458100  0.058300  0.984010  1.0  -0.6511
  O  O643  1  0.958100  0.558300  0.984010  1.0  -0.6511
  O  O644  1  0.958100  0.058300  0.484010  1.0  -0.6511
  O  O645  1  0.541900  0.441700  0.484010  1.0  -0.6502
  O  O646  1  0.541900  0.941700  0.984010  1.0  -0.6502
  O  O647  1  0.041900  0.441700  0.984010  1.0  -0.6502
  O  O648  1  0.041900  0.941700  0.484010  1.0  -0.6502
  O  O649  1  0.708100  0.691700  0.734010  1.0  -0.6512
  O  O650  1  0.708100  0.191700  0.234010  1.0  -0.6512
  O  O651  1  0.208100  0.691700  0.234010  1.0  -0.6512
  O  O652  1  0.208100  0.191700  0.734010  1.0  -0.6512
  O  O653  1  0.791900  0.808300  0.734010  1.0  -0.6501
  O  O654  1  0.791900  0.308300  0.234010  1.0  -0.6501
  O  O655  1  0.291900  0.808300  0.234010  1.0  -0.6501
  O  O656  1  0.291900  0.308300  0.734010  1.0  -0.6501
