# generated using pymatgen
data_K2La2Pt4C16N16O
_symmetry_space_group_name_H-M   'P 1'
_cell_length_a   16.62530000
_cell_length_b   16.62540000
_cell_length_c   20.04110000
_cell_angle_alpha   73.27780000
_cell_angle_beta   73.27770000
_cell_angle_gamma   107.83700000
_symmetry_Int_Tables_number   1
_chemical_formula_structural   K2La2Pt4C16N16O
_chemical_formula_sum   'K8 La8 Pt16 C64 N64 O4'
_cell_volume   4600.96017484
_cell_formula_units_Z   4
loop_
 _symmetry_equiv_pos_site_id
 _symmetry_equiv_pos_as_xyz
  1  'x, y, z'
loop_
 _atom_site_type_symbol
 _atom_site_label
 _atom_site_symmetry_multiplicity
 _atom_site_fract_x
 _atom_site_fract_y
 _atom_site_fract_z
 _atom_site_occupancy
 _atom_site_charge
  K  K1  1  0.442650  0.713030  0.968400  1.0  0.8992
  K  K2  1  0.588950  0.318570  0.968400  1.0  0.8981
  K  K3  1  0.463030  0.692650  0.468400  1.0  0.8979
  K  K4  1  0.068570  0.838950  0.468400  1.0  0.8985
  K  K5  1  0.856410  0.856410  0.287180  1.0  0.926
  K  K6  1  0.455010  0.455010  0.089980  1.0  0.9097
  K  K7  1  0.606410  0.106410  0.787180  1.0  0.926
  K  K8  1  0.205010  0.705010  0.589980  1.0  0.9097
  La  La9  1  0.254060  0.370340  0.864200  1.0  1.8406
  La  La10  1  0.914680  0.052320  0.519880  1.0  1.8351
  La  La11  1  0.881740  0.765460  0.864200  1.0  1.8402
  La  La12  1  0.565440  0.427800  0.519880  1.0  1.8351
  La  La13  1  0.120340  0.504060  0.364200  1.0  1.8407
  La  La14  1  0.802320  0.164680  0.019880  1.0  1.8351
  La  La15  1  0.515460  0.131740  0.364200  1.0  1.8402
  La  La16  1  0.177800  0.815440  0.019880  1.0  1.835
  Pt  Pt17  1  0.093390  0.221850  0.192730  1.0  0.2269
  Pt  Pt18  1  0.585890  0.709290  0.689080  1.0  0.3138
  Pt  Pt19  1  0.097850  0.225150  0.679230  1.0  0.2559
  Pt  Pt20  1  0.591750  0.707320  0.189510  1.0  0.3205
  Pt  Pt21  1  0.713880  0.585420  0.192730  1.0  0.2287
  Pt  Pt22  1  0.725030  0.601630  0.689080  1.0  0.3128
  Pt  Pt23  1  0.222920  0.095630  0.679230  1.0  0.2555
  Pt  Pt24  1  0.218740  0.103170  0.189510  1.0  0.3216
  Pt  Pt25  1  0.971850  0.343390  0.692730  1.0  0.2287
  Pt  Pt26  1  0.459290  0.835890  0.189080  1.0  0.3136
  Pt  Pt27  1  0.975150  0.347850  0.179230  1.0  0.2541
  Pt  Pt28  1  0.457320  0.841750  0.689510  1.0  0.3214
  Pt  Pt29  1  0.335420  0.963880  0.692730  1.0  0.2268
  Pt  Pt30  1  0.351630  0.975030  0.189080  1.0  0.3134
  Pt  Pt31  1  0.845620  0.472920  0.179230  1.0  0.2568
  Pt  Pt32  1  0.853170  0.468740  0.689510  1.0  0.3207
  C  C33  1  0.990100  0.115700  0.199800  1.0  0.1309
  C  C34  1  0.148300  0.271500  0.078800  1.0  0.1455
  C  C35  1  0.199700  0.325500  0.185800  1.0  0.1408
  C  C36  1  0.038900  0.174500  0.305800  1.0  0.1427
  C  C37  1  0.583400  0.707600  0.788800  1.0  0.1612
  C  C38  1  0.696900  0.830900  0.635000  1.0  0.0991
  C  C39  1  0.592700  0.714300  0.587200  1.0  0.1298
  C  C40  1  0.476700  0.587300  0.741800  1.0  0.1276
  C  C41  1  0.152600  0.277400  0.742000  1.0  0.134
  C  C42  1  0.201500  0.330900  0.585200  1.0  0.1385
  C  C43  1  0.045400  0.177000  0.614400  1.0  0.1495
  C  C44  1  0.996500  0.120700  0.773800  1.0  0.1344
  C  C45  1  0.480000  0.599400  0.267800  1.0  0.1287
  C  C46  1  0.621200  0.731400  0.273200  1.0  0.1433
  C  C47  1  0.707100  0.813700  0.109000  1.0  0.119
  C  C48  1  0.560700  0.678300  0.106400  1.0  0.0877
  C  C49  1  0.810100  0.684500  0.199800  1.0  0.1315
  C  C50  1  0.772900  0.649700  0.078800  1.0  0.1451
  C  C51  1  0.614500  0.488700  0.185800  1.0  0.14
  C  C52  1  0.655300  0.519700  0.305800  1.0  0.1445
  C  C53  1  0.627800  0.503600  0.788800  1.0  0.1609
  C  C54  1  0.668100  0.534100  0.635000  1.0  0.1016
  C  C55  1  0.820100  0.698500  0.587200  1.0  0.1289
  C  C56  1  0.781500  0.670900  0.741800  1.0  0.1298
  C  C57  1  0.105400  0.980600  0.742000  1.0  0.1308
  C  C58  1  0.213300  0.083900  0.585200  1.0  0.1395
  C  C59  1  0.340200  0.208600  0.614400  1.0  0.1483
  C  C60  1  0.229700  0.105500  0.773800  1.0  0.1309
  C  C61  1  0.252200  0.132800  0.267800  1.0  0.1304
  C  C62  1  0.105600  0.995400  0.273200  1.0  0.1422
  C  C63  1  0.183900  0.077300  0.109000  1.0  0.1176
  C  C64  1  0.332900  0.215300  0.106400  1.0  0.0853
  C  C65  1  0.865700  0.240100  0.699800  1.0  0.1311
  C  C66  1  0.021500  0.398300  0.578800  1.0  0.1455
  C  C67  1  0.075500  0.449700  0.685800  1.0  0.14
  C  C68  1  0.924500  0.288900  0.805800  1.0  0.1429
  C  C69  1  0.457600  0.833400  0.288800  1.0  0.1606
  C  C70  1  0.580900  0.946900  0.135000  1.0  0.0985
  C  C71  1  0.464300  0.842700  0.087200  1.0  0.13
  C  C72  1  0.337300  0.726700  0.241800  1.0  0.1284
  C  C73  1  0.027400  0.402600  0.242000  1.0  0.1323
  C  C74  1  0.080900  0.451500  0.085200  1.0  0.1386
  C  C75  1  0.927000  0.295400  0.114400  1.0  0.1497
  C  C76  1  0.870700  0.246500  0.273800  1.0  0.1339
  C  C77  1  0.349400  0.730000  0.767800  1.0  0.1291
  C  C78  1  0.481400  0.871200  0.773200  1.0  0.1436
  C  C79  1  0.563700  0.957100  0.609000  1.0  0.1178
  C  C80  1  0.428300  0.810700  0.606400  1.0  0.0878
  C  C81  1  0.434500  0.060100  0.699800  1.0  0.1319
  C  C82  1  0.399700  0.022900  0.578800  1.0  0.1449
  C  C83  1  0.238700  0.864500  0.685800  1.0  0.1394
  C  C84  1  0.269700  0.905300  0.805800  1.0  0.1436
  C  C85  1  0.253600  0.877800  0.288800  1.0  0.161
  C  C86  1  0.284100  0.918100  0.135000  1.0  0.1019
  C  C87  1  0.448500  0.070100  0.087200  1.0  0.1302
  C  C88  1  0.420900  0.031500  0.241800  1.0  0.1289
  C  C89  1  0.730600  0.355400  0.242000  1.0  0.132
  C  C90  1  0.833900  0.463300  0.085200  1.0  0.1396
  C  C91  1  0.958600  0.590200  0.114400  1.0  0.1486
  C  C92  1  0.855500  0.479700  0.273800  1.0  0.131
  C  C93  1  0.882800  0.502200  0.767800  1.0  0.1297
  C  C94  1  0.745400  0.355600  0.773200  1.0  0.1422
  C  C95  1  0.827300  0.433900  0.609000  1.0  0.1185
  C  C96  1  0.965300  0.582900  0.606400  1.0  0.0872
  N  N97  1  0.934300  0.053500  0.202600  1.0  -0.5309
  N  N98  1  0.179760  0.300160  0.014280  1.0  -0.5472
  N  N99  1  0.260100  0.386100  0.180000  1.0  -0.5342
  N  N100  1  0.007800  0.149000  0.370600  1.0  -0.5405
  N  N101  1  0.584700  0.709100  0.845200  1.0  -0.5611
  N  N102  1  0.762200  0.898200  0.600800  1.0  -0.5114
  N  N103  1  0.601800  0.721000  0.526600  1.0  -0.5396
  N  N104  1  0.413900  0.516700  0.772200  1.0  -0.5681
  N  N105  1  0.183100  0.309300  0.777400  1.0  -0.564
  N  N106  1  0.261400  0.390800  0.531800  1.0  -0.4186
  N  N107  1  0.016900  0.153100  0.574600  1.0  -0.5846
  N  N108  1  0.939200  0.061800  0.829200  1.0  -0.4063
  N  N109  1  0.415700  0.535500  0.314600  1.0  -0.4203
  N  N110  1  0.636800  0.741000  0.322600  1.0  -0.4874
  N  N111  1  0.772400  0.873000  0.063000  1.0  -0.4024
  N  N112  1  0.540900  0.655700  0.063000  1.0  -0.5567
  N  N113  1  0.863100  0.743900  0.202600  1.0  -0.5358
  N  N114  1  0.805960  0.685560  0.014280  1.0  -0.5509
  N  N115  1  0.559900  0.433900  0.180000  1.0  -0.5344
  N  N116  1  0.621600  0.480400  0.370600  1.0  -0.5384
  N  N117  1  0.570100  0.445700  0.845200  1.0  -0.5609
  N  N118  1  0.637000  0.501000  0.600800  1.0  -0.5103
  N  N119  1  0.871600  0.752400  0.526600  1.0  -0.5408
  N  N120  1  0.813900  0.711100  0.772200  1.0  -0.575
  N  N121  1  0.039500  0.913300  0.777400  1.0  -0.559
  N  N122  1  0.206800  0.077400  0.531800  1.0  -0.4195
  N  N123  1  0.408500  0.272300  0.574600  1.0  -0.5846
  N  N124  1  0.231600  0.109000  0.829200  1.0  -0.4087
  N  N125  1  0.269700  0.149900  0.314600  1.0  -0.4223
  N  N126  1  0.040600  0.936400  0.322600  1.0  -0.4845
  N  N127  1  0.164600  0.064000  0.063000  1.0  -0.4043
  N  N128  1  0.396100  0.281300  0.063000  1.0  -0.5634
  N  N129  1  0.803500  0.184300  0.702600  1.0  -0.5312
  N  N130  1  0.050160  0.429760  0.514280  1.0  -0.5496
  N  N131  1  0.136100  0.510100  0.680000  1.0  -0.5351
  N  N132  1  0.899000  0.257800  0.870600  1.0  -0.5415
  N  N133  1  0.459100  0.834700  0.345200  1.0  -0.561
  N  N134  1  0.648200  0.012200  0.100800  1.0  -0.5129
  N  N135  1  0.471000  0.851800  0.026600  1.0  -0.5398
  N  N136  1  0.266700  0.663900  0.272200  1.0  -0.5685
  N  N137  1  0.059300  0.433100  0.277400  1.0  -0.564
  N  N138  1  0.140800  0.511400  0.031800  1.0  -0.4182
  N  N139  1  0.903100  0.266900  0.074600  1.0  -0.5849
  N  N140  1  0.811800  0.189200  0.329200  1.0  -0.4068
  N  N141  1  0.285500  0.665700  0.814600  1.0  -0.4205
  N  N142  1  0.491000  0.886800  0.822600  1.0  -0.4877
  N  N143  1  0.623000  0.022400  0.563000  1.0  -0.4021
  N  N144  1  0.405700  0.790900  0.563000  1.0  -0.5568
  N  N145  1  0.493900  0.113100  0.702600  1.0  -0.5355
  N  N146  1  0.435560  0.055960  0.514280  1.0  -0.5494
  N  N147  1  0.183900  0.809900  0.680000  1.0  -0.5339
  N  N148  1  0.230400  0.871600  0.870600  1.0  -0.5374
  N  N149  1  0.195700  0.820100  0.345200  1.0  -0.561
  N  N150  1  0.251000  0.887000  0.100800  1.0  -0.5113
  N  N151  1  0.502400  0.121600  0.026600  1.0  -0.5413
  N  N152  1  0.461100  0.063900  0.272200  1.0  -0.5738
  N  N153  1  0.663300  0.289500  0.277400  1.0  -0.5592
  N  N154  1  0.827400  0.456800  0.031800  1.0  -0.4193
  N  N155  1  0.022300  0.658500  0.074600  1.0  -0.5841
  N  N156  1  0.859000  0.481600  0.329200  1.0  -0.4087
  N  N157  1  0.899900  0.519700  0.814600  1.0  -0.4229
  N  N158  1  0.686400  0.290600  0.822600  1.0  -0.4837
  N  N159  1  0.814000  0.414600  0.563000  1.0  -0.4047
  N  N160  1  0.031300  0.646100  0.563000  1.0  -0.5631
  O  O161  1  0.417800  0.533000  0.969000  1.0  -0.536
  O  O162  1  0.613200  0.498000  0.969000  1.0  -0.5352
  O  O163  1  0.283000  0.667800  0.469000  1.0  -0.5355
  O  O164  1  0.248000  0.863200  0.469000  1.0  -0.5366
