# generated using pymatgen
data_MgH2(C3O2)2
_symmetry_space_group_name_H-M   'P 1'
_cell_length_a   11.96100000
_cell_length_b   17.56600000
_cell_length_c   18.51400000
_cell_angle_alpha   116.65000000
_cell_angle_beta   90.00000000
_cell_angle_gamma   90.00000000
_symmetry_Int_Tables_number   1
_chemical_formula_structural   MgH2(C3O2)2
_chemical_formula_sum   'Mg12 H24 C72 O48'
_cell_volume   3476.66683123
_cell_formula_units_Z   12
loop_
 _symmetry_equiv_pos_site_id
 _symmetry_equiv_pos_as_xyz
  1  'x, y, z'
loop_
 _atom_site_type_symbol
 _atom_site_label
 _atom_site_symmetry_multiplicity
 _atom_site_fract_x
 _atom_site_fract_y
 _atom_site_fract_z
 _atom_site_occupancy
 _atom_site_charge
  Mg  Mg1  1  0.581480  0.712760  0.972540  1.0  1.5115
  Mg  Mg2  1  0.447600  0.712190  0.800470  1.0  1.6874
  Mg  Mg3  1  0.821220  0.834180  0.118540  1.0  1.5515
  Mg  Mg4  1  0.081480  0.287240  0.527460  1.0  1.5121
  Mg  Mg5  1  0.947600  0.287810  0.699530  1.0  1.6873
  Mg  Mg6  1  0.321220  0.165820  0.381460  1.0  1.5522
  Mg  Mg7  1  0.418520  0.287240  0.027460  1.0  1.512
  Mg  Mg8  1  0.552400  0.287810  0.199530  1.0  1.6868
  Mg  Mg9  1  0.178780  0.165820  0.881460  1.0  1.5495
  Mg  Mg10  1  0.918520  0.712760  0.472540  1.0  1.5116
  Mg  Mg11  1  0.052400  0.712190  0.300470  1.0  1.6857
  Mg  Mg12  1  0.678780  0.834180  0.618540  1.0  1.549
  H  H13  1  0.691000  0.700300  0.726500  1.0  0.0833
  H  H14  1  0.901600  0.528600  0.568100  1.0  0.1064
  H  H15  1  0.787500  0.499300  0.757400  1.0  0.0964
  H  H16  1  0.657400  0.825400  0.879600  1.0  0.0946
  H  H17  1  0.682000  0.054000  0.071300  1.0  0.1001
  H  H18  1  0.544900  0.033100  0.866100  1.0  0.1066
  H  H19  1  0.191000  0.299700  0.773500  1.0  0.0838
  H  H20  1  0.401600  0.471400  0.931900  1.0  0.1065
  H  H21  1  0.287500  0.500700  0.742600  1.0  0.0969
  H  H22  1  0.157400  0.174600  0.620400  1.0  0.0946
  H  H23  1  0.182000  0.946000  0.428700  1.0  0.0996
  H  H24  1  0.044900  0.966900  0.633900  1.0  0.1069
  H  H25  1  0.309000  0.299700  0.273500  1.0  0.0836
  H  H26  1  0.098400  0.471400  0.431900  1.0  0.1067
  H  H27  1  0.212500  0.500700  0.242600  1.0  0.0967
  H  H28  1  0.342600  0.174600  0.120400  1.0  0.0953
  H  H29  1  0.318000  0.946000  0.928700  1.0  0.0994
  H  H30  1  0.455100  0.966900  0.133900  1.0  0.1072
  H  H31  1  0.809000  0.700300  0.226500  1.0  0.0832
  H  H32  1  0.598400  0.528600  0.068100  1.0  0.1063
  H  H33  1  0.712500  0.499300  0.257400  1.0  0.0964
  H  H34  1  0.842600  0.825400  0.379600  1.0  0.0946
  H  H35  1  0.818000  0.054000  0.571300  1.0  0.1003
  H  H36  1  0.955100  0.033100  0.366100  1.0  0.1064
  C  C37  1  0.797300  0.623200  0.640600  1.0  -0.1403
  C  C38  1  0.733900  0.651200  0.710300  1.0  -0.0104
  C  C39  1  0.733600  0.606800  0.756300  1.0  -0.1742
  C  C40  1  0.857100  0.546900  0.614000  1.0  0.0099
  C  C41  1  0.675600  0.643100  0.836200  1.0  0.7231
  C  C42  1  0.794900  0.675800  0.595100  1.0  0.7796
  C  C43  1  0.789900  0.530300  0.727800  1.0  0.0092
  C  C44  1  0.850300  0.498200  0.656000  1.0  -0.188
  C  C45  1  0.902300  0.412100  0.627500  1.0  0.778
  C  C46  1  0.726300  0.892700  0.032100  1.0  0.7106
  C  C47  1  0.645900  0.883900  0.903300  1.0  0.0029
  C  C48  1  0.677300  0.933900  0.983700  1.0  -0.1754
  C  C49  1  0.597500  0.921000  0.858700  1.0  -0.193
  C  C50  1  0.658800  0.020400  0.018500  1.0  0.0242
  C  C51  1  0.573200  0.151400  0.021300  1.0  0.7809
  C  C52  1  0.577800  0.008100  0.895700  1.0  0.0192
  C  C53  1  0.605900  0.058600  0.975900  1.0  -0.1938
  C  C54  1  0.564200  0.863700  0.772300  1.0  0.8251
  C  C55  1  0.297300  0.376800  0.859400  1.0  -0.1405
  C  C56  1  0.233900  0.348800  0.789700  1.0  -0.0099
  C  C57  1  0.233600  0.393200  0.743700  1.0  -0.1744
  C  C58  1  0.357100  0.453100  0.886000  1.0  0.0098
  C  C59  1  0.175600  0.356900  0.663800  1.0  0.7185
  C  C60  1  0.294900  0.324200  0.904900  1.0  0.7799
  C  C61  1  0.289900  0.469700  0.772200  1.0  0.0053
  C  C62  1  0.350300  0.501800  0.844000  1.0  -0.1878
  C  C63  1  0.402300  0.587900  0.872500  1.0  0.779
  C  C64  1  0.226300  0.107300  0.467900  1.0  0.7099
  C  C65  1  0.145900  0.116100  0.596700  1.0  0.0004
  C  C66  1  0.177300  0.066100  0.516300  1.0  -0.1745
  C  C67  1  0.097500  0.079000  0.641300  1.0  -0.186
  C  C68  1  0.158800  0.979600  0.481500  1.0  0.0253
  C  C69  1  0.073200  0.848600  0.478700  1.0  0.7822
  C  C70  1  0.077800  0.991900  0.604300  1.0  0.0195
  C  C71  1  0.105900  0.941400  0.524100  1.0  -0.1939
  C  C72  1  0.064200  0.136300  0.727700  1.0  0.8198
  C  C73  1  0.202700  0.376800  0.359400  1.0  -0.1394
  C  C74  1  0.266100  0.348800  0.289700  1.0  -0.0085
  C  C75  1  0.266400  0.393200  0.243700  1.0  -0.1736
  C  C76  1  0.142900  0.453100  0.386000  1.0  0.0101
  C  C77  1  0.324400  0.356900  0.163800  1.0  0.7197
  C  C78  1  0.205100  0.324200  0.404900  1.0  0.7797
  C  C79  1  0.210100  0.469700  0.272200  1.0  0.0057
  C  C80  1  0.149700  0.501800  0.344000  1.0  -0.1876
  C  C81  1  0.097700  0.587900  0.372500  1.0  0.7815
  C  C82  1  0.273700  0.107300  0.967900  1.0  0.7124
  C  C83  1  0.354100  0.116100  0.096700  1.0  -0.0005
  C  C84  1  0.322700  0.066100  0.016300  1.0  -0.1746
  C  C85  1  0.402500  0.079000  0.141300  1.0  -0.1891
  C  C86  1  0.341200  0.979600  0.981500  1.0  0.0257
  C  C87  1  0.426800  0.848600  0.978700  1.0  0.7786
  C  C88  1  0.422200  0.991900  0.104300  1.0  0.0187
  C  C89  1  0.394100  0.941400  0.024100  1.0  -0.1938
  C  C90  1  0.435800  0.136300  0.227700  1.0  0.82
  C  C91  1  0.702700  0.623200  0.140600  1.0  -0.1392
  C  C92  1  0.766100  0.651200  0.210300  1.0  -0.0089
  C  C93  1  0.766400  0.606800  0.256300  1.0  -0.1737
  C  C94  1  0.642900  0.546900  0.114000  1.0  0.0103
  C  C95  1  0.824400  0.643100  0.336200  1.0  0.7239
  C  C96  1  0.705100  0.675800  0.095100  1.0  0.7795
  C  C97  1  0.710100  0.530300  0.227800  1.0  0.0093
  C  C98  1  0.649700  0.498200  0.156000  1.0  -0.188
  C  C99  1  0.597700  0.412100  0.127500  1.0  0.7812
  C  C100  1  0.773700  0.892700  0.532100  1.0  0.7152
  C  C101  1  0.854100  0.883900  0.403300  1.0  0.0027
  C  C102  1  0.822700  0.933900  0.483700  1.0  -0.1742
  C  C103  1  0.902500  0.921000  0.358700  1.0  -0.1937
  C  C104  1  0.841200  0.020400  0.518500  1.0  0.0257
  C  C105  1  0.926800  0.151400  0.521300  1.0  0.7806
  C  C106  1  0.922200  0.008100  0.395700  1.0  0.0201
  C  C107  1  0.894100  0.058600  0.475900  1.0  -0.1942
  C  C108  1  0.935800  0.863700  0.272300  1.0  0.8222
  O  O109  1  0.594600  0.695090  0.849120  1.0  -0.9053
  O  O110  1  0.882500  0.679040  0.559550  1.0  -0.6828
  O  O111  1  0.709700  0.627000  0.891420  1.0  -0.5938
  O  O112  1  0.965700  0.385310  0.566580  1.0  -0.6666
  O  O113  1  0.705200  0.714300  0.598100  1.0  -0.7794
  O  O114  1  0.877100  0.372100  0.666500  1.0  -0.804
  O  O115  1  0.713400  0.813240  0.009750  1.0  -0.7759
  O  O116  1  0.782200  0.937300  0.094330  1.0  -0.6724
  O  O117  1  0.594400  0.186770  0.094750  1.0  -0.7828
  O  O118  1  0.524000  0.185130  0.982630  1.0  -0.7061
  O  O119  1  0.520900  0.793430  0.757300  1.0  -0.7955
  O  O120  1  0.583700  0.889100  0.719440  1.0  -0.785
  O  O121  1  0.094600  0.304910  0.650880  1.0  -0.9095
  O  O122  1  0.382500  0.320960  0.940450  1.0  -0.6861
  O  O123  1  0.209700  0.373000  0.608580  1.0  -0.5933
  O  O124  1  0.465700  0.614690  0.933420  1.0  -0.6636
  O  O125  1  0.205200  0.285700  0.901900  1.0  -0.7799
  O  O126  1  0.377100  0.627900  0.833500  1.0  -0.7923
  O  O127  1  0.213400  0.186760  0.490250  1.0  -0.7726
  O  O128  1  0.282200  0.062700  0.405670  1.0  -0.6793
  O  O129  1  0.094400  0.813230  0.405250  1.0  -0.7797
  O  O130  1  0.024000  0.814870  0.517370  1.0  -0.6978
  O  O131  1  0.020900  0.206570  0.742700  1.0  -0.789
  O  O132  1  0.083700  0.110900  0.780560  1.0  -0.7812
  O  O133  1  0.405400  0.304910  0.150880  1.0  -0.9106
  O  O134  1  0.117500  0.320960  0.440450  1.0  -0.6894
  O  O135  1  0.290300  0.373000  0.108580  1.0  -0.5932
  O  O136  1  0.034300  0.614690  0.433420  1.0  -0.661
  O  O137  1  0.294800  0.285700  0.401900  1.0  -0.7807
  O  O138  1  0.122900  0.627900  0.333500  1.0  -0.7705
  O  O139  1  0.286600  0.186760  0.990250  1.0  -0.7743
  O  O140  1  0.217800  0.062700  0.905670  1.0  -0.6717
  O  O141  1  0.405600  0.813230  0.905250  1.0  -0.7812
  O  O142  1  0.476000  0.814870  0.017370  1.0  -0.6921
  O  O143  1  0.479100  0.206570  0.242700  1.0  -0.7938
  O  O144  1  0.416300  0.110900  0.280560  1.0  -0.7792
  O  O145  1  0.905400  0.695090  0.349120  1.0  -0.9073
  O  O146  1  0.617500  0.679040  0.059550  1.0  -0.6869
  O  O147  1  0.790300  0.627000  0.391420  1.0  -0.5937
  O  O148  1  0.534300  0.385310  0.066580  1.0  -0.664
  O  O149  1  0.794800  0.714300  0.098100  1.0  -0.7802
  O  O150  1  0.622900  0.372100  0.166500  1.0  -0.7875
  O  O151  1  0.786600  0.813240  0.509750  1.0  -0.7723
  O  O152  1  0.717800  0.937300  0.594330  1.0  -0.6638
  O  O153  1  0.905600  0.186770  0.594750  1.0  -0.7867
  O  O154  1  0.976000  0.185130  0.482630  1.0  -0.706
  O  O155  1  0.979100  0.793430  0.257300  1.0  -0.7985
  O  O156  1  0.916300  0.889100  0.219440  1.0  -0.7837
