# generated using pymatgen
data_Co3PH12C18N15O4
_symmetry_space_group_name_H-M   'P 1'
_cell_length_a   4.35360000
_cell_length_b   12.90020000
_cell_length_c   12.90020000
_cell_angle_alpha   61.24810000
_cell_angle_beta   83.54090000
_cell_angle_gamma   96.45910000
_symmetry_Int_Tables_number   1
_chemical_formula_structural   Co3PH12C18N15O4
_chemical_formula_sum   'Co3 P1 H12 C18 N15 O4'
_cell_volume   619.49952118
_cell_formula_units_Z   1
loop_
 _symmetry_equiv_pos_site_id
 _symmetry_equiv_pos_as_xyz
  1  'x, y, z'
loop_
 _atom_site_type_symbol
 _atom_site_label
 _atom_site_symmetry_multiplicity
 _atom_site_fract_x
 _atom_site_fract_y
 _atom_site_fract_z
 _atom_site_occupancy
 _atom_site_charge
  Co  Co1  1  0.699910  0.162570  0.838340  1.0  0.9394
  Co  Co2  1  0.538250  0.838340  0.999090  1.0  0.9393
  Co  Co3  1  0.537340  0.999090  0.162570  1.0  0.9395
  P  P4  1  0.062030  0.000000  0.000000  1.0  1.5688
  H  H5  1  0.985200  0.447600  0.696200  1.0  0.111
  H  H6  1  0.937900  0.611200  0.525000  1.0  0.0906
  H  H7  1  0.443000  0.237600  0.622100  1.0  0.0627
  H  H8  1  0.388700  0.397300  0.440400  1.0  0.1318
  H  H9  1  0.681400  0.696200  0.856200  1.0  0.1115
  H  H10  1  0.462900  0.525000  0.863800  1.0  0.0905
  H  H11  1  0.065100  0.622100  0.140300  1.0  0.0629
  H  H12  1  0.829100  0.440400  0.162300  1.0  0.1314
  H  H13  1  0.537600  0.856200  0.447600  1.0  0.1109
  H  H14  1  0.326700  0.863800  0.611200  1.0  0.0895
  H  H15  1  0.205400  0.140300  0.237600  1.0  0.0625
  H  H16  1  0.991400  0.162300  0.397300  1.0  0.1313
  C  C17  1  0.643600  0.529200  0.469100  1.0  -0.0492
  C  C18  1  0.597700  0.636500  0.363400  1.0  0.3361
  C  C19  1  0.857500  0.437800  0.645300  1.0  0.1306
  C  C20  1  0.825400  0.534600  0.544400  1.0  -0.1107
  C  C21  1  0.544500  0.315900  0.601400  1.0  0.1811
  C  C22  1  0.501600  0.409600  0.493800  1.0  -0.1465
  C  C23  1  0.112700  0.469100  0.001700  1.0  -0.0508
  C  C24  1  0.961100  0.363400  0.000100  1.0  0.335
  C  C25  1  0.502800  0.645300  0.916900  1.0  0.1302
  C  C26  1  0.369800  0.544400  0.921000  1.0  -0.1091
  C  C27  1  0.145900  0.601400  0.082700  1.0  0.1825
  C  C28  1  0.995400  0.493800  0.096600  1.0  -0.1498
  C  C29  1  0.114400  0.001700  0.529200  1.0  -0.0502
  C  C30  1  0.961200  0.000100  0.636500  1.0  0.3369
  C  C31  1  0.419700  0.916900  0.437800  1.0  0.131
  C  C32  1  0.290800  0.921000  0.534600  1.0  -0.1122
  C  C33  1  0.228600  0.082700  0.315900  1.0  0.1838
  C  C34  1  0.092000  0.096600  0.409600  1.0  -0.1487
  N  N35  1  0.706500  0.322800  0.676700  1.0  -0.3478
  N  N36  1  0.521400  0.751800  0.186800  1.0  -0.0777
  N  N37  1  0.536300  0.813000  0.245900  1.0  -0.0312
  N  N38  1  0.559200  0.639200  0.258400  1.0  -0.3616
  N  N39  1  0.576000  0.740800  0.357000  1.0  -0.2392
  N  N40  1  0.383200  0.676700  0.000500  1.0  -0.3471
  N  N41  1  0.708200  0.186800  0.061400  1.0  -0.0762
  N  N42  1  0.782200  0.245900  0.941100  1.0  -0.0318
  N  N43  1  0.817600  0.258400  0.102400  1.0  -0.3597
  N  N44  1  0.933000  0.357000  0.902200  1.0  -0.239
  N  N45  1  0.383700  0.000500  0.322800  1.0  -0.3473
  N  N46  1  0.769600  0.061400  0.751800  1.0  -0.0761
  N  N47  1  0.723300  0.941100  0.813000  1.0  -0.0319
  N  N48  1  0.920000  0.102400  0.639200  1.0  -0.3614
  N  N49  1  0.835200  0.902200  0.740800  1.0  -0.2368
  O  O50  1  0.226100  0.114700  0.885300  1.0  -0.8702
  O  O51  1  0.111400  0.885300  0.000000  1.0  -0.8713
  O  O52  1  0.111400  0.000000  0.114700  1.0  -0.8702
  O  O53  1  0.699730  0.000000  0.000000  1.0  -0.817
