# generated using pymatgen
data_Cu3H20C28(N7O4)2
_symmetry_space_group_name_H-M   'P 1'
_cell_length_a   9.33400000
_cell_length_b   29.10200000
_cell_length_c   7.70200000
_cell_angle_alpha   90.00000000
_cell_angle_beta   108.39500000
_cell_angle_gamma   90.00000000
_symmetry_Int_Tables_number   1
_chemical_formula_structural   Cu3H20C28(N7O4)2
_chemical_formula_sum   'Cu6 H40 C56 N28 O16'
_cell_volume   1985.25464241
_cell_formula_units_Z   2
loop_
 _symmetry_equiv_pos_site_id
 _symmetry_equiv_pos_as_xyz
  1  'x, y, z'
loop_
 _atom_site_type_symbol
 _atom_site_label
 _atom_site_symmetry_multiplicity
 _atom_site_fract_x
 _atom_site_fract_y
 _atom_site_fract_z
 _atom_site_occupancy
 _atom_site_charge
  Cu  Cu1  1  0.669070  0.998360  0.515190  1.0  0.9137
  Cu  Cu2  1  0.330930  0.498360  0.984810  1.0  0.9127
  Cu  Cu3  1  0.330930  0.001640  0.484810  1.0  0.9126
  Cu  Cu4  1  0.669070  0.501640  0.015190  1.0  0.9137
  Cu  Cu5  1  0.000000  0.000000  0.500000  1.0  1.0066
  Cu  Cu6  1  0.000000  0.500000  0.000000  1.0  1.0088
  H  H7  1  0.663000  0.156800  0.535100  1.0  0.1102
  H  H8  1  0.689600  0.234800  0.525600  1.0  0.113
  H  H9  1  0.114000  0.218700  0.528800  1.0  0.1074
  H  H10  1  0.088300  0.140700  0.532200  1.0  0.1131
  H  H11  1  0.725500  0.303600  0.571800  1.0  0.1218
  H  H12  1  0.764100  0.381800  0.596600  1.0  0.1183
  H  H13  1  0.145400  0.367300  0.488700  1.0  0.0863
  H  H14  1  0.121400  0.289300  0.473600  1.0  0.1243
  H  H15  1  0.903600  0.446600  0.588100  1.0  0.1131
  H  H16  1  0.003800  0.443900  0.458700  1.0  0.1191
  H  H17  1  0.337000  0.656800  0.964900  1.0  0.1099
  H  H18  1  0.310400  0.734800  0.974400  1.0  0.1123
  H  H19  1  0.886000  0.718700  0.971200  1.0  0.1071
  H  H20  1  0.911700  0.640700  0.967800  1.0  0.1118
  H  H21  1  0.274500  0.803600  0.928200  1.0  0.1219
  H  H22  1  0.235900  0.881800  0.903400  1.0  0.1193
  H  H23  1  0.854600  0.867300  0.011300  1.0  0.0859
  H  H24  1  0.878600  0.789300  0.026400  1.0  0.1235
  H  H25  1  0.096400  0.946600  0.911900  1.0  0.1127
  H  H26  1  0.996200  0.943900  0.041300  1.0  0.1192
  H  H27  1  0.337000  0.843200  0.464900  1.0  0.1099
  H  H28  1  0.310400  0.765200  0.474400  1.0  0.1121
  H  H29  1  0.886000  0.781300  0.471200  1.0  0.1071
  H  H30  1  0.911700  0.859300  0.467800  1.0  0.1118
  H  H31  1  0.274500  0.696400  0.428200  1.0  0.1219
  H  H32  1  0.235900  0.618200  0.403400  1.0  0.119
  H  H33  1  0.854600  0.632700  0.511300  1.0  0.0858
  H  H34  1  0.878600  0.710700  0.526400  1.0  0.1234
  H  H35  1  0.096400  0.553400  0.411900  1.0  0.1127
  H  H36  1  0.996200  0.556100  0.541300  1.0  0.1194
  H  H37  1  0.663000  0.343200  0.035100  1.0  0.11
  H  H38  1  0.689600  0.265200  0.025600  1.0  0.1129
  H  H39  1  0.114000  0.281300  0.028800  1.0  0.1072
  H  H40  1  0.088300  0.359300  0.032200  1.0  0.113
  H  H41  1  0.725500  0.196400  0.071800  1.0  0.1216
  H  H42  1  0.764100  0.118200  0.096600  1.0  0.1178
  H  H43  1  0.145400  0.132700  0.988700  1.0  0.0862
  H  H44  1  0.121400  0.210700  0.973600  1.0  0.1248
  H  H45  1  0.903600  0.053400  0.088100  1.0  0.1135
  H  H46  1  0.003800  0.056100  0.958700  1.0  0.1191
  C  C47  1  0.850900  0.088200  0.531700  1.0  0.6559
  C  C48  1  0.873100  0.139900  0.532700  1.0  -0.1634
  C  C49  1  0.754200  0.169100  0.532400  1.0  -0.0848
  C  C50  1  0.771100  0.216100  0.528200  1.0  -0.1066
  C  C51  1  0.904900  0.236600  0.527700  1.0  0.0539
  C  C52  1  0.022100  0.206400  0.529300  1.0  -0.0991
  C  C53  1  0.007400  0.159400  0.531500  1.0  -0.1052
  C  C54  1  0.922700  0.286300  0.529700  1.0  0.0555
  C  C55  1  0.813800  0.315900  0.559600  1.0  -0.0905
  C  C56  1  0.835300  0.362900  0.571300  1.0  0.0403
  C  C57  1  0.061600  0.353900  0.509000  1.0  0.0645
  C  C58  1  0.048000  0.307100  0.499600  1.0  -0.1909
  C  C59  1  0.990200  0.431500  0.569300  1.0  -0.1306
  C  C60  1  0.130900  0.441700  0.732100  1.0  0.7004
  C  C61  1  0.149100  0.588200  0.968300  1.0  0.6561
  C  C62  1  0.126900  0.639900  0.967300  1.0  -0.1626
  C  C63  1  0.245800  0.669100  0.967600  1.0  -0.0847
  C  C64  1  0.228900  0.716100  0.971800  1.0  -0.1068
  C  C65  1  0.095100  0.736600  0.972300  1.0  0.0535
  C  C66  1  0.977900  0.706400  0.970700  1.0  -0.098
  C  C67  1  0.992600  0.659400  0.968500  1.0  -0.1041
  C  C68  1  0.077300  0.786300  0.970300  1.0  0.0556
  C  C69  1  0.186200  0.815900  0.940400  1.0  -0.0917
  C  C70  1  0.164700  0.862900  0.928700  1.0  0.0397
  C  C71  1  0.938400  0.853900  0.991000  1.0  0.064
  C  C72  1  0.952000  0.807100  0.000400  1.0  -0.1905
  C  C73  1  0.009800  0.931500  0.930700  1.0  -0.1299
  C  C74  1  0.869100  0.941700  0.767900  1.0  0.7023
  C  C75  1  0.149100  0.911800  0.468300  1.0  0.6563
  C  C76  1  0.126900  0.860100  0.467300  1.0  -0.1621
  C  C77  1  0.245800  0.830900  0.467600  1.0  -0.084
  C  C78  1  0.228900  0.783900  0.471800  1.0  -0.107
  C  C79  1  0.095100  0.763400  0.472300  1.0  0.0532
  C  C80  1  0.977900  0.793600  0.470700  1.0  -0.098
  C  C81  1  0.992600  0.840600  0.468500  1.0  -0.1041
  C  C82  1  0.077300  0.713700  0.470300  1.0  0.0555
  C  C83  1  0.186200  0.684100  0.440400  1.0  -0.0916
  C  C84  1  0.164700  0.637100  0.428700  1.0  0.0393
  C  C85  1  0.938400  0.646100  0.491000  1.0  0.0637
  C  C86  1  0.952000  0.692900  0.500400  1.0  -0.1902
  C  C87  1  0.009800  0.568500  0.430700  1.0  -0.1307
  C  C88  1  0.869100  0.558300  0.267900  1.0  0.7016
  C  C89  1  0.850900  0.411800  0.031700  1.0  0.6566
  C  C90  1  0.873100  0.360100  0.032700  1.0  -0.1629
  C  C91  1  0.754200  0.330900  0.032400  1.0  -0.0853
  C  C92  1  0.771100  0.283900  0.028200  1.0  -0.1063
  C  C93  1  0.904900  0.263400  0.027700  1.0  0.0539
  C  C94  1  0.022100  0.293600  0.029300  1.0  -0.0995
  C  C95  1  0.007400  0.340600  0.031500  1.0  -0.1051
  C  C96  1  0.922700  0.213700  0.029700  1.0  0.0554
  C  C97  1  0.813800  0.184100  0.059600  1.0  -0.0908
  C  C98  1  0.835300  0.137100  0.071300  1.0  0.0406
  C  C99  1  0.061600  0.146100  0.009000  1.0  0.0645
  C  C100  1  0.048000  0.192900  0.999600  1.0  -0.1904
  C  C101  1  0.990200  0.068500  0.069300  1.0  -0.131
  C  C102  1  0.130900  0.058300  0.232100  1.0  0.6996
  N  N103  1  0.960400  0.381400  0.545800  1.0  0.0896
  N  N104  1  0.788000  0.988960  0.349000  1.0  -0.5306
  N  N105  1  0.761500  0.959400  0.235400  1.0  0.4703
  N  N106  1  0.733100  0.928800  0.124400  1.0  -0.4105
  N  N107  1  0.535100  0.001000  0.672800  1.0  -0.4539
  N  N108  1  0.577500  0.019900  0.818100  1.0  0.5303
  N  N109  1  0.618500  0.037000  0.958600  1.0  -0.4591
  N  N110  1  0.039600  0.881400  0.954200  1.0  0.0891
  N  N111  1  0.212000  0.488960  0.151000  1.0  -0.5307
  N  N112  1  0.238500  0.459400  0.264600  1.0  0.4712
  N  N113  1  0.266900  0.428800  0.375600  1.0  -0.4115
  N  N114  1  0.464900  0.501000  0.827200  1.0  -0.4529
  N  N115  1  0.422500  0.519900  0.681900  1.0  0.5297
  N  N116  1  0.381500  0.537000  0.541400  1.0  -0.4597
  N  N117  1  0.039600  0.618600  0.454200  1.0  0.0884
  N  N118  1  0.212000  0.011040  0.651000  1.0  -0.5309
  N  N119  1  0.238500  0.040600  0.764600  1.0  0.4707
  N  N120  1  0.266900  0.071200  0.875600  1.0  -0.4132
  N  N121  1  0.464900  0.999000  0.327200  1.0  -0.4529
  N  N122  1  0.422500  0.980100  0.181900  1.0  0.5298
  N  N123  1  0.381500  0.963000  0.041400  1.0  -0.4595
  N  N124  1  0.960400  0.118600  0.045800  1.0  0.0889
  N  N125  1  0.788000  0.511040  0.849000  1.0  -0.5301
  N  N126  1  0.761500  0.540600  0.735400  1.0  0.4703
  N  N127  1  0.733100  0.571200  0.624400  1.0  -0.4128
  N  N128  1  0.535100  0.499000  0.172800  1.0  -0.4539
  N  N129  1  0.577500  0.480100  0.318100  1.0  0.5303
  N  N130  1  0.618500  0.463000  0.458600  1.0  -0.4578
  O  O131  1  0.961100  0.065670  0.511600  1.0  -0.6023
  O  O132  1  0.733300  0.072470  0.548200  1.0  -0.565
  O  O133  1  0.142400  0.484190  0.773800  1.0  -0.653
  O  O134  1  0.217700  0.410920  0.807700  1.0  -0.5582
  O  O135  1  0.038900  0.565670  0.988400  1.0  -0.602
  O  O136  1  0.266700  0.572470  0.951800  1.0  -0.566
  O  O137  1  0.857600  0.984190  0.726200  1.0  -0.6534
  O  O138  1  0.782300  0.910920  0.692300  1.0  -0.5565
  O  O139  1  0.038900  0.934330  0.488400  1.0  -0.6018
  O  O140  1  0.266700  0.927530  0.451800  1.0  -0.5663
  O  O141  1  0.857600  0.515810  0.226200  1.0  -0.6524
  O  O142  1  0.782300  0.589080  0.192300  1.0  -0.5563
  O  O143  1  0.961100  0.434330  0.011600  1.0  -0.6023
  O  O144  1  0.733300  0.427530  0.048200  1.0  -0.5653
  O  O145  1  0.142400  0.015810  0.273800  1.0  -0.6524
  O  O146  1  0.217700  0.089080  0.307700  1.0  -0.5567
