# generated using pymatgen
data_EuH4C7(NO3)2
_symmetry_space_group_name_H-M   'P 1'
_cell_length_a   10.23700000
_cell_length_b   11.25790000
_cell_length_c   22.18980000
_cell_angle_alpha   90.00000000
_cell_angle_beta   97.27000000
_cell_angle_gamma   90.00000000
_symmetry_Int_Tables_number   1
_chemical_formula_structural   EuH4C7(NO3)2
_chemical_formula_sum   'Eu8 H32 C56 N16 O48'
_cell_volume   2536.75195897
_cell_formula_units_Z   8
loop_
 _symmetry_equiv_pos_site_id
 _symmetry_equiv_pos_as_xyz
  1  'x, y, z'
loop_
 _atom_site_type_symbol
 _atom_site_label
 _atom_site_symmetry_multiplicity
 _atom_site_fract_x
 _atom_site_fract_y
 _atom_site_fract_z
 _atom_site_occupancy
 _atom_site_charge
  Eu  Eu1  1  0.610290  0.684520  0.725880  1.0  2.0383
  Eu  Eu2  1  0.740580  0.589750  0.435920  1.0  2.1885
  Eu  Eu3  1  0.889710  0.184520  0.774120  1.0  2.0394
  Eu  Eu4  1  0.759420  0.089750  0.064080  1.0  2.188
  Eu  Eu5  1  0.389710  0.315480  0.274120  1.0  2.0383
  Eu  Eu6  1  0.259420  0.410250  0.564080  1.0  2.1865
  Eu  Eu7  1  0.110290  0.815480  0.225880  1.0  2.0372
  Eu  Eu8  1  0.240580  0.910250  0.935920  1.0  2.1881
  H  H9  1  0.118500  0.619000  0.663000  1.0  0.3151
  H  H10  1  0.156400  0.964300  0.664400  1.0  0.3405
  H  H11  1  0.014600  0.576600  0.790500  1.0  0.1496
  H  H12  1  0.118200  0.668300  0.772500  1.0  0.1315
  H  H13  1  0.985000  0.713100  0.792200  1.0  0.1577
  H  H14  1  0.278400  0.771200  0.583300  1.0  0.1515
  H  H15  1  0.271500  0.909600  0.575700  1.0  0.1511
  H  H16  1  0.408300  0.846400  0.590300  1.0  0.159
  H  H17  1  0.381500  0.119000  0.837000  1.0  0.3141
  H  H18  1  0.343600  0.464300  0.835600  1.0  0.3392
  H  H19  1  0.485400  0.076600  0.709500  1.0  0.1506
  H  H20  1  0.381800  0.168300  0.727500  1.0  0.1321
  H  H21  1  0.515000  0.213100  0.707800  1.0  0.1582
  H  H22  1  0.221600  0.271200  0.916700  1.0  0.151
  H  H23  1  0.228500  0.409600  0.924300  1.0  0.1511
  H  H24  1  0.091700  0.346400  0.909700  1.0  0.1613
  H  H25  1  0.881500  0.381000  0.337000  1.0  0.3141
  H  H26  1  0.843600  0.035700  0.335600  1.0  0.3386
  H  H27  1  0.985400  0.423400  0.209500  1.0  0.1514
  H  H28  1  0.881800  0.331700  0.227500  1.0  0.1323
  H  H29  1  0.015000  0.286900  0.207800  1.0  0.1577
  H  H30  1  0.721600  0.228800  0.416700  1.0  0.1514
  H  H31  1  0.728500  0.090400  0.424300  1.0  0.1511
  H  H32  1  0.591700  0.153600  0.409700  1.0  0.1614
  H  H33  1  0.618500  0.881000  0.163000  1.0  0.3152
  H  H34  1  0.656400  0.535700  0.164400  1.0  0.3399
  H  H35  1  0.514600  0.923400  0.290500  1.0  0.1503
  H  H36  1  0.618200  0.831700  0.272500  1.0  0.1319
  H  H37  1  0.485000  0.786900  0.292200  1.0  0.158
  H  H38  1  0.778400  0.728800  0.083300  1.0  0.1523
  H  H39  1  0.771500  0.590400  0.075700  1.0  0.1497
  H  H40  1  0.908300  0.653600  0.090300  1.0  0.1592
  C  C41  1  0.826800  0.647900  0.623890  1.0  0.0486
  C  C42  1  0.949800  0.628800  0.606400  1.0  -0.0809
  C  C43  1  0.964000  0.646700  0.706850  1.0  0.4742
  C  C44  1  0.693500  0.651000  0.588170  1.0  0.789
  C  C45  1  0.007100  0.614400  0.548820  1.0  0.7878
  C  C46  1  0.025900  0.651600  0.771200  1.0  -0.4296
  C  C47  1  0.240800  0.923200  0.748470  1.0  -0.0785
  C  C48  1  0.347700  0.850200  0.762000  1.0  0.0319
  C  C49  1  0.309900  0.858400  0.663570  1.0  0.4391
  C  C50  1  0.157700  0.001500  0.783480  1.0  0.7215
  C  C51  1  0.418900  0.809800  0.820800  1.0  0.7205
  C  C52  1  0.317700  0.845300  0.597400  1.0  -0.4385
  C  C53  1  0.764200  0.451900  0.785080  1.0  0.5386
  C  C54  1  0.704900  0.406800  0.721540  1.0  0.5704
  C  C55  1  0.673200  0.147900  0.876110  1.0  0.0463
  C  C56  1  0.550200  0.128800  0.893600  1.0  -0.0803
  C  C57  1  0.536000  0.146700  0.793150  1.0  0.4742
  C  C58  1  0.806500  0.151000  0.911830  1.0  0.7913
  C  C59  1  0.492900  0.114400  0.951180  1.0  0.7865
  C  C60  1  0.474100  0.151600  0.728800  1.0  -0.4281
  C  C61  1  0.259200  0.423200  0.751530  1.0  -0.0777
  C  C62  1  0.152300  0.350200  0.738000  1.0  0.032
  C  C63  1  0.190100  0.358400  0.836430  1.0  0.4357
  C  C64  1  0.342300  0.501500  0.716520  1.0  0.7207
  C  C65  1  0.081100  0.309800  0.679200  1.0  0.7182
  C  C66  1  0.182300  0.345300  0.902600  1.0  -0.4384
  C  C67  1  0.735800  0.951900  0.714920  1.0  0.5418
  C  C68  1  0.795100  0.906800  0.778460  1.0  0.5698
  C  C69  1  0.173200  0.352100  0.376110  1.0  0.0462
  C  C70  1  0.050200  0.371200  0.393600  1.0  -0.0824
  C  C71  1  0.036000  0.353300  0.293150  1.0  0.4747
  C  C72  1  0.306500  0.349000  0.411830  1.0  0.7916
  C  C73  1  0.992900  0.385600  0.451180  1.0  0.7814
  C  C74  1  0.974100  0.348400  0.228800  1.0  -0.4282
  C  C75  1  0.759200  0.076800  0.251530  1.0  -0.0779
  C  C76  1  0.652300  0.149800  0.238000  1.0  0.032
  C  C77  1  0.690100  0.141600  0.336430  1.0  0.4364
  C  C78  1  0.842300  0.998500  0.216520  1.0  0.7205
  C  C79  1  0.581100  0.190200  0.179200  1.0  0.7185
  C  C80  1  0.682300  0.154700  0.402600  1.0  -0.4391
  C  C81  1  0.235800  0.548100  0.214920  1.0  0.5418
  C  C82  1  0.295100  0.593200  0.278460  1.0  0.5695
  C  C83  1  0.326800  0.852100  0.123890  1.0  0.0479
  C  C84  1  0.449800  0.871200  0.106400  1.0  -0.0829
  C  C85  1  0.464000  0.853300  0.206850  1.0  0.475
  C  C86  1  0.193500  0.849000  0.088170  1.0  0.7894
  C  C87  1  0.507100  0.885600  0.048820  1.0  0.7823
  C  C88  1  0.525900  0.848400  0.271200  1.0  -0.4296
  C  C89  1  0.740800  0.576800  0.248470  1.0  -0.0785
  C  C90  1  0.847700  0.649800  0.262000  1.0  0.0312
  C  C91  1  0.809900  0.641600  0.163570  1.0  0.4404
  C  C92  1  0.657700  0.498500  0.283480  1.0  0.7226
  C  C93  1  0.918900  0.690200  0.320800  1.0  0.7211
  C  C94  1  0.817700  0.654700  0.097400  1.0  -0.4397
  C  C95  1  0.264200  0.048100  0.285080  1.0  0.5383
  C  C96  1  0.204900  0.093200  0.221540  1.0  0.5707
  N  N97  1  0.837000  0.659300  0.686330  1.0  -0.4952
  N  N98  1  0.034600  0.628800  0.659910  1.0  -0.2873
  N  N99  1  0.391400  0.810400  0.708950  1.0  -0.5261
  N  N100  1  0.218500  0.925900  0.685770  1.0  -0.2828
  N  N101  1  0.663000  0.159300  0.813670  1.0  -0.5024
  N  N102  1  0.465400  0.128800  0.840090  1.0  -0.2881
  N  N103  1  0.108600  0.310400  0.791050  1.0  -0.5244
  N  N104  1  0.281500  0.425900  0.814230  1.0  -0.2806
  N  N105  1  0.163000  0.340700  0.313670  1.0  -0.5041
  N  N106  1  0.965400  0.371200  0.340090  1.0  -0.2885
  N  N107  1  0.608600  0.189600  0.291050  1.0  -0.5264
  N  N108  1  0.781500  0.074100  0.314230  1.0  -0.2813
  N  N109  1  0.337000  0.840700  0.186330  1.0  -0.5027
  N  N110  1  0.534600  0.871200  0.159910  1.0  -0.2875
  N  N111  1  0.891400  0.689600  0.208950  1.0  -0.5286
  N  N112  1  0.718500  0.574100  0.185770  1.0  -0.2824
  O  O113  1  0.597700  0.675400  0.616470  1.0  -0.6518
  O  O114  1  0.680000  0.627300  0.532560  1.0  -0.8572
  O  O115  1  0.940000  0.637900  0.499300  1.0  -0.712
  O  O116  1  0.126100  0.583700  0.554380  1.0  -0.7115
  O  O117  1  0.069900  0.057200  0.751460  1.0  -0.6546
  O  O118  1  0.185000  0.011300  0.840060  1.0  -0.7316
  O  O119  1  0.375500  0.832500  0.869210  1.0  -0.7791
  O  O120  1  0.524400  0.752500  0.818200  1.0  -0.6299
  O  O121  1  0.842700  0.383900  0.815630  1.0  -0.6347
  O  O122  1  0.728900  0.552900  0.800800  1.0  -0.6203
  O  O123  1  0.633300  0.477400  0.688480  1.0  -0.6492
  O  O124  1  0.731000  0.302000  0.708220  1.0  -0.6453
  O  O125  1  0.902300  0.175400  0.883530  1.0  -0.6526
  O  O126  1  0.820000  0.127300  0.967440  1.0  -0.8583
  O  O127  1  0.560000  0.137900  0.000700  1.0  -0.7121
  O  O128  1  0.373900  0.083700  0.945620  1.0  -0.7111
  O  O129  1  0.430100  0.557200  0.748540  1.0  -0.6594
  O  O130  1  0.315000  0.511300  0.659940  1.0  -0.7312
  O  O131  1  0.124500  0.332500  0.630790  1.0  -0.7776
  O  O132  1  0.975600  0.252500  0.681800  1.0  -0.6287
  O  O133  1  0.657300  0.883900  0.684370  1.0  -0.6356
  O  O134  1  0.771100  0.052900  0.699200  1.0  -0.6184
  O  O135  1  0.866700  0.977400  0.811520  1.0  -0.6473
  O  O136  1  0.769000  0.802000  0.791780  1.0  -0.6426
  O  O137  1  0.402300  0.324600  0.383530  1.0  -0.6518
  O  O138  1  0.320000  0.372700  0.467440  1.0  -0.8566
  O  O139  1  0.060000  0.362100  0.500700  1.0  -0.713
  O  O140  1  0.873900  0.416300  0.445620  1.0  -0.7118
  O  O141  1  0.930100  0.942800  0.248540  1.0  -0.6595
  O  O142  1  0.815000  0.988700  0.159940  1.0  -0.7321
  O  O143  1  0.624500  0.167500  0.130790  1.0  -0.7792
  O  O144  1  0.475600  0.247500  0.181800  1.0  -0.6281
  O  O145  1  0.157300  0.616100  0.184370  1.0  -0.6355
  O  O146  1  0.271100  0.447100  0.199200  1.0  -0.618
  O  O147  1  0.366700  0.522600  0.311520  1.0  -0.6482
  O  O148  1  0.269000  0.698000  0.291780  1.0  -0.6427
  O  O149  1  0.097700  0.824600  0.116470  1.0  -0.6519
  O  O150  1  0.180000  0.872700  0.032560  1.0  -0.8559
  O  O151  1  0.440000  0.862100  0.999300  1.0  -0.7138
  O  O152  1  0.626100  0.916300  0.054380  1.0  -0.711
  O  O153  1  0.569900  0.442800  0.251460  1.0  -0.655
  O  O154  1  0.685000  0.488700  0.340060  1.0  -0.7314
  O  O155  1  0.875500  0.667500  0.369210  1.0  -0.7788
  O  O156  1  0.024400  0.747500  0.318200  1.0  -0.6309
  O  O157  1  0.342700  0.116100  0.315630  1.0  -0.6354
  O  O158  1  0.228900  0.947100  0.300800  1.0  -0.6207
  O  O159  1  0.133300  0.022600  0.188480  1.0  -0.644
  O  O160  1  0.231000  0.198000  0.208220  1.0  -0.6453
