# generated using pymatgen
data_CoH28(C5N2)4
_symmetry_space_group_name_H-M   'P 1'
_cell_length_a   22.31750000
_cell_length_b   22.31750000
_cell_length_c   21.04290000
_cell_angle_alpha   90.00000000
_cell_angle_beta   90.00000000
_cell_angle_gamma   90.00000000
_symmetry_Int_Tables_number   1
_chemical_formula_structural   CoH28(C5N2)4
_chemical_formula_sum   'Co8 H224 C160 N64'
_cell_volume   10480.85416884
_cell_formula_units_Z   8
loop_
 _symmetry_equiv_pos_site_id
 _symmetry_equiv_pos_as_xyz
  1  'x, y, z'
loop_
 _atom_site_type_symbol
 _atom_site_label
 _atom_site_symmetry_multiplicity
 _atom_site_fract_x
 _atom_site_fract_y
 _atom_site_fract_z
 _atom_site_occupancy
 _atom_site_charge
  Co  Co1  1  0.000000  0.500000  0.000000  1.0  0.603
  Co  Co2  1  0.500000  0.000000  0.500000  1.0  0.603
  Co  Co3  1  0.500000  0.500000  0.500000  1.0  0.603
  Co  Co4  1  0.000000  0.000000  0.000000  1.0  0.603
  Co  Co5  1  0.250000  0.250000  0.250000  1.0  0.603
  Co  Co6  1  0.750000  0.750000  0.750000  1.0  0.603
  Co  Co7  1  0.250000  0.750000  0.750000  1.0  0.603
  Co  Co8  1  0.750000  0.250000  0.250000  1.0  0.603
  H  H9  1  0.984600  0.538800  0.138300  1.0  0.3006
  H  H10  1  0.035700  0.383600  0.935800  1.0  0.2907
  H  H11  1  0.950100  0.552700  0.251100  1.0  0.1135
  H  H12  1  0.892200  0.514800  0.263300  1.0  0.121
  H  H13  1  0.954000  0.493000  0.290000  1.0  0.1105
  H  H14  1  0.965500  0.365500  0.035700  1.0  0.107
  H  H15  1  0.972900  0.328100  0.098200  1.0  0.121
  H  H16  1  0.908800  0.344800  0.073600  1.0  0.1074
  H  H17  1  0.104400  0.486900  0.095800  1.0  0.1085
  H  H18  1  0.167600  0.456300  0.096100  1.0  0.114
  H  H19  1  0.116000  0.430700  0.138700  1.0  0.105
  H  H20  1  0.067800  0.276800  0.910000  1.0  0.1115
  H  H21  1  0.085200  0.242300  0.972200  1.0  0.1278
  H  H22  1  0.135400  0.268800  0.928400  1.0  0.1038
  H  H23  1  0.484600  0.038800  0.638300  1.0  0.3006
  H  H24  1  0.535700  0.883600  0.435800  1.0  0.2907
  H  H25  1  0.450100  0.052700  0.751100  1.0  0.1135
  H  H26  1  0.392200  0.014800  0.763300  1.0  0.121
  H  H27  1  0.454000  0.993000  0.790000  1.0  0.1105
  H  H28  1  0.465500  0.865500  0.535700  1.0  0.107
  H  H29  1  0.472900  0.828100  0.598200  1.0  0.121
  H  H30  1  0.408800  0.844800  0.573600  1.0  0.1074
  H  H31  1  0.604400  0.986900  0.595800  1.0  0.1085
  H  H32  1  0.667600  0.956300  0.596100  1.0  0.114
  H  H33  1  0.616000  0.930700  0.638700  1.0  0.105
  H  H34  1  0.567800  0.776800  0.410000  1.0  0.1115
  H  H35  1  0.585200  0.742300  0.472200  1.0  0.1278
  H  H36  1  0.635400  0.768800  0.428400  1.0  0.1038
  H  H37  1  0.515400  0.461200  0.638300  1.0  0.2973
  H  H38  1  0.464300  0.616400  0.435800  1.0  0.2916
  H  H39  1  0.549900  0.447300  0.751100  1.0  0.1129
  H  H40  1  0.607800  0.485200  0.763300  1.0  0.1181
  H  H41  1  0.546000  0.507000  0.790000  1.0  0.1109
  H  H42  1  0.534500  0.634500  0.535700  1.0  0.1072
  H  H43  1  0.527100  0.671900  0.598200  1.0  0.1212
  H  H44  1  0.591200  0.655200  0.573600  1.0  0.1094
  H  H45  1  0.395600  0.513100  0.595800  1.0  0.1069
  H  H46  1  0.332400  0.543700  0.596100  1.0  0.1178
  H  H47  1  0.384000  0.569300  0.638700  1.0  0.1041
  H  H48  1  0.432200  0.723200  0.410000  1.0  0.1121
  H  H49  1  0.414800  0.757700  0.472200  1.0  0.1285
  H  H50  1  0.364600  0.731200  0.428400  1.0  0.1031
  H  H51  1  0.015400  0.961200  0.138300  1.0  0.2973
  H  H52  1  0.964300  0.116400  0.935800  1.0  0.2916
  H  H53  1  0.049900  0.947300  0.251100  1.0  0.1129
  H  H54  1  0.107800  0.985200  0.263300  1.0  0.1181
  H  H55  1  0.046000  0.007000  0.290000  1.0  0.1109
  H  H56  1  0.034500  0.134500  0.035700  1.0  0.1072
  H  H57  1  0.027100  0.171900  0.098200  1.0  0.1212
  H  H58  1  0.091200  0.155200  0.073600  1.0  0.1094
  H  H59  1  0.895600  0.013100  0.095800  1.0  0.1069
  H  H60  1  0.832400  0.043700  0.096100  1.0  0.1178
  H  H61  1  0.884000  0.069300  0.138700  1.0  0.1041
  H  H62  1  0.932200  0.223200  0.910000  1.0  0.1121
  H  H63  1  0.914800  0.257700  0.972200  1.0  0.1285
  H  H64  1  0.864600  0.231200  0.928400  1.0  0.1031
  H  H65  1  0.211200  0.234600  0.388300  1.0  0.3002
  H  H66  1  0.366400  0.285700  0.185800  1.0  0.2894
  H  H67  1  0.197300  0.200100  0.501100  1.0  0.1138
  H  H68  1  0.235200  0.142200  0.513300  1.0  0.1226
  H  H69  1  0.257000  0.204000  0.540000  1.0  0.1109
  H  H70  1  0.384500  0.215500  0.285700  1.0  0.1055
  H  H71  1  0.421900  0.222900  0.348200  1.0  0.1206
  H  H72  1  0.405200  0.158800  0.323600  1.0  0.1078
  H  H73  1  0.263100  0.354400  0.345800  1.0  0.1091
  H  H74  1  0.293700  0.417600  0.346100  1.0  0.1119
  H  H75  1  0.319300  0.366000  0.388700  1.0  0.1029
  H  H76  1  0.473200  0.317800  0.160000  1.0  0.1123
  H  H77  1  0.507700  0.335200  0.222200  1.0  0.1284
  H  H78  1  0.481200  0.385400  0.178400  1.0  0.105
  H  H79  1  0.711200  0.734600  0.888300  1.0  0.3002
  H  H80  1  0.866400  0.785700  0.685800  1.0  0.2894
  H  H81  1  0.697300  0.700100  0.001100  1.0  0.1138
  H  H82  1  0.735200  0.642200  0.013300  1.0  0.1226
  H  H83  1  0.757000  0.704000  0.040000  1.0  0.1109
  H  H84  1  0.884500  0.715500  0.785700  1.0  0.1055
  H  H85  1  0.921900  0.722900  0.848200  1.0  0.1206
  H  H86  1  0.905200  0.658800  0.823600  1.0  0.1078
  H  H87  1  0.763100  0.854400  0.845800  1.0  0.1091
  H  H88  1  0.793700  0.917600  0.846100  1.0  0.1119
  H  H89  1  0.819300  0.866000  0.888700  1.0  0.1029
  H  H90  1  0.973200  0.817800  0.660000  1.0  0.1123
  H  H91  1  0.007700  0.835200  0.722200  1.0  0.1284
  H  H92  1  0.981200  0.885400  0.678400  1.0  0.105
  H  H93  1  0.288800  0.765400  0.888300  1.0  0.2998
  H  H94  1  0.133600  0.714300  0.685800  1.0  0.2899
  H  H95  1  0.302700  0.799900  0.001100  1.0  0.1126
  H  H96  1  0.264800  0.857800  0.013300  1.0  0.1181
  H  H97  1  0.243000  0.796000  0.040000  1.0  0.1105
  H  H98  1  0.115500  0.784500  0.785700  1.0  0.1063
  H  H99  1  0.078100  0.777100  0.848200  1.0  0.1206
  H  H100  1  0.094800  0.841200  0.823600  1.0  0.1089
  H  H101  1  0.236900  0.645600  0.845800  1.0  0.108
  H  H102  1  0.206300  0.582400  0.846100  1.0  0.1134
  H  H103  1  0.180700  0.634000  0.888700  1.0  0.1041
  H  H104  1  0.026800  0.682200  0.660000  1.0  0.1117
  H  H105  1  0.992300  0.664800  0.722200  1.0  0.1279
  H  H106  1  0.018800  0.614600  0.678400  1.0  0.1028
  H  H107  1  0.788800  0.265400  0.388300  1.0  0.2998
  H  H108  1  0.633600  0.214300  0.185800  1.0  0.2899
  H  H109  1  0.802700  0.299900  0.501100  1.0  0.1126
  H  H110  1  0.764800  0.357800  0.513300  1.0  0.1181
  H  H111  1  0.743000  0.296000  0.540000  1.0  0.1105
  H  H112  1  0.615500  0.284500  0.285700  1.0  0.1063
  H  H113  1  0.578100  0.277100  0.348200  1.0  0.1206
  H  H114  1  0.594800  0.341200  0.323600  1.0  0.1089
  H  H115  1  0.736900  0.145600  0.345800  1.0  0.108
  H  H116  1  0.706300  0.082400  0.346100  1.0  0.1134
  H  H117  1  0.680700  0.134000  0.388700  1.0  0.1041
  H  H118  1  0.526800  0.182200  0.160000  1.0  0.1117
  H  H119  1  0.492300  0.164800  0.222200  1.0  0.1279
  H  H120  1  0.518800  0.114600  0.178400  1.0  0.1028
  H  H121  1  0.015400  0.461200  0.861700  1.0  0.2979
  H  H122  1  0.964300  0.616400  0.064200  1.0  0.2921
  H  H123  1  0.049900  0.447300  0.748900  1.0  0.1138
  H  H124  1  0.107800  0.485200  0.736700  1.0  0.1194
  H  H125  1  0.046000  0.507000  0.710000  1.0  0.1104
  H  H126  1  0.034500  0.634500  0.964300  1.0  0.1081
  H  H127  1  0.027100  0.671900  0.901800  1.0  0.1218
  H  H128  1  0.091200  0.655200  0.926400  1.0  0.1097
  H  H129  1  0.895600  0.513100  0.904200  1.0  0.1067
  H  H130  1  0.832400  0.543700  0.903900  1.0  0.1176
  H  H131  1  0.884000  0.569300  0.861300  1.0  0.104
  H  H132  1  0.932200  0.723200  0.090000  1.0  0.1123
  H  H133  1  0.914800  0.757700  0.027800  1.0  0.1276
  H  H134  1  0.864600  0.731200  0.071600  1.0  0.1044
  H  H135  1  0.515400  0.961200  0.361700  1.0  0.2979
  H  H136  1  0.464300  0.116400  0.564200  1.0  0.2921
  H  H137  1  0.549900  0.947300  0.248900  1.0  0.1138
  H  H138  1  0.607800  0.985200  0.236700  1.0  0.1194
  H  H139  1  0.546000  0.007000  0.210000  1.0  0.1104
  H  H140  1  0.534500  0.134500  0.464300  1.0  0.1081
  H  H141  1  0.527100  0.171900  0.401800  1.0  0.1218
  H  H142  1  0.591200  0.155200  0.426400  1.0  0.1097
  H  H143  1  0.395600  0.013100  0.404200  1.0  0.1067
  H  H144  1  0.332400  0.043700  0.403900  1.0  0.1176
  H  H145  1  0.384000  0.069300  0.361300  1.0  0.104
  H  H146  1  0.432200  0.223200  0.590000  1.0  0.1123
  H  H147  1  0.414800  0.257700  0.527800  1.0  0.1276
  H  H148  1  0.364600  0.231200  0.571600  1.0  0.1044
  H  H149  1  0.484600  0.538800  0.361700  1.0  0.3012
  H  H150  1  0.535700  0.383600  0.564200  1.0  0.2924
  H  H151  1  0.450100  0.552700  0.248900  1.0  0.115
  H  H152  1  0.392200  0.514800  0.236700  1.0  0.1199
  H  H153  1  0.454000  0.493000  0.210000  1.0  0.1094
  H  H154  1  0.465500  0.365500  0.464300  1.0  0.1091
  H  H155  1  0.472900  0.328100  0.401800  1.0  0.1205
  H  H156  1  0.408800  0.344800  0.426400  1.0  0.108
  H  H157  1  0.604400  0.486900  0.404200  1.0  0.109
  H  H158  1  0.667600  0.456300  0.403900  1.0  0.1142
  H  H159  1  0.616000  0.430700  0.361300  1.0  0.1062
  H  H160  1  0.567800  0.276800  0.590000  1.0  0.1125
  H  H161  1  0.585200  0.242300  0.527800  1.0  0.128
  H  H162  1  0.635400  0.268800  0.571600  1.0  0.1025
  H  H163  1  0.984600  0.038800  0.861700  1.0  0.3012
  H  H164  1  0.035700  0.883600  0.064200  1.0  0.2924
  H  H165  1  0.950100  0.052700  0.748900  1.0  0.115
  H  H166  1  0.892200  0.014800  0.736700  1.0  0.1199
  H  H167  1  0.954000  0.993000  0.710000  1.0  0.1094
  H  H168  1  0.965500  0.865500  0.964300  1.0  0.1091
  H  H169  1  0.972900  0.828100  0.901800  1.0  0.1205
  H  H170  1  0.908800  0.844800  0.926400  1.0  0.108
  H  H171  1  0.104400  0.986900  0.904200  1.0  0.109
  H  H172  1  0.167600  0.956300  0.903900  1.0  0.1142
  H  H173  1  0.116000  0.930700  0.861300  1.0  0.1062
  H  H174  1  0.067800  0.776800  0.090000  1.0  0.1125
  H  H175  1  0.085200  0.742300  0.027800  1.0  0.128
  H  H176  1  0.135400  0.768800  0.071600  1.0  0.1025
  H  H177  1  0.788800  0.765400  0.611700  1.0  0.3003
  H  H178  1  0.633600  0.714300  0.814200  1.0  0.2901
  H  H179  1  0.802700  0.799900  0.498900  1.0  0.1141
  H  H180  1  0.764800  0.857800  0.486700  1.0  0.119
  H  H181  1  0.743000  0.796000  0.460000  1.0  0.1114
  H  H182  1  0.615500  0.784500  0.714300  1.0  0.1073
  H  H183  1  0.578100  0.777100  0.651800  1.0  0.1205
  H  H184  1  0.594800  0.841200  0.676400  1.0  0.1084
  H  H185  1  0.736900  0.645600  0.654200  1.0  0.108
  H  H186  1  0.706300  0.582400  0.653900  1.0  0.1133
  H  H187  1  0.680700  0.634000  0.611300  1.0  0.1044
  H  H188  1  0.526800  0.682200  0.840000  1.0  0.1125
  H  H189  1  0.492300  0.664800  0.777800  1.0  0.1281
  H  H190  1  0.518800  0.614600  0.821600  1.0  0.1031
  H  H191  1  0.288800  0.265400  0.111700  1.0  0.3003
  H  H192  1  0.133600  0.214300  0.314200  1.0  0.2901
  H  H193  1  0.302700  0.299900  0.998900  1.0  0.1141
  H  H194  1  0.264800  0.357800  0.986700  1.0  0.119
  H  H195  1  0.243000  0.296000  0.960000  1.0  0.1114
  H  H196  1  0.115500  0.284500  0.214300  1.0  0.1073
  H  H197  1  0.078100  0.277100  0.151800  1.0  0.1205
  H  H198  1  0.094800  0.341200  0.176400  1.0  0.1084
  H  H199  1  0.236900  0.145600  0.154200  1.0  0.108
  H  H200  1  0.206300  0.082400  0.153900  1.0  0.1133
  H  H201  1  0.180700  0.134000  0.111300  1.0  0.1044
  H  H202  1  0.026800  0.182200  0.340000  1.0  0.1125
  H  H203  1  0.992300  0.164800  0.277800  1.0  0.1281
  H  H204  1  0.018800  0.114600  0.321600  1.0  0.1031
  H  H205  1  0.711200  0.234600  0.111700  1.0  0.3
  H  H206  1  0.866400  0.285700  0.314200  1.0  0.2887
  H  H207  1  0.697300  0.200100  0.998900  1.0  0.1137
  H  H208  1  0.735200  0.142200  0.986700  1.0  0.1217
  H  H209  1  0.757000  0.204000  0.960000  1.0  0.109
  H  H210  1  0.884500  0.215500  0.214300  1.0  0.1071
  H  H211  1  0.921900  0.222900  0.151800  1.0  0.1208
  H  H212  1  0.905200  0.158800  0.176400  1.0  0.1085
  H  H213  1  0.763100  0.354400  0.154200  1.0  0.1084
  H  H214  1  0.793700  0.417600  0.153900  1.0  0.1122
  H  H215  1  0.819300  0.366000  0.111300  1.0  0.1028
  H  H216  1  0.973200  0.317800  0.340000  1.0  0.1124
  H  H217  1  0.007700  0.335200  0.277800  1.0  0.1278
  H  H218  1  0.981200  0.385400  0.321600  1.0  0.1033
  H  H219  1  0.211200  0.734600  0.611700  1.0  0.3
  H  H220  1  0.366400  0.785700  0.814200  1.0  0.2887
  H  H221  1  0.197300  0.700100  0.498900  1.0  0.1137
  H  H222  1  0.235200  0.642200  0.486700  1.0  0.1217
  H  H223  1  0.257000  0.704000  0.460000  1.0  0.109
  H  H224  1  0.384500  0.715500  0.714300  1.0  0.1071
  H  H225  1  0.421900  0.722900  0.651800  1.0  0.1208
  H  H226  1  0.405200  0.658800  0.676400  1.0  0.1085
  H  H227  1  0.263100  0.854400  0.654200  1.0  0.1084
  H  H228  1  0.293700  0.917600  0.653900  1.0  0.1122
  H  H229  1  0.319300  0.866000  0.611300  1.0  0.1028
  H  H230  1  0.473200  0.817800  0.840000  1.0  0.1124
  H  H231  1  0.507700  0.835200  0.777800  1.0  0.1278
  H  H232  1  0.481200  0.885400  0.821600  1.0  0.1033
  C  C233  1  0.950600  0.414400  0.115400  1.0  0.2274
  C  C234  1  0.931200  0.420700  0.178400  1.0  -0.1851
  C  C235  1  0.944500  0.479500  0.195200  1.0  0.1451
  C  C236  1  0.934500  0.512900  0.255300  1.0  -0.4039
  C  C237  1  0.949500  0.358200  0.077300  1.0  -0.4128
  C  C238  1  0.917300  0.345200  0.269600  1.0  0.1206
  C  C239  1  0.898600  0.375700  0.216900  1.0  -0.1613
  C  C240  1  0.105200  0.409900  0.046200  1.0  0.2346
  C  C241  1  0.125200  0.449400  0.098900  1.0  -0.4079
  C  C242  1  0.095700  0.274900  0.944700  1.0  -0.4026
  C  C243  1  0.450600  0.914400  0.615400  1.0  0.2274
  C  C244  1  0.431200  0.920700  0.678400  1.0  -0.1851
  C  C245  1  0.444500  0.979500  0.695200  1.0  0.1451
  C  C246  1  0.434500  0.012900  0.755300  1.0  -0.4039
  C  C247  1  0.449500  0.858200  0.577300  1.0  -0.4128
  C  C248  1  0.417300  0.845200  0.769600  1.0  0.1206
  C  C249  1  0.398600  0.875700  0.716900  1.0  -0.1613
  C  C250  1  0.605200  0.909900  0.546200  1.0  0.2346
  C  C251  1  0.625200  0.949400  0.598900  1.0  -0.4079
  C  C252  1  0.595700  0.774900  0.444700  1.0  -0.4026
  C  C253  1  0.549400  0.585600  0.615400  1.0  0.2283
  C  C254  1  0.568800  0.579300  0.678400  1.0  -0.1864
  C  C255  1  0.555500  0.520500  0.695200  1.0  0.1454
  C  C256  1  0.565500  0.487100  0.755300  1.0  -0.4024
  C  C257  1  0.550500  0.641800  0.577300  1.0  -0.4129
  C  C258  1  0.582700  0.654800  0.769600  1.0  0.1179
  C  C259  1  0.601400  0.624300  0.716900  1.0  -0.161
  C  C260  1  0.394800  0.590100  0.546200  1.0  0.2335
  C  C261  1  0.374800  0.550600  0.598900  1.0  -0.403
  C  C262  1  0.404300  0.725100  0.444700  1.0  -0.3986
  C  C263  1  0.049400  0.085600  0.115400  1.0  0.2283
  C  C264  1  0.068800  0.079300  0.178400  1.0  -0.1864
  C  C265  1  0.055500  0.020500  0.195200  1.0  0.1454
  C  C266  1  0.065500  0.987100  0.255300  1.0  -0.4024
  C  C267  1  0.050500  0.141800  0.077300  1.0  -0.4129
  C  C268  1  0.082700  0.154800  0.269600  1.0  0.1179
  C  C269  1  0.101400  0.124300  0.216900  1.0  -0.161
  C  C270  1  0.894800  0.090100  0.046200  1.0  0.2335
  C  C271  1  0.874800  0.050600  0.098900  1.0  -0.403
  C  C272  1  0.904300  0.225100  0.944700  1.0  -0.3986
  C  C273  1  0.335600  0.200600  0.365400  1.0  0.2273
  C  C274  1  0.329300  0.181200  0.428400  1.0  -0.1857
  C  C275  1  0.270500  0.194500  0.445200  1.0  0.1445
  C  C276  1  0.237100  0.184500  0.505300  1.0  -0.4034
  C  C277  1  0.391800  0.199500  0.327300  1.0  -0.4144
  C  C278  1  0.404800  0.167300  0.519600  1.0  0.1197
  C  C279  1  0.374300  0.148600  0.466900  1.0  -0.1617
  C  C280  1  0.340100  0.355200  0.296200  1.0  0.2347
  C  C281  1  0.300600  0.375200  0.348900  1.0  -0.4064
  C  C282  1  0.475100  0.345700  0.194700  1.0  -0.4004
  C  C283  1  0.835600  0.700600  0.865400  1.0  0.2273
  C  C284  1  0.829300  0.681200  0.928400  1.0  -0.1857
  C  C285  1  0.770500  0.694500  0.945200  1.0  0.1445
  C  C286  1  0.737100  0.684500  0.005300  1.0  -0.4034
  C  C287  1  0.891800  0.699500  0.827300  1.0  -0.4144
  C  C288  1  0.904800  0.667300  0.019600  1.0  0.1197
  C  C289  1  0.874300  0.648600  0.966900  1.0  -0.1617
  C  C290  1  0.840100  0.855200  0.796200  1.0  0.2347
  C  C291  1  0.800600  0.875200  0.848900  1.0  -0.4064
  C  C292  1  0.975100  0.845700  0.694700  1.0  -0.4004
  C  C293  1  0.164400  0.799400  0.865400  1.0  0.2273
  C  C294  1  0.170700  0.818800  0.928400  1.0  -0.1845
  C  C295  1  0.229500  0.805500  0.945200  1.0  0.1452
  C  C296  1  0.262900  0.815500  0.005300  1.0  -0.4034
  C  C297  1  0.108200  0.800500  0.827300  1.0  -0.4136
  C  C298  1  0.095200  0.832700  0.019600  1.0  0.12
  C  C299  1  0.125700  0.851400  0.966900  1.0  -0.1597
  C  C300  1  0.159900  0.644800  0.796200  1.0  0.2341
  C  C301  1  0.199400  0.624800  0.848900  1.0  -0.4057
  C  C302  1  0.024900  0.654300  0.694700  1.0  -0.3987
  C  C303  1  0.664400  0.299400  0.365400  1.0  0.2273
  C  C304  1  0.670700  0.318800  0.428400  1.0  -0.1845
  C  C305  1  0.729500  0.305500  0.445200  1.0  0.1452
  C  C306  1  0.762900  0.315500  0.505300  1.0  -0.4034
  C  C307  1  0.608200  0.300500  0.327300  1.0  -0.4136
  C  C308  1  0.595200  0.332700  0.519600  1.0  0.12
  C  C309  1  0.625700  0.351400  0.466900  1.0  -0.1597
  C  C310  1  0.659900  0.144800  0.296200  1.0  0.2341
  C  C311  1  0.699400  0.124800  0.348900  1.0  -0.4057
  C  C312  1  0.524900  0.154300  0.194700  1.0  -0.3987
  C  C313  1  0.049400  0.585600  0.884600  1.0  0.2291
  C  C314  1  0.068800  0.579300  0.821600  1.0  -0.1851
  C  C315  1  0.055500  0.520500  0.804800  1.0  0.1454
  C  C316  1  0.065500  0.487100  0.744700  1.0  -0.402
  C  C317  1  0.050500  0.641800  0.922700  1.0  -0.4126
  C  C318  1  0.082700  0.654800  0.730400  1.0  0.117
  C  C319  1  0.101400  0.624300  0.783100  1.0  -0.1601
  C  C320  1  0.894800  0.590100  0.953800  1.0  0.2338
  C  C321  1  0.874800  0.550600  0.901100  1.0  -0.4024
  C  C322  1  0.904300  0.725100  0.055300  1.0  -0.3992
  C  C323  1  0.549400  0.085600  0.384600  1.0  0.2291
  C  C324  1  0.568800  0.079300  0.321600  1.0  -0.1851
  C  C325  1  0.555500  0.020500  0.304800  1.0  0.1454
  C  C326  1  0.565500  0.987100  0.244700  1.0  -0.402
  C  C327  1  0.550500  0.141800  0.422700  1.0  -0.4126
  C  C328  1  0.582700  0.154800  0.230400  1.0  0.117
  C  C329  1  0.601400  0.124300  0.283100  1.0  -0.1601
  C  C330  1  0.394800  0.090100  0.453800  1.0  0.2338
  C  C331  1  0.374800  0.050600  0.401100  1.0  -0.4024
  C  C332  1  0.404300  0.225100  0.555300  1.0  -0.3992
  C  C333  1  0.450600  0.414400  0.384600  1.0  0.2283
  C  C334  1  0.431200  0.420700  0.321600  1.0  -0.1849
  C  C335  1  0.444500  0.479500  0.304800  1.0  0.1447
  C  C336  1  0.434500  0.512900  0.244700  1.0  -0.4013
  C  C337  1  0.449500  0.358200  0.422700  1.0  -0.4133
  C  C338  1  0.417300  0.345200  0.230400  1.0  0.1218
  C  C339  1  0.398600  0.375700  0.283100  1.0  -0.1602
  C  C340  1  0.605200  0.409900  0.453800  1.0  0.2343
  C  C341  1  0.625200  0.449400  0.401100  1.0  -0.4046
  C  C342  1  0.595700  0.274900  0.555300  1.0  -0.3998
  C  C343  1  0.950600  0.914400  0.884600  1.0  0.2283
  C  C344  1  0.931200  0.920700  0.821600  1.0  -0.1849
  C  C345  1  0.944500  0.979500  0.804800  1.0  0.1447
  C  C346  1  0.934500  0.012900  0.744700  1.0  -0.4013
  C  C347  1  0.949500  0.858200  0.922700  1.0  -0.4133
  C  C348  1  0.917300  0.845200  0.730400  1.0  0.1218
  C  C349  1  0.898600  0.875700  0.783100  1.0  -0.1602
  C  C350  1  0.105200  0.909900  0.953800  1.0  0.2343
  C  C351  1  0.125200  0.949400  0.901100  1.0  -0.4046
  C  C352  1  0.095700  0.774900  0.055300  1.0  -0.3998
  C  C353  1  0.664400  0.799400  0.634600  1.0  0.2282
  C  C354  1  0.670700  0.818800  0.571600  1.0  -0.184
  C  C355  1  0.729500  0.805500  0.554800  1.0  0.1452
  C  C356  1  0.762900  0.815500  0.494700  1.0  -0.4038
  C  C357  1  0.608200  0.800500  0.672700  1.0  -0.4137
  C  C358  1  0.595200  0.832700  0.480400  1.0  0.1207
  C  C359  1  0.625700  0.851400  0.533100  1.0  -0.159
  C  C360  1  0.659900  0.644800  0.703800  1.0  0.2343
  C  C361  1  0.699400  0.624800  0.651100  1.0  -0.4052
  C  C362  1  0.524900  0.654300  0.805300  1.0  -0.3987
  C  C363  1  0.164400  0.299400  0.134600  1.0  0.2282
  C  C364  1  0.170700  0.318800  0.071600  1.0  -0.184
  C  C365  1  0.229500  0.305500  0.054800  1.0  0.1452
  C  C366  1  0.262900  0.315500  0.994700  1.0  -0.4038
  C  C367  1  0.108200  0.300500  0.172700  1.0  -0.4137
  C  C368  1  0.095200  0.332700  0.980400  1.0  0.1207
  C  C369  1  0.125700  0.351400  0.033100  1.0  -0.159
  C  C370  1  0.159900  0.144800  0.203800  1.0  0.2343
  C  C371  1  0.199400  0.124800  0.151100  1.0  -0.4052
  C  C372  1  0.024900  0.154300  0.305300  1.0  -0.3987
  C  C373  1  0.835600  0.200600  0.134600  1.0  0.2283
  C  C374  1  0.829300  0.181200  0.071600  1.0  -0.1857
  C  C375  1  0.770500  0.194500  0.054800  1.0  0.1438
  C  C376  1  0.737100  0.184500  0.994700  1.0  -0.4032
  C  C377  1  0.891800  0.199500  0.172700  1.0  -0.4145
  C  C378  1  0.904800  0.167300  0.980400  1.0  0.1208
  C  C379  1  0.874300  0.148600  0.033100  1.0  -0.1607
  C  C380  1  0.840100  0.355200  0.203800  1.0  0.2346
  C  C381  1  0.800600  0.375200  0.151100  1.0  -0.4032
  C  C382  1  0.975100  0.345700  0.305300  1.0  -0.3973
  C  C383  1  0.335600  0.700600  0.634600  1.0  0.2283
  C  C384  1  0.329300  0.681200  0.571600  1.0  -0.1857
  C  C385  1  0.270500  0.694500  0.554800  1.0  0.1438
  C  C386  1  0.237100  0.684500  0.494700  1.0  -0.4032
  C  C387  1  0.391800  0.699500  0.672700  1.0  -0.4145
  C  C388  1  0.404800  0.667300  0.480400  1.0  0.1208
  C  C389  1  0.374300  0.648600  0.533100  1.0  -0.1607
  C  C390  1  0.340100  0.855200  0.703800  1.0  0.2346
  C  C391  1  0.300600  0.875200  0.651100  1.0  -0.4032
  C  C392  1  0.475100  0.845700  0.805300  1.0  -0.3973
  N  N393  1  0.973430  0.466220  0.093500  1.0  -0.3234
  N  N394  1  0.969300  0.504700  0.143400  1.0  -0.1712
  N  N395  1  0.823420  0.314810  0.247800  1.0  -0.3202
  N  N396  1  0.871300  0.309700  0.287200  1.0  -0.1851
  N  N397  1  0.473430  0.966220  0.593500  1.0  -0.3234
  N  N398  1  0.469300  0.004700  0.643400  1.0  -0.1712
  N  N399  1  0.323420  0.814810  0.747800  1.0  -0.3202
  N  N400  1  0.371300  0.809700  0.787200  1.0  -0.1851
  N  N401  1  0.526570  0.533780  0.593500  1.0  -0.3229
  N  N402  1  0.530700  0.495300  0.643400  1.0  -0.1707
  N  N403  1  0.676580  0.685190  0.747800  1.0  -0.319
  N  N404  1  0.628700  0.690300  0.787200  1.0  -0.1851
  N  N405  1  0.026570  0.033780  0.093500  1.0  -0.3229
  N  N406  1  0.030700  0.995300  0.143400  1.0  -0.1707
  N  N407  1  0.176580  0.185190  0.247800  1.0  -0.319
  N  N408  1  0.128700  0.190300  0.287200  1.0  -0.1851
  N  N409  1  0.283780  0.223430  0.343500  1.0  -0.3209
  N  N410  1  0.245300  0.219300  0.393400  1.0  -0.174
  N  N411  1  0.435190  0.073420  0.497800  1.0  -0.3185
  N  N412  1  0.440300  0.121300  0.537200  1.0  -0.1871
  N  N413  1  0.783780  0.723430  0.843500  1.0  -0.3209
  N  N414  1  0.745300  0.719300  0.893400  1.0  -0.174
  N  N415  1  0.935190  0.573420  0.997800  1.0  -0.3185
  N  N416  1  0.940300  0.621300  0.037200  1.0  -0.1871
  N  N417  1  0.216220  0.776570  0.843500  1.0  -0.3197
  N  N418  1  0.254700  0.780700  0.893400  1.0  -0.175
  N  N419  1  0.064810  0.926580  0.997800  1.0  -0.3187
  N  N420  1  0.059700  0.878700  0.037200  1.0  -0.1864
  N  N421  1  0.716220  0.276570  0.343500  1.0  -0.3197
  N  N422  1  0.754700  0.280700  0.393400  1.0  -0.175
  N  N423  1  0.564810  0.426580  0.497800  1.0  -0.3187
  N  N424  1  0.559700  0.378700  0.537200  1.0  -0.1864
  N  N425  1  0.026570  0.533780  0.906500  1.0  -0.3225
  N  N426  1  0.030700  0.495300  0.856600  1.0  -0.1717
  N  N427  1  0.176580  0.685190  0.752200  1.0  -0.3245
  N  N428  1  0.128700  0.690300  0.712800  1.0  -0.1875
  N  N429  1  0.526570  0.033780  0.406500  1.0  -0.3225
  N  N430  1  0.530700  0.995300  0.356600  1.0  -0.1717
  N  N431  1  0.676580  0.185190  0.252200  1.0  -0.3245
  N  N432  1  0.628700  0.190300  0.212800  1.0  -0.1875
  N  N433  1  0.473430  0.466220  0.406500  1.0  -0.3239
  N  N434  1  0.469300  0.504700  0.356600  1.0  -0.1709
  N  N435  1  0.323420  0.314810  0.252200  1.0  -0.3255
  N  N436  1  0.371300  0.309700  0.212800  1.0  -0.1867
  N  N437  1  0.973430  0.966220  0.906500  1.0  -0.3239
  N  N438  1  0.969300  0.004700  0.856600  1.0  -0.1709
  N  N439  1  0.823420  0.814810  0.752200  1.0  -0.3255
  N  N440  1  0.871300  0.809700  0.712800  1.0  -0.1867
  N  N441  1  0.716220  0.776570  0.656500  1.0  -0.3196
  N  N442  1  0.754700  0.780700  0.606600  1.0  -0.1757
  N  N443  1  0.564810  0.926580  0.502200  1.0  -0.3255
  N  N444  1  0.559700  0.878700  0.462800  1.0  -0.1875
  N  N445  1  0.216220  0.276570  0.156500  1.0  -0.3196
  N  N446  1  0.254700  0.280700  0.106600  1.0  -0.1757
  N  N447  1  0.064810  0.426580  0.002200  1.0  -0.3255
  N  N448  1  0.059700  0.378700  0.962800  1.0  -0.1875
  N  N449  1  0.783780  0.223430  0.156500  1.0  -0.3214
  N  N450  1  0.745300  0.219300  0.106600  1.0  -0.1746
  N  N451  1  0.935190  0.073420  0.002200  1.0  -0.3237
  N  N452  1  0.940300  0.121300  0.962800  1.0  -0.1883
  N  N453  1  0.283780  0.723430  0.656500  1.0  -0.3214
  N  N454  1  0.245300  0.719300  0.606600  1.0  -0.1746
  N  N455  1  0.435190  0.573420  0.502200  1.0  -0.3237
  N  N456  1  0.440300  0.621300  0.462800  1.0  -0.1883
