# generated using pymatgen
data_CaH5C15NO6
_symmetry_space_group_name_H-M   'P 1'
_cell_length_a   13.54880000
_cell_length_b   21.11400000
_cell_length_c   21.11400000
_cell_angle_alpha   84.09120000
_cell_angle_beta   71.28570000
_cell_angle_gamma   71.28560000
_symmetry_Int_Tables_number   1
_chemical_formula_structural   CaH5C15NO6
_chemical_formula_sum   'Ca8 H40 C120 N8 O48'
_cell_volume   5418.27452660
_cell_formula_units_Z   8
loop_
 _symmetry_equiv_pos_site_id
 _symmetry_equiv_pos_as_xyz
  1  'x, y, z'
loop_
 _atom_site_type_symbol
 _atom_site_label
 _atom_site_symmetry_multiplicity
 _atom_site_fract_x
 _atom_site_fract_y
 _atom_site_fract_z
 _atom_site_occupancy
 _atom_site_charge
  Ca  Ca1  1  0.372060  0.814670  0.195130  1.0  1.6168
  Ca  Ca2  1  0.881860  0.685330  0.304870  1.0  1.6179
  Ca  Ca3  1  0.567190  0.804870  0.314670  1.0  1.6185
  Ca  Ca4  1  0.186730  0.695130  0.185330  1.0  1.6193
  Ca  Ca5  1  0.627940  0.185330  0.804870  1.0  1.6179
  Ca  Ca6  1  0.118140  0.314670  0.695130  1.0  1.6166
  Ca  Ca7  1  0.432810  0.195130  0.685330  1.0  1.6193
  Ca  Ca8  1  0.813270  0.304870  0.814670  1.0  1.6183
  H  H9  1  0.784100  0.754300  0.183900  1.0  0.0899
  H  H10  1  0.020700  0.741200  0.005800  1.0  0.1151
  H  H11  1  0.709900  0.769300  0.009700  1.0  0.1286
  H  H12  1  0.876500  0.912500  0.805500  1.0  0.1195
  H  H13  1  0.042000  0.590600  0.811000  1.0  0.1095
  H  H14  1  0.222300  0.745700  0.316100  1.0  0.0901
  H  H15  1  0.267700  0.758800  0.494200  1.0  0.1145
  H  H16  1  0.988900  0.730700  0.490300  1.0  0.1289
  H  H17  1  0.094500  0.587500  0.694500  1.0  0.1169
  H  H18  1  0.943600  0.909400  0.689000  1.0  0.107
  H  H19  1  0.968000  0.816100  0.254300  1.0  0.0898
  H  H20  1  0.026500  0.994200  0.241200  1.0  0.1141
  H  H21  1  0.719600  0.990300  0.269300  1.0  0.1279
  H  H22  1  0.682000  0.194500  0.412500  1.0  0.1207
  H  H23  1  0.853000  0.189000  0.090600  1.0  0.108
  H  H24  1  0.538400  0.683900  0.245700  1.0  0.0899
  H  H25  1  0.761900  0.505800  0.258800  1.0  0.114
  H  H26  1  0.479200  0.509700  0.230700  1.0  0.1284
  H  H27  1  0.789000  0.305500  0.087500  1.0  0.1178
  H  H28  1  0.632600  0.311000  0.409400  1.0  0.1106
  H  H29  1  0.215900  0.245700  0.816100  1.0  0.09
  H  H30  1  0.979300  0.258800  0.994200  1.0  0.1146
  H  H31  1  0.290100  0.230700  0.990300  1.0  0.1282
  H  H32  1  0.123500  0.087500  0.194500  1.0  0.1183
  H  H33  1  0.958000  0.409400  0.189000  1.0  0.1092
  H  H34  1  0.777700  0.254300  0.683900  1.0  0.09
  H  H35  1  0.732300  0.241200  0.505800  1.0  0.1151
  H  H36  1  0.011100  0.269300  0.509700  1.0  0.1281
  H  H37  1  0.905500  0.412500  0.305500  1.0  0.1174
  H  H38  1  0.056400  0.090600  0.311000  1.0  0.1078
  H  H39  1  0.032000  0.183900  0.745700  1.0  0.0897
  H  H40  1  0.973500  0.005800  0.758800  1.0  0.1151
  H  H41  1  0.280400  0.009700  0.730700  1.0  0.1269
  H  H42  1  0.318000  0.805500  0.587500  1.0  0.12
  H  H43  1  0.147000  0.811000  0.909400  1.0  0.108
  H  H44  1  0.461600  0.316100  0.754300  1.0  0.0899
  H  H45  1  0.238100  0.494200  0.741200  1.0  0.114
  H  H46  1  0.520800  0.490300  0.769300  1.0  0.1279
  H  H47  1  0.211000  0.694500  0.912500  1.0  0.1173
  H  H48  1  0.367400  0.689000  0.590600  1.0  0.1094
  C  C49  1  0.609700  0.779540  0.140060  1.0  0.7629
  C  C50  1  0.000970  0.732350  0.135310  1.0  0.7646
  C  C51  1  0.727890  0.765370  0.102450  1.0  -0.1345
  C  C52  1  0.806310  0.754580  0.136400  1.0  0.0033
  C  C53  1  0.916250  0.744470  0.100430  1.0  -0.1317
  C  C54  1  0.946890  0.745580  0.031040  1.0  -0.0773
  C  C55  1  0.869600  0.753060  0.998740  1.0  0.1561
  C  C56  1  0.761550  0.763420  0.033080  1.0  -0.0796
  C  C57  1  0.949600  0.689800  0.894600  1.0  0.5171
  C  C58  1  0.888000  0.814000  0.892800  1.0  0.4997
  C  C59  1  0.911900  0.870800  0.783000  1.0  -0.0436
  C  C60  1  0.926060  0.811670  0.818810  1.0  -0.1336
  C  C61  1  0.032200  0.631400  0.786800  1.0  -0.0207
  C  C62  1  0.985700  0.690100  0.821700  1.0  -0.1284
  C  C63  1  0.974600  0.749800  0.786000  1.0  0.0598
  C  C64  1  0.029300  0.720460  0.359940  1.0  0.7611
  C  C65  1  0.368630  0.767650  0.364690  1.0  0.7643
  C  C66  1  0.095710  0.734630  0.397550  1.0  -0.1359
  C  C67  1  0.197290  0.745420  0.363600  1.0  0.0039
  C  C68  1  0.261150  0.755530  0.399570  1.0  -0.1316
  C  C69  1  0.223510  0.754420  0.468960  1.0  -0.0753
  C  C70  1  0.121400  0.746940  0.501260  1.0  0.1568
  C  C71  1  0.058050  0.736580  0.466920  1.0  -0.0785
  C  C72  1  0.034000  0.810200  0.605400  1.0  0.515
  C  C73  1  0.094800  0.686000  0.607200  1.0  0.4999
  C  C74  1  0.065700  0.629200  0.717000  1.0  -0.0452
  C  C75  1  0.056540  0.688330  0.681190  1.0  -0.1333
  C  C76  1  0.950400  0.868600  0.713200  1.0  -0.0321
  C  C77  1  0.997500  0.809900  0.678300  1.0  -0.1278
  C  C78  1  0.010400  0.750200  0.714000  1.0  0.0645
  C  C79  1  0.749760  0.859940  0.279540  1.0  0.7626
  C  C80  1  0.136280  0.864690  0.232350  1.0  0.764
  C  C81  1  0.830340  0.897550  0.265370  1.0  -0.1341
  C  C82  1  0.942710  0.863600  0.254580  1.0  0.0023
  C  C83  1  0.016680  0.899570  0.244470  1.0  -0.1305
  C  C84  1  0.977930  0.968960  0.245580  1.0  -0.0763
  C  C85  1  0.868340  0.001260  0.253060  1.0  0.1574
  C  C86  1  0.794630  0.966920  0.263420  1.0  -0.0796
  C  C87  1  0.844200  0.105400  0.189800  1.0  0.52
  C  C88  1  0.780800  0.107200  0.314000  1.0  0.5009
  C  C89  1  0.694900  0.217000  0.370800  1.0  -0.043
  C  C90  1  0.744870  0.181190  0.311670  1.0  -0.135
  C  C91  1  0.819000  0.213200  0.131400  1.0  -0.0294
  C  C92  1  0.807400  0.178300  0.190100  1.0  -0.127
  C  C93  1  0.760600  0.214000  0.249800  1.0  0.0605
  C  C94  1  0.389240  0.640060  0.220460  1.0  0.763
  C  C95  1  0.733320  0.635310  0.267650  1.0  0.7644
  C  C96  1  0.493260  0.602450  0.234630  1.0  -0.1362
  C  C97  1  0.560890  0.636400  0.245420  1.0  0.0045
  C  C98  1  0.660720  0.600430  0.255530  1.0  -0.1319
  C  C99  1  0.692470  0.531040  0.254420  1.0  -0.0762
  C  C100  1  0.622660  0.498740  0.246940  1.0  0.157
  C  C101  1  0.524970  0.533080  0.236580  1.0  -0.0806
  C  C102  1  0.639400  0.394600  0.310200  1.0  0.5186
  C  C103  1  0.702000  0.392800  0.186000  1.0  0.504
  C  C104  1  0.782700  0.283000  0.129200  1.0  -0.0454
  C  C105  1  0.737730  0.318810  0.188330  1.0  -0.1331
  C  C106  1  0.663600  0.286800  0.368600  1.0  -0.0318
  C  C107  1  0.675800  0.321700  0.309900  1.0  -0.1282
  C  C108  1  0.724400  0.286000  0.250200  1.0  0.0604
  C  C109  1  0.390300  0.220460  0.859940  1.0  0.7641
  C  C110  1  0.999030  0.267650  0.864690  1.0  0.7636
  C  C111  1  0.272110  0.234630  0.897550  1.0  -0.1347
  C  C112  1  0.193690  0.245420  0.863600  1.0  0.0043
  C  C113  1  0.083750  0.255530  0.899570  1.0  -0.1319
  C  C114  1  0.053110  0.254420  0.968960  1.0  -0.0765
  C  C115  1  0.130400  0.246940  0.001260  1.0  0.1573
  C  C116  1  0.238450  0.236580  0.966920  1.0  -0.079
  C  C117  1  0.050400  0.310200  0.105400  1.0  0.5157
  C  C118  1  0.112000  0.186000  0.107200  1.0  0.4996
  C  C119  1  0.088100  0.129200  0.217000  1.0  -0.0434
  C  C120  1  0.073940  0.188330  0.181190  1.0  -0.1352
  C  C121  1  0.967800  0.368600  0.213200  1.0  -0.0198
  C  C122  1  0.014300  0.309900  0.178300  1.0  -0.1272
  C  C123  1  0.025400  0.250200  0.214000  1.0  0.0588
  C  C124  1  0.970700  0.279540  0.640060  1.0  0.7665
  C  C125  1  0.631370  0.232350  0.635310  1.0  0.7639
  C  C126  1  0.904290  0.265370  0.602450  1.0  -0.1351
  C  C127  1  0.802710  0.254580  0.636400  1.0  0.0035
  C  C128  1  0.738850  0.244470  0.600430  1.0  -0.1308
  C  C129  1  0.776490  0.245580  0.531040  1.0  -0.0757
  C  C130  1  0.878600  0.253060  0.498740  1.0  0.1574
  C  C131  1  0.941950  0.263420  0.533080  1.0  -0.0783
  C  C132  1  0.966000  0.189800  0.394600  1.0  0.5177
  C  C133  1  0.905200  0.314000  0.392800  1.0  0.499
  C  C134  1  0.934300  0.370800  0.283000  1.0  -0.0441
  C  C135  1  0.943460  0.311670  0.318810  1.0  -0.134
  C  C136  1  0.049600  0.131400  0.286800  1.0  -0.0322
  C  C137  1  0.002500  0.190100  0.321700  1.0  -0.1279
  C  C138  1  0.989600  0.249800  0.286000  1.0  0.0655
  C  C139  1  0.250240  0.140060  0.720460  1.0  0.7651
  C  C140  1  0.863720  0.135310  0.767650  1.0  0.7639
  C  C141  1  0.169660  0.102450  0.734630  1.0  -0.1345
  C  C142  1  0.057290  0.136400  0.745420  1.0  0.0049
  C  C143  1  0.983320  0.100430  0.755530  1.0  -0.1309
  C  C144  1  0.022070  0.031040  0.754420  1.0  -0.0767
  C  C145  1  0.131660  0.998740  0.746940  1.0  0.1578
  C  C146  1  0.205370  0.033080  0.736580  1.0  -0.079
  C  C147  1  0.155800  0.894600  0.810200  1.0  0.5215
  C  C148  1  0.219200  0.892800  0.686000  1.0  0.5014
  C  C149  1  0.305100  0.783000  0.629200  1.0  -0.043
  C  C150  1  0.255130  0.818810  0.688330  1.0  -0.1353
  C  C151  1  0.181000  0.786800  0.868600  1.0  -0.0263
  C  C152  1  0.192600  0.821700  0.809900  1.0  -0.1262
  C  C153  1  0.239400  0.786000  0.750200  1.0  0.0605
  C  C154  1  0.610760  0.359940  0.779540  1.0  0.7661
  C  C155  1  0.266680  0.364690  0.732350  1.0  0.7639
  C  C156  1  0.506740  0.397550  0.765370  1.0  -0.1349
  C  C157  1  0.439110  0.363600  0.754580  1.0  0.0022
  C  C158  1  0.339280  0.399570  0.744470  1.0  -0.1314
  C  C159  1  0.307530  0.468960  0.745580  1.0  -0.0766
  C  C160  1  0.377340  0.501260  0.753060  1.0  0.1579
  C  C161  1  0.475030  0.466920  0.763420  1.0  -0.0792
  C  C162  1  0.360600  0.605400  0.689800  1.0  0.5169
  C  C163  1  0.298000  0.607200  0.814000  1.0  0.5041
  C  C164  1  0.217300  0.717000  0.870800  1.0  -0.0436
  C  C165  1  0.262270  0.681190  0.811670  1.0  -0.1305
  C  C166  1  0.336400  0.713200  0.631400  1.0  -0.0315
  C  C167  1  0.324200  0.678300  0.690100  1.0  -0.1286
  C  C168  1  0.275600  0.714000  0.749800  1.0  0.0602
  N  N169  1  0.906640  0.751270  0.925450  1.0  -0.2683
  N  N170  1  0.083360  0.748730  0.574550  1.0  -0.2678
  N  N171  1  0.832090  0.074550  0.251270  1.0  -0.2688
  N  N172  1  0.657910  0.425450  0.248730  1.0  -0.2695
  N  N173  1  0.093360  0.248730  0.074550  1.0  -0.2676
  N  N174  1  0.916640  0.251270  0.425450  1.0  -0.2682
  N  N175  1  0.167910  0.925450  0.748730  1.0  -0.2693
  N  N176  1  0.342090  0.574550  0.751270  1.0  -0.2694
  O  O177  1  0.578540  0.794150  0.200970  1.0  -0.8098
  O  O178  1  0.545700  0.778210  0.109990  1.0  -0.7068
  O  O179  1  0.978410  0.711270  0.194910  1.0  -0.8252
  O  O180  1  0.089480  0.741040  0.104200  1.0  -0.6895
  O  O181  1  0.956690  0.639270  0.927350  1.0  -0.4535
  O  O182  1  0.846040  0.864900  0.924020  1.0  -0.4394
  O  O183  1  0.073660  0.705850  0.299030  1.0  -0.8098
  O  O184  1  0.933900  0.721790  0.390010  1.0  -0.7041
  O  O185  1  0.384590  0.788730  0.305090  1.0  -0.8232
  O  O186  1  0.434720  0.758960  0.395800  1.0  -0.6888
  O  O187  1  0.023310  0.860730  0.572650  1.0  -0.4551
  O  O188  1  0.134960  0.635100  0.575980  1.0  -0.4402
  O  O189  1  0.779510  0.799030  0.294150  1.0  -0.8102
  O  O190  1  0.655690  0.890010  0.278210  1.0  -0.7084
  O  O191  1  0.173320  0.805090  0.211270  1.0  -0.8249
  O  O192  1  0.193680  0.895800  0.241040  1.0  -0.6889
  O  O193  1  0.884040  0.072650  0.139270  1.0  -0.4553
  O  O194  1  0.770060  0.075980  0.364900  1.0  -0.4406
  O  O195  1  0.372690  0.700970  0.205850  1.0  -0.8088
  O  O196  1  0.323910  0.609990  0.221790  1.0  -0.707
  O  O197  1  0.689680  0.694910  0.288730  1.0  -0.8227
  O  O198  1  0.830520  0.604200  0.258960  1.0  -0.6891
  O  O199  1  0.595960  0.427350  0.360730  1.0  -0.454
  O  O200  1  0.710940  0.424020  0.135100  1.0  -0.4407
  O  O201  1  0.421460  0.205850  0.799030  1.0  -0.8087
  O  O202  1  0.454300  0.221790  0.890010  1.0  -0.7054
  O  O203  1  0.021590  0.288730  0.805090  1.0  -0.8254
  O  O204  1  0.910520  0.258960  0.895800  1.0  -0.6889
  O  O205  1  0.043310  0.360730  0.072650  1.0  -0.4541
  O  O206  1  0.153960  0.135100  0.075980  1.0  -0.4391
  O  O207  1  0.926340  0.294150  0.700970  1.0  -0.811
  O  O208  1  0.066100  0.278210  0.609990  1.0  -0.7021
  O  O209  1  0.615410  0.211270  0.694910  1.0  -0.8243
  O  O210  1  0.565280  0.241040  0.604200  1.0  -0.6856
  O  O211  1  0.976690  0.139270  0.427350  1.0  -0.4531
  O  O212  1  0.865040  0.364900  0.424020  1.0  -0.4378
  O  O213  1  0.220490  0.200970  0.705850  1.0  -0.8132
  O  O214  1  0.344310  0.109990  0.721790  1.0  -0.7095
  O  O215  1  0.826680  0.194910  0.788730  1.0  -0.8263
  O  O216  1  0.806320  0.104200  0.758960  1.0  -0.6882
  O  O217  1  0.115960  0.927350  0.860730  1.0  -0.4542
  O  O218  1  0.229940  0.924020  0.635100  1.0  -0.4412
  O  O219  1  0.627310  0.299030  0.794150  1.0  -0.8065
  O  O220  1  0.676090  0.390010  0.778210  1.0  -0.7092
  O  O221  1  0.310320  0.305090  0.711270  1.0  -0.8227
  O  O222  1  0.169480  0.395800  0.741040  1.0  -0.6871
  O  O223  1  0.404040  0.572650  0.639270  1.0  -0.454
  O  O224  1  0.289060  0.575980  0.864900  1.0  -0.4403
