# generated using pymatgen
data_Zn5H26(C21O10)2
_symmetry_space_group_name_H-M   'P 1'
_cell_length_a   6.31080000
_cell_length_b   12.63900000
_cell_length_c   15.63100000
_cell_angle_alpha   95.72300000
_cell_angle_beta   99.87800000
_cell_angle_gamma   97.86000000
_symmetry_Int_Tables_number   1
_chemical_formula_structural   Zn5H26(C21O10)2
_chemical_formula_sum   'Zn5 H26 C42 O20'
_cell_volume   1207.00961806
_cell_formula_units_Z   1
loop_
 _symmetry_equiv_pos_site_id
 _symmetry_equiv_pos_as_xyz
  1  'x, y, z'
loop_
 _atom_site_type_symbol
 _atom_site_label
 _atom_site_symmetry_multiplicity
 _atom_site_fract_x
 _atom_site_fract_y
 _atom_site_fract_z
 _atom_site_occupancy
 _atom_site_charge
  Zn  Zn1  1  0.479960  0.045820  0.899450  1.0  1.1146
  Zn  Zn2  1  0.941430  0.038060  0.813730  1.0  1.0616
  Zn  Zn3  1  0.520040  0.954180  0.100550  1.0  1.1159
  Zn  Zn4  1  0.058570  0.961940  0.186270  1.0  1.0592
  Zn  Zn5  1  0.000000  0.000000  0.000000  1.0  1.0248
  H  H6  1  0.816300  0.269900  0.644200  1.0  0.1365
  H  H7  1  0.422900  0.486800  0.588800  1.0  0.1301
  H  H8  1  0.356100  0.317100  0.788200  1.0  0.1304
  H  H9  1  0.532300  0.576600  0.795800  1.0  0.1157
  H  H10  1  0.544300  0.729000  0.891900  1.0  0.1001
  H  H11  1  0.894600  0.693900  0.841900  1.0  0.0958
  H  H12  1  0.881200  0.542000  0.745100  1.0  0.1106
  H  H13  1  0.450700  0.252800  0.457700  1.0  0.1215
  H  H14  1  0.477800  0.128500  0.343900  1.0  0.1095
  H  H15  1  0.103900  0.254500  0.364500  1.0  0.0977
  H  H16  1  0.067500  0.383900  0.473300  1.0  0.1202
  H  H17  1  0.183700  0.730100  0.355800  1.0  0.1367
  H  H18  1  0.577100  0.513200  0.411200  1.0  0.1313
  H  H19  1  0.643900  0.682900  0.211800  1.0  0.1308
  H  H20  1  0.467700  0.423400  0.204200  1.0  0.1158
  H  H21  1  0.455700  0.271000  0.108100  1.0  0.1003
  H  H22  1  0.105400  0.306100  0.158100  1.0  0.0957
  H  H23  1  0.118800  0.458000  0.254900  1.0  0.1103
  H  H24  1  0.549300  0.747200  0.542300  1.0  0.1212
  H  H25  1  0.522200  0.871500  0.656100  1.0  0.1092
  H  H26  1  0.896100  0.745500  0.635500  1.0  0.0976
  H  H27  1  0.932500  0.616100  0.526700  1.0  0.1201
  H  H28  1  0.186100  0.161610  0.920320  1.0  0.3332
  H  H29  1  0.250100  0.098280  0.114240  1.0  0.2494
  H  H30  1  0.813900  0.838390  0.079680  1.0  0.335
  H  H31  1  0.749900  0.901720  0.885760  1.0  0.2499
  C  C32  1  0.669400  0.195680  0.779990  1.0  0.7124
  C  C33  1  0.597800  0.279780  0.724330  1.0  -0.0833
  C  C34  1  0.701600  0.304470  0.655880  1.0  -0.1782
  C  C35  1  0.632800  0.380640  0.605600  1.0  0.2909
  C  C36  1  0.466100  0.434280  0.622600  1.0  -0.2835
  C  C37  1  0.364900  0.408700  0.690370  1.0  0.2978
  C  C38  1  0.426300  0.332920  0.742250  1.0  -0.1573
  C  C39  1  0.206300  0.544580  0.761050  1.0  0.3222
  C  C40  1  0.403800  0.600270  0.804830  1.0  -0.2387
  C  C41  1  0.410400  0.691540  0.862340  1.0  0.0083
  C  C42  1  0.220500  0.728150  0.876720  1.0  -0.1569
  C  C43  1  0.023400  0.670750  0.832530  1.0  0.008
  C  C44  1  0.014900  0.579700  0.774760  1.0  -0.2242
  C  C45  1  0.225100  0.827230  0.936640  1.0  0.6739
  C  C46  1  0.755900  0.329480  0.475620  1.0  0.2902
  C  C47  1  0.581700  0.253700  0.437950  1.0  -0.2096
  C  C48  1  0.598800  0.178500  0.370870  1.0  0.005
  C  C49  1  0.795600  0.176650  0.342990  1.0  -0.1635
  C  C50  1  0.970800  0.254300  0.382410  1.0  0.0026
  C  C51  1  0.949900  0.331100  0.447940  1.0  -0.2201
  C  C52  1  0.817500  0.093680  0.271580  1.0  0.6919
  C  C53  1  0.330600  0.804320  0.220010  1.0  0.7113
  C  C54  1  0.402200  0.720220  0.275670  1.0  -0.0832
  C  C55  1  0.298400  0.695530  0.344120  1.0  -0.1823
  C  C56  1  0.367200  0.619360  0.394400  1.0  0.2903
  C  C57  1  0.533900  0.565720  0.377400  1.0  -0.2823
  C  C58  1  0.635100  0.591300  0.309630  1.0  0.2975
  C  C59  1  0.573700  0.667080  0.257750  1.0  -0.1571
  C  C60  1  0.793700  0.455420  0.238950  1.0  0.3223
  C  C61  1  0.596200  0.399730  0.195170  1.0  -0.2385
  C  C62  1  0.589600  0.308460  0.137660  1.0  0.0054
  C  C63  1  0.779500  0.271850  0.123280  1.0  -0.1585
  C  C64  1  0.976600  0.329250  0.167470  1.0  0.0081
  C  C65  1  0.985100  0.420300  0.225240  1.0  -0.2232
  C  C66  1  0.774900  0.172770  0.063360  1.0  0.6751
  C  C67  1  0.244100  0.670520  0.524380  1.0  0.2907
  C  C68  1  0.418300  0.746300  0.562050  1.0  -0.2089
  C  C69  1  0.401200  0.821500  0.629130  1.0  0.0053
  C  C70  1  0.204400  0.823350  0.657010  1.0  -0.1631
  C  C71  1  0.029200  0.745700  0.617590  1.0  0.0024
  C  C72  1  0.050100  0.668900  0.552060  1.0  -0.2206
  C  C73  1  0.182500  0.906320  0.728420  1.0  0.6932
  O  O74  1  0.749900  0.981240  0.892170  1.0  -0.9285
  O  O75  1  0.186100  0.082090  0.913910  1.0  -0.9202
  O  O76  1  0.579700  0.180610  0.843670  1.0  -0.6024
  O  O77  1  0.817400  0.148190  0.757340  1.0  -0.586
  O  O78  1  0.181900  0.454290  0.702660  1.0  -0.2354
  O  O79  1  0.048200  0.849410  0.952370  1.0  -0.5607
  O  O80  1  0.409000  0.885020  0.967880  1.0  -0.6464
  O  O81  1  0.739700  0.410920  0.539030  1.0  -0.2562
  O  O82  1  0.647200  0.045940  0.222780  1.0  -0.5975
  O  O83  1  0.007200  0.077900  0.265380  1.0  -0.5927
  O  O84  1  0.250100  0.018760  0.107830  1.0  -0.9271
  O  O85  1  0.813900  0.917910  0.086090  1.0  -0.9203
  O  O86  1  0.420300  0.819390  0.156330  1.0  -0.6026
  O  O87  1  0.182600  0.851810  0.242660  1.0  -0.5864
  O  O88  1  0.818100  0.545710  0.297340  1.0  -0.2357
  O  O89  1  0.951800  0.150590  0.047630  1.0  -0.5621
  O  O90  1  0.591000  0.114980  0.032120  1.0  -0.6466
  O  O91  1  0.260300  0.589080  0.460970  1.0  -0.2553
  O  O92  1  0.352800  0.954060  0.777220  1.0  -0.598
  O  O93  1  0.992800  0.922100  0.734620  1.0  -0.5923
