# generated using pymatgen
data_Zn5H26(C21O10)2
_symmetry_space_group_name_H-M   'P 1'
_cell_length_a   6.33030000
_cell_length_b   12.68190000
_cell_length_c   15.68770000
_cell_angle_alpha   95.71100000
_cell_angle_beta   99.77300000
_cell_angle_gamma   97.97300000
_symmetry_Int_Tables_number   1
_chemical_formula_structural   Zn5H26(C21O10)2
_chemical_formula_sum   'Zn5 H26 C42 O20'
_cell_volume   1219.32878291
_cell_formula_units_Z   1
loop_
 _symmetry_equiv_pos_site_id
 _symmetry_equiv_pos_as_xyz
  1  'x, y, z'
loop_
 _atom_site_type_symbol
 _atom_site_label
 _atom_site_symmetry_multiplicity
 _atom_site_fract_x
 _atom_site_fract_y
 _atom_site_fract_z
 _atom_site_occupancy
 _atom_site_charge
  Zn  Zn1  1  0.519970  0.953830  0.100460  1.0  1.0734
  Zn  Zn2  1  0.058600  0.961810  0.186120  1.0  1.0798
  Zn  Zn3  1  0.480030  0.046170  0.899540  1.0  1.0761
  Zn  Zn4  1  0.941400  0.038190  0.813880  1.0  1.0795
  Zn  Zn5  1  0.000000  0.000000  0.000000  1.0  0.8586
  H  H6  1  0.188200  0.732100  0.356500  1.0  0.1289
  H  H7  1  0.579100  0.514100  0.412000  1.0  0.1327
  H  H8  1  0.640500  0.683500  0.211300  1.0  0.1257
  H  H9  1  0.118000  0.459700  0.253100  1.0  0.1187
  H  H10  1  0.104400  0.307200  0.158300  1.0  0.0974
  H  H11  1  0.455900  0.270300  0.108300  1.0  0.1036
  H  H12  1  0.469000  0.424000  0.203700  1.0  0.1093
  H  H13  1  0.932500  0.615700  0.527800  1.0  0.1235
  H  H14  1  0.897300  0.746000  0.636100  1.0  0.0969
  H  H15  1  0.520200  0.874000  0.656100  1.0  0.1102
  H  H16  1  0.551500  0.747300  0.543200  1.0  0.117
  H  H17  1  0.711000  0.913500  0.876000  1.0  0.4231
  H  H18  1  0.813000  0.838650  0.080630  1.0  0.3418
  H  H19  1  0.811800  0.267900  0.643500  1.0  0.1292
  H  H20  1  0.420900  0.485900  0.588000  1.0  0.1314
  H  H21  1  0.359500  0.316500  0.788700  1.0  0.1252
  H  H22  1  0.882000  0.540300  0.746900  1.0  0.1196
  H  H23  1  0.895600  0.692800  0.841700  1.0  0.0973
  H  H24  1  0.544100  0.729700  0.891700  1.0  0.1037
  H  H25  1  0.531000  0.576000  0.796300  1.0  0.1085
  H  H26  1  0.067500  0.384300  0.472200  1.0  0.123
  H  H27  1  0.102700  0.254000  0.363900  1.0  0.0967
  H  H28  1  0.479800  0.126000  0.343900  1.0  0.1102
  H  H29  1  0.448500  0.252700  0.456800  1.0  0.1176
  H  H30  1  0.289000  0.086500  0.124000  1.0  0.4231
  H  H31  1  0.187000  0.161350  0.919370  1.0  0.3386
  C  C32  1  0.329800  0.803200  0.220100  1.0  0.7109
  C  C33  1  0.401900  0.720100  0.275100  1.0  -0.0796
  C  C34  1  0.300400  0.696500  0.344300  1.0  -0.1501
  C  C35  1  0.367000  0.619800  0.394800  1.0  0.2803
  C  C36  1  0.535100  0.566000  0.378100  1.0  -0.2855
  C  C37  1  0.635800  0.592100  0.309100  1.0  0.2731
  C  C38  1  0.571500  0.667700  0.257300  1.0  -0.1377
  C  C39  1  0.793900  0.456000  0.238300  1.0  0.3113
  C  C40  1  0.984700  0.421500  0.224300  1.0  -0.2257
  C  C41  1  0.976000  0.330400  0.167400  1.0  0.0033
  C  C42  1  0.778800  0.272700  0.123400  1.0  -0.1632
  C  C43  1  0.589300  0.308200  0.137400  1.0  0.003
  C  C44  1  0.597000  0.400200  0.194700  1.0  -0.2253
  C  C45  1  0.774900  0.173000  0.063600  1.0  0.6798
  C  C46  1  0.244300  0.670800  0.524600  1.0  0.2751
  C  C47  1  0.049700  0.668700  0.552600  1.0  -0.2181
  C  C48  1  0.029900  0.745900  0.618100  1.0  0.0071
  C  C49  1  0.205200  0.823000  0.657100  1.0  -0.1673
  C  C50  1  0.401000  0.823000  0.629600  1.0  0.0067
  C  C51  1  0.420300  0.746800  0.562400  1.0  -0.2306
  C  C52  1  0.185200  0.906600  0.728900  1.0  0.6908
  C  C53  1  0.670200  0.196800  0.779900  1.0  0.7109
  C  C54  1  0.598100  0.279900  0.724900  1.0  -0.0783
  C  C55  1  0.699600  0.303500  0.655700  1.0  -0.1428
  C  C56  1  0.633000  0.380200  0.605200  1.0  0.2805
  C  C57  1  0.464900  0.434000  0.621900  1.0  -0.2851
  C  C58  1  0.364200  0.407900  0.690900  1.0  0.2741
  C  C59  1  0.428500  0.332300  0.742700  1.0  -0.1382
  C  C60  1  0.206100  0.544000  0.761700  1.0  0.3104
  C  C61  1  0.015300  0.578500  0.775700  1.0  -0.2255
  C  C62  1  0.024000  0.669600  0.832600  1.0  0.0044
  C  C63  1  0.221200  0.727300  0.876600  1.0  -0.1623
  C  C64  1  0.410700  0.691800  0.862600  1.0  0.0036
  C  C65  1  0.403000  0.599800  0.805300  1.0  -0.2234
  C  C66  1  0.225100  0.827000  0.936400  1.0  0.6785
  C  C67  1  0.755700  0.329200  0.475400  1.0  0.2745
  C  C68  1  0.950300  0.331300  0.447400  1.0  -0.2185
  C  C69  1  0.970100  0.254100  0.381900  1.0  0.0069
  C  C70  1  0.794800  0.177000  0.342900  1.0  -0.1666
  C  C71  1  0.599000  0.177000  0.370400  1.0  0.0066
  C  C72  1  0.579700  0.253200  0.437600  1.0  -0.2306
  C  C73  1  0.814800  0.093400  0.271100  1.0  0.6907
  O  O74  1  0.749700  0.980400  0.892200  1.0  -0.9628
  O  O75  1  0.187000  0.082100  0.913000  1.0  -0.919
  O  O76  1  0.420100  0.818400  0.155800  1.0  -0.6043
  O  O77  1  0.181600  0.851500  0.243000  1.0  -0.5861
  O  O78  1  0.819100  0.546200  0.297400  1.0  -0.2372
  O  O79  1  0.952800  0.151200  0.047900  1.0  -0.5611
  O  O80  1  0.591100  0.115200  0.032500  1.0  -0.6472
  O  O81  1  0.261400  0.589000  0.461100  1.0  -0.2556
  O  O82  1  0.354000  0.954800  0.776900  1.0  -0.5943
  O  O83  1  0.992000  0.922300  0.734300  1.0  -0.6061
  O  O84  1  0.250300  0.019600  0.107800  1.0  -0.9624
  O  O85  1  0.813000  0.917900  0.087000  1.0  -0.9203
  O  O86  1  0.579900  0.181600  0.844200  1.0  -0.6031
  O  O87  1  0.818400  0.148500  0.757000  1.0  -0.5866
  O  O88  1  0.180900  0.453800  0.702600  1.0  -0.2367
  O  O89  1  0.047200  0.848800  0.952100  1.0  -0.5614
  O  O90  1  0.408900  0.884800  0.967500  1.0  -0.6473
  O  O91  1  0.738600  0.411000  0.538900  1.0  -0.2562
  O  O92  1  0.646000  0.045200  0.223100  1.0  -0.5937
  O  O93  1  0.008000  0.077700  0.265700  1.0  -0.6067
