# generated using pymatgen
data_LiVH6C18O13
_symmetry_space_group_name_H-M   'P 1'
_cell_length_a   18.07900000
_cell_length_b   16.43500000
_cell_length_c   11.60300000
_cell_angle_alpha   90.00000000
_cell_angle_beta   90.00000000
_cell_angle_gamma   90.00000000
_symmetry_Int_Tables_number   1
_chemical_formula_structural   LiVH6C18O13
_chemical_formula_sum   'Li4 V4 H24 C72 O52'
_cell_volume   3447.58041909
_cell_formula_units_Z   4
loop_
 _symmetry_equiv_pos_site_id
 _symmetry_equiv_pos_as_xyz
  1  'x, y, z'
loop_
 _atom_site_type_symbol
 _atom_site_label
 _atom_site_symmetry_multiplicity
 _atom_site_fract_x
 _atom_site_fract_y
 _atom_site_fract_z
 _atom_site_occupancy
 _atom_site_charge
  Li  Li1  1  0.226200  0.102600  0.860600  1.0  0.9943
  Li  Li2  1  0.773800  0.897400  0.360600  1.0  0.989
  Li  Li3  1  0.726200  0.397400  0.860600  1.0  0.9938
  Li  Li4  1  0.273800  0.602600  0.360600  1.0  0.9934
  V  V5  1  0.302640  0.087120  0.628000  1.0  2.0868
  V  V6  1  0.697360  0.912880  0.128000  1.0  2.0881
  V  V7  1  0.802640  0.412880  0.628000  1.0  2.0875
  V  V8  1  0.197360  0.587120  0.128000  1.0  2.0876
  H  H9  1  0.258900  0.055300  0.224100  1.0  0.121
  H  H10  1  0.195100  0.843200  0.085300  1.0  0.1184
  H  H11  1  0.268300  0.850500  0.411200  1.0  0.1179
  H  H12  1  0.444700  0.194800  0.435100  1.0  0.1169
  H  H13  1  0.556500  0.251600  0.723400  1.0  0.1213
  H  H14  1  0.601400  0.368400  0.428100  1.0  0.1181
  H  H15  1  0.741100  0.944700  0.724100  1.0  0.121
  H  H16  1  0.804900  0.156800  0.585300  1.0  0.1178
  H  H17  1  0.731700  0.149500  0.911200  1.0  0.1177
  H  H18  1  0.555300  0.805200  0.935100  1.0  0.1168
  H  H19  1  0.443500  0.748400  0.223400  1.0  0.1218
  H  H20  1  0.398600  0.631600  0.928100  1.0  0.1183
  H  H21  1  0.758900  0.444700  0.224100  1.0  0.1209
  H  H22  1  0.695100  0.656800  0.085300  1.0  0.1182
  H  H23  1  0.768300  0.649500  0.411200  1.0  0.1175
  H  H24  1  0.944700  0.305200  0.435100  1.0  0.1169
  H  H25  1  0.056500  0.248400  0.723400  1.0  0.1211
  H  H26  1  0.101400  0.131600  0.428100  1.0  0.1182
  H  H27  1  0.241100  0.555300  0.724100  1.0  0.1208
  H  H28  1  0.304900  0.343200  0.585300  1.0  0.118
  H  H29  1  0.231700  0.350500  0.911200  1.0  0.118
  H  H30  1  0.055300  0.694800  0.935100  1.0  0.1169
  H  H31  1  0.943500  0.751600  0.223400  1.0  0.122
  H  H32  1  0.898600  0.868400  0.928100  1.0  0.1184
  C  C33  1  0.292800  0.012100  0.433800  1.0  0.6582
  C  C34  1  0.267200  0.959900  0.334000  1.0  -0.1297
  C  C35  1  0.251300  0.999500  0.230500  1.0  0.0498
  C  C36  1  0.224000  0.955700  0.136400  1.0  -0.1521
  C  C37  1  0.213100  0.872700  0.147700  1.0  0.053
  C  C38  1  0.228400  0.832400  0.250500  1.0  -0.1482
  C  C39  1  0.256600  0.877000  0.342800  1.0  0.0328
  C  C40  1  0.211400  0.998100  0.021800  1.0  0.6713
  C  C41  1  0.480500  0.225600  0.472600  1.0  0.0397
  C  C42  1  0.647200  0.365500  0.647500  1.0  0.7242
  C  C43  1  0.548100  0.259400  0.645100  1.0  0.0344
  C  C44  1  0.451800  0.150600  0.657800  1.0  0.7096
  C  C45  1  0.217500  0.742500  0.260800  1.0  0.6973
  C  C46  1  0.519600  0.285300  0.412200  1.0  -0.1222
  C  C47  1  0.495100  0.212300  0.588700  1.0  -0.1338
  C  C48  1  0.505100  0.299600  0.283600  1.0  0.6919
  C  C49  1  0.588200  0.317400  0.586100  1.0  -0.118
  C  C50  1  0.574100  0.329900  0.468700  1.0  0.0435
  C  C51  1  0.707200  0.987900  0.933800  1.0  0.6585
  C  C52  1  0.732800  0.040100  0.834000  1.0  -0.1289
  C  C53  1  0.748700  0.000500  0.730500  1.0  0.0522
  C  C54  1  0.776000  0.044300  0.636400  1.0  -0.1526
  C  C55  1  0.786900  0.127300  0.647700  1.0  0.0532
  C  C56  1  0.771600  0.167600  0.750500  1.0  -0.1488
  C  C57  1  0.743400  0.123000  0.842800  1.0  0.0319
  C  C58  1  0.788600  0.001900  0.521800  1.0  0.6715
  C  C59  1  0.519500  0.774400  0.972600  1.0  0.0404
  C  C60  1  0.352800  0.634500  0.147500  1.0  0.7262
  C  C61  1  0.451900  0.740600  0.145100  1.0  0.0338
  C  C62  1  0.548200  0.849400  0.157800  1.0  0.7054
  C  C63  1  0.782500  0.257500  0.760800  1.0  0.6962
  C  C64  1  0.480400  0.714700  0.912200  1.0  -0.1227
  C  C65  1  0.504900  0.787700  0.088700  1.0  -0.1328
  C  C66  1  0.494900  0.700400  0.783600  1.0  0.691
  C  C67  1  0.411800  0.682600  0.086100  1.0  -0.1187
  C  C68  1  0.425900  0.670100  0.968700  1.0  0.0418
  C  C69  1  0.792800  0.487900  0.433800  1.0  0.6586
  C  C70  1  0.767200  0.540100  0.334000  1.0  -0.1291
  C  C71  1  0.751300  0.500500  0.230500  1.0  0.0518
  C  C72  1  0.724000  0.544300  0.136400  1.0  -0.1529
  C  C73  1  0.713100  0.627300  0.147700  1.0  0.0531
  C  C74  1  0.728400  0.667600  0.250500  1.0  -0.1481
  C  C75  1  0.756600  0.623000  0.342800  1.0  0.0324
  C  C76  1  0.711400  0.501900  0.021800  1.0  0.6716
  C  C77  1  0.980500  0.274400  0.472600  1.0  0.0395
  C  C78  1  0.147200  0.134500  0.647500  1.0  0.7242
  C  C79  1  0.048100  0.240600  0.645100  1.0  0.0346
  C  C80  1  0.951800  0.349400  0.657800  1.0  0.7077
  C  C81  1  0.717500  0.757500  0.260800  1.0  0.6969
  C  C82  1  0.019600  0.214700  0.412200  1.0  -0.1229
  C  C83  1  0.995100  0.287700  0.588700  1.0  -0.1335
  C  C84  1  0.005100  0.200400  0.283600  1.0  0.6915
  C  C85  1  0.088200  0.182600  0.586100  1.0  -0.1183
  C  C86  1  0.074100  0.170100  0.468700  1.0  0.0428
  C  C87  1  0.207200  0.512100  0.933800  1.0  0.6578
  C  C88  1  0.232800  0.459900  0.834000  1.0  -0.1293
  C  C89  1  0.248700  0.499500  0.730500  1.0  0.0504
  C  C90  1  0.276000  0.455700  0.636400  1.0  -0.1519
  C  C91  1  0.286900  0.372700  0.647700  1.0  0.0532
  C  C92  1  0.271600  0.332400  0.750500  1.0  -0.1491
  C  C93  1  0.243400  0.377000  0.842800  1.0  0.0323
  C  C94  1  0.288600  0.498100  0.521800  1.0  0.6713
  C  C95  1  0.019500  0.725600  0.972600  1.0  0.0403
  C  C96  1  0.852800  0.865500  0.147500  1.0  0.7258
  C  C97  1  0.951900  0.759400  0.145100  1.0  0.0337
  C  C98  1  0.048200  0.650600  0.157800  1.0  0.7073
  C  C99  1  0.282500  0.242500  0.760800  1.0  0.6963
  C  C100  1  0.980400  0.785300  0.912200  1.0  -0.122
  C  C101  1  0.004900  0.712300  0.088700  1.0  -0.1331
  C  C102  1  0.994900  0.799600  0.783600  1.0  0.6915
  C  C103  1  0.911800  0.817400  0.086100  1.0  -0.1177
  C  C104  1  0.925900  0.829900  0.968700  1.0  0.0424
  O  O105  1  0.303800  0.085900  0.420900  1.0  -0.6335
  O  O106  1  0.300150  0.979370  0.532600  1.0  -0.561
  O  O107  1  0.300070  0.044150  0.751600  1.0  -0.7182
  O  O108  1  0.201760  0.705370  0.166500  1.0  -0.6182
  O  O109  1  0.408650  0.104130  0.598500  1.0  -0.6027
  O  O110  1  0.221400  0.073700  0.019400  1.0  -0.5704
  O  O111  1  0.191200  0.955700  0.940200  1.0  -0.5319
  O  O112  1  0.462200  0.144600  0.761700  1.0  -0.4657
  O  O113  1  0.224700  0.709900  0.356600  1.0  -0.5568
  O  O114  1  0.645800  0.368000  0.754500  1.0  -0.5806
  O  O115  1  0.696380  0.399300  0.585600  1.0  -0.5915
  O  O116  1  0.532100  0.362100  0.240900  1.0  -0.4778
  O  O117  1  0.468100  0.248600  0.231500  1.0  -0.4801
  O  O118  1  0.696200  0.914100  0.920900  1.0  -0.6358
  O  O119  1  0.699850  0.020630  0.032600  1.0  -0.5613
  O  O120  1  0.699930  0.955850  0.251600  1.0  -0.7182
  O  O121  1  0.798240  0.294630  0.666500  1.0  -0.6175
  O  O122  1  0.591350  0.895870  0.098500  1.0  -0.6075
  O  O123  1  0.778600  0.926300  0.519400  1.0  -0.5703
  O  O124  1  0.808800  0.044300  0.440200  1.0  -0.5321
  O  O125  1  0.537800  0.855400  0.261700  1.0  -0.4688
  O  O126  1  0.775300  0.290100  0.856600  1.0  -0.5561
  O  O127  1  0.354200  0.632000  0.254500  1.0  -0.58
  O  O128  1  0.303620  0.600700  0.085600  1.0  -0.5909
  O  O129  1  0.467900  0.637900  0.740900  1.0  -0.4788
  O  O130  1  0.531900  0.751400  0.731500  1.0  -0.4791
  O  O131  1  0.803800  0.414100  0.420900  1.0  -0.6363
  O  O132  1  0.800150  0.520630  0.532600  1.0  -0.5609
  O  O133  1  0.800070  0.455850  0.751600  1.0  -0.7187
  O  O134  1  0.701760  0.794630  0.166500  1.0  -0.6185
  O  O135  1  0.908650  0.395870  0.598500  1.0  -0.6054
  O  O136  1  0.721400  0.426300  0.019400  1.0  -0.5703
  O  O137  1  0.691200  0.544300  0.940200  1.0  -0.5329
  O  O138  1  0.962200  0.355400  0.761700  1.0  -0.4664
  O  O139  1  0.724700  0.790100  0.356600  1.0  -0.5575
  O  O140  1  0.145800  0.132000  0.754500  1.0  -0.5803
  O  O141  1  0.196380  0.100700  0.585600  1.0  -0.5911
  O  O142  1  0.032100  0.137900  0.240900  1.0  -0.4778
  O  O143  1  0.968100  0.251400  0.231500  1.0  -0.4795
  O  O144  1  0.196200  0.585900  0.920900  1.0  -0.6349
  O  O145  1  0.199850  0.479370  0.032600  1.0  -0.5615
  O  O146  1  0.199930  0.544150  0.251600  1.0  -0.7186
  O  O147  1  0.298240  0.205370  0.666500  1.0  -0.6175
  O  O148  1  0.091350  0.604130  0.098500  1.0  -0.605
  O  O149  1  0.278600  0.573700  0.519400  1.0  -0.5705
  O  O150  1  0.308800  0.455700  0.440200  1.0  -0.5317
  O  O151  1  0.037800  0.644600  0.261700  1.0  -0.468
  O  O152  1  0.275300  0.209900  0.856600  1.0  -0.5558
  O  O153  1  0.854200  0.868000  0.254500  1.0  -0.5803
  O  O154  1  0.803620  0.899300  0.085600  1.0  -0.5909
  O  O155  1  0.967900  0.862100  0.740900  1.0  -0.4782
  O  O156  1  0.031900  0.748600  0.731500  1.0  -0.4798
