# generated using pymatgen
data_V2P2H4C4O11
_symmetry_space_group_name_H-M   'P 1'
_cell_length_a   7.04650000
_cell_length_b   15.64600000
_cell_length_c   17.39600000
_cell_angle_alpha   90.00000000
_cell_angle_beta   90.00000000
_cell_angle_gamma   90.00000000
_symmetry_Int_Tables_number   1
_chemical_formula_structural   V2P2H4C4O11
_chemical_formula_sum   'V8 P8 H16 C16 O44'
_cell_volume   1917.90098044
_cell_formula_units_Z   4
loop_
 _symmetry_equiv_pos_site_id
 _symmetry_equiv_pos_as_xyz
  1  'x, y, z'
loop_
 _atom_site_type_symbol
 _atom_site_label
 _atom_site_symmetry_multiplicity
 _atom_site_fract_x
 _atom_site_fract_y
 _atom_site_fract_z
 _atom_site_occupancy
 _atom_site_charge
  V  V1  1  0.246900  0.250000  0.250000  1.0  1.3208
  V  V2  1  0.253100  0.750000  0.250000  1.0  1.3209
  V  V3  1  0.753100  0.750000  0.750000  1.0  1.3209
  V  V4  1  0.746900  0.250000  0.750000  1.0  1.3208
  V  V5  1  0.500000  0.000000  0.500000  1.0  1.906
  V  V6  1  0.000000  0.000000  0.500000  1.0  1.906
  V  V7  1  0.000000  0.500000  0.000000  1.0  1.906
  V  V8  1  0.500000  0.500000  0.000000  1.0  1.906
  P  P9  1  0.253300  0.133220  0.400570  1.0  1.6299
  P  P10  1  0.246700  0.866780  0.400570  1.0  1.6292
  P  P11  1  0.246700  0.633220  0.099430  1.0  1.6295
  P  P12  1  0.253300  0.366780  0.099430  1.0  1.6283
  P  P13  1  0.746700  0.866780  0.599430  1.0  1.6286
  P  P14  1  0.753300  0.133220  0.599430  1.0  1.6293
  P  P15  1  0.753300  0.366780  0.900570  1.0  1.6287
  P  P16  1  0.746700  0.633220  0.900570  1.0  1.6302
  H  H17  1  0.046800  0.242400  0.427500  1.0  0.1621
  H  H18  1  0.188300  0.230200  0.495800  1.0  0.1543
  H  H19  1  0.453200  0.757600  0.427500  1.0  0.1629
  H  H20  1  0.311700  0.769800  0.495800  1.0  0.1545
  H  H21  1  0.453200  0.742400  0.072500  1.0  0.1632
  H  H22  1  0.311700  0.730200  0.004200  1.0  0.154
  H  H23  1  0.046800  0.257600  0.072500  1.0  0.1627
  H  H24  1  0.188300  0.269800  0.004200  1.0  0.1542
  H  H25  1  0.953200  0.757600  0.572500  1.0  0.1633
  H  H26  1  0.811700  0.769800  0.504200  1.0  0.1545
  H  H27  1  0.546800  0.242400  0.572500  1.0  0.1623
  H  H28  1  0.688300  0.230200  0.504200  1.0  0.1542
  H  H29  1  0.546800  0.257600  0.927500  1.0  0.1623
  H  H30  1  0.688300  0.269800  0.995800  1.0  0.155
  H  H31  1  0.953200  0.742400  0.927500  1.0  0.1633
  H  H32  1  0.811700  0.730200  0.995800  1.0  0.1543
  C  C33  1  0.289000  0.311600  0.414300  1.0  0.7132
  C  C34  1  0.179400  0.233800  0.440300  1.0  -0.4799
  C  C35  1  0.211000  0.688400  0.414300  1.0  0.7112
  C  C36  1  0.320600  0.766200  0.440300  1.0  -0.4798
  C  C37  1  0.211000  0.811600  0.085700  1.0  0.7133
  C  C38  1  0.320600  0.733800  0.059700  1.0  -0.479
  C  C39  1  0.289000  0.188400  0.085700  1.0  0.713
  C  C40  1  0.179400  0.266200  0.059700  1.0  -0.4788
  C  C41  1  0.711000  0.688400  0.585700  1.0  0.7123
  C  C42  1  0.820600  0.766200  0.559700  1.0  -0.4795
  C  C43  1  0.789000  0.311600  0.585700  1.0  0.7138
  C  C44  1  0.679400  0.233800  0.559700  1.0  -0.478
  C  C45  1  0.789000  0.188400  0.914300  1.0  0.7116
  C  C46  1  0.679400  0.266200  0.940300  1.0  -0.48
  C  C47  1  0.711000  0.811600  0.914300  1.0  0.7127
  C  C48  1  0.820600  0.733800  0.940300  1.0  -0.4798
  O  O49  1  0.292400  0.146300  0.315100  1.0  -0.7661
  O  O50  1  0.434300  0.104300  0.441700  1.0  -0.7806
  O  O51  1  0.090200  0.071100  0.412600  1.0  -0.8072
  O  O52  1  0.359400  0.359900  0.460800  1.0  -0.4602
  O  O53  1  0.299100  0.324900  0.341700  1.0  -0.6247
  O  O54  1  0.207600  0.853700  0.315100  1.0  -0.7666
  O  O55  1  0.065700  0.895700  0.441700  1.0  -0.7804
  O  O56  1  0.409800  0.928900  0.412600  1.0  -0.806
  O  O57  1  0.140600  0.640100  0.460800  1.0  -0.4571
  O  O58  1  0.200900  0.675100  0.341700  1.0  -0.6236
  O  O59  1  0.207600  0.646300  0.184900  1.0  -0.7661
  O  O60  1  0.065700  0.604300  0.058300  1.0  -0.7804
  O  O61  1  0.409800  0.571100  0.087400  1.0  -0.8063
  O  O62  1  0.140600  0.859900  0.039200  1.0  -0.4616
  O  O63  1  0.200900  0.824900  0.158300  1.0  -0.6222
  O  O64  1  0.292400  0.353700  0.184900  1.0  -0.7644
  O  O65  1  0.434300  0.395700  0.058300  1.0  -0.7804
  O  O66  1  0.090200  0.428900  0.087400  1.0  -0.8075
  O  O67  1  0.359400  0.140100  0.039200  1.0  -0.4593
  O  O68  1  0.299100  0.175100  0.158300  1.0  -0.6237
  O  O69  1  0.707600  0.853700  0.684900  1.0  -0.7654
  O  O70  1  0.565700  0.895700  0.558300  1.0  -0.7802
  O  O71  1  0.909800  0.928900  0.587400  1.0  -0.8056
  O  O72  1  0.640600  0.640100  0.539200  1.0  -0.459
  O  O73  1  0.700900  0.675100  0.658300  1.0  -0.6233
  O  O74  1  0.792400  0.146300  0.684900  1.0  -0.765
  O  O75  1  0.934300  0.104300  0.558300  1.0  -0.7806
  O  O76  1  0.590200  0.071100  0.587400  1.0  -0.8075
  O  O77  1  0.859400  0.359900  0.539200  1.0  -0.462
  O  O78  1  0.799100  0.324900  0.658300  1.0  -0.6223
  O  O79  1  0.792400  0.353700  0.815100  1.0  -0.7666
  O  O80  1  0.934300  0.395700  0.941700  1.0  -0.7805
  O  O81  1  0.590200  0.428900  0.912600  1.0  -0.8065
  O  O82  1  0.859400  0.140100  0.960800  1.0  -0.4573
  O  O83  1  0.799100  0.175100  0.841700  1.0  -0.6244
  O  O84  1  0.707600  0.646300  0.815100  1.0  -0.7664
  O  O85  1  0.565700  0.604300  0.941700  1.0  -0.7804
  O  O86  1  0.909800  0.571100  0.912600  1.0  -0.8069
  O  O87  1  0.640600  0.859900  0.960800  1.0  -0.4588
  O  O88  1  0.700900  0.824900  0.841700  1.0  -0.6243
  O  O89  1  0.750000  0.000000  0.458200  1.0  -0.7139
  O  O90  1  0.750000  0.500000  0.041800  1.0  -0.7146
  O  O91  1  0.250000  0.000000  0.541800  1.0  -0.7146
  O  O92  1  0.250000  0.500000  0.958200  1.0  -0.7139
