# generated using pymatgen
data_MgH8C12(NO2)2
_symmetry_space_group_name_H-M   'P 1'
_cell_length_a   9.84600000
_cell_length_b   10.99750000
_cell_length_c   12.84150000
_cell_angle_alpha   90.00000000
_cell_angle_beta   90.00000000
_cell_angle_gamma   99.39000000
_symmetry_Int_Tables_number   1
_chemical_formula_structural   MgH8C12(NO2)2
_chemical_formula_sum   'Mg4 H32 C48 N8 O16'
_cell_volume   1371.86367412
_cell_formula_units_Z   4
loop_
 _symmetry_equiv_pos_site_id
 _symmetry_equiv_pos_as_xyz
  1  'x, y, z'
loop_
 _atom_site_type_symbol
 _atom_site_label
 _atom_site_symmetry_multiplicity
 _atom_site_fract_x
 _atom_site_fract_y
 _atom_site_fract_z
 _atom_site_occupancy
 _atom_site_charge
  Mg  Mg1  1  0.124100  0.752100  0.057900  1.0  1.4578
  Mg  Mg2  1  0.372400  0.250960  0.557300  1.0  1.4352
  Mg  Mg3  1  0.627600  0.749040  0.057300  1.0  1.4362
  Mg  Mg4  1  0.875900  0.247900  0.557900  1.0  1.4571
  H  H5  1  0.101400  0.013500  0.279300  1.0  0.0979
  H  H6  1  0.649400  0.476800  0.117300  1.0  0.0716
  H  H7  1  0.620700  0.752700  0.302300  1.0  0.058
  H  H8  1  0.393000  0.133400  0.168200  1.0  0.1128
  H  H9  1  0.333000  0.648000  0.756700  1.0  0.1001
  H  H10  1  0.051400  0.494600  0.885500  1.0  0.108
  H  H11  1  0.386900  0.257500  0.310500  1.0  0.0567
  H  H12  1  0.618300  0.021100  0.996000  1.0  0.0626
  H  H13  1  0.086200  0.137600  0.419500  1.0  0.055
  H  H14  1  0.654700  0.498300  0.827300  1.0  0.0886
  H  H15  1  0.379300  0.247300  0.802300  1.0  0.058
  H  H16  1  0.607000  0.866600  0.668200  1.0  0.1127
  H  H17  1  0.381000  0.370900  0.944800  1.0  0.1142
  H  H18  1  0.913800  0.862400  0.919500  1.0  0.0551
  H  H19  1  0.305800  0.879400  0.878700  1.0  0.0539
  H  H20  1  0.898600  0.986500  0.779300  1.0  0.0975
  H  H21  1  0.619000  0.629100  0.444800  1.0  0.1142
  H  H22  1  0.613100  0.742500  0.810500  1.0  0.0572
  H  H23  1  0.305100  0.007100  0.738600  1.0  0.106
  H  H24  1  0.694900  0.992900  0.238600  1.0  0.106
  H  H25  1  0.694200  0.120600  0.378700  1.0  0.0536
  H  H26  1  0.948600  0.505400  0.385500  1.0  0.1077
  H  H27  1  0.345300  0.501700  0.327300  1.0  0.0888
  H  H28  1  0.667800  0.366400  0.690700  1.0  0.0558
  H  H29  1  0.945100  0.635200  0.247000  1.0  0.0485
  H  H30  1  0.054900  0.364800  0.747000  1.0  0.0488
  H  H31  1  0.394900  0.848200  0.360000  1.0  0.1115
  H  H32  1  0.667000  0.352000  0.256700  1.0  0.0997
  H  H33  1  0.381700  0.978900  0.496000  1.0  0.0628
  H  H34  1  0.332200  0.633600  0.190700  1.0  0.0559
  H  H35  1  0.350600  0.523200  0.617300  1.0  0.0712
  H  H36  1  0.605100  0.151800  0.860000  1.0  0.1114
  C  C37  1  0.983600  0.967700  0.799200  1.0  -0.1585
  C  C38  1  0.973400  0.393800  0.761800  1.0  0.172
  C  C39  1  0.776100  0.020200  0.274700  1.0  -0.1712
  C  C40  1  0.252800  0.605300  0.228500  1.0  0.1695
  C  C41  1  0.354200  0.523000  0.868700  1.0  0.0284
  C  C42  1  0.627700  0.670200  0.292200  1.0  0.1623
  C  C43  1  0.903500  0.897700  0.154200  1.0  0.6925
  C  C44  1  0.392200  0.931000  0.347400  1.0  -0.2039
  C  C45  1  0.647000  0.509400  0.184000  1.0  0.1639
  C  C46  1  0.153900  0.397700  0.461000  1.0  0.6691
  C  C47  1  0.387800  0.174000  0.320800  1.0  0.1592
  C  C48  1  0.608100  0.900200  0.734700  1.0  -0.2037
  C  C49  1  0.391900  0.099800  0.234700  1.0  -0.2034
  C  C50  1  0.607800  0.069000  0.847400  1.0  -0.2056
  C  C51  1  0.385800  0.010700  0.428800  1.0  0.1609
  C  C52  1  0.344800  0.566800  0.767600  1.0  -0.1566
  C  C53  1  0.394500  0.974700  0.247300  1.0  -0.0072
  C  C54  1  0.353000  0.490600  0.684000  1.0  0.1648
  C  C55  1  0.614200  0.989300  0.928800  1.0  0.1608
  C  C56  1  0.612200  0.826000  0.820800  1.0  0.1584
  C  C57  1  0.370700  0.403300  0.879000  1.0  -0.2144
  C  C58  1  0.222900  0.902600  0.858700  1.0  0.1751
  C  C59  1  0.629300  0.596700  0.379000  1.0  -0.2173
  C  C60  1  0.006600  0.107700  0.382400  1.0  0.1769
  C  C61  1  0.096500  0.102300  0.654200  1.0  0.6925
  C  C62  1  0.972100  0.470600  0.846400  1.0  -0.1581
  C  C63  1  0.898000  0.983900  0.244700  1.0  -0.0748
  C  C64  1  0.993400  0.892300  0.882400  1.0  0.1769
  C  C65  1  0.655200  0.433200  0.267600  1.0  -0.1575
  C  C66  1  0.737800  0.472500  0.812000  1.0  -0.1554
  C  C67  1  0.777100  0.097400  0.358700  1.0  0.177
  C  C68  1  0.262200  0.527500  0.312000  1.0  -0.1591
  C  C69  1  0.027900  0.529400  0.346400  1.0  -0.1579
  C  C70  1  0.026600  0.606200  0.261800  1.0  0.1721
  C  C71  1  0.597200  0.108400  0.654200  1.0  0.6656
  C  C72  1  0.605500  0.025300  0.747300  1.0  -0.0051
  C  C73  1  0.102000  0.016100  0.744700  1.0  -0.0752
  C  C74  1  0.016400  0.032300  0.299200  1.0  -0.1586
  C  C75  1  0.223900  0.979800  0.774700  1.0  -0.1713
  C  C76  1  0.372300  0.329800  0.792200  1.0  0.1649
  C  C77  1  0.148500  0.488800  0.372000  1.0  -0.0958
  C  C78  1  0.846100  0.602300  0.961000  1.0  0.6699
  C  C79  1  0.652400  0.392600  0.460500  1.0  0.6787
  C  C80  1  0.747200  0.394700  0.728500  1.0  0.1709
  C  C81  1  0.402800  0.891600  0.154200  1.0  0.6663
  C  C82  1  0.851500  0.511200  0.872000  1.0  -0.0962
  C  C83  1  0.645800  0.477000  0.368700  1.0  0.0285
  C  C84  1  0.347600  0.607400  0.960500  1.0  0.6807
  N  N85  1  0.135300  0.641900  0.199400  1.0  -0.3786
  N  N86  1  0.111700  0.859300  0.913100  1.0  -0.3697
  N  N87  1  0.888300  0.140700  0.413100  1.0  -0.3736
  N  N88  1  0.864700  0.358100  0.699400  1.0  -0.3779
  N  N89  1  0.385100  0.132100  0.417200  1.0  -0.3634
  N  N90  1  0.364300  0.370000  0.694300  1.0  -0.3539
  N  N91  1  0.635700  0.630000  0.194300  1.0  -0.353
  N  N92  1  0.614900  0.867900  0.917200  1.0  -0.3634
  O  O93  1  0.513800  0.853900  0.146000  1.0  -0.629
  O  O94  1  0.950600  0.630500  0.013700  1.0  -0.66
  O  O95  1  0.764800  0.357100  0.474600  1.0  -0.6457
  O  O96  1  0.203900  0.131800  0.601400  1.0  -0.68
  O  O97  1  0.796100  0.868200  0.101400  1.0  -0.6754
  O  O98  1  0.049400  0.369500  0.513700  1.0  -0.6542
  O  O99  1  0.015400  0.865200  0.137900  1.0  -0.6469
  O  O100  1  0.546800  0.367800  0.512900  1.0  -0.6578
  O  O101  1  0.733800  0.642100  0.970500  1.0  -0.6576
  O  O102  1  0.984600  0.134800  0.637900  1.0  -0.6503
  O  O103  1  0.303300  0.872400  0.094100  1.0  -0.6253
  O  O104  1  0.453200  0.632200  0.012900  1.0  -0.6579
  O  O105  1  0.486200  0.146100  0.646000  1.0  -0.6318
  O  O106  1  0.235200  0.642900  0.974600  1.0  -0.6473
  O  O107  1  0.266200  0.357900  0.470500  1.0  -0.6592
  O  O108  1  0.696700  0.127600  0.594100  1.0  -0.627
