# generated using pymatgen
data_MgH8C12(NO2)2
_symmetry_space_group_name_H-M   'P 1'
_cell_length_a   9.88360000
_cell_length_b   10.98170000
_cell_length_c   12.86810000
_cell_angle_alpha   90.00000000
_cell_angle_beta   90.00000000
_cell_angle_gamma   99.38400000
_symmetry_Int_Tables_number   1
_chemical_formula_structural   MgH8C12(NO2)2
_chemical_formula_sum   'Mg4 H32 C48 N8 O16'
_cell_volume   1377.99639068
_cell_formula_units_Z   4
loop_
 _symmetry_equiv_pos_site_id
 _symmetry_equiv_pos_as_xyz
  1  'x, y, z'
loop_
 _atom_site_type_symbol
 _atom_site_label
 _atom_site_symmetry_multiplicity
 _atom_site_fract_x
 _atom_site_fract_y
 _atom_site_fract_z
 _atom_site_occupancy
 _atom_site_charge
  Mg  Mg1  1  0.627900  0.749700  0.765100  1.0  1.4396
  Mg  Mg2  1  0.125000  0.752600  0.764300  1.0  1.4539
  Mg  Mg3  1  0.372100  0.250300  0.265100  1.0  1.4377
  Mg  Mg4  1  0.875000  0.247400  0.264300  1.0  1.4537
  H  H5  1  0.099500  0.011500  0.538800  1.0  0.0922
  H  H6  1  0.086500  0.138600  0.399900  1.0  0.0642
  H  H7  1  0.693400  0.997100  0.582100  1.0  0.1135
  H  H8  1  0.694800  0.123600  0.441800  1.0  0.0578
  H  H9  1  0.050400  0.496100  0.933700  1.0  0.1112
  H  H10  1  0.053400  0.363500  0.072200  1.0  0.0569
  H  H11  1  0.653600  0.498200  0.992600  1.0  0.0948
  H  H12  1  0.666667  0.365200  0.128100  1.0  0.0677
  H  H13  1  0.383900  0.373600  0.875700  1.0  0.1169
  H  H14  1  0.376600  0.246600  0.018100  1.0  0.0618
  H  H15  1  0.333100  0.648800  0.064800  1.0  0.1162
  H  H16  1  0.350500  0.524400  0.201300  1.0  0.0861
  H  H17  1  0.392900  0.847600  0.461100  1.0  0.1177
  H  H18  1  0.381500  0.980500  0.322600  1.0  0.071
  H  H19  1  0.398200  0.135100  0.650600  1.0  0.1115
  H  H20  1  0.384500  0.257900  0.507300  1.0  0.0662
  H  H21  1  0.900500  0.988500  0.038800  1.0  0.0921
  H  H22  1  0.913500  0.861400  0.899900  1.0  0.0642
  H  H23  1  0.306600  0.002900  0.082100  1.0  0.1143
  H  H24  1  0.305200  0.876400  0.941800  1.0  0.0581
  H  H25  1  0.949600  0.503900  0.433700  1.0  0.1111
  H  H26  1  0.946600  0.636500  0.572200  1.0  0.0573
  H  H27  1  0.346400  0.501800  0.492600  1.0  0.0949
  H  H28  1  0.333333  0.634800  0.628100  1.0  0.068
  H  H29  1  0.616100  0.626400  0.375700  1.0  0.1168
  H  H30  1  0.623400  0.753400  0.518100  1.0  0.0622
  H  H31  1  0.666900  0.351200  0.564800  1.0  0.1161
  H  H32  1  0.649500  0.475600  0.701300  1.0  0.0867
  H  H33  1  0.607100  0.152400  0.961100  1.0  0.117
  H  H34  1  0.618500  0.019500  0.822600  1.0  0.0709
  H  H35  1  0.601800  0.864900  0.150600  1.0  0.1114
  H  H36  1  0.615500  0.742100  0.007300  1.0  0.0666
  C  C37  1  0.903500  0.899000  0.666100  1.0  0.7196
  C  C38  1  0.895700  0.984100  0.576400  1.0  -0.0535
  C  C39  1  0.015300  0.031800  0.519600  1.0  -0.1373
  C  C40  1  0.006900  0.107900  0.436200  1.0  0.1695
  C  C41  1  0.774500  0.022600  0.545900  1.0  -0.1663
  C  C42  1  0.776700  0.098800  0.461300  1.0  0.177
  C  C43  1  0.847100  0.602900  0.859000  1.0  0.7104
  C  C44  1  0.849100  0.512100  0.947900  1.0  -0.0623
  C  C45  1  0.971400  0.471400  0.972600  1.0  -0.146
  C  C46  1  0.972200  0.392500  0.057400  1.0  0.1797
  C  C47  1  0.736500  0.472400  0.007500  1.0  -0.134
  C  C48  1  0.745800  0.393500  0.090300  1.0  0.1676
  C  C49  1  0.348200  0.607000  0.859300  1.0  0.7034
  C  C50  1  0.350500  0.522100  0.952300  1.0  0.0268
  C  C51  1  0.370400  0.404700  0.941400  1.0  -0.1884
  C  C52  1  0.370800  0.329400  0.028600  1.0  0.1892
  C  C53  1  0.343600  0.567200  0.053700  1.0  -0.1765
  C  C54  1  0.352200  0.491900  0.134600  1.0  0.1649
  C  C55  1  0.403600  0.893500  0.665500  1.0  0.6896
  C  C56  1  0.392300  0.975900  0.574300  1.0  0.0356
  C  C57  1  0.390400  0.930600  0.473300  1.0  -0.1895
  C  C58  1  0.384600  0.012000  0.389800  1.0  0.1724
  C  C59  1  0.393200  0.099900  0.584700  1.0  -0.176
  C  C60  1  0.386700  0.174300  0.497700  1.0  0.1644
  C  C61  1  0.096500  0.101000  0.166100  1.0  0.7149
  C  C62  1  0.104300  0.015900  0.076400  1.0  -0.0533
  C  C63  1  0.984700  0.968200  0.019600  1.0  -0.1366
  C  C64  1  0.993100  0.892100  0.936200  1.0  0.1692
  C  C65  1  0.225500  0.977400  0.045900  1.0  -0.1659
  C  C66  1  0.223300  0.901200  0.961300  1.0  0.1765
  C  C67  1  0.152900  0.397100  0.359000  1.0  0.7104
  C  C68  1  0.150900  0.487900  0.447900  1.0  -0.0632
  C  C69  1  0.028600  0.528600  0.472600  1.0  -0.1447
  C  C70  1  0.027800  0.607500  0.557400  1.0  0.1798
  C  C71  1  0.263500  0.527600  0.507500  1.0  -0.14
  C  C72  1  0.254200  0.606500  0.590300  1.0  0.1675
  C  C73  1  0.651800  0.393000  0.359300  1.0  0.703
  C  C74  1  0.649500  0.477900  0.452300  1.0  0.0257
  C  C75  1  0.629600  0.595300  0.441400  1.0  -0.1876
  C  C76  1  0.629200  0.670600  0.528600  1.0  0.1859
  C  C77  1  0.656400  0.432800  0.553700  1.0  -0.1755
  C  C78  1  0.647800  0.508100  0.634600  1.0  0.1653
  C  C79  1  0.596400  0.106500  0.165500  1.0  0.6898
  C  C80  1  0.607700  0.024100  0.074300  1.0  0.0365
  C  C81  1  0.609600  0.069400  0.973300  1.0  -0.1899
  C  C82  1  0.615400  0.988000  0.889800  1.0  0.1722
  C  C83  1  0.606800  0.900100  0.084700  1.0  -0.1747
  C  C84  1  0.613300  0.825700  0.997700  1.0  0.1652
  N  N85  1  0.888100  0.139800  0.405100  1.0  -0.4219
  N  N86  1  0.863600  0.355500  0.119100  1.0  -0.4254
  N  N87  1  0.363600  0.367800  0.124200  1.0  -0.3892
  N  N88  1  0.383500  0.130500  0.402400  1.0  -0.433
  N  N89  1  0.111900  0.860200  0.905100  1.0  -0.4217
  N  N90  1  0.136400  0.644500  0.619100  1.0  -0.426
  N  N91  1  0.636400  0.632200  0.624200  1.0  -0.3939
  N  N92  1  0.616500  0.869500  0.902400  1.0  -0.4324
  O  O93  1  0.796000  0.866300  0.719500  1.0  -0.7101
  O  O94  1  0.017600  0.864700  0.683200  1.0  -0.6913
  O  O95  1  0.735400  0.642400  0.850900  1.0  -0.7097
  O  O96  1  0.949700  0.628700  0.806400  1.0  -0.6556
  O  O97  1  0.452900  0.630000  0.807300  1.0  -0.6735
  O  O98  1  0.236200  0.641000  0.845800  1.0  -0.6758
  O  O99  1  0.515000  0.854000  0.675400  1.0  -0.6535
  O  O100  1  0.302600  0.871200  0.727500  1.0  -0.6923
  O  O101  1  0.204000  0.133700  0.219500  1.0  -0.7153
  O  O102  1  0.982400  0.135300  0.183200  1.0  -0.6924
  O  O103  1  0.264600  0.357600  0.350900  1.0  -0.7095
  O  O104  1  0.050300  0.371300  0.306400  1.0  -0.6461
  O  O105  1  0.547100  0.370000  0.307300  1.0  -0.6711
  O  O106  1  0.763800  0.359000  0.345800  1.0  -0.6753
  O  O107  1  0.485000  0.146000  0.175400  1.0  -0.6601
  O  O108  1  0.697400  0.128800  0.227500  1.0  -0.6943
