# generated using pymatgen
data_CdH16(C7O)4
_symmetry_space_group_name_H-M   'P 1'
_cell_length_a   7.89510000
_cell_length_b   9.80700000
_cell_length_c   17.36710000
_cell_angle_alpha   106.40000000
_cell_angle_beta   96.40700000
_cell_angle_gamma   90.00000000
_symmetry_Int_Tables_number   1
_chemical_formula_structural   CdH16(C7O)4
_chemical_formula_sum   'Cd2 H32 C56 O8'
_cell_volume   1281.21966290
_cell_formula_units_Z   2
loop_
 _symmetry_equiv_pos_site_id
 _symmetry_equiv_pos_as_xyz
  1  'x, y, z'
loop_
 _atom_site_type_symbol
 _atom_site_label
 _atom_site_symmetry_multiplicity
 _atom_site_fract_x
 _atom_site_fract_y
 _atom_site_fract_z
 _atom_site_occupancy
 _atom_site_charge
  Cd  Cd1  1  0.250000  0.529210  0.000000  1.0  1.1408
  Cd  Cd2  1  0.750000  0.470790  0.000000  1.0  1.1382
  H  H3  1  0.701800  0.542700  0.222000  1.0  0.0999
  H  H4  1  0.858500  0.652100  0.344800  1.0  0.1014
  H  H5  1  0.724200  0.031500  0.320400  1.0  0.0982
  H  H6  1  0.563700  0.922100  0.199000  1.0  0.1081
  H  H7  1  0.610900  0.828000  0.450800  1.0  0.093
  H  H8  1  0.501600  0.849000  0.568600  1.0  0.0907
  H  H9  1  0.655100  0.970700  0.691800  1.0  0.1039
  H  H10  1  0.082900  0.931000  0.304800  1.0  0.1044
  H  H11  1  0.798200  0.320700  0.778000  1.0  0.0993
  H  H12  1  0.641500  0.307300  0.655200  1.0  0.1019
  H  H13  1  0.775800  0.711100  0.679600  1.0  0.0979
  H  H14  1  0.936300  0.723100  0.801000  1.0  0.1084
  H  H15  1  0.889100  0.377200  0.549200  1.0  0.094
  H  H16  1  0.998400  0.280400  0.431400  1.0  0.0906
  H  H17  1  0.844900  0.278900  0.308200  1.0  0.1044
  H  H18  1  0.417100  0.626200  0.695200  1.0  0.1034
  H  H19  1  0.298200  0.457300  0.778000  1.0  0.1003
  H  H20  1  0.141500  0.347900  0.655200  1.0  0.1013
  H  H21  1  0.275800  0.968500  0.679600  1.0  0.0971
  H  H22  1  0.436300  0.077900  0.801000  1.0  0.1079
  H  H23  1  0.389100  0.172000  0.549200  1.0  0.0935
  H  H24  1  0.498400  0.151000  0.431400  1.0  0.0909
  H  H25  1  0.344900  0.029300  0.308200  1.0  0.1032
  H  H26  1  0.917100  0.069000  0.695200  1.0  0.104
  H  H27  1  0.201800  0.679300  0.222000  1.0  0.0987
  H  H28  1  0.358500  0.692700  0.344800  1.0  0.1015
  H  H29  1  0.224200  0.288900  0.320400  1.0  0.0973
  H  H30  1  0.063700  0.276900  0.199000  1.0  0.1087
  H  H31  1  0.110900  0.622800  0.450800  1.0  0.0935
  H  H32  1  0.001600  0.719600  0.568600  1.0  0.0908
  H  H33  1  0.155100  0.721100  0.691800  1.0  0.1048
  H  H34  1  0.582900  0.373800  0.304800  1.0  0.104
  C  C35  1  0.504100  0.647700  0.122400  1.0  0.6575
  C  C36  1  0.614600  0.721250  0.198700  1.0  -0.157
  C  C37  1  0.704600  0.641270  0.242140  1.0  -0.0251
  C  C38  1  0.799300  0.707020  0.315640  1.0  -0.1312
  C  C39  1  0.806000  0.853280  0.345760  1.0  0.086
  C  C40  1  0.718700  0.932800  0.301200  1.0  -0.137
  C  C41  1  0.622800  0.867190  0.228180  1.0  -0.0323
  C  C42  1  0.906900  0.926650  0.425500  1.0  -0.0517
  C  C43  1  0.067300  0.988140  0.426480  1.0  0.01
  C  C44  1  0.837500  0.936970  0.497340  1.0  0.0175
  C  C45  1  0.674200  0.877040  0.499280  1.0  -0.1032
  C  C46  1  0.608600  0.889220  0.569440  1.0  -0.0807
  C  C47  1  0.701300  0.962590  0.643780  1.0  -0.086
  C  C48  1  0.142600  0.978720  0.354440  1.0  -0.1105
  C  C49  1  0.995900  0.525300  0.877600  1.0  0.6548
  C  C50  1  0.885400  0.522550  0.801300  1.0  -0.151
  C  C51  1  0.795400  0.399130  0.757860  1.0  -0.0229
  C  C52  1  0.700700  0.391380  0.684360  1.0  -0.1304
  C  C53  1  0.694000  0.507520  0.654240  1.0  0.0872
  C  C54  1  0.781300  0.631600  0.698800  1.0  -0.1376
  C  C55  1  0.877200  0.639010  0.771820  1.0  -0.0348
  C  C56  1  0.593100  0.501150  0.574500  1.0  -0.0527
  C  C57  1  0.432700  0.561660  0.573520  1.0  0.0099
  C  C58  1  0.662500  0.439630  0.502660  1.0  0.0174
  C  C59  1  0.825800  0.377760  0.500720  1.0  -0.1035
  C  C60  1  0.891400  0.319780  0.430560  1.0  -0.0816
  C  C61  1  0.798700  0.318810  0.356220  1.0  -0.0863
  C  C62  1  0.357400  0.624280  0.645560  1.0  -0.1109
  C  C63  1  0.495900  0.352300  0.877600  1.0  0.6555
  C  C64  1  0.385400  0.278750  0.801300  1.0  -0.1529
  C  C65  1  0.295400  0.358730  0.757860  1.0  -0.0242
  C  C66  1  0.200700  0.292980  0.684360  1.0  -0.1303
  C  C67  1  0.194000  0.146720  0.654240  1.0  0.087
  C  C68  1  0.281300  0.067200  0.698800  1.0  -0.1379
  C  C69  1  0.377200  0.132810  0.771820  1.0  -0.0346
  C  C70  1  0.093100  0.073350  0.574500  1.0  -0.0518
  C  C71  1  0.932700  0.011860  0.573520  1.0  0.0118
  C  C72  1  0.162500  0.063030  0.502660  1.0  0.0173
  C  C73  1  0.325800  0.122960  0.500720  1.0  -0.1026
  C  C74  1  0.391400  0.110780  0.430560  1.0  -0.0814
  C  C75  1  0.298700  0.037410  0.356220  1.0  -0.0858
  C  C76  1  0.857400  0.021280  0.645560  1.0  -0.1127
  C  C77  1  0.004100  0.474700  0.122400  1.0  0.6559
  C  C78  1  0.114600  0.477450  0.198700  1.0  -0.1513
  C  C79  1  0.204600  0.600870  0.242140  1.0  -0.0227
  C  C80  1  0.299300  0.608620  0.315640  1.0  -0.1289
  C  C81  1  0.306000  0.492480  0.345760  1.0  0.0866
  C  C82  1  0.218700  0.368400  0.301200  1.0  -0.1377
  C  C83  1  0.122800  0.360990  0.228180  1.0  -0.0343
  C  C84  1  0.406900  0.498850  0.425500  1.0  -0.052
  C  C85  1  0.567300  0.438340  0.426480  1.0  0.0104
  C  C86  1  0.337500  0.560370  0.497340  1.0  0.0178
  C  C87  1  0.174200  0.622240  0.499280  1.0  -0.102
  C  C88  1  0.108600  0.680220  0.569440  1.0  -0.081
  C  C89  1  0.201300  0.681190  0.643780  1.0  -0.0864
  C  C90  1  0.642600  0.375720  0.354440  1.0  -0.1138
  O  O91  1  0.388000  0.716070  0.095340  1.0  -0.5745
  O  O92  1  0.526300  0.519060  0.087920  1.0  -0.651
  O  O93  1  0.112000  0.620730  0.904660  1.0  -0.5736
  O  O94  1  0.973700  0.431140  0.912080  1.0  -0.654
  O  O95  1  0.612000  0.283930  0.904660  1.0  -0.5787
  O  O96  1  0.473700  0.480940  0.912080  1.0  -0.6497
  O  O97  1  0.888000  0.379270  0.095340  1.0  -0.5711
  O  O98  1  0.026300  0.568860  0.087920  1.0  -0.6554
