# generated using pymatgen
data_Al3P3(O6F)2
_symmetry_space_group_name_H-M   'P 1'
_cell_length_a   8.55520000
_cell_length_b   10.11330000
_cell_length_c   16.70250000
_cell_angle_alpha   90.00000000
_cell_angle_beta   94.94000000
_cell_angle_gamma   90.00000000
_symmetry_Int_Tables_number   1
_chemical_formula_structural   Al3P3(O6F)2
_chemical_formula_sum   'Al12 P12 O48 F8'
_cell_volume   1439.75406278
_cell_formula_units_Z   4
loop_
 _symmetry_equiv_pos_site_id
 _symmetry_equiv_pos_as_xyz
  1  'x, y, z'
loop_
 _atom_site_type_symbol
 _atom_site_label
 _atom_site_symmetry_multiplicity
 _atom_site_fract_x
 _atom_site_fract_y
 _atom_site_fract_z
 _atom_site_occupancy
 _atom_site_charge
  Al  Al1  1  0.833200  0.257850  0.349870  1.0  1.8348
  Al  Al2  1  0.980600  0.231700  0.548400  1.0  1.8364
  Al  Al3  1  0.664400  0.558100  0.151130  1.0  1.8434
  Al  Al4  1  0.479100  0.087000  0.048630  1.0  1.84
  Al  Al5  1  0.324800  0.076700  0.518860  1.0  1.9175
  Al  Al6  1  0.824130  0.241150  0.019520  1.0  1.8781
  Al  Al7  1  0.166800  0.757850  0.650130  1.0  1.8338
  Al  Al8  1  0.019400  0.731700  0.451600  1.0  1.8363
  Al  Al9  1  0.335600  0.058100  0.848870  1.0  1.8464
  Al  Al10  1  0.520900  0.587000  0.951370  1.0  1.8396
  Al  Al11  1  0.675200  0.576700  0.481140  1.0  1.9158
  Al  Al12  1  0.175870  0.741150  0.980480  1.0  1.8762
  P  P13  1  0.655620  0.267700  0.177950  1.0  1.8395
  P  P14  1  0.473900  0.788160  0.083750  1.0  1.8695
  P  P15  1  0.624840  0.268080  0.492670  1.0  1.8488
  P  P16  1  0.843130  0.550250  0.322520  1.0  1.813
  P  P17  1  0.025300  0.030790  0.415880  1.0  1.8556
  P  P18  1  0.875190  0.549580  0.008990  1.0  1.9317
  P  P19  1  0.344380  0.767700  0.822050  1.0  1.8399
  P  P20  1  0.526100  0.288160  0.916250  1.0  1.8678
  P  P21  1  0.375160  0.768080  0.507330  1.0  1.8527
  P  P22  1  0.156870  0.050250  0.677480  1.0  1.8124
  P  P23  1  0.974700  0.530790  0.584120  1.0  1.858
  P  P24  1  0.124810  0.049580  0.991010  1.0  1.9273
  O  O25  1  0.669900  0.231500  0.407300  1.0  -0.8933
  O  O26  1  0.787500  0.279100  0.120700  1.0  -0.9232
  O  O27  1  0.830800  0.582700  0.093800  1.0  -0.9125
  O  O28  1  0.717000  0.201900  0.257900  1.0  -0.8861
  O  O29  1  0.293600  0.772600  0.071300  1.0  -0.8302
  O  O30  1  0.204700  0.047800  0.425900  1.0  -0.8323
  O  O31  1  0.929900  0.404100  0.007200  1.0  -0.7469
  O  O32  1  0.759500  0.241400  0.556300  1.0  -0.7775
  O  O33  1  0.535500  0.701300  0.155600  1.0  -0.8002
  O  O34  1  0.738300  0.574900  0.943800  1.0  -0.8118
  O  O35  1  0.517000  0.184900  0.142300  1.0  -0.8361
  O  O36  1  0.515500  0.930600  0.105000  1.0  -0.7985
  O  O37  1  0.567500  0.413000  0.492100  1.0  -0.7606
  O  O38  1  0.549300  0.747600  0.007600  1.0  -0.816
  O  O39  1  0.901700  0.407700  0.306300  1.0  -0.8328
  O  O40  1  0.981500  0.636000  0.357100  1.0  -0.8152
  O  O41  1  0.962500  0.120000  0.344500  1.0  -0.7863
  O  O42  1  0.598600  0.408600  0.193800  1.0  -0.846
  O  O43  1  0.772000  0.612700  0.244980  1.0  -0.8874
  O  O44  1  0.489200  0.174200  0.509500  1.0  -0.9405
  O  O45  1  0.010800  0.636600  0.989400  1.0  -0.9297
  O  O46  1  0.983200  0.887400  0.393500  1.0  -0.8064
  O  O47  1  0.952400  0.073100  0.492000  1.0  -0.8403
  O  O48  1  0.714200  0.535000  0.381400  1.0  -0.9389
  O  O49  1  0.330100  0.731500  0.592700  1.0  -0.8948
  O  O50  1  0.212500  0.779100  0.879300  1.0  -0.9209
  O  O51  1  0.169200  0.082700  0.906200  1.0  -0.9139
  O  O52  1  0.283000  0.701900  0.742100  1.0  -0.8861
  O  O53  1  0.706400  0.272600  0.928700  1.0  -0.8312
  O  O54  1  0.795300  0.547800  0.574100  1.0  -0.832
  O  O55  1  0.070100  0.904100  0.992800  1.0  -0.7479
  O  O56  1  0.240500  0.741400  0.443700  1.0  -0.7742
  O  O57  1  0.464500  0.201300  0.844400  1.0  -0.7964
  O  O58  1  0.261700  0.074900  0.056200  1.0  -0.8122
  O  O59  1  0.483000  0.684900  0.857700  1.0  -0.8372
  O  O60  1  0.484500  0.430600  0.895000  1.0  -0.7992
  O  O61  1  0.432500  0.913000  0.507900  1.0  -0.7605
  O  O62  1  0.450700  0.247600  0.992400  1.0  -0.8151
  O  O63  1  0.098300  0.907700  0.693700  1.0  -0.8344
  O  O64  1  0.018500  0.136000  0.642900  1.0  -0.8123
  O  O65  1  0.037500  0.620000  0.655500  1.0  -0.7864
  O  O66  1  0.401400  0.908600  0.806200  1.0  -0.8464
  O  O67  1  0.228000  0.112700  0.755020  1.0  -0.8874
  O  O68  1  0.510800  0.674200  0.490500  1.0  -0.9396
  O  O69  1  0.989200  0.136600  0.010600  1.0  -0.9306
  O  O70  1  0.016800  0.387400  0.606500  1.0  -0.8062
  O  O71  1  0.047600  0.573100  0.508000  1.0  -0.8412
  O  O72  1  0.285800  0.035000  0.618600  1.0  -0.9389
  F  F73  1  0.549500  0.503900  0.052000  1.0  -0.5381
  F  F74  1  0.197500  0.230100  0.530100  1.0  -0.4866
  F  F75  1  0.950300  0.316800  0.447420  1.0  -0.5483
  F  F76  1  0.693500  0.087600  0.030700  1.0  -0.4876
  F  F77  1  0.450500  0.003900  0.948000  1.0  -0.5393
  F  F78  1  0.802500  0.730100  0.469900  1.0  -0.4863
  F  F79  1  0.049700  0.816800  0.552580  1.0  -0.546
  F  F80  1  0.306500  0.587600  0.969300  1.0  -0.4879
