# generated using pymatgen
data_MnPH4C3NO3
_symmetry_space_group_name_H-M   'P 1'
_cell_length_a   6.42650000
_cell_length_b   16.63990000
_cell_length_c   16.63990000
_cell_angle_alpha   61.63150000
_cell_angle_beta   82.60340000
_cell_angle_gamma   97.39660000
_symmetry_Int_Tables_number   1
_chemical_formula_structural   MnPH4C3NO3
_chemical_formula_sum   'Mn6 P6 H24 C18 N6 O18'
_cell_volume   1515.47422661
_cell_formula_units_Z   6
loop_
 _symmetry_equiv_pos_site_id
 _symmetry_equiv_pos_as_xyz
  1  'x, y, z'
loop_
 _atom_site_type_symbol
 _atom_site_label
 _atom_site_symmetry_multiplicity
 _atom_site_fract_x
 _atom_site_fract_y
 _atom_site_fract_z
 _atom_site_occupancy
 _atom_site_charge
  Mn  Mn1  1  0.526490  0.244140  0.421570  1.0  1.0504
  Mn  Mn2  1  0.948060  0.421570  0.334290  1.0  1.0515
  Mn  Mn3  1  0.282350  0.334290  0.244140  1.0  1.0493
  Mn  Mn4  1  0.473510  0.755860  0.578430  1.0  1.0509
  Mn  Mn5  1  0.051940  0.578430  0.665710  1.0  1.0489
  Mn  Mn6  1  0.717650  0.665710  0.755860  1.0  1.0478
  P  P7  1  0.782760  0.351560  0.192270  1.0  1.4785
  P  P8  1  0.975030  0.192270  0.456170  1.0  1.4762
  P  P9  1  0.431200  0.456170  0.351560  1.0  1.4849
  P  P10  1  0.217240  0.648440  0.807730  1.0  1.4661
  P  P11  1  0.024970  0.807730  0.543830  1.0  1.4876
  P  P12  1  0.568800  0.543830  0.648440  1.0  1.4863
  H  H13  1  0.277030  0.560480  0.024330  1.0  0.0875
  H  H14  1  0.488350  0.605900  0.068720  1.0  0.0969
  H  H15  1  0.391230  0.325220  0.104520  1.0  0.1225
  H  H16  1  0.224970  0.409920  0.042360  1.0  0.0902
  H  H17  1  0.301370  0.024330  0.415190  1.0  0.0886
  H  H18  1  0.557070  0.068720  0.325370  1.0  0.0986
  H  H19  1  0.495750  0.104520  0.570270  1.0  0.1203
  H  H20  1  0.267330  0.042360  0.547720  1.0  0.0927
  H  H21  1  0.716560  0.415190  0.560480  1.0  0.087
  H  H22  1  0.882450  0.325370  0.605900  1.0  0.0986
  H  H23  1  0.066020  0.570270  0.325220  1.0  0.1215
  H  H24  1  0.815050  0.547720  0.409920  1.0  0.0922
  H  H25  1  0.511250  0.395140  0.930230  1.0  0.0964
  H  H26  1  0.722170  0.438230  0.976460  1.0  0.1009
  H  H27  1  0.775100  0.589330  0.957110  1.0  0.0891
  H  H28  1  0.609610  0.675060  0.896350  1.0  0.1138
  H  H29  1  0.441480  0.930230  0.674630  1.0  0.0972
  H  H30  1  0.698630  0.976460  0.585310  1.0  0.1022
  H  H31  1  0.732220  0.957110  0.453550  1.0  0.0911
  H  H32  1  0.505960  0.896350  0.428590  1.0  0.1119
  H  H33  1  0.116110  0.674630  0.395140  1.0  0.0965
  H  H34  1  0.283950  0.585310  0.438230  1.0  0.1025
  H  H35  1  0.185770  0.453550  0.589330  1.0  0.0887
  H  H36  1  0.934550  0.428590  0.675060  1.0  0.1115
  C  C37  1  0.700710  0.454960  0.104090  1.0  -0.111
  C  C38  1  0.447530  0.560360  0.036570  1.0  -0.0692
  C  C39  1  0.392410  0.402030  0.056200  1.0  -0.0474
  C  C40  1  0.804800  0.104090  0.440950  1.0  -0.11
  C  C41  1  0.484100  0.036570  0.403070  1.0  -0.0669
  C  C42  1  0.448610  0.056200  0.541770  1.0  -0.0515
  C  C43  1  0.245750  0.440950  0.454960  1.0  -0.1126
  C  C44  1  0.887170  0.403070  0.560360  1.0  -0.0602
  C  C45  1  0.990380  0.541770  0.402030  1.0  -0.0484
  C  C46  1  0.299290  0.545040  0.895910  1.0  -0.1074
  C  C47  1  0.552470  0.439640  0.963430  1.0  -0.0692
  C  C48  1  0.607590  0.597970  0.943800  1.0  -0.0513
  C  C49  1  0.195200  0.895910  0.559050  1.0  -0.1066
  C  C50  1  0.515900  0.963430  0.596930  1.0  -0.0699
  C  C51  1  0.551390  0.943800  0.458230  1.0  -0.0516
  C  C52  1  0.754250  0.559050  0.545040  1.0  -0.1076
  C  C53  1  0.112830  0.596930  0.439640  1.0  -0.0695
  C  C54  1  0.009620  0.458230  0.597970  1.0  -0.0528
  N  N55  1  0.469070  0.460100  0.099870  1.0  -0.254
  N  N56  1  0.568940  0.099870  0.440030  1.0  -0.2531
  N  N57  1  0.008970  0.440030  0.460100  1.0  -0.2534
  N  N58  1  0.530930  0.539900  0.900130  1.0  -0.2426
  N  N59  1  0.431060  0.900130  0.559970  1.0  -0.246
  N  N60  1  0.991030  0.559970  0.539900  1.0  -0.2436
  O  O61  1  0.848280  0.294950  0.149010  1.0  -0.6675
  O  O62  1  0.587240  0.292340  0.268920  1.0  -0.9025
  O  O63  1  0.953850  0.369630  0.238720  1.0  -0.8855
  O  O64  1  0.997290  0.149010  0.556040  1.0  -0.6631
  O  O65  1  0.856160  0.268920  0.438740  1.0  -0.9008
  O  O66  1  0.192570  0.238720  0.391650  1.0  -0.884
  O  O67  1  0.553330  0.556040  0.294950  1.0  -0.6672
  O  O68  1  0.294900  0.438740  0.292340  1.0  -0.9017
  O  O69  1  0.584220  0.391650  0.369630  1.0  -0.8853
  O  O70  1  0.151720  0.705050  0.850990  1.0  -0.6688
  O  O71  1  0.412760  0.707660  0.731080  1.0  -0.9041
  O  O72  1  0.046150  0.630370  0.761280  1.0  -0.8853
  O  O73  1  0.002710  0.850990  0.443960  1.0  -0.6648
  O  O74  1  0.143840  0.731080  0.561260  1.0  -0.9032
  O  O75  1  0.807430  0.761280  0.608350  1.0  -0.8834
  O  O76  1  0.446670  0.443960  0.705050  1.0  -0.6643
  O  O77  1  0.705100  0.561260  0.707660  1.0  -0.9049
  O  O78  1  0.415780  0.608350  0.630370  1.0  -0.8844
