# generated using pymatgen
data_MgPH6C3NO3
_symmetry_space_group_name_H-M   'P 1'
_cell_length_a   28.24530000
_cell_length_b   28.24530000
_cell_length_c   6.22020000
_cell_angle_alpha   90.00000000
_cell_angle_beta   90.00000000
_cell_angle_gamma   120.00000000
_symmetry_Int_Tables_number   1
_chemical_formula_structural   MgPH6C3NO3
_chemical_formula_sum   'Mg18 P18 H108 C54 N18 O54'
_cell_volume   4297.61358972
_cell_formula_units_Z   18
loop_
 _symmetry_equiv_pos_site_id
 _symmetry_equiv_pos_as_xyz
  1  'x, y, z'
loop_
 _atom_site_type_symbol
 _atom_site_label
 _atom_site_symmetry_multiplicity
 _atom_site_fract_x
 _atom_site_fract_y
 _atom_site_fract_z
 _atom_site_occupancy
 _atom_site_charge
  Mg  Mg1  1  0.056940  0.692570  0.400630  1.0  1.4154
  Mg  Mg2  1  0.723600  0.025910  0.733970  1.0  1.416
  Mg  Mg3  1  0.390270  0.359240  0.067300  1.0  1.4149
  Mg  Mg4  1  0.307430  0.364360  0.400630  1.0  1.4154
  Mg  Mg5  1  0.974090  0.697700  0.733970  1.0  1.4165
  Mg  Mg6  1  0.640760  0.031030  0.067300  1.0  1.4153
  Mg  Mg7  1  0.635640  0.943060  0.400630  1.0  1.4157
  Mg  Mg8  1  0.302300  0.276400  0.733970  1.0  1.4147
  Mg  Mg9  1  0.968970  0.609730  0.067300  1.0  1.4158
  Mg  Mg10  1  0.943060  0.307430  0.599370  1.0  1.4159
  Mg  Mg11  1  0.609730  0.640760  0.932700  1.0  1.4154
  Mg  Mg12  1  0.276400  0.974090  0.266030  1.0  1.4165
  Mg  Mg13  1  0.692570  0.635640  0.599370  1.0  1.4145
  Mg  Mg14  1  0.359240  0.968970  0.932700  1.0  1.4144
  Mg  Mg15  1  0.025910  0.302300  0.266030  1.0  1.4156
  Mg  Mg16  1  0.364360  0.056940  0.599370  1.0  1.4181
  Mg  Mg17  1  0.031030  0.390270  0.932700  1.0  1.4181
  Mg  Mg18  1  0.697700  0.723600  0.266030  1.0  1.4171
  P  P19  1  0.091440  0.717680  0.920030  1.0  1.4491
  P  P20  1  0.758100  0.051020  0.253370  1.0  1.4491
  P  P21  1  0.424770  0.384350  0.586700  1.0  1.4491
  P  P22  1  0.282320  0.373750  0.920030  1.0  1.4525
  P  P23  1  0.948980  0.707090  0.253370  1.0  1.4525
  P  P24  1  0.615650  0.040420  0.586700  1.0  1.4525
  P  P25  1  0.626250  0.908560  0.920030  1.0  1.4458
  P  P26  1  0.292910  0.241900  0.253370  1.0  1.4458
  P  P27  1  0.959580  0.575230  0.586700  1.0  1.4458
  P  P28  1  0.908560  0.282320  0.079970  1.0  1.4508
  P  P29  1  0.575230  0.615650  0.413300  1.0  1.4508
  P  P30  1  0.241900  0.948980  0.746630  1.0  1.4508
  P  P31  1  0.717680  0.626250  0.079970  1.0  1.4548
  P  P32  1  0.384350  0.959580  0.413300  1.0  1.4548
  P  P33  1  0.051020  0.292910  0.746630  1.0  1.4548
  P  P34  1  0.373750  0.091440  0.079970  1.0  1.4522
  P  P35  1  0.040420  0.424770  0.413300  1.0  1.4522
  P  P36  1  0.707090  0.758100  0.746630  1.0  1.4522
  H  H37  1  0.150340  0.817610  0.976570  1.0  0.0981
  H  H38  1  0.072520  0.822590  0.368430  1.0  0.0177
  H  H39  1  0.115990  0.820590  0.589160  1.0  0.0103
  H  H40  1  0.178820  0.778690  0.502880  1.0  0.0207
  H  H41  1  0.176060  0.752450  0.226280  1.0  0.0338
  H  H42  1  0.615720  0.743580  0.643950  1.0  0.0654
  H  H43  1  0.817000  0.150940  0.309910  1.0  0.0993
  H  H44  1  0.739190  0.155920  0.701760  1.0  0.0179
  H  H45  1  0.782650  0.153920  0.922500  1.0  0.0101
  H  H46  1  0.845480  0.112030  0.836220  1.0  0.0205
  H  H47  1  0.842730  0.085780  0.559620  1.0  0.0274
  H  H48  1  0.282390  0.076910  0.977280  1.0  0.0654
  H  H49  1  0.483670  0.484280  0.643240  1.0  0.0981
  H  H50  1  0.405860  0.489260  0.035100  1.0  0.0178
  H  H51  1  0.449320  0.487250  0.255830  1.0  0.0101
  H  H52  1  0.512150  0.445360  0.169550  1.0  0.0204
  H  H53  1  0.509400  0.419120  0.892950  1.0  0.0331
  H  H54  1  0.949060  0.410240  0.310610  1.0  0.0654
  H  H55  1  0.182390  0.332730  0.976570  1.0  0.0971
  H  H56  1  0.177410  0.249930  0.368430  1.0  0.022
  H  H57  1  0.179410  0.295400  0.589160  1.0  0.0093
  H  H58  1  0.221310  0.400120  0.502880  1.0  0.0213
  H  H59  1  0.247550  0.423610  0.226280  1.0  0.0313
  H  H60  1  0.256420  0.872150  0.643950  1.0  0.0684
  H  H61  1  0.849060  0.666060  0.309910  1.0  0.1019
  H  H62  1  0.844080  0.583260  0.701760  1.0  0.0218
  H  H63  1  0.846080  0.628730  0.922500  1.0  0.0093
  H  H64  1  0.887970  0.733460  0.836220  1.0  0.0213
  H  H65  1  0.914220  0.756950  0.559620  1.0  0.0339
  H  H66  1  0.923090  0.205480  0.977280  1.0  0.0627
  H  H67  1  0.515720  0.999400  0.643240  1.0  0.0972
  H  H68  1  0.510740  0.916600  0.035100  1.0  0.022
  H  H69  1  0.512750  0.962070  0.255830  1.0  0.009
  H  H70  1  0.554640  0.066790  0.169550  1.0  0.0213
  H  H71  1  0.580880  0.090280  0.892950  1.0  0.0307
  H  H72  1  0.589760  0.538810  0.310610  1.0  0.0626
  H  H73  1  0.667270  0.849660  0.976570  1.0  0.0983
  H  H74  1  0.750070  0.927480  0.368430  1.0  0.022
  H  H75  1  0.704600  0.884010  0.589160  1.0  0.008
  H  H76  1  0.599880  0.821180  0.502880  1.0  0.0185
  H  H77  1  0.576390  0.823940  0.226280  1.0  0.0284
  H  H78  1  0.127850  0.384280  0.643950  1.0  0.0653
  H  H79  1  0.333940  0.183000  0.309910  1.0  0.098
  H  H80  1  0.416740  0.260810  0.701760  1.0  0.0222
  H  H81  1  0.371270  0.217350  0.922500  1.0  0.008
  H  H82  1  0.266540  0.154520  0.836220  1.0  0.0188
  H  H83  1  0.243050  0.157270  0.559620  1.0  0.0289
  H  H84  1  0.794520  0.717610  0.977280  1.0  0.0675
  H  H85  1  0.000600  0.516330  0.643240  1.0  0.0984
  H  H86  1  0.083400  0.594140  0.035100  1.0  0.0222
  H  H87  1  0.037930  0.550680  0.255830  1.0  0.008
  H  H88  1  0.933210  0.487850  0.169550  1.0  0.0186
  H  H89  1  0.909720  0.490600  0.892950  1.0  0.0289
  H  H90  1  0.461190  0.050940  0.310610  1.0  0.0675
  H  H91  1  0.849660  0.182390  0.023430  1.0  0.0973
  H  H92  1  0.927480  0.177410  0.631570  1.0  0.0199
  H  H93  1  0.884010  0.179410  0.410840  1.0  0.0107
  H  H94  1  0.821180  0.221310  0.497120  1.0  0.0198
  H  H95  1  0.823940  0.247550  0.773720  1.0  0.0353
  H  H96  1  0.384280  0.256420  0.356050  1.0  0.0653
  H  H97  1  0.516330  0.515720  0.356760  1.0  0.0973
  H  H98  1  0.594140  0.510740  0.964900  1.0  0.0202
  H  H99  1  0.550680  0.512750  0.744170  1.0  0.0105
  H  H100  1  0.487850  0.554640  0.830450  1.0  0.0195
  H  H101  1  0.490600  0.580880  0.107050  1.0  0.0344
  H  H102  1  0.050940  0.589760  0.689390  1.0  0.0653
  H  H103  1  0.183000  0.849060  0.690090  1.0  0.0985
  H  H104  1  0.260810  0.844080  0.298240  1.0  0.0203
  H  H105  1  0.217350  0.846080  0.077500  1.0  0.0105
  H  H106  1  0.154520  0.887970  0.163780  1.0  0.0195
  H  H107  1  0.157270  0.914220  0.440380  1.0  0.0293
  H  H108  1  0.717610  0.923090  0.022720  1.0  0.0653
  H  H109  1  0.817610  0.667270  0.023430  1.0  0.0988
  H  H110  1  0.822590  0.750070  0.631570  1.0  0.0234
  H  H111  1  0.820590  0.704600  0.410840  1.0  0.0104
  H  H112  1  0.778690  0.599880  0.497120  1.0  0.0198
  H  H113  1  0.752450  0.576390  0.773720  1.0  0.0306
  H  H114  1  0.743580  0.127850  0.356050  1.0  0.0712
  H  H115  1  0.484280  0.000600  0.356760  1.0  0.0989
  H  H116  1  0.489260  0.083400  0.964900  1.0  0.0234
  H  H117  1  0.487250  0.037930  0.744170  1.0  0.0102
  H  H118  1  0.445360  0.933210  0.830450  1.0  0.0198
  H  H119  1  0.419120  0.909720  0.107050  1.0  0.0313
  H  H120  1  0.410240  0.461190  0.689390  1.0  0.0659
  H  H121  1  0.150940  0.333940  0.690090  1.0  0.1035
  H  H122  1  0.155920  0.416740  0.298240  1.0  0.0231
  H  H123  1  0.153920  0.371270  0.077500  1.0  0.0105
  H  H124  1  0.112030  0.266540  0.163780  1.0  0.0198
  H  H125  1  0.085780  0.243050  0.440380  1.0  0.0339
  H  H126  1  0.076910  0.794520  0.022720  1.0  0.0659
  H  H127  1  0.332730  0.150340  0.023430  1.0  0.0981
  H  H128  1  0.249930  0.072520  0.631570  1.0  0.0228
  H  H129  1  0.295400  0.115990  0.410840  1.0  0.0095
  H  H130  1  0.400120  0.178820  0.497120  1.0  0.0187
  H  H131  1  0.423610  0.176060  0.773720  1.0  0.0291
  H  H132  1  0.872150  0.615720  0.356050  1.0  0.0656
  H  H133  1  0.999400  0.483670  0.356760  1.0  0.0982
  H  H134  1  0.916600  0.405860  0.964900  1.0  0.023
  H  H135  1  0.962070  0.449320  0.744170  1.0  0.0095
  H  H136  1  0.066790  0.512150  0.830450  1.0  0.0187
  H  H137  1  0.090280  0.509400  0.107050  1.0  0.0299
  H  H138  1  0.538810  0.949060  0.689390  1.0  0.0678
  H  H139  1  0.666060  0.817000  0.690090  1.0  0.0978
  H  H140  1  0.583260  0.739190  0.298240  1.0  0.023
  H  H141  1  0.628730  0.782650  0.077500  1.0  0.0095
  H  H142  1  0.733460  0.845480  0.163780  1.0  0.0189
  H  H143  1  0.756950  0.842730  0.440380  1.0  0.0299
  H  H144  1  0.205480  0.282390  0.022720  1.0  0.0678
  C  C145  1  0.110650  0.784210  0.050330  1.0  -0.1348
  C  C146  1  0.113470  0.825930  0.408630  1.0  -0.1021
  C  C147  1  0.174170  0.785430  0.325230  1.0  -0.1269
  C  C148  1  0.777310  0.117550  0.383670  1.0  -0.1343
  C  C149  1  0.780130  0.159270  0.741970  1.0  -0.103
  C  C150  1  0.840830  0.118770  0.658570  1.0  -0.1266
  C  C151  1  0.443980  0.450880  0.717000  1.0  -0.1348
  C  C152  1  0.446800  0.492600  0.075300  1.0  -0.1025
  C  C153  1  0.507500  0.452100  0.991900  1.0  -0.1266
  C  C154  1  0.215790  0.326430  0.050330  1.0  -0.1349
  C  C155  1  0.174070  0.287530  0.408630  1.0  -0.1014
  C  C156  1  0.214570  0.388730  0.325230  1.0  -0.1192
  C  C157  1  0.882450  0.659770  0.383670  1.0  -0.1328
  C  C158  1  0.840730  0.620870  0.741970  1.0  -0.1011
  C  C159  1  0.881230  0.722070  0.658570  1.0  -0.1192
  C  C160  1  0.549120  0.993100  0.717000  1.0  -0.1349
  C  C161  1  0.507400  0.954200  0.075300  1.0  -0.1014
  C  C162  1  0.547900  0.055400  0.991900  1.0  -0.1192
  C  C163  1  0.673570  0.889350  0.050330  1.0  -0.1346
  C  C164  1  0.712470  0.886530  0.408630  1.0  -0.0986
  C  C165  1  0.611270  0.825830  0.325230  1.0  -0.1225
  C  C166  1  0.340230  0.222690  0.383670  1.0  -0.1338
  C  C167  1  0.379130  0.219870  0.741970  1.0  -0.0982
  C  C168  1  0.277930  0.159170  0.658570  1.0  -0.1224
  C  C169  1  0.006900  0.556020  0.717000  1.0  -0.1346
  C  C170  1  0.045800  0.553200  0.075300  1.0  -0.0987
  C  C171  1  0.944600  0.492500  0.991900  1.0  -0.1224
  C  C172  1  0.889350  0.215790  0.949670  1.0  -0.1362
  C  C173  1  0.886530  0.174070  0.591370  1.0  -0.1013
  C  C174  1  0.825830  0.214570  0.674770  1.0  -0.1246
  C  C175  1  0.556020  0.549120  0.283000  1.0  -0.1363
  C  C176  1  0.553200  0.507400  0.924700  1.0  -0.1018
  C  C177  1  0.492500  0.547900  0.008100  1.0  -0.1243
  C  C178  1  0.222690  0.882450  0.616330  1.0  -0.1354
  C  C179  1  0.219870  0.840730  0.258030  1.0  -0.1023
  C  C180  1  0.159170  0.881230  0.341430  1.0  -0.1243
  C  C181  1  0.784210  0.673570  0.949670  1.0  -0.1361
  C  C182  1  0.825930  0.712470  0.591370  1.0  -0.1034
  C  C183  1  0.785430  0.611270  0.674770  1.0  -0.119
  C  C184  1  0.450880  0.006900  0.283000  1.0  -0.1361
  C  C185  1  0.492600  0.045800  0.924700  1.0  -0.1035
  C  C186  1  0.452100  0.944600  0.008100  1.0  -0.119
  C  C187  1  0.117550  0.340230  0.616330  1.0  -0.134
  C  C188  1  0.159270  0.379130  0.258030  1.0  -0.1031
  C  C189  1  0.118770  0.277930  0.341430  1.0  -0.119
  C  C190  1  0.326430  0.110650  0.949670  1.0  -0.1368
  C  C191  1  0.287530  0.113470  0.591370  1.0  -0.101
  C  C192  1  0.388730  0.174170  0.674770  1.0  -0.1238
  C  C193  1  0.993100  0.443980  0.283000  1.0  -0.1368
  C  C194  1  0.954200  0.446800  0.924700  1.0  -0.101
  C  C195  1  0.055400  0.507500  0.008100  1.0  -0.1238
  C  C196  1  0.659770  0.777310  0.616330  1.0  -0.1359
  C  C197  1  0.620870  0.780130  0.258030  1.0  -0.1005
  C  C198  1  0.722070  0.840830  0.341430  1.0  -0.1238
  N  N199  1  0.118460  0.781520  0.289430  1.0  -0.1926
  N  N200  1  0.785120  0.114860  0.622770  1.0  -0.1925
  N  N201  1  0.451790  0.448190  0.956100  1.0  -0.1925
  N  N202  1  0.218480  0.336930  0.289430  1.0  -0.1917
  N  N203  1  0.885140  0.670270  0.622770  1.0  -0.192
  N  N204  1  0.551810  0.003600  0.956100  1.0  -0.192
  N  N205  1  0.663070  0.881540  0.289430  1.0  -0.1934
  N  N206  1  0.329730  0.214880  0.622770  1.0  -0.1933
  N  N207  1  0.996400  0.548210  0.956100  1.0  -0.1933
  N  N208  1  0.881540  0.218480  0.710570  1.0  -0.1921
  N  N209  1  0.548210  0.551810  0.043900  1.0  -0.192
  N  N210  1  0.214880  0.885140  0.377230  1.0  -0.192
  N  N211  1  0.781520  0.663070  0.710570  1.0  -0.1944
  N  N212  1  0.448190  0.996400  0.043900  1.0  -0.1946
  N  N213  1  0.114860  0.329730  0.377230  1.0  -0.1946
  N  N214  1  0.336930  0.118460  0.710570  1.0  -0.1936
  N  N215  1  0.003600  0.451790  0.043900  1.0  -0.1935
  N  N216  1  0.670270  0.785120  0.377230  1.0  -0.1935
  O  O217  1  0.138840  0.709840  0.861630  1.0  -0.7423
  O  O218  1  0.054270  0.671030  0.069530  1.0  -0.9112
  O  O219  1  0.059620  0.713830  0.718730  1.0  -0.9014
  O  O220  1  0.805500  0.043180  0.194970  1.0  -0.7505
  O  O221  1  0.720930  0.004370  0.402870  1.0  -0.9112
  O  O222  1  0.726280  0.047170  0.052070  1.0  -0.9017
  O  O223  1  0.472170  0.376510  0.528300  1.0  -0.7455
  O  O224  1  0.387600  0.337700  0.736200  1.0  -0.9113
  O  O225  1  0.392950  0.380500  0.385400  1.0  -0.9018
  O  O226  1  0.290160  0.428990  0.861630  1.0  -0.7537
  O  O227  1  0.328970  0.383230  0.069530  1.0  -0.9116
  O  O228  1  0.286170  0.345780  0.718730  1.0  -0.9014
  O  O229  1  0.956820  0.762330  0.194970  1.0  -0.7564
  O  O230  1  0.995630  0.716570  0.402870  1.0  -0.9115
  O  O231  1  0.952830  0.679120  0.052070  1.0  -0.9019
  O  O232  1  0.623490  0.095660  0.528300  1.0  -0.7527
  O  O233  1  0.662300  0.049900  0.736200  1.0  -0.9116
  O  O234  1  0.619500  0.012450  0.385400  1.0  -0.901
  O  O235  1  0.571010  0.861160  0.861630  1.0  -0.751
  O  O236  1  0.616770  0.945730  0.069530  1.0  -0.9099
  O  O237  1  0.654220  0.940380  0.718730  1.0  -0.9014
  O  O238  1  0.237670  0.194500  0.194970  1.0  -0.7511
  O  O239  1  0.283430  0.279070  0.402870  1.0  -0.9098
  O  O240  1  0.320880  0.273720  0.052070  1.0  -0.901
  O  O241  1  0.904340  0.527830  0.528300  1.0  -0.751
  O  O242  1  0.950100  0.612400  0.736200  1.0  -0.9098
  O  O243  1  0.987550  0.607050  0.385400  1.0  -0.9014
  O  O244  1  0.861160  0.290160  0.138370  1.0  -0.7365
  O  O245  1  0.945730  0.328970  0.930470  1.0  -0.9102
  O  O246  1  0.940380  0.286170  0.281270  1.0  -0.9009
  O  O247  1  0.527830  0.623490  0.471700  1.0  -0.7392
  O  O248  1  0.612400  0.662300  0.263800  1.0  -0.9102
  O  O249  1  0.607050  0.619500  0.614600  1.0  -0.9012
  O  O250  1  0.194500  0.956820  0.805030  1.0  -0.745
  O  O251  1  0.279070  0.995630  0.597130  1.0  -0.9102
  O  O252  1  0.273720  0.952830  0.947930  1.0  -0.9012
  O  O253  1  0.709840  0.571010  0.138370  1.0  -0.7509
  O  O254  1  0.671030  0.616770  0.930470  1.0  -0.9115
  O  O255  1  0.713830  0.654220  0.281270  1.0  -0.9009
  O  O256  1  0.376510  0.904340  0.471700  1.0  -0.751
  O  O257  1  0.337700  0.950100  0.263800  1.0  -0.9115
  O  O258  1  0.380500  0.987550  0.614600  1.0  -0.9005
  O  O259  1  0.043180  0.237670  0.805030  1.0  -0.7537
  O  O260  1  0.004370  0.283430  0.597130  1.0  -0.9114
  O  O261  1  0.047170  0.320880  0.947930  1.0  -0.9014
  O  O262  1  0.428990  0.138840  0.138370  1.0  -0.752
  O  O263  1  0.383230  0.054270  0.930470  1.0  -0.9098
  O  O264  1  0.345780  0.059620  0.281270  1.0  -0.9015
  O  O265  1  0.095660  0.472170  0.471700  1.0  -0.7518
  O  O266  1  0.049900  0.387600  0.263800  1.0  -0.9098
  O  O267  1  0.012450  0.392950  0.614600  1.0  -0.9015
  O  O268  1  0.762330  0.805500  0.805030  1.0  -0.7521
  O  O269  1  0.716570  0.720930  0.597130  1.0  -0.9098
  O  O270  1  0.679120  0.726280  0.947930  1.0  -0.9011
