# generated using pymatgen
data_MgPH6C3NO3
_symmetry_space_group_name_H-M   'P 1'
_cell_length_a   6.29660000
_cell_length_b   16.36140000
_cell_length_c   16.36140000
_cell_angle_alpha   61.62010000
_cell_angle_beta   82.62970000
_cell_angle_gamma   97.37030000
_symmetry_Int_Tables_number   1
_chemical_formula_structural   MgPH6C3NO3
_chemical_formula_sum   'Mg6 P6 H36 C18 N6 O18'
_cell_volume   1435.72559083
_cell_formula_units_Z   6
loop_
 _symmetry_equiv_pos_site_id
 _symmetry_equiv_pos_as_xyz
  1  'x, y, z'
loop_
 _atom_site_type_symbol
 _atom_site_label
 _atom_site_symmetry_multiplicity
 _atom_site_fract_x
 _atom_site_fract_y
 _atom_site_fract_z
 _atom_site_occupancy
 _atom_site_charge
  Mg  Mg1  1  0.455230  0.746860  0.580520  1.0  1.4186
  Mg  Mg2  1  0.035750  0.580520  0.672620  1.0  1.4189
  Mg  Mg3  1  0.708370  0.672620  0.746860  1.0  1.42
  Mg  Mg4  1  0.544770  0.253140  0.419480  1.0  1.42
  Mg  Mg5  1  0.964250  0.419480  0.327380  1.0  1.42
  Mg  Mg6  1  0.291630  0.327380  0.253140  1.0  1.4194
  P  P7  1  0.008730  0.803870  0.535590  1.0  1.4859
  P  P8  1  0.544320  0.535590  0.660540  1.0  1.4851
  P  P9  1  0.204860  0.660540  0.803870  1.0  1.4843
  P  P10  1  0.991270  0.196130  0.464410  1.0  1.4866
  P  P11  1  0.455680  0.464410  0.339460  1.0  1.4849
  P  P12  1  0.795140  0.339460  0.196130  1.0  1.4851
  H  H13  1  0.123800  0.947100  0.532000  1.0  0.082
  H  H14  1  0.115500  0.861700  0.633200  1.0  0.1197
  H  H15  1  0.412700  0.943600  0.400400  1.0  0.05
  H  H16  1  0.645300  0.959900  0.421500  1.0  0.0355
  H  H17  1  0.666400  0.928100  0.586500  1.0  0.0269
  H  H18  1  0.445500  0.893700  0.661300  1.0  0.0322
  H  H19  1  0.655800  0.532000  0.520900  1.0  0.0806
  H  H20  1  0.748700  0.633200  0.505100  1.0  0.1199
  H  H21  1  0.813100  0.400400  0.656000  1.0  0.0527
  H  H22  1  0.066800  0.421500  0.618600  1.0  0.0383
  H  H23  1  0.252900  0.586500  0.485400  1.0  0.0291
  H  H24  1  0.106800  0.661300  0.445000  1.0  0.0358
  H  H25  1  0.176700  0.520900  0.947100  1.0  0.0813
  H  H26  1  0.253800  0.505100  0.861700  1.0  0.1192
  H  H27  1  0.469100  0.656000  0.943600  1.0  0.0514
  H  H28  1  0.685400  0.618600  0.959900  1.0  0.0372
  H  H29  1  0.738300  0.485400  0.928100  1.0  0.0273
  H  H30  1  0.551800  0.445000  0.893700  1.0  0.0321
  H  H31  1  0.876200  0.052900  0.468000  1.0  0.0826
  H  H32  1  0.884500  0.138300  0.366800  1.0  0.1176
  H  H33  1  0.587300  0.056400  0.599600  1.0  0.0495
  H  H34  1  0.354700  0.040100  0.578500  1.0  0.0377
  H  H35  1  0.333600  0.071900  0.413500  1.0  0.0265
  H  H36  1  0.554500  0.106300  0.338700  1.0  0.0319
  H  H37  1  0.344200  0.468000  0.479100  1.0  0.0799
  H  H38  1  0.251300  0.366800  0.494900  1.0  0.1213
  H  H39  1  0.186900  0.599600  0.344000  1.0  0.0531
  H  H40  1  0.933200  0.578500  0.381400  1.0  0.0391
  H  H41  1  0.747100  0.413500  0.514600  1.0  0.0263
  H  H42  1  0.893200  0.338700  0.555000  1.0  0.0361
  H  H43  1  0.823300  0.479100  0.052900  1.0  0.0807
  H  H44  1  0.746200  0.494900  0.138300  1.0  0.1185
  H  H45  1  0.530900  0.344000  0.056400  1.0  0.0516
  H  H46  1  0.314600  0.381400  0.040100  1.0  0.0355
  H  H47  1  0.261700  0.514600  0.071900  1.0  0.0252
  H  H48  1  0.448200  0.555000  0.106300  1.0  0.0321
  C  C49  1  0.160010  0.885270  0.565540  1.0  -0.4841
  C  C50  1  0.493970  0.963420  0.436810  1.0  -0.0663
  C  C51  1  0.514230  0.933200  0.594210  1.0  -0.0559
  C  C52  1  0.725550  0.565540  0.549190  1.0  -0.4904
  C  C53  1  0.930780  0.436810  0.599770  1.0  -0.0647
  C  C54  1  0.108440  0.594210  0.472590  1.0  -0.0569
  C  C55  1  0.274740  0.549190  0.885270  1.0  -0.4717
  C  C56  1  0.530550  0.599770  0.963420  1.0  -0.063
  C  C57  1  0.581030  0.472590  0.933200  1.0  -0.0539
  C  C58  1  0.839990  0.114730  0.434460  1.0  -0.4806
  C  C59  1  0.506030  0.036580  0.563190  1.0  -0.0698
  C  C60  1  0.485770  0.066800  0.405790  1.0  -0.0544
  C  C61  1  0.274450  0.434460  0.450810  1.0  -0.4892
  C  C62  1  0.069220  0.563190  0.400230  1.0  -0.065
  C  C63  1  0.891560  0.405790  0.527410  1.0  -0.0532
  C  C64  1  0.725260  0.450810  0.114730  1.0  -0.4679
  C  C65  1  0.469450  0.400230  0.036580  1.0  -0.0603
  C  C66  1  0.418970  0.527410  0.066800  1.0  -0.0561
  N  N67  1  0.403130  0.895880  0.539790  1.0  -0.2056
  N  N68  1  0.942920  0.539790  0.564330  1.0  -0.2064
  N  N69  1  0.507250  0.564330  0.895880  1.0  -0.2055
  N  N70  1  0.596870  0.104120  0.460210  1.0  -0.2056
  N  N71  1  0.057080  0.460210  0.435670  1.0  -0.2038
  N  N72  1  0.492750  0.435670  0.104120  1.0  -0.205
  O  O73  1  0.005400  0.852590  0.431190  1.0  -0.7056
  O  O74  1  0.776750  0.768150  0.598600  1.0  -0.8479
  O  O75  1  0.132740  0.722960  0.566940  1.0  -0.8876
  O  O76  1  0.436590  0.431190  0.716220  1.0  -0.7156
  O  O77  1  0.375350  0.598600  0.633250  1.0  -0.848
  O  O78  1  0.699680  0.566940  0.710100  1.0  -0.8894
  O  O79  1  0.152810  0.716220  0.852590  1.0  -0.7119
  O  O80  1  0.008600  0.633250  0.768150  1.0  -0.8485
  O  O81  1  0.409780  0.710100  0.722960  1.0  -0.8896
  O  O82  1  0.994600  0.147410  0.568810  1.0  -0.7041
  O  O83  1  0.223250  0.231850  0.401400  1.0  -0.8481
  O  O84  1  0.867260  0.277040  0.433060  1.0  -0.8886
  O  O85  1  0.563410  0.568810  0.283780  1.0  -0.7166
  O  O86  1  0.624650  0.401400  0.366750  1.0  -0.8473
  O  O87  1  0.300320  0.433060  0.289900  1.0  -0.8899
  O  O88  1  0.847190  0.283780  0.147410  1.0  -0.7153
  O  O89  1  0.991400  0.366750  0.231850  1.0  -0.8473
  O  O90  1  0.590220  0.289900  0.277040  1.0  -0.8885
