# generated using pymatgen
data_FePC3NO3
_symmetry_space_group_name_H-M   'P 1'
_cell_length_a   28.01030000
_cell_length_b   28.01030000
_cell_length_c   6.40440000
_cell_angle_alpha   90.00000000
_cell_angle_beta   90.00000000
_cell_angle_gamma   120.00000000
_symmetry_Int_Tables_number   1
_chemical_formula_structural   FePC3NO3
_chemical_formula_sum   'Fe18 P18 C54 N18 O54'
_cell_volume   4351.55624368
_cell_formula_units_Z   18
loop_
 _symmetry_equiv_pos_site_id
 _symmetry_equiv_pos_as_xyz
  1  'x, y, z'
loop_
 _atom_site_type_symbol
 _atom_site_label
 _atom_site_symmetry_multiplicity
 _atom_site_fract_x
 _atom_site_fract_y
 _atom_site_fract_z
 _atom_site_occupancy
 _atom_site_charge
  Fe  Fe1  1  0.302200  0.027800  0.711300  1.0  0.9928
  Fe  Fe2  1  0.968870  0.361130  0.044630  1.0  0.993
  Fe  Fe3  1  0.635530  0.694470  0.377970  1.0  0.9927
  Fe  Fe4  1  0.972200  0.274400  0.711300  1.0  0.9932
  Fe  Fe5  1  0.638870  0.607730  0.044630  1.0  0.9933
  Fe  Fe6  1  0.305530  0.941070  0.377970  1.0  0.9933
  Fe  Fe7  1  0.725600  0.697800  0.711300  1.0  0.9925
  Fe  Fe8  1  0.392270  0.031130  0.044630  1.0  0.9926
  Fe  Fe9  1  0.058930  0.364470  0.377970  1.0  0.9924
  Fe  Fe10  1  0.697800  0.972200  0.288700  1.0  0.9924
  Fe  Fe11  1  0.364470  0.305530  0.622030  1.0  0.9923
  Fe  Fe12  1  0.031130  0.638870  0.955370  1.0  0.9926
  Fe  Fe13  1  0.027800  0.725600  0.288700  1.0  0.9936
  Fe  Fe14  1  0.694470  0.058930  0.622030  1.0  0.9936
  Fe  Fe15  1  0.361130  0.392270  0.955370  1.0  0.9936
  Fe  Fe16  1  0.274400  0.302200  0.288700  1.0  0.9933
  Fe  Fe17  1  0.941070  0.635530  0.622030  1.0  0.9933
  Fe  Fe18  1  0.607730  0.968870  0.955370  1.0  0.9935
  P  P19  1  0.426280  0.040330  0.578600  1.0  1.5413
  P  P20  1  0.092950  0.373660  0.911930  1.0  1.5413
  P  P21  1  0.759610  0.707000  0.245270  1.0  1.5411
  P  P22  1  0.959670  0.385950  0.578600  1.0  1.5361
  P  P23  1  0.626340  0.719280  0.911930  1.0  1.5359
  P  P24  1  0.293000  0.052620  0.245270  1.0  1.5361
  P  P25  1  0.614050  0.573720  0.578600  1.0  1.5414
  P  P26  1  0.280720  0.907050  0.911930  1.0  1.5414
  P  P27  1  0.947380  0.240390  0.245270  1.0  1.5414
  P  P28  1  0.573720  0.959670  0.421400  1.0  1.5407
  P  P29  1  0.240390  0.293000  0.754730  1.0  1.5405
  P  P30  1  0.907050  0.626340  0.088070  1.0  1.5407
  P  P31  1  0.040330  0.614050  0.421400  1.0  1.5337
  P  P32  1  0.707000  0.947380  0.754730  1.0  1.5337
  P  P33  1  0.373660  0.280720  0.088070  1.0  1.5335
  P  P34  1  0.385950  0.426280  0.421400  1.0  1.5288
  P  P35  1  0.052620  0.759610  0.754730  1.0  1.5288
  P  P36  1  0.719280  0.092950  0.088070  1.0  1.5288
  C  C37  1  0.445160  0.994580  0.720200  1.0  -0.0953
  C  C38  1  0.523920  0.058330  0.954400  1.0  -0.042
  C  C39  1  0.446490  0.973380  0.101400  1.0  -0.0183
  C  C40  1  0.111830  0.327910  0.053530  1.0  -0.0953
  C  C41  1  0.190590  0.391660  0.287730  1.0  -0.042
  C  C42  1  0.113160  0.306710  0.434730  1.0  -0.0183
  C  C43  1  0.778490  0.661250  0.386870  1.0  -0.0953
  C  C44  1  0.857250  0.725000  0.621070  1.0  -0.0419
  C  C45  1  0.779820  0.640050  0.768070  1.0  -0.0183
  C  C46  1  0.005420  0.450580  0.720200  1.0  -0.0962
  C  C47  1  0.941670  0.465590  0.954400  1.0  -0.0397
  C  C48  1  0.026620  0.473110  0.101400  1.0  -0.0175
  C  C49  1  0.672090  0.783910  0.053530  1.0  -0.0962
  C  C50  1  0.608340  0.798920  0.287730  1.0  -0.0396
  C  C51  1  0.693290  0.806440  0.434730  1.0  -0.0175
  C  C52  1  0.338750  0.117250  0.386870  1.0  -0.0962
  C  C53  1  0.275000  0.132260  0.621070  1.0  -0.0379
  C  C54  1  0.359950  0.139780  0.768070  1.0  -0.0175
  C  C55  1  0.549420  0.554840  0.720200  1.0  -0.0939
  C  C56  1  0.534410  0.476080  0.954400  1.0  -0.0411
  C  C57  1  0.526890  0.553510  0.101400  1.0  -0.0149
  C  C58  1  0.216090  0.888170  0.053530  1.0  -0.0939
  C  C59  1  0.201080  0.809410  0.287730  1.0  -0.0411
  C  C60  1  0.193560  0.886840  0.434730  1.0  -0.0149
  C  C61  1  0.882750  0.221510  0.386870  1.0  -0.0939
  C  C62  1  0.867740  0.142750  0.621070  1.0  -0.0414
  C  C63  1  0.860220  0.220180  0.768070  1.0  -0.0149
  C  C64  1  0.554840  0.005420  0.279800  1.0  -0.0985
  C  C65  1  0.476080  0.941670  0.045600  1.0  -0.0427
  C  C66  1  0.553510  0.026620  0.898600  1.0  -0.0128
  C  C67  1  0.221510  0.338750  0.613130  1.0  -0.0985
  C  C68  1  0.142750  0.275000  0.378930  1.0  -0.0426
  C  C69  1  0.220180  0.359950  0.231930  1.0  -0.0128
  C  C70  1  0.888170  0.672090  0.946470  1.0  -0.0985
  C  C71  1  0.809410  0.608340  0.712270  1.0  -0.0427
  C  C72  1  0.886840  0.693290  0.565270  1.0  -0.0128
  C  C73  1  0.994580  0.549420  0.279800  1.0  -0.0968
  C  C74  1  0.058330  0.534410  0.045600  1.0  -0.042
  C  C75  1  0.973380  0.526890  0.898600  1.0  -0.0119
  C  C76  1  0.661250  0.882750  0.613130  1.0  -0.0968
  C  C77  1  0.725000  0.867740  0.378930  1.0  -0.0392
  C  C78  1  0.640050  0.860220  0.231930  1.0  -0.0119
  C  C79  1  0.327910  0.216090  0.946470  1.0  -0.0968
  C  C80  1  0.391660  0.201080  0.712270  1.0  -0.0419
  C  C81  1  0.306710  0.193560  0.565270  1.0  -0.0119
  C  C82  1  0.450580  0.445160  0.279800  1.0  -0.0966
  C  C83  1  0.465590  0.523920  0.045600  1.0  -0.0379
  C  C84  1  0.473110  0.446490  0.898600  1.0  -0.0151
  C  C85  1  0.117250  0.778490  0.613130  1.0  -0.0966
  C  C86  1  0.132260  0.857250  0.378930  1.0  -0.0382
  C  C87  1  0.139780  0.779820  0.231930  1.0  -0.0151
  C  C88  1  0.783910  0.111830  0.946470  1.0  -0.0966
  C  C89  1  0.798920  0.190590  0.712270  1.0  -0.038
  C  C90  1  0.806440  0.113160  0.565270  1.0  -0.0151
  N  N91  1  0.461910  0.018350  0.937000  1.0  -0.1007
  N  N92  1  0.128580  0.351680  0.270330  1.0  -0.1009
  N  N93  1  0.795240  0.685020  0.603670  1.0  -0.1007
  N  N94  1  0.981650  0.443560  0.937000  1.0  -0.1058
  N  N95  1  0.648320  0.776890  0.270330  1.0  -0.1059
  N  N96  1  0.314980  0.110230  0.603670  1.0  -0.1058
  N  N97  1  0.556440  0.538090  0.937000  1.0  -0.1014
  N  N98  1  0.223110  0.871420  0.270330  1.0  -0.1015
  N  N99  1  0.889770  0.204760  0.603670  1.0  -0.1014
  N  N100  1  0.538090  0.981650  0.063000  1.0  -0.1017
  N  N101  1  0.204760  0.314980  0.396330  1.0  -0.1017
  N  N102  1  0.871420  0.648320  0.729670  1.0  -0.1019
  N  N103  1  0.018350  0.556440  0.063000  1.0  -0.0976
  N  N104  1  0.685020  0.889770  0.396330  1.0  -0.0976
  N  N105  1  0.351680  0.223110  0.729670  1.0  -0.0977
  N  N106  1  0.443560  0.461910  0.063000  1.0  -0.103
  N  N107  1  0.110230  0.795240  0.396330  1.0  -0.103
  N  N108  1  0.776890  0.128580  0.729670  1.0  -0.1031
  O  O109  1  0.477400  0.091000  0.517900  1.0  -0.5521
  O  O110  1  0.391600  0.056100  0.716400  1.0  -0.866
  O  O111  1  0.389000  0.011800  0.396300  1.0  -0.8621
  O  O112  1  0.144070  0.424330  0.851230  1.0  -0.5521
  O  O113  1  0.058270  0.389430  0.049730  1.0  -0.8662
  O  O114  1  0.055670  0.345130  0.729630  1.0  -0.8622
  O  O115  1  0.810730  0.757670  0.184570  1.0  -0.5523
  O  O116  1  0.724930  0.722770  0.383070  1.0  -0.8661
  O  O117  1  0.722330  0.678470  0.062970  1.0  -0.8623
  O  O118  1  0.909000  0.386400  0.517900  1.0  -0.5489
  O  O119  1  0.943900  0.335500  0.716400  1.0  -0.8667
  O  O120  1  0.988200  0.377200  0.396300  1.0  -0.861
  O  O121  1  0.575670  0.719730  0.851230  1.0  -0.5489
  O  O122  1  0.610570  0.668830  0.049730  1.0  -0.8669
  O  O123  1  0.654870  0.710530  0.729630  1.0  -0.8615
  O  O124  1  0.242330  0.053070  0.184570  1.0  -0.5458
  O  O125  1  0.277230  0.002170  0.383070  1.0  -0.8669
  O  O126  1  0.321530  0.043870  0.062970  1.0  -0.861
  O  O127  1  0.613600  0.522600  0.517900  1.0  -0.5514
  O  O128  1  0.664500  0.608400  0.716400  1.0  -0.8626
  O  O129  1  0.622800  0.611000  0.396300  1.0  -0.8612
  O  O130  1  0.280270  0.855930  0.851230  1.0  -0.5514
  O  O131  1  0.331170  0.941730  0.049730  1.0  -0.8612
  O  O132  1  0.289470  0.944330  0.729630  1.0  -0.861
  O  O133  1  0.946930  0.189270  0.184570  1.0  -0.549
  O  O134  1  0.997830  0.275070  0.383070  1.0  -0.8626
  O  O135  1  0.956130  0.277670  0.062970  1.0  -0.861
  O  O136  1  0.522600  0.909000  0.482100  1.0  -0.5506
  O  O137  1  0.608400  0.943900  0.283600  1.0  -0.8639
  O  O138  1  0.611000  0.988200  0.603700  1.0  -0.8627
  O  O139  1  0.189270  0.242330  0.815430  1.0  -0.5517
  O  O140  1  0.275070  0.277230  0.616930  1.0  -0.864
  O  O141  1  0.277670  0.321530  0.937030  1.0  -0.8628
  O  O142  1  0.855930  0.575670  0.148770  1.0  -0.5506
  O  O143  1  0.941730  0.610570  0.950270  1.0  -0.8641
  O  O144  1  0.944330  0.654870  0.270370  1.0  -0.8627
  O  O145  1  0.091000  0.613600  0.482100  1.0  -0.5492
  O  O146  1  0.056100  0.664500  0.283600  1.0  -0.8652
  O  O147  1  0.011800  0.622800  0.603700  1.0  -0.8602
  O  O148  1  0.757670  0.946930  0.815430  1.0  -0.5463
  O  O149  1  0.722770  0.997830  0.616930  1.0  -0.8653
  O  O150  1  0.678470  0.956130  0.937030  1.0  -0.8602
  O  O151  1  0.424330  0.280270  0.148770  1.0  -0.5492
  O  O152  1  0.389430  0.331170  0.950270  1.0  -0.8653
  O  O153  1  0.345130  0.289470  0.270370  1.0  -0.8607
  O  O154  1  0.386400  0.477400  0.482100  1.0  -0.5534
  O  O155  1  0.335500  0.391600  0.283600  1.0  -0.8623
  O  O156  1  0.377200  0.389000  0.603700  1.0  -0.861
  O  O157  1  0.053070  0.810730  0.815430  1.0  -0.552
  O  O158  1  0.002170  0.724930  0.616930  1.0  -0.8621
  O  O159  1  0.043870  0.722330  0.937030  1.0  -0.8609
  O  O160  1  0.719730  0.144070  0.148770  1.0  -0.5534
  O  O161  1  0.668830  0.058270  0.950270  1.0  -0.8608
  O  O162  1  0.710530  0.055670  0.270370  1.0  -0.8609
