# generated using pymatgen
data_CoPC3NO3
_symmetry_space_group_name_H-M   'P 1'
_cell_length_a   28.09420000
_cell_length_b   28.09420000
_cell_length_c   6.28460000
_cell_angle_alpha   90.00000000
_cell_angle_beta   90.00000000
_cell_angle_gamma   120.00000000
_symmetry_Int_Tables_number   1
_chemical_formula_structural   CoPC3NO3
_chemical_formula_sum   'Co18 P18 C54 N18 O54'
_cell_volume   4295.77585212
_cell_formula_units_Z   18
loop_
 _symmetry_equiv_pos_site_id
 _symmetry_equiv_pos_as_xyz
  1  'x, y, z'
loop_
 _atom_site_type_symbol
 _atom_site_label
 _atom_site_symmetry_multiplicity
 _atom_site_fract_x
 _atom_site_fract_y
 _atom_site_fract_z
 _atom_site_occupancy
 _atom_site_charge
  Co  Co1  1  0.306800  0.032480  0.716800  1.0  0.9767
  Co  Co2  1  0.973470  0.365810  0.050130  1.0  0.9766
  Co  Co3  1  0.640130  0.699150  0.383470  1.0  0.9767
  Co  Co4  1  0.967520  0.274320  0.716800  1.0  0.9737
  Co  Co5  1  0.634190  0.607650  0.050130  1.0  0.9737
  Co  Co6  1  0.300850  0.940990  0.383470  1.0  0.9744
  Co  Co7  1  0.725680  0.693200  0.716800  1.0  0.976
  Co  Co8  1  0.392350  0.026530  0.050130  1.0  0.9762
  Co  Co9  1  0.059010  0.359870  0.383470  1.0  0.976
  Co  Co10  1  0.693200  0.967520  0.283200  1.0  0.9751
  Co  Co11  1  0.359870  0.300850  0.616530  1.0  0.975
  Co  Co12  1  0.026530  0.634190  0.949870  1.0  0.9749
  Co  Co13  1  0.032480  0.725680  0.283200  1.0  0.9755
  Co  Co14  1  0.699150  0.059010  0.616530  1.0  0.9758
  Co  Co15  1  0.365810  0.392350  0.949870  1.0  0.9755
  Co  Co16  1  0.274320  0.306800  0.283200  1.0  0.9747
  Co  Co17  1  0.940990  0.640130  0.616530  1.0  0.9747
  Co  Co18  1  0.607650  0.973470  0.949870  1.0  0.9748
  P  P19  1  0.422400  0.031000  0.570500  1.0  1.5167
  P  P20  1  0.089070  0.364330  0.903830  1.0  1.5167
  P  P21  1  0.755730  0.697670  0.237170  1.0  1.5167
  P  P22  1  0.969000  0.391400  0.570500  1.0  1.5201
  P  P23  1  0.635670  0.724730  0.903830  1.0  1.5201
  P  P24  1  0.302330  0.058070  0.237170  1.0  1.5202
  P  P25  1  0.608600  0.577600  0.570500  1.0  1.5209
  P  P26  1  0.275270  0.910930  0.903830  1.0  1.5209
  P  P27  1  0.941930  0.244270  0.237170  1.0  1.5209
  P  P28  1  0.577600  0.969000  0.429500  1.0  1.5213
  P  P29  1  0.244270  0.302330  0.762830  1.0  1.5213
  P  P30  1  0.910930  0.635670  0.096170  1.0  1.5213
  P  P31  1  0.031000  0.608600  0.429500  1.0  1.5066
  P  P32  1  0.697670  0.941930  0.762830  1.0  1.5066
  P  P33  1  0.364330  0.275270  0.096170  1.0  1.5066
  P  P34  1  0.391400  0.422400  0.429500  1.0  1.511
  P  P35  1  0.058070  0.755730  0.762830  1.0  1.511
  P  P36  1  0.724730  0.089070  0.096170  1.0  1.511
  C  C37  1  0.439400  0.984700  0.717300  1.0  -0.1245
  C  C38  1  0.497500  0.050800  0.001000  1.0  -0.0231
  C  C39  1  0.451500  0.949700  0.080000  1.0  -0.0363
  C  C40  1  0.106070  0.318030  0.050630  1.0  -0.1245
  C  C41  1  0.164170  0.384130  0.334330  1.0  -0.0234
  C  C42  1  0.118170  0.283030  0.413330  1.0  -0.0363
  C  C43  1  0.772730  0.651370  0.383970  1.0  -0.1245
  C  C44  1  0.830830  0.717470  0.667670  1.0  -0.0231
  C  C45  1  0.784830  0.616370  0.746670  1.0  -0.0363
  C  C46  1  0.015300  0.454700  0.717300  1.0  -0.1238
  C  C47  1  0.949200  0.446700  0.001000  1.0  -0.0228
  C  C48  1  0.050300  0.501800  0.080000  1.0  -0.0405
  C  C49  1  0.681970  0.788030  0.050630  1.0  -0.1238
  C  C50  1  0.615870  0.780030  0.334330  1.0  -0.023
  C  C51  1  0.716970  0.835130  0.413330  1.0  -0.0404
  C  C52  1  0.348630  0.121370  0.383970  1.0  -0.1238
  C  C53  1  0.282530  0.113370  0.667670  1.0  -0.0228
  C  C54  1  0.383630  0.168470  0.746670  1.0  -0.0405
  C  C55  1  0.545300  0.560600  0.717300  1.0  -0.1248
  C  C56  1  0.553300  0.502500  0.001000  1.0  -0.0219
  C  C57  1  0.498200  0.548500  0.080000  1.0  -0.037
  C  C58  1  0.211970  0.893930  0.050630  1.0  -0.1248
  C  C59  1  0.219970  0.835830  0.334330  1.0  -0.0219
  C  C60  1  0.164870  0.881830  0.413330  1.0  -0.0369
  C  C61  1  0.878630  0.227270  0.383970  1.0  -0.1248
  C  C62  1  0.886630  0.169170  0.667670  1.0  -0.0219
  C  C63  1  0.831530  0.215170  0.746670  1.0  -0.037
  C  C64  1  0.560600  0.015300  0.282700  1.0  -0.127
  C  C65  1  0.502500  0.949200  0.999000  1.0  -0.0225
  C  C66  1  0.548500  0.050300  0.920000  1.0  -0.0356
  C  C67  1  0.227270  0.348630  0.616030  1.0  -0.127
  C  C68  1  0.169170  0.282530  0.332330  1.0  -0.0225
  C  C69  1  0.215170  0.383630  0.253330  1.0  -0.0356
  C  C70  1  0.893930  0.681970  0.949370  1.0  -0.127
  C  C71  1  0.835830  0.615870  0.665670  1.0  -0.0228
  C  C72  1  0.881830  0.716970  0.586670  1.0  -0.0358
  C  C73  1  0.984700  0.545300  0.282700  1.0  -0.1272
  C  C74  1  0.050800  0.553300  0.999000  1.0  -0.0209
  C  C75  1  0.949700  0.498200  0.920000  1.0  -0.0364
  C  C76  1  0.651370  0.878630  0.616030  1.0  -0.1272
  C  C77  1  0.717470  0.886630  0.332330  1.0  -0.0209
  C  C78  1  0.616370  0.831530  0.253330  1.0  -0.0364
  C  C79  1  0.318030  0.211970  0.949370  1.0  -0.1272
  C  C80  1  0.384130  0.219970  0.665670  1.0  -0.0212
  C  C81  1  0.283030  0.164870  0.586670  1.0  -0.0364
  C  C82  1  0.454700  0.439400  0.282700  1.0  -0.1271
  C  C83  1  0.446700  0.497500  0.999000  1.0  -0.0198
  C  C84  1  0.501800  0.451500  0.920000  1.0  -0.0383
  C  C85  1  0.121370  0.772730  0.616030  1.0  -0.1271
  C  C86  1  0.113370  0.830830  0.332330  1.0  -0.0198
  C  C87  1  0.168470  0.784830  0.253330  1.0  -0.0383
  C  C88  1  0.788030  0.106070  0.949370  1.0  -0.1271
  C  C89  1  0.780030  0.164170  0.665670  1.0  -0.0196
  C  C90  1  0.835130  0.118170  0.586670  1.0  -0.0382
  N  N91  1  0.447790  0.994400  0.955700  1.0  -0.057
  N  N92  1  0.114460  0.327730  0.289030  1.0  -0.057
  N  N93  1  0.781120  0.661070  0.622370  1.0  -0.057
  N  N94  1  0.005600  0.453390  0.955700  1.0  -0.0557
  N  N95  1  0.672270  0.786720  0.289030  1.0  -0.0557
  N  N96  1  0.338930  0.120060  0.622370  1.0  -0.0557
  N  N97  1  0.546610  0.552210  0.955700  1.0  -0.0532
  N  N98  1  0.213280  0.885540  0.289030  1.0  -0.0532
  N  N99  1  0.879940  0.218880  0.622370  1.0  -0.0532
  N  N100  1  0.552210  0.005600  0.044300  1.0  -0.0578
  N  N101  1  0.218880  0.338930  0.377630  1.0  -0.0578
  N  N102  1  0.885540  0.672270  0.710970  1.0  -0.0578
  N  N103  1  0.994400  0.546610  0.044300  1.0  -0.052
  N  N104  1  0.661070  0.879940  0.377630  1.0  -0.052
  N  N105  1  0.327730  0.213280  0.710970  1.0  -0.0519
  N  N106  1  0.453390  0.447790  0.044300  1.0  -0.0603
  N  N107  1  0.120060  0.781120  0.377630  1.0  -0.0603
  N  N108  1  0.786720  0.114460  0.710970  1.0  -0.0603
  O  O109  1  0.474700  0.082500  0.522000  1.0  -0.5952
  O  O110  1  0.389600  0.044500  0.718500  1.0  -0.8189
  O  O111  1  0.385000  0.002900  0.384200  1.0  -0.8401
  O  O112  1  0.141370  0.415830  0.855330  1.0  -0.5952
  O  O113  1  0.056270  0.377830  0.051830  1.0  -0.8188
  O  O114  1  0.051670  0.336230  0.717530  1.0  -0.8401
  O  O115  1  0.808030  0.749170  0.188670  1.0  -0.5948
  O  O116  1  0.722930  0.711170  0.385170  1.0  -0.8189
  O  O117  1  0.718330  0.669570  0.050870  1.0  -0.8399
  O  O118  1  0.917500  0.392200  0.522000  1.0  -0.5886
  O  O119  1  0.955500  0.345100  0.718500  1.0  -0.8178
  O  O120  1  0.997100  0.382100  0.384200  1.0  -0.8394
  O  O121  1  0.584170  0.725530  0.855330  1.0  -0.5886
  O  O122  1  0.622170  0.678430  0.051830  1.0  -0.8178
  O  O123  1  0.663770  0.715430  0.717530  1.0  -0.8393
  O  O124  1  0.250830  0.058870  0.188670  1.0  -0.5862
  O  O125  1  0.288830  0.011770  0.385170  1.0  -0.8177
  O  O126  1  0.330430  0.048770  0.050870  1.0  -0.8394
  O  O127  1  0.607800  0.525300  0.522000  1.0  -0.5928
  O  O128  1  0.654900  0.610400  0.718500  1.0  -0.8161
  O  O129  1  0.617900  0.615000  0.384200  1.0  -0.839
  O  O130  1  0.274470  0.858630  0.855330  1.0  -0.5928
  O  O131  1  0.321570  0.943730  0.051830  1.0  -0.8164
  O  O132  1  0.284570  0.948330  0.717530  1.0  -0.839
  O  O133  1  0.941130  0.191970  0.188670  1.0  -0.5943
  O  O134  1  0.988230  0.277070  0.385170  1.0  -0.8161
  O  O135  1  0.951230  0.281670  0.050870  1.0  -0.8391
  O  O136  1  0.525300  0.917500  0.478000  1.0  -0.596
  O  O137  1  0.610400  0.955500  0.281500  1.0  -0.8182
  O  O138  1  0.615000  0.997100  0.615800  1.0  -0.8408
  O  O139  1  0.191970  0.250830  0.811330  1.0  -0.5959
  O  O140  1  0.277070  0.288830  0.614830  1.0  -0.8182
  O  O141  1  0.281670  0.330430  0.949130  1.0  -0.8406
  O  O142  1  0.858630  0.584170  0.144670  1.0  -0.596
  O  O143  1  0.943730  0.622170  0.948170  1.0  -0.8182
  O  O144  1  0.948330  0.663770  0.282470  1.0  -0.8408
  O  O145  1  0.082500  0.607800  0.478000  1.0  -0.5922
  O  O146  1  0.044500  0.654900  0.281500  1.0  -0.8176
  O  O147  1  0.002900  0.617900  0.615800  1.0  -0.841
  O  O148  1  0.749170  0.941130  0.811330  1.0  -0.5901
  O  O149  1  0.711170  0.988230  0.614830  1.0  -0.8179
  O  O150  1  0.669570  0.951230  0.949130  1.0  -0.841
  O  O151  1  0.415830  0.274470  0.144670  1.0  -0.5922
  O  O152  1  0.377830  0.321570  0.948170  1.0  -0.8176
  O  O153  1  0.336230  0.284570  0.282470  1.0  -0.8409
  O  O154  1  0.392200  0.474700  0.478000  1.0  -0.5945
  O  O155  1  0.345100  0.389600  0.281500  1.0  -0.815
  O  O156  1  0.382100  0.385000  0.615800  1.0  -0.8402
  O  O157  1  0.058870  0.808030  0.811330  1.0  -0.597
  O  O158  1  0.011770  0.722930  0.614830  1.0  -0.815
  O  O159  1  0.048770  0.718330  0.949130  1.0  -0.8403
  O  O160  1  0.725530  0.141370  0.144670  1.0  -0.5945
  O  O161  1  0.678430  0.056270  0.948170  1.0  -0.8151
  O  O162  1  0.715430  0.051670  0.282470  1.0  -0.8403
