# generated using pymatgen
data_Fe3P4H4(CO6)3
_symmetry_space_group_name_H-M   'P 1'
_cell_length_a   8.47380000
_cell_length_b   16.68530000
_cell_length_c   16.21480000
_cell_angle_alpha   90.00000000
_cell_angle_beta   95.91900000
_cell_angle_gamma   90.00000000
_symmetry_Int_Tables_number   1
_chemical_formula_structural   Fe3P4H4(CO6)3
_chemical_formula_sum   'Fe12 P16 H16 C12 O72'
_cell_volume   2280.35397231
_cell_formula_units_Z   4
loop_
 _symmetry_equiv_pos_site_id
 _symmetry_equiv_pos_as_xyz
  1  'x, y, z'
loop_
 _atom_site_type_symbol
 _atom_site_label
 _atom_site_symmetry_multiplicity
 _atom_site_fract_x
 _atom_site_fract_y
 _atom_site_fract_z
 _atom_site_occupancy
 _atom_site_charge
  Fe  Fe1  1  0.046220  0.387930  0.719930  1.0  1.2082
  Fe  Fe2  1  0.509400  0.148650  0.578180  1.0  1.2658
  Fe  Fe3  1  0.021360  0.128540  0.775190  1.0  1.1494
  Fe  Fe4  1  0.453780  0.887930  0.780070  1.0  1.2109
  Fe  Fe5  1  0.990600  0.648650  0.921820  1.0  1.2647
  Fe  Fe6  1  0.478640  0.628540  0.724810  1.0  1.1463
  Fe  Fe7  1  0.953780  0.612070  0.280070  1.0  1.2109
  Fe  Fe8  1  0.490600  0.851350  0.421820  1.0  1.2642
  Fe  Fe9  1  0.978640  0.871460  0.224810  1.0  1.1458
  Fe  Fe10  1  0.546220  0.112070  0.219930  1.0  1.2082
  Fe  Fe11  1  0.009400  0.351350  0.078180  1.0  1.2665
  Fe  Fe12  1  0.521360  0.371460  0.275190  1.0  1.1479
  P  P13  1  0.813650  0.534880  0.769180  1.0  1.5755
  P  P14  1  0.300600  0.235840  0.707840  1.0  1.5099
  P  P15  1  0.018170  0.285370  0.890680  1.0  1.5428
  P  P16  1  0.801550  0.249240  0.662530  1.0  1.5532
  P  P17  1  0.686350  0.034880  0.730820  1.0  1.5826
  P  P18  1  0.199400  0.735840  0.792160  1.0  1.5025
  P  P19  1  0.481830  0.785370  0.609320  1.0  1.5334
  P  P20  1  0.698450  0.749240  0.837470  1.0  1.5608
  P  P21  1  0.186350  0.465120  0.230820  1.0  1.5792
  P  P22  1  0.699400  0.764160  0.292160  1.0  1.5063
  P  P23  1  0.981830  0.714630  0.109320  1.0  1.5328
  P  P24  1  0.198450  0.750760  0.337470  1.0  1.561
  P  P25  1  0.313650  0.965120  0.269180  1.0  1.5732
  P  P26  1  0.800600  0.264160  0.207840  1.0  1.514
  P  P27  1  0.518170  0.214630  0.390680  1.0  1.542
  P  P28  1  0.301550  0.250760  0.162530  1.0  1.5536
  H  H29  1  0.769600  0.499700  0.809400  1.0  0.1478
  H  H30  1  0.403800  0.253300  0.734600  1.0  0.1589
  H  H31  1  0.133300  0.287900  0.904800  1.0  0.1508
  H  H32  1  0.748100  0.252100  0.713300  1.0  0.163
  H  H33  1  0.730400  0.999700  0.690600  1.0  0.1477
  H  H34  1  0.096200  0.753300  0.765400  1.0  0.1589
  H  H35  1  0.366700  0.787900  0.595200  1.0  0.1515
  H  H36  1  0.751900  0.752100  0.786700  1.0  0.1637
  H  H37  1  0.230400  0.500300  0.190600  1.0  0.1479
  H  H38  1  0.596200  0.746700  0.265400  1.0  0.1589
  H  H39  1  0.866700  0.712100  0.095200  1.0  0.1518
  H  H40  1  0.251900  0.747900  0.286700  1.0  0.1634
  H  H41  1  0.269600  0.000300  0.309400  1.0  0.1472
  H  H42  1  0.903800  0.246700  0.234600  1.0  0.159
  H  H43  1  0.633300  0.212100  0.404800  1.0  0.1508
  H  H44  1  0.248100  0.247900  0.213300  1.0  0.1634
  C  C45  1  0.268000  0.502900  0.671400  1.0  0.6158
  C  C46  1  0.300500  0.494700  0.766200  1.0  0.6732
  C  C47  1  0.411800  0.995300  0.507350  1.0  0.6575
  C  C48  1  0.232000  0.002900  0.828600  1.0  0.6096
  C  C49  1  0.199500  0.994700  0.733800  1.0  0.6755
  C  C50  1  0.088200  0.495300  0.992650  1.0  0.6587
  C  C51  1  0.732000  0.497100  0.328600  1.0  0.61
  C  C52  1  0.699500  0.505300  0.233800  1.0  0.6753
  C  C53  1  0.588200  0.004700  0.492650  1.0  0.6587
  C  C54  1  0.768000  0.997100  0.171400  1.0  0.6148
  C  C55  1  0.800500  0.005300  0.266200  1.0  0.6728
  C  C56  1  0.911800  0.504700  0.007350  1.0  0.6576
  O  O57  1  0.201600  0.310370  0.692330  1.0  -0.8073
  O  O58  1  0.912400  0.483850  0.716460  1.0  -0.7728
  O  O59  1  0.973900  0.343650  0.820360  1.0  -0.8
  O  O60  1  0.875600  0.330880  0.649180  1.0  -0.7472
  O  O61  1  0.222400  0.443490  0.800460  1.0  -0.5174
  O  O62  1  0.162800  0.459610  0.635690  1.0  -0.4973
  O  O63  1  0.331600  0.197570  0.625480  1.0  -0.7659
  O  O64  1  0.913300  0.598370  0.816890  1.0  -0.7814
  O  O65  1  0.676200  0.230600  0.590370  1.0  -0.7889
  O  O66  1  0.939000  0.307630  0.967420  1.0  -0.7564
  O  O67  1  0.352800  0.052300  0.544030  1.0  -0.5146
  O  O68  1  0.343600  0.932500  0.481120  1.0  -0.5247
  O  O69  1  0.974600  0.199690  0.864950  1.0  -0.7881
  O  O70  1  0.676300  0.570300  0.713270  1.0  -0.7558
  O  O71  1  0.926000  0.183250  0.673930  1.0  -0.775
  O  O72  1  0.232800  0.178640  0.767280  1.0  -0.7529
  O  O73  1  0.404600  0.540320  0.801640  1.0  -0.5224
  O  O74  1  0.352900  0.553060  0.638090  1.0  -0.5021
  O  O75  1  0.298400  0.810370  0.807670  1.0  -0.8068
  O  O76  1  0.587600  0.983850  0.783540  1.0  -0.7717
  O  O77  1  0.526100  0.843650  0.679640  1.0  -0.7999
  O  O78  1  0.624400  0.830880  0.850820  1.0  -0.7457
  O  O79  1  0.277600  0.943490  0.699540  1.0  -0.5187
  O  O80  1  0.337200  0.959610  0.864310  1.0  -0.4983
  O  O81  1  0.168400  0.697570  0.874520  1.0  -0.7659
  O  O82  1  0.586700  0.098370  0.683110  1.0  -0.7828
  O  O83  1  0.823800  0.730600  0.909630  1.0  -0.7893
  O  O84  1  0.561000  0.807630  0.532580  1.0  -0.7574
  O  O85  1  0.147200  0.552300  0.955970  1.0  -0.5136
  O  O86  1  0.156400  0.432500  0.018880  1.0  -0.5245
  O  O87  1  0.525400  0.699690  0.635050  1.0  -0.787
  O  O88  1  0.823700  0.070300  0.786730  1.0  -0.7547
  O  O89  1  0.574000  0.683250  0.826070  1.0  -0.7744
  O  O90  1  0.267200  0.678640  0.732720  1.0  -0.7515
  O  O91  1  0.095400  0.040320  0.698360  1.0  -0.5234
  O  O92  1  0.147100  0.053060  0.861910  1.0  -0.4997
  O  O93  1  0.798400  0.689630  0.307670  1.0  -0.807
  O  O94  1  0.087600  0.516150  0.283540  1.0  -0.772
  O  O95  1  0.026100  0.656350  0.179640  1.0  -0.7999
  O  O96  1  0.124400  0.669120  0.350820  1.0  -0.7446
  O  O97  1  0.777600  0.556510  0.199540  1.0  -0.5189
  O  O98  1  0.837200  0.540390  0.364310  1.0  -0.4984
  O  O99  1  0.668400  0.802430  0.374520  1.0  -0.7655
  O  O100  1  0.086700  0.401630  0.183110  1.0  -0.7835
  O  O101  1  0.323800  0.769400  0.409630  1.0  -0.7879
  O  O102  1  0.061000  0.692370  0.032580  1.0  -0.7572
  O  O103  1  0.647200  0.947700  0.455970  1.0  -0.5147
  O  O104  1  0.656400  0.067500  0.518880  1.0  -0.5242
  O  O105  1  0.025400  0.800310  0.135050  1.0  -0.7886
  O  O106  1  0.323700  0.429700  0.286730  1.0  -0.7548
  O  O107  1  0.074000  0.816750  0.326070  1.0  -0.7744
  O  O108  1  0.767200  0.821360  0.232720  1.0  -0.7517
  O  O109  1  0.595400  0.459680  0.198360  1.0  -0.5239
  O  O110  1  0.647100  0.446940  0.361910  1.0  -0.5028
  O  O111  1  0.701600  0.189630  0.192330  1.0  -0.8081
  O  O112  1  0.412400  0.016150  0.216460  1.0  -0.7726
  O  O113  1  0.473900  0.156350  0.320360  1.0  -0.8003
  O  O114  1  0.375600  0.169120  0.149180  1.0  -0.7443
  O  O115  1  0.722400  0.056510  0.300460  1.0  -0.5182
  O  O116  1  0.662800  0.040390  0.135690  1.0  -0.4964
  O  O117  1  0.831600  0.302430  0.125480  1.0  -0.7682
  O  O118  1  0.413300  0.901630  0.316890  1.0  -0.7824
  O  O119  1  0.176200  0.269400  0.090370  1.0  -0.7874
  O  O120  1  0.439000  0.192370  0.467420  1.0  -0.7558
  O  O121  1  0.852800  0.447700  0.044030  1.0  -0.5157
  O  O122  1  0.843600  0.567500  0.981120  1.0  -0.5244
  O  O123  1  0.474600  0.300310  0.364950  1.0  -0.7889
  O  O124  1  0.176300  0.929700  0.213270  1.0  -0.756
  O  O125  1  0.426000  0.316750  0.173930  1.0  -0.7741
  O  O126  1  0.732800  0.321360  0.267280  1.0  -0.7534
  O  O127  1  0.904600  0.959680  0.301640  1.0  -0.5233
  O  O128  1  0.852900  0.946940  0.138090  1.0  -0.5007
