# generated using pymatgen
data_Gd2Cu3H84C54(NO2)12
_symmetry_space_group_name_H-M   'P 1'
_cell_length_a   8.84920000
_cell_length_b   17.24500000
_cell_length_c   17.79100000
_cell_angle_alpha   115.27500000
_cell_angle_beta   95.66200000
_cell_angle_gamma   103.86500000
_symmetry_Int_Tables_number   1
_chemical_formula_structural   Gd2Cu3H84C54(NO2)12
_chemical_formula_sum   'Gd2 Cu3 H84 C54 N12 O24'
_cell_volume   2320.24854157
_cell_formula_units_Z   1
loop_
 _symmetry_equiv_pos_site_id
 _symmetry_equiv_pos_as_xyz
  1  'x, y, z'
loop_
 _atom_site_type_symbol
 _atom_site_label
 _atom_site_symmetry_multiplicity
 _atom_site_fract_x
 _atom_site_fract_y
 _atom_site_fract_z
 _atom_site_occupancy
 _atom_site_charge
  Gd  Gd1  1  0.185780  0.219650  0.375280  1.0  2.0315
  Gd  Gd2  1  0.814220  0.780350  0.624720  1.0  2.0321
  Cu  Cu3  1  0.000000  0.500000  0.500000  1.0  0.4996
  Cu  Cu4  1  0.500000  0.000000  0.500000  1.0  0.5261
  Cu  Cu5  1  0.500000  0.000000  0.000000  1.0  0.4956
  H  H6  1  0.980900  0.365300  0.615900  1.0  0.0909
  H  H7  1  0.145400  0.441200  0.647500  1.0  0.0725
  H  H8  1  0.940000  0.589000  0.681600  1.0  0.0861
  H  H9  1  0.987900  0.534400  0.725900  1.0  0.0707
  H  H10  1  0.197200  0.660500  0.768000  1.0  0.0816
  H  H11  1  0.248700  0.577400  0.711600  1.0  0.0802
  H  H12  1  0.341200  0.700000  0.681300  1.0  0.0742
  H  H13  1  0.163600  0.692400  0.650400  1.0  0.0788
  H  H14  1  0.320100  0.508600  0.597500  1.0  0.0738
  H  H15  1  0.353300  0.503800  0.511100  1.0  0.0856
  H  H16  1  0.766500  0.397600  0.613500  1.0  0.0716
  H  H17  1  0.736100  0.472900  0.592100  1.0  0.0703
  H  H18  1  0.620700  0.328900  0.471700  1.0  0.075
  H  H19  1  0.790100  0.315200  0.471700  1.0  0.0754
  H  H20  1  0.657000  0.087900  0.382700  1.0  0.099
  H  H21  1  0.758000  0.157800  0.474500  1.0  0.0944
  H  H22  1  0.952300  0.084700  0.518500  1.0  0.0721
  H  H23  1  0.856400  0.998700  0.524000  1.0  0.0722
  H  H24  1  0.900000  0.130900  0.650600  1.0  0.0547
  H  H25  1  0.797600  0.164400  0.600500  1.0  0.0784
  H  H26  1  0.613400  0.971000  0.666900  1.0  0.0766
  H  H27  1  0.780500  0.983900  0.644000  1.0  0.0962
  H  H28  1  0.380400  0.827400  0.328500  1.0  0.0825
  H  H29  1  0.307000  0.857900  0.266000  1.0  0.0749
  H  H30  1  0.562200  0.964500  0.293600  1.0  0.1037
  H  H31  1  0.568200  0.865500  0.251200  1.0  0.1103
  H  H32  1  0.805800  0.944300  0.354600  1.0  0.0716
  H  H33  1  0.697400  0.896100  0.396800  1.0  0.082
  H  H34  1  0.224400  0.044500  0.097000  1.0  0.0952
  H  H35  1  0.305700  0.995500  0.136800  1.0  0.0952
  H  H36  1  0.583300  0.118900  0.240900  1.0  0.0682
  H  H37  1  0.698600  0.139300  0.185200  1.0  0.0682
  H  H38  1  0.468600  0.220100  0.180000  1.0  0.0785
  H  H39  1  0.580200  0.201000  0.115900  1.0  0.0826
  H  H40  1  0.359900  0.238700  0.071200  1.0  0.0824
  H  H41  1  0.245700  0.149100  0.062400  1.0  0.0854
  H  H42  1  0.467800  0.156100  0.960300  1.0  0.0817
  H  H43  1  0.283800  0.134200  0.929400  1.0  0.077
  H  H44  1  0.290400  0.991100  0.805400  1.0  0.0805
  H  H45  1  0.474100  0.036400  0.847300  1.0  0.0782
  H  H46  1  0.109200  0.958800  0.867800  1.0  0.0882
  H  H47  1  0.127900  0.017100  0.965900  1.0  0.0774
  H  H48  1  0.019100  0.634700  0.384100  1.0  0.0884
  H  H49  1  0.854600  0.558800  0.352500  1.0  0.0727
  H  H50  1  0.060000  0.411000  0.318400  1.0  0.0861
  H  H51  1  0.012100  0.465600  0.274100  1.0  0.072
  H  H52  1  0.802800  0.339500  0.232000  1.0  0.0816
  H  H53  1  0.751300  0.422600  0.288400  1.0  0.0797
  H  H54  1  0.658800  0.300000  0.318700  1.0  0.0729
  H  H55  1  0.836400  0.307600  0.349600  1.0  0.0789
  H  H56  1  0.679900  0.491400  0.402500  1.0  0.073
  H  H57  1  0.646700  0.496200  0.488900  1.0  0.0856
  H  H58  1  0.233500  0.602400  0.386500  1.0  0.0708
  H  H59  1  0.263900  0.527100  0.407900  1.0  0.069
  H  H60  1  0.379300  0.671100  0.528300  1.0  0.0747
  H  H61  1  0.209900  0.684800  0.528300  1.0  0.0743
  H  H62  1  0.343000  0.912100  0.617300  1.0  0.0985
  H  H63  1  0.242000  0.842200  0.525500  1.0  0.0956
  H  H64  1  0.047700  0.915300  0.481500  1.0  0.0714
  H  H65  1  0.143600  0.001300  0.476000  1.0  0.0706
  H  H66  1  0.100000  0.869100  0.349400  1.0  0.0569
  H  H67  1  0.202400  0.835600  0.399500  1.0  0.0772
  H  H68  1  0.386600  0.029000  0.333100  1.0  0.0782
  H  H69  1  0.219500  0.016100  0.356000  1.0  0.0939
  H  H70  1  0.619600  0.172600  0.671500  1.0  0.0843
  H  H71  1  0.693000  0.142100  0.734000  1.0  0.0748
  H  H72  1  0.437800  0.035500  0.706400  1.0  0.1041
  H  H73  1  0.431800  0.134500  0.748800  1.0  0.1099
  H  H74  1  0.194200  0.055700  0.645400  1.0  0.0731
  H  H75  1  0.302600  0.103900  0.603200  1.0  0.0816
  H  H76  1  0.775600  0.955500  0.903000  1.0  0.0943
  H  H77  1  0.694300  0.004500  0.863200  1.0  0.0962
  H  H78  1  0.416700  0.881100  0.759100  1.0  0.0683
  H  H79  1  0.301400  0.860700  0.814800  1.0  0.0698
  H  H80  1  0.531400  0.779900  0.820000  1.0  0.0772
  H  H81  1  0.419800  0.799000  0.884100  1.0  0.0823
  H  H82  1  0.640100  0.761300  0.928800  1.0  0.0807
  H  H83  1  0.754300  0.850900  0.937600  1.0  0.0869
  H  H84  1  0.532200  0.843900  0.039700  1.0  0.0813
  H  H85  1  0.716200  0.865800  0.070600  1.0  0.0762
  H  H86  1  0.709600  0.008900  0.194600  1.0  0.0782
  H  H87  1  0.525900  0.963600  0.152700  1.0  0.0789
  H  H88  1  0.890800  0.041200  0.132200  1.0  0.086
  H  H89  1  0.872100  0.982900  0.034100  1.0  0.0771
  C  C90  1  0.097400  0.354500  0.521300  1.0  0.6672
  C  C91  1  0.049900  0.407400  0.601700  1.0  -0.0996
  C  C92  1  0.009200  0.553500  0.683000  1.0  -0.0254
  C  C93  1  0.179900  0.613100  0.710100  1.0  -0.1419
  C  C94  1  0.233900  0.658100  0.654000  1.0  -0.0395
  C  C95  1  0.353500  0.544800  0.569100  1.0  -0.0678
  C  C96  1  0.526600  0.607400  0.615300  1.0  0.7007
  C  C97  1  0.790800  0.427800  0.578900  1.0  -0.0205
  C  C98  1  0.734400  0.359800  0.485100  1.0  -0.0212
  C  C99  1  0.897600  0.123000  0.387800  1.0  0.7032
  C  C100  1  0.751900  0.102500  0.424700  1.0  -0.1122
  C  C101  1  0.849500  0.053700  0.523100  1.0  -0.0111
  C  C102  1  0.812800  0.111300  0.602500  1.0  -0.0205
  C  C103  1  0.668400  0.973700  0.623100  1.0  -0.1157
  C  C104  1  0.604700  0.884400  0.546000  1.0  0.5414
  C  C105  1  0.386100  0.878700  0.318000  1.0  -0.0262
  C  C106  1  0.557700  0.912800  0.303300  1.0  -0.1452
  C  C107  1  0.710200  0.941200  0.377000  1.0  -0.0541
  C  C108  1  0.275800  0.109400  0.226900  1.0  0.7184
  C  C109  1  0.310300  0.054300  0.141500  1.0  -0.0964
  C  C110  1  0.602200  0.097000  0.183800  1.0  -0.0272
  C  C111  1  0.475100  0.177900  0.123900  1.0  -0.0104
  C  C112  1  0.351100  0.176800  0.057600  1.0  -0.159
  C  C113  1  0.363600  0.127200  0.965400  1.0  -0.0582
  C  C114  1  0.377200  0.994400  0.845700  1.0  -0.024
  C  C115  1  0.172100  0.976800  0.923800  1.0  -0.1198
  C  C116  1  0.155300  0.894700  0.935700  1.0  0.7434
  C  C117  1  0.902600  0.645500  0.478700  1.0  0.6644
  C  C118  1  0.950100  0.592600  0.398300  1.0  -0.098
  C  C119  1  0.990800  0.446500  0.317000  1.0  -0.0247
  C  C120  1  0.820100  0.386900  0.289900  1.0  -0.1391
  C  C121  1  0.766100  0.341900  0.346000  1.0  -0.0384
  C  C122  1  0.646500  0.455200  0.430900  1.0  -0.0646
  C  C123  1  0.473400  0.392600  0.384700  1.0  0.6907
  C  C124  1  0.209200  0.572200  0.421100  1.0  -0.0196
  C  C125  1  0.265600  0.640200  0.514900  1.0  -0.0232
  C  C126  1  0.102400  0.877000  0.612200  1.0  0.7018
  C  C127  1  0.248100  0.897500  0.575300  1.0  -0.1151
  C  C128  1  0.150500  0.946300  0.476900  1.0  -0.015
  C  C129  1  0.187200  0.888700  0.397500  1.0  -0.0161
  C  C130  1  0.331600  0.026300  0.376900  1.0  -0.1151
  C  C131  1  0.395300  0.115600  0.454000  1.0  0.5411
  C  C132  1  0.613900  0.121300  0.682000  1.0  -0.0314
  C  C133  1  0.442300  0.087200  0.696700  1.0  -0.1496
  C  C134  1  0.289800  0.058800  0.623000  1.0  -0.0572
  C  C135  1  0.724200  0.890600  0.773100  1.0  0.7194
  C  C136  1  0.689700  0.945700  0.858500  1.0  -0.0997
  C  C137  1  0.397800  0.903000  0.816200  1.0  -0.0262
  C  C138  1  0.524900  0.822100  0.876100  1.0  -0.0115
  C  C139  1  0.648900  0.823200  0.942400  1.0  -0.1555
  C  C140  1  0.636400  0.872800  0.034600  1.0  -0.0567
  C  C141  1  0.622800  0.005600  0.154300  1.0  -0.0252
  C  C142  1  0.827900  0.023200  0.076200  1.0  -0.1211
  C  C143  1  0.844700  0.105300  0.064300  1.0  0.7457
  N  N144  1  0.965900  0.471800  0.598500  1.0  -0.2531
  N  N145  1  0.232400  0.591600  0.565800  1.0  -0.1687
  N  N146  1  0.654500  0.054400  0.612500  1.0  -0.1638
  N  N147  1  0.727400  0.030900  0.449900  1.0  -0.212
  N  N148  1  0.341900  0.028000  0.931400  1.0  -0.254
  N  N149  1  0.462600  0.090400  0.123200  1.0  -0.1657
  N  N150  1  0.034100  0.528200  0.401500  1.0  -0.2549
  N  N151  1  0.767600  0.408400  0.434200  1.0  -0.169
  N  N152  1  0.345500  0.945600  0.387500  1.0  -0.164
  N  N153  1  0.272600  0.969100  0.550100  1.0  -0.2123
  N  N154  1  0.658100  0.972000  0.068600  1.0  -0.253
  N  N155  1  0.537400  0.909600  0.876800  1.0  -0.1653
  O  O156  1  0.085700  0.370100  0.459800  1.0  -0.6538
  O  O157  1  0.151900  0.290800  0.520700  1.0  -0.6678
  O  O158  1  0.600500  0.648900  0.578800  1.0  -0.6533
  O  O159  1  0.586400  0.609700  0.682400  1.0  -0.6194
  O  O160  1  0.896700  0.171100  0.352500  1.0  -0.6184
  O  O161  1  0.014900  0.096000  0.397900  1.0  -0.6101
  O  O162  1  0.633000  0.816600  0.553100  1.0  -0.7013
  O  O163  1  0.528400  0.876500  0.486100  1.0  -0.5705
  O  O164  1  0.143400  0.080200  0.239600  1.0  -0.6431
  O  O165  1  0.378000  0.182600  0.283900  1.0  -0.6721
  O  O166  1  0.274000  0.889500  0.975800  1.0  -0.5956
  O  O167  1  0.018500  0.835200  0.904100  1.0  -0.6257
  O  O168  1  0.914300  0.629900  0.540200  1.0  -0.6552
  O  O169  1  0.848100  0.709200  0.479300  1.0  -0.6677
  O  O170  1  0.399500  0.351100  0.421200  1.0  -0.6549
  O  O171  1  0.413600  0.390300  0.317600  1.0  -0.6177
  O  O172  1  0.103300  0.828900  0.647500  1.0  -0.6182
  O  O173  1  0.985100  0.904000  0.602100  1.0  -0.61
  O  O174  1  0.367000  0.183400  0.446900  1.0  -0.7024
  O  O175  1  0.471600  0.123500  0.513900  1.0  -0.5719
  O  O176  1  0.856600  0.919800  0.760400  1.0  -0.6421
  O  O177  1  0.622000  0.817400  0.716100  1.0  -0.6733
  O  O178  1  0.726000  0.110500  0.024200  1.0  -0.5971
  O  O179  1  0.981500  0.164800  0.095900  1.0  -0.6231
