# generated using pymatgen
data_Eu2Zn3H84C54(NO2)12
_symmetry_space_group_name_H-M   'P 1'
_cell_length_a   8.61900000
_cell_length_b   17.81800000
_cell_length_c   18.38500000
_cell_angle_alpha   95.67200000
_cell_angle_beta   102.22300000
_cell_angle_gamma   101.05300000
_symmetry_Int_Tables_number   1
_chemical_formula_structural   Eu2Zn3H84C54(NO2)12
_chemical_formula_sum   'Eu2 Zn3 H84 C54 N12 O24'
_cell_volume   2679.49204237
_cell_formula_units_Z   1
loop_
 _symmetry_equiv_pos_site_id
 _symmetry_equiv_pos_as_xyz
  1  'x, y, z'
loop_
 _atom_site_type_symbol
 _atom_site_label
 _atom_site_symmetry_multiplicity
 _atom_site_fract_x
 _atom_site_fract_y
 _atom_site_fract_z
 _atom_site_occupancy
 _atom_site_charge
  Eu  Eu1  1  0.057110  0.773580  0.143180  1.0  2.1503
  Eu  Eu2  1  0.942890  0.226420  0.856820  1.0  2.1488
  Zn  Zn3  1  0.500000  0.500000  0.000000  1.0  0.7381
  Zn  Zn4  1  0.000000  0.000000  0.500000  1.0  0.7358
  Zn  Zn5  1  0.500000  0.000000  0.000000  1.0  0.7143
  H  H6  1  0.661000  0.549800  0.192400  1.0  0.072
  H  H7  1  0.807300  0.515200  0.178000  1.0  0.0746
  H  H8  1  0.401700  0.383300  0.106800  1.0  0.0786
  H  H9  1  0.516100  0.415100  0.186400  1.0  0.0579
  H  H10  1  0.417500  0.529200  0.185400  1.0  0.0681
  H  H11  1  0.283700  0.456300  0.184900  1.0  0.0667
  H  H12  1  0.161900  0.526400  0.107100  1.0  0.0635
  H  H13  1  0.184700  0.456500  0.055000  1.0  0.0812
  H  H14  1  0.142400  0.517800  0.952700  1.0  0.0725
  H  H15  1  0.152400  0.604100  0.984600  1.0  0.0679
  H  H16  1  0.758500  0.396500  0.126400  1.0  0.0604
  H  H17  1  0.608800  0.357700  0.059700  1.0  0.0642
  H  H18  1  0.470500  0.628500  0.138600  1.0  0.0679
  H  H19  1  0.473100  0.664700  0.064500  1.0  0.0668
  H  H20  1  0.127500  0.873600  0.403100  1.0  0.0929
  H  H21  1  0.938500  0.848100  0.376700  1.0  0.071
  H  H22  1  0.878500  0.031400  0.338300  1.0  0.0844
  H  H23  1  0.887100  0.964400  0.278300  1.0  0.0731
  H  H24  1  0.718600  0.876000  0.336200  1.0  0.0848
  H  H25  1  0.629000  0.933500  0.294400  1.0  0.0902
  H  H26  1  0.546300  0.926000  0.403000  1.0  0.0696
  H  H27  1  0.656000  0.008600  0.411400  1.0  0.0803
  H  H28  1  0.682900  0.027400  0.535400  1.0  0.0665
  H  H29  1  0.598700  0.945000  0.547700  1.0  0.065
  H  H30  1  0.667500  0.839700  0.511400  1.0  0.0655
  H  H31  1  0.714700  0.830400  0.433700  1.0  0.0686
  H  H32  1  0.217800  0.995600  0.339600  1.0  0.0624
  H  H33  1  0.152500  0.065300  0.371600  1.0  0.0613
  H  H34  1  0.565400  0.911300  0.138700  1.0  0.0787
  H  H35  1  0.479700  0.843600  0.073700  1.0  0.0718
  H  H36  1  0.727000  0.901100  0.950800  1.0  0.085
  H  H37  1  0.744800  0.835900  0.001200  1.0  0.0717
  H  H38  1  0.455800  0.791300  0.965400  1.0  0.0778
  H  H39  1  0.542400  0.779400  0.900000  1.0  0.0717
  H  H40  1  0.311800  0.817400  0.850800  1.0  0.0678
  H  H41  1  0.456400  0.885900  0.851800  1.0  0.0759
  H  H42  1  0.296000  0.970700  0.836200  1.0  0.0647
  H  H43  1  0.130600  0.919900  0.842700  1.0  0.0681
  H  H44  1  0.101700  0.863000  0.938200  1.0  0.086
  H  H45  1  0.235600  0.819200  0.971200  1.0  0.0683
  H  H46  1  0.871400  0.949600  0.121500  1.0  0.0611
  H  H47  1  0.868200  0.991400  0.050000  1.0  0.0665
  H  H48  1  0.339000  0.450200  0.807600  1.0  0.072
  H  H49  1  0.192700  0.484800  0.822000  1.0  0.0739
  H  H50  1  0.598300  0.616700  0.893200  1.0  0.0805
  H  H51  1  0.483900  0.584900  0.813600  1.0  0.0589
  H  H52  1  0.582500  0.470800  0.814600  1.0  0.068
  H  H53  1  0.716300  0.543700  0.815100  1.0  0.0658
  H  H54  1  0.838100  0.473600  0.892900  1.0  0.0644
  H  H55  1  0.815300  0.543500  0.945000  1.0  0.079
  H  H56  1  0.857600  0.482200  0.047300  1.0  0.0727
  H  H57  1  0.847600  0.395900  0.015400  1.0  0.0689
  H  H58  1  0.241500  0.603500  0.873600  1.0  0.0615
  H  H59  1  0.391200  0.642300  0.940300  1.0  0.0621
  H  H60  1  0.529500  0.371500  0.861400  1.0  0.0671
  H  H61  1  0.526900  0.335300  0.935500  1.0  0.0678
  H  H62  1  0.872500  0.126400  0.596900  1.0  0.0913
  H  H63  1  0.061500  0.151900  0.623300  1.0  0.0705
  H  H64  1  0.121500  0.968600  0.661700  1.0  0.0835
  H  H65  1  0.112900  0.035600  0.721700  1.0  0.0718
  H  H66  1  0.281400  0.124000  0.663800  1.0  0.0837
  H  H67  1  0.371000  0.066500  0.705600  1.0  0.0885
  H  H68  1  0.453700  0.074000  0.597000  1.0  0.0729
  H  H69  1  0.344000  0.991400  0.588600  1.0  0.0791
  H  H70  1  0.317100  0.972600  0.464600  1.0  0.0663
  H  H71  1  0.401300  0.055000  0.452300  1.0  0.0642
  H  H72  1  0.332500  0.160300  0.488600  1.0  0.0656
  H  H73  1  0.285300  0.169600  0.566300  1.0  0.0699
  H  H74  1  0.782200  0.004400  0.660400  1.0  0.0636
  H  H75  1  0.847500  0.934700  0.628400  1.0  0.0642
  H  H76  1  0.434600  0.088700  0.861300  1.0  0.0767
  H  H77  1  0.520300  0.156400  0.926300  1.0  0.0729
  H  H78  1  0.273000  0.098900  0.049200  1.0  0.0839
  H  H79  1  0.255200  0.164100  0.998800  1.0  0.0725
  H  H80  1  0.544200  0.208700  0.034600  1.0  0.0755
  H  H81  1  0.457600  0.220600  0.100000  1.0  0.0713
  H  H82  1  0.688200  0.182600  0.149200  1.0  0.0664
  H  H83  1  0.543600  0.114100  0.148200  1.0  0.077
  H  H84  1  0.704000  0.029300  0.163800  1.0  0.0655
  H  H85  1  0.869400  0.080100  0.157300  1.0  0.0676
  H  H86  1  0.898300  0.137000  0.061800  1.0  0.0851
  H  H87  1  0.764400  0.180800  0.028800  1.0  0.0676
  H  H88  1  0.128600  0.050400  0.878500  1.0  0.0619
  H  H89  1  0.131800  0.008600  0.950000  1.0  0.0656
  C  C90  1  0.764900  0.599700  0.113700  1.0  0.696
  C  C91  1  0.711600  0.532100  0.153500  1.0  -0.1476
  C  C92  1  0.465800  0.430100  0.139200  1.0  -0.0563
  C  C93  1  0.351700  0.481700  0.154800  1.0  -0.1602
  C  C94  1  0.242300  0.503300  0.089100  1.0  -0.0348
  C  C95  1  0.216500  0.566900  0.974200  1.0  -0.0272
  C  C96  1  0.685700  0.405900  0.081900  1.0  -0.0376
  C  C97  1  0.402800  0.635400  0.091400  1.0  -0.0781
  C  C98  1  0.281000  0.682100  0.108600  1.0  0.7018
  C  C99  1  0.049000  0.849400  0.287600  1.0  0.7129
  C  C100  1  0.033500  0.880600  0.366900  1.0  -0.1123
  C  C101  1  0.877300  0.976600  0.329500  1.0  -0.0429
  C  C102  1  0.712400  0.929900  0.337800  1.0  -0.1673
  C  C103  1  0.657300  0.954100  0.408500  1.0  -0.0575
  C  C104  1  0.701300  0.976800  0.544600  1.0  -0.0607
  C  C105  1  0.748700  0.858600  0.484400  1.0  -0.1234
  C  C106  1  0.912000  0.842800  0.523300  1.0  0.7167
  C  C107  1  0.174400  0.015100  0.380400  1.0  -0.0373
  C  C108  1  0.681300  0.820800  0.142100  1.0  0.7052
  C  C109  1  0.585000  0.874900  0.100600  1.0  -0.1088
  C  C110  1  0.673600  0.869100  0.982000  1.0  -0.0395
  C  C111  1  0.514300  0.818300  0.932600  1.0  -0.1832
  C  C112  1  0.398100  0.857200  0.883500  1.0  -0.0553
  C  C113  1  0.231400  0.953900  0.871300  1.0  -0.062
  C  C114  1  0.212900  0.870100  0.967000  1.0  -0.1349
  C  C115  1  0.227000  0.911000  0.045100  1.0  0.7128
  C  C116  1  0.806400  0.975000  0.086200  1.0  -0.025
  C  C117  1  0.235100  0.400300  0.886300  1.0  0.6982
  C  C118  1  0.288400  0.467900  0.846500  1.0  -0.1484
  C  C119  1  0.534200  0.569900  0.860800  1.0  -0.061
  C  C120  1  0.648300  0.518300  0.845200  1.0  -0.1615
  C  C121  1  0.757700  0.496700  0.910900  1.0  -0.0291
  C  C122  1  0.783500  0.433100  0.025800  1.0  -0.0214
  C  C123  1  0.314300  0.594100  0.918100  1.0  -0.0378
  C  C124  1  0.597200  0.364600  0.908600  1.0  -0.0817
  C  C125  1  0.719000  0.317900  0.891400  1.0  0.7064
  C  C126  1  0.951000  0.150600  0.712400  1.0  0.7159
  C  C127  1  0.966500  0.119400  0.633100  1.0  -0.1115
  C  C128  1  0.122700  0.023400  0.670500  1.0  -0.042
  C  C129  1  0.287600  0.070100  0.662200  1.0  -0.1712
  C  C130  1  0.342700  0.045900  0.591500  1.0  -0.0552
  C  C131  1  0.298700  0.023200  0.455400  1.0  -0.0553
  C  C132  1  0.251300  0.141400  0.515600  1.0  -0.1239
  C  C133  1  0.088000  0.157200  0.476700  1.0  0.7235
  C  C134  1  0.825600  0.984900  0.619600  1.0  -0.0364
  C  C135  1  0.318700  0.179200  0.857900  1.0  0.7071
  C  C136  1  0.415000  0.125100  0.899400  1.0  -0.1047
  C  C137  1  0.326400  0.130900  0.018000  1.0  -0.0451
  C  C138  1  0.485700  0.181700  0.067400  1.0  -0.1802
  C  C139  1  0.601900  0.142800  0.116500  1.0  -0.0547
  C  C140  1  0.768600  0.046100  0.128700  1.0  -0.0653
  C  C141  1  0.787100  0.129900  0.033000  1.0  -0.1359
  C  C142  1  0.773000  0.089000  0.954900  1.0  0.7143
  C  C143  1  0.193600  0.025000  0.913800  1.0  -0.0277
  N  N144  1  0.596200  0.465030  0.103700  1.0  -0.1659
  N  N145  1  0.327500  0.558050  0.046200  1.0  -0.1695
  N  N146  1  0.020400  0.960900  0.382300  1.0  -0.1759
  N  N147  1  0.756700  0.941500  0.480700  1.0  -0.1828
  N  N148  1  0.651900  0.920260  0.046800  1.0  -0.1637
  N  N149  1  0.322400  0.910940  0.925340  1.0  -0.1845
  N  N150  1  0.403800  0.534970  0.896300  1.0  -0.1682
  N  N151  1  0.672500  0.441950  0.953800  1.0  -0.1706
  N  N152  1  0.979600  0.039100  0.617700  1.0  -0.177
  N  N153  1  0.243300  0.058500  0.519300  1.0  -0.1829
  N  N154  1  0.348100  0.079740  0.953200  1.0  -0.1645
  N  N155  1  0.677600  0.089060  0.074660  1.0  -0.1826
  O  O156  1  0.874200  0.653370  0.151400  1.0  -0.7122
  O  O157  1  0.693500  0.597520  0.044960  1.0  -0.5993
  O  O158  1  0.260800  0.737860  0.073020  1.0  -0.6567
  O  O159  1  0.201800  0.665060  0.155900  1.0  -0.6785
  O  O160  1  0.039800  0.777950  0.274930  1.0  -0.6875
  O  O161  1  0.071100  0.892960  0.239170  1.0  -0.6606
  O  O162  1  0.908900  0.777000  0.541000  1.0  -0.5251
  O  O163  1  0.040900  0.894130  0.533430  1.0  -0.6039
  O  O164  1  0.804300  0.807570  0.122480  1.0  -0.6346
  O  O165  1  0.619900  0.792610  0.191760  1.0  -0.5911
  O  O166  1  0.128700  0.880750  0.081520  1.0  -0.7601
  O  O167  1  0.334300  0.972090  0.070490  1.0  -0.5977
  O  O168  1  0.125800  0.346630  0.848600  1.0  -0.7125
  O  O169  1  0.306500  0.402480  0.955040  1.0  -0.5995
  O  O170  1  0.739200  0.262140  0.926980  1.0  -0.6573
  O  O171  1  0.798200  0.334940  0.844100  1.0  -0.6786
  O  O172  1  0.960200  0.222050  0.725070  1.0  -0.69
  O  O173  1  0.928900  0.107040  0.760830  1.0  -0.6601
  O  O174  1  0.091100  0.223000  0.459000  1.0  -0.5297
  O  O175  1  0.959100  0.105870  0.466570  1.0  -0.608
  O  O176  1  0.195700  0.192430  0.877520  1.0  -0.6374
  O  O177  1  0.380100  0.207390  0.808240  1.0  -0.5903
  O  O178  1  0.871300  0.119250  0.918480  1.0  -0.7601
  O  O179  1  0.665700  0.027910  0.929510  1.0  -0.5977
