# generated using pymatgen
data_Cd(CN5)2
_symmetry_space_group_name_H-M   'P 1'
_cell_length_a   9.94110000
_cell_length_b   9.94110000
_cell_length_c   11.21000000
_cell_angle_alpha   63.67860000
_cell_angle_beta   63.67860000
_cell_angle_gamma   89.99990000
_symmetry_Int_Tables_number   1
_chemical_formula_structural   Cd(CN5)2
_chemical_formula_sum   'Cd4 C8 N40'
_cell_volume   862.96101054
_cell_formula_units_Z   4
loop_
 _symmetry_equiv_pos_site_id
 _symmetry_equiv_pos_as_xyz
  1  'x, y, z'
loop_
 _atom_site_type_symbol
 _atom_site_label
 _atom_site_symmetry_multiplicity
 _atom_site_fract_x
 _atom_site_fract_y
 _atom_site_fract_z
 _atom_site_occupancy
 _atom_site_charge
  Cd  Cd1  1  0.864160  0.614160  0.771680  1.0  0.8533
  Cd  Cd2  1  0.614160  0.864160  0.271680  1.0  0.8533
  Cd  Cd3  1  0.135840  0.385840  0.228320  1.0  0.8547
  Cd  Cd4  1  0.385840  0.135840  0.728320  1.0  0.8547
  C  C5  1  0.613000  0.558600  0.558200  1.0  0.4704
  C  C6  1  0.328800  0.883200  0.558200  1.0  0.4706
  C  C7  1  0.558600  0.328800  0.058200  1.0  0.4706
  C  C8  1  0.883200  0.613000  0.058200  1.0  0.4681
  C  C9  1  0.387000  0.441400  0.441800  1.0  0.4715
  C  C10  1  0.671200  0.116800  0.441800  1.0  0.4744
  C  C11  1  0.441400  0.671200  0.941800  1.0  0.4711
  C  C12  1  0.116800  0.387000  0.941800  1.0  0.4705
  N  N13  1  0.753680  0.752520  0.514840  1.0  -0.1373
  N  N14  1  0.747910  0.625660  0.630600  1.0  -0.0101
  N  N15  1  0.660050  0.502060  0.660340  1.0  -0.3295
  N  N16  1  0.667750  0.711160  0.467700  1.0  -0.2847
  N  N17  1  0.517510  0.462700  0.551320  1.0  -0.1474
  N  N18  1  0.231480  0.732640  0.514840  1.0  -0.1357
  N  N19  1  0.121490  0.743740  0.630600  1.0  -0.0054
  N  N20  1  0.179610  0.837600  0.660340  1.0  -0.3258
  N  N21  1  0.364550  0.821140  0.467700  1.0  -0.2817
  N  N22  1  0.431170  0.985980  0.551320  1.0  -0.1496
  N  N23  1  0.752520  0.231480  0.014840  1.0  -0.1356
  N  N24  1  0.625660  0.121490  0.130600  1.0  -0.0085
  N  N25  1  0.502060  0.179610  0.160340  1.0  -0.3245
  N  N26  1  0.711160  0.364550  0.967700  1.0  -0.2818
  N  N27  1  0.462700  0.431170  0.051320  1.0  -0.1483
  N  N28  1  0.732640  0.753680  0.014840  1.0  -0.1369
  N  N29  1  0.743740  0.747910  0.130600  1.0  -0.005
  N  N30  1  0.837600  0.660050  0.160340  1.0  -0.3229
  N  N31  1  0.821140  0.667750  0.967700  1.0  -0.2861
  N  N32  1  0.985980  0.517510  0.051320  1.0  -0.1455
  N  N33  1  0.246320  0.247480  0.485160  1.0  -0.1381
  N  N34  1  0.252090  0.374340  0.369400  1.0  -0.0051
  N  N35  1  0.339950  0.497940  0.339660  1.0  -0.326
  N  N36  1  0.332250  0.288840  0.532300  1.0  -0.2835
  N  N37  1  0.482490  0.537300  0.448680  1.0  -0.1486
  N  N38  1  0.768520  0.267360  0.485160  1.0  -0.1346
  N  N39  1  0.878510  0.256260  0.369400  1.0  -0.005
  N  N40  1  0.820390  0.162400  0.339660  1.0  -0.3259
  N  N41  1  0.635450  0.178860  0.532300  1.0  -0.2807
  N  N42  1  0.568830  0.014020  0.448680  1.0  -0.1479
  N  N43  1  0.247480  0.768520  0.985160  1.0  -0.135
  N  N44  1  0.374340  0.878510  0.869400  1.0  -0.0064
  N  N45  1  0.497940  0.820390  0.839660  1.0  -0.3245
  N  N46  1  0.288840  0.635450  0.032300  1.0  -0.2814
  N  N47  1  0.537300  0.568830  0.948680  1.0  -0.1463
  N  N48  1  0.267360  0.246320  0.985160  1.0  -0.1344
  N  N49  1  0.256260  0.252090  0.869400  1.0  -0.005
  N  N50  1  0.162400  0.339950  0.839660  1.0  -0.3214
  N  N51  1  0.178860  0.332250  0.032300  1.0  -0.2839
  N  N52  1  0.014020  0.482490  0.948680  1.0  -0.1473
