# generated using pymatgen
data_CdH8C19(NO3)2
_symmetry_space_group_name_H-M   'P 1'
_cell_length_a   4.97380000
_cell_length_b   24.83600000
_cell_length_c   20.66300000
_cell_angle_alpha   90.00000000
_cell_angle_beta   95.90300000
_cell_angle_gamma   90.00000000
_symmetry_Int_Tables_number   1
_chemical_formula_structural   CdH8C19(NO3)2
_chemical_formula_sum   'Cd4 H32 C76 N8 O24'
_cell_volume   2538.95113389
_cell_formula_units_Z   4
loop_
 _symmetry_equiv_pos_site_id
 _symmetry_equiv_pos_as_xyz
  1  'x, y, z'
loop_
 _atom_site_type_symbol
 _atom_site_label
 _atom_site_symmetry_multiplicity
 _atom_site_fract_x
 _atom_site_fract_y
 _atom_site_fract_z
 _atom_site_occupancy
 _atom_site_charge
  Cd  Cd1  1  0.322800  0.957640  0.440510  1.0  1.1038
  Cd  Cd2  1  0.177200  0.457640  0.059490  1.0  1.1052
  Cd  Cd3  1  0.677200  0.042360  0.559490  1.0  1.1051
  Cd  Cd4  1  0.822800  0.542360  0.940500  1.0  1.1043
  H  H5  1  0.843400  0.395300  0.155400  1.0  0.0911
  H  H6  1  0.824400  0.315600  0.213000  1.0  0.1343
  H  H7  1  0.386500  0.254000  0.108100  1.0  0.1383
  H  H8  1  0.395900  0.336500  0.055100  1.0  0.0831
  H  H9  1  0.568900  0.111800  0.177300  1.0  0.1208
  H  H10  1  0.502300  0.041200  0.249400  1.0  0.1201
  H  H11  1  0.482100  0.139500  0.451800  1.0  0.1041
  H  H12  1  0.568600  0.202600  0.372000  1.0  0.1225
  H  H13  1  0.656600  0.895300  0.344600  1.0  0.0907
  H  H14  1  0.675600  0.815600  0.287000  1.0  0.1345
  H  H15  1  0.113500  0.754000  0.391900  1.0  0.138
  H  H16  1  0.104100  0.836500  0.444900  1.0  0.0829
  H  H17  1  0.931100  0.611800  0.322700  1.0  0.1206
  H  H18  1  0.997700  0.541200  0.250600  1.0  0.1205
  H  H19  1  0.017900  0.639500  0.048200  1.0  0.1039
  H  H20  1  0.931400  0.702600  0.128000  1.0  0.1242
  H  H21  1  0.156600  0.604700  0.844600  1.0  0.0905
  H  H22  1  0.175600  0.684400  0.787000  1.0  0.1342
  H  H23  1  0.613500  0.746000  0.891900  1.0  0.1379
  H  H24  1  0.604100  0.663500  0.944900  1.0  0.083
  H  H25  1  0.431100  0.888200  0.822700  1.0  0.1199
  H  H26  1  0.497700  0.958800  0.750600  1.0  0.1202
  H  H27  1  0.517900  0.860500  0.548200  1.0  0.1038
  H  H28  1  0.431400  0.797400  0.628000  1.0  0.1217
  H  H29  1  0.343400  0.104700  0.655400  1.0  0.0909
  H  H30  1  0.324400  0.184400  0.713000  1.0  0.1338
  H  H31  1  0.886500  0.246000  0.608100  1.0  0.1383
  H  H32  1  0.895900  0.163500  0.555100  1.0  0.083
  H  H33  1  0.068900  0.388200  0.677300  1.0  0.1208
  H  H34  1  0.002300  0.458800  0.749400  1.0  0.1204
  H  H35  1  0.982100  0.360500  0.951800  1.0  0.1043
  H  H36  1  0.068600  0.297400  0.872000  1.0  0.1223
  C  C37  1  0.960000  0.366600  0.146400  1.0  0.1737
  C  C38  1  0.947100  0.319300  0.181000  1.0  -0.237
  C  C39  1  0.113900  0.278100  0.168200  1.0  0.234
  C  C40  1  0.277300  0.283000  0.119900  1.0  -0.2088
  C  C41  1  0.278500  0.332400  0.088300  1.0  0.1743
  C  C42  1  0.907700  0.191300  0.187300  1.0  0.5253
  C  C43  1  0.881200  0.146000  0.232800  1.0  -0.1351
  C  C44  1  0.047600  0.142630  0.292300  1.0  0.0539
  C  C45  1  0.257800  0.180800  0.306700  1.0  -0.1041
  C  C46  1  0.299300  0.224400  0.261100  1.0  0.5659
  C  C47  1  0.680800  0.109000  0.217300  1.0  -0.0302
  C  C48  1  0.641000  0.066900  0.260600  1.0  -0.0607
  C  C49  1  0.799900  0.062000  0.319600  1.0  -0.0808
  C  C50  1  0.004900  0.101500  0.338400  1.0  0.0588
  C  C51  1  0.166500  0.102810  0.399700  1.0  -0.083
  C  C52  1  0.372400  0.139900  0.411300  1.0  -0.079
  C  C53  1  0.421400  0.178300  0.364100  1.0  -0.045
  C  C54  1  0.747200  0.011950  0.357600  1.0  0.6848
  C  C55  1  0.101200  0.070730  0.458000  1.0  0.7018
  C  C56  1  0.540000  0.866600  0.353600  1.0  0.175
  C  C57  1  0.552900  0.819300  0.319000  1.0  -0.2355
  C  C58  1  0.386100  0.778100  0.331800  1.0  0.2335
  C  C59  1  0.222700  0.783000  0.380100  1.0  -0.2084
  C  C60  1  0.221500  0.832400  0.411700  1.0  0.1749
  C  C61  1  0.592300  0.691300  0.312700  1.0  0.5259
  C  C62  1  0.618800  0.646000  0.267200  1.0  -0.1372
  C  C63  1  0.452400  0.642630  0.207700  1.0  0.054
  C  C64  1  0.242200  0.680800  0.193300  1.0  -0.1039
  C  C65  1  0.200700  0.724400  0.238900  1.0  0.5658
  C  C66  1  0.819200  0.609000  0.282700  1.0  -0.0302
  C  C67  1  0.859000  0.566900  0.239400  1.0  -0.0628
  C  C68  1  0.700100  0.562000  0.180400  1.0  -0.0811
  C  C69  1  0.495100  0.601500  0.161600  1.0  0.0589
  C  C70  1  0.333500  0.602810  0.100300  1.0  -0.0829
  C  C71  1  0.127600  0.639900  0.088700  1.0  -0.0772
  C  C72  1  0.078600  0.678300  0.135900  1.0  -0.0462
  C  C73  1  0.752800  0.511950  0.142400  1.0  0.6854
  C  C74  1  0.398800  0.570730  0.042000  1.0  0.7018
  C  C75  1  0.040000  0.633400  0.853600  1.0  0.1726
  C  C76  1  0.052900  0.680700  0.819000  1.0  -0.2358
  C  C77  1  0.886100  0.721900  0.831800  1.0  0.2333
  C  C78  1  0.722700  0.717000  0.880100  1.0  -0.2087
  C  C79  1  0.721500  0.667600  0.911700  1.0  0.1747
  C  C80  1  0.092300  0.808700  0.812700  1.0  0.5255
  C  C81  1  0.118800  0.854000  0.767200  1.0  -0.1367
  C  C82  1  0.952400  0.857370  0.707700  1.0  0.0542
  C  C83  1  0.742200  0.819200  0.693300  1.0  -0.1045
  C  C84  1  0.700700  0.775600  0.738900  1.0  0.5649
  C  C85  1  0.319200  0.891000  0.782700  1.0  -0.0293
  C  C86  1  0.359000  0.933100  0.739400  1.0  -0.0615
  C  C87  1  0.200100  0.938000  0.680400  1.0  -0.0796
  C  C88  1  0.995100  0.898500  0.661600  1.0  0.0589
  C  C89  1  0.833500  0.897190  0.600300  1.0  -0.0825
  C  C90  1  0.627600  0.860100  0.588700  1.0  -0.0782
  C  C91  1  0.578600  0.821700  0.635900  1.0  -0.0467
  C  C92  1  0.252800  0.988050  0.642400  1.0  0.6857
  C  C93  1  0.898800  0.929270  0.542000  1.0  0.7019
  C  C94  1  0.460000  0.133400  0.646400  1.0  0.1733
  C  C95  1  0.447100  0.180700  0.681000  1.0  -0.237
  C  C96  1  0.613900  0.221900  0.668200  1.0  0.2337
  C  C97  1  0.777300  0.217000  0.619900  1.0  -0.2081
  C  C98  1  0.778500  0.167600  0.588300  1.0  0.1744
  C  C99  1  0.407700  0.308700  0.687300  1.0  0.5259
  C  C100  1  0.381200  0.354000  0.732800  1.0  -0.1362
  C  C101  1  0.547600  0.357370  0.792300  1.0  0.054
  C  C102  1  0.757800  0.319200  0.806700  1.0  -0.1048
  C  C103  1  0.799300  0.275600  0.761100  1.0  0.5656
  C  C104  1  0.180800  0.391000  0.717300  1.0  -0.0283
  C  C105  1  0.141000  0.433100  0.760600  1.0  -0.0608
  C  C106  1  0.299900  0.438000  0.819600  1.0  -0.0796
  C  C107  1  0.504900  0.398500  0.838400  1.0  0.0588
  C  C108  1  0.666500  0.397190  0.899700  1.0  -0.0822
  C  C109  1  0.872400  0.360100  0.911300  1.0  -0.0792
  C  C110  1  0.921400  0.321700  0.864100  1.0  -0.0486
  C  C111  1  0.247200  0.488050  0.857600  1.0  0.6859
  C  C112  1  0.601200  0.429270  0.958000  1.0  0.7018
  N  N113  1  0.127800  0.373730  0.101300  1.0  -0.3193
  N  N114  1  0.109400  0.229190  0.205900  1.0  -0.2101
  N  N115  1  0.372200  0.873730  0.398700  1.0  -0.3197
  N  N116  1  0.390600  0.729190  0.294100  1.0  -0.21
  N  N117  1  0.872200  0.626270  0.898700  1.0  -0.3184
  N  N118  1  0.890600  0.770810  0.794100  1.0  -0.21
  N  N119  1  0.627800  0.126270  0.601300  1.0  -0.3187
  N  N120  1  0.609400  0.270810  0.705900  1.0  -0.2101
  O  O121  1  0.943200  0.982570  0.378130  1.0  -0.7102
  O  O122  1  0.502600  0.001550  0.362110  1.0  -0.6049
  O  O123  1  0.282200  0.041050  0.487950  1.0  -0.6644
  O  O124  1  0.871400  0.078720  0.475950  1.0  -0.5898
  O  O125  1  0.763700  0.197060  0.136600  1.0  -0.508
  O  O126  1  0.483100  0.257220  0.269700  1.0  -0.5202
  O  O127  1  0.556800  0.482570  0.121870  1.0  -0.7099
  O  O128  1  0.997400  0.501550  0.137890  1.0  -0.6047
  O  O129  1  0.217800  0.541050  0.012050  1.0  -0.6655
  O  O130  1  0.628600  0.578720  0.024050  1.0  -0.5898
  O  O131  1  0.736300  0.697060  0.363400  1.0  -0.5087
  O  O132  1  0.016900  0.757220  0.230300  1.0  -0.5206
  O  O133  1  0.056800  0.017430  0.621870  1.0  -0.7106
  O  O134  1  0.497400  0.998450  0.637890  1.0  -0.6041
  O  O135  1  0.717800  0.958950  0.512050  1.0  -0.6646
  O  O136  1  0.128600  0.921280  0.524050  1.0  -0.5902
  O  O137  1  0.236300  0.802940  0.863400  1.0  -0.509
  O  O138  1  0.516900  0.742780  0.730300  1.0  -0.5203
  O  O139  1  0.443200  0.517430  0.878130  1.0  -0.71
  O  O140  1  0.002600  0.498450  0.862110  1.0  -0.6037
  O  O141  1  0.782200  0.458950  0.987950  1.0  -0.6643
  O  O142  1  0.371400  0.421280  0.975950  1.0  -0.5894
  O  O143  1  0.263700  0.302940  0.636600  1.0  -0.5089
  O  O144  1  0.983100  0.242780  0.769700  1.0  -0.5203
