# generated using pymatgen
data_ZnH8C19(NO3)2
_symmetry_space_group_name_H-M   'P 1'
_cell_length_a   5.61370000
_cell_length_b   17.14990000
_cell_length_c   26.37690000
_cell_angle_alpha   90.00000000
_cell_angle_beta   90.00000000
_cell_angle_gamma   96.82000000
_symmetry_Int_Tables_number   1
_chemical_formula_structural   ZnH8C19(NO3)2
_chemical_formula_sum   'Zn4 H32 C76 N8 O24'
_cell_volume   2521.45141372
_cell_formula_units_Z   4
loop_
 _symmetry_equiv_pos_site_id
 _symmetry_equiv_pos_as_xyz
  1  'x, y, z'
loop_
 _atom_site_type_symbol
 _atom_site_label
 _atom_site_symmetry_multiplicity
 _atom_site_fract_x
 _atom_site_fract_y
 _atom_site_fract_z
 _atom_site_occupancy
 _atom_site_charge
  Zn  Zn1  1  0.109490  0.572420  0.528300  1.0  0.9412
  Zn  Zn2  1  0.890510  0.927580  0.028300  1.0  0.9414
  Zn  Zn3  1  0.890510  0.427580  0.471700  1.0  0.9414
  Zn  Zn4  1  0.109490  0.072420  0.971700  1.0  0.9412
  H  H5  1  0.471700  0.896900  0.100100  1.0  0.0892
  H  H6  1  0.396300  0.832200  0.177200  1.0  0.141
  H  H7  1  0.986700  0.722300  0.154100  1.0  0.1467
  H  H8  1  0.047500  0.790800  0.078600  1.0  0.0961
  H  H9  1  0.123000  0.574300  0.262500  1.0  0.1157
  H  H10  1  0.068700  0.514000  0.342300  1.0  0.1079
  H  H11  1  0.050900  0.720500  0.420600  1.0  0.1194
  H  H12  1  0.087900  0.783100  0.341900  1.0  0.1172
  H  H13  1  0.528300  0.603100  0.600100  1.0  0.0895
  H  H14  1  0.603700  0.667800  0.677200  1.0  0.1414
  H  H15  1  0.013300  0.777700  0.654100  1.0  0.1475
  H  H16  1  0.952500  0.709200  0.578600  1.0  0.096
  H  H17  1  0.877000  0.925700  0.762500  1.0  0.1152
  H  H18  1  0.931300  0.986000  0.842300  1.0  0.1081
  H  H19  1  0.949100  0.779500  0.920600  1.0  0.1204
  H  H20  1  0.912100  0.716900  0.841900  1.0  0.1165
  H  H21  1  0.528300  0.103100  0.899900  1.0  0.0893
  H  H22  1  0.603700  0.167800  0.822800  1.0  0.1413
  H  H23  1  0.013300  0.277700  0.845900  1.0  0.1474
  H  H24  1  0.952500  0.209200  0.921400  1.0  0.0959
  H  H25  1  0.877000  0.425700  0.737500  1.0  0.1158
  H  H26  1  0.931300  0.486000  0.657700  1.0  0.1081
  H  H27  1  0.949100  0.279500  0.579400  1.0  0.1187
  H  H28  1  0.912100  0.216900  0.658100  1.0  0.117
  H  H29  1  0.471700  0.396900  0.399900  1.0  0.0894
  H  H30  1  0.396300  0.332200  0.322800  1.0  0.1411
  H  H31  1  0.986700  0.222300  0.345900  1.0  0.146
  H  H32  1  0.047500  0.290800  0.421400  1.0  0.0967
  H  H33  1  0.123000  0.074300  0.237500  1.0  0.1164
  H  H34  1  0.068700  0.014000  0.157700  1.0  0.1083
  H  H35  1  0.050900  0.220500  0.079400  1.0  0.1203
  H  H36  1  0.087900  0.283100  0.158100  1.0  0.1175
  C  C37  1  0.578700  0.861900  0.111720  1.0  0.1831
  C  C38  1  0.532700  0.823500  0.157610  1.0  -0.2317
  C  C39  1  0.688600  0.772600  0.174320  1.0  0.2604
  C  C40  1  0.881000  0.758800  0.144150  1.0  -0.2342
  C  C41  1  0.914700  0.799500  0.099320  1.0  0.1773
  C  C42  1  0.452200  0.681100  0.230310  1.0  0.5323
  C  C43  1  0.426200  0.644200  0.280750  1.0  -0.172
  C  C44  1  0.595800  0.664400  0.319190  1.0  0.0746
  C  C45  1  0.795400  0.721100  0.309820  1.0  -0.1765
  C  C46  1  0.832500  0.757300  0.259390  1.0  0.5381
  C  C47  1  0.234400  0.588500  0.289020  1.0  -0.0269
  C  C48  1  0.202300  0.552500  0.336790  1.0  -0.0663
  C  C49  1  0.362400  0.572200  0.375840  1.0  -0.0931
  C  C50  1  0.568400  0.627100  0.367830  1.0  0.0532
  C  C51  1  0.751600  0.647300  0.404610  1.0  -0.0787
  C  C52  1  0.936600  0.705500  0.394810  1.0  -0.0856
  C  C53  1  0.959600  0.742800  0.347830  1.0  -0.0046
  C  C54  1  0.281800  0.540800  0.427070  1.0  0.6667
  C  C55  1  0.784400  0.598400  0.450940  1.0  0.6716
  C  C56  1  0.421300  0.638100  0.611720  1.0  0.1827
  C  C57  1  0.467300  0.676500  0.657610  1.0  -0.2317
  C  C58  1  0.311400  0.727400  0.674320  1.0  0.2611
  C  C59  1  0.119000  0.741200  0.644150  1.0  -0.2343
  C  C60  1  0.085300  0.700500  0.599320  1.0  0.1775
  C  C61  1  0.547800  0.818900  0.730310  1.0  0.5312
  C  C62  1  0.573800  0.855800  0.780750  1.0  -0.1717
  C  C63  1  0.404200  0.835600  0.819190  1.0  0.0749
  C  C64  1  0.204600  0.778900  0.809820  1.0  -0.1785
  C  C65  1  0.167500  0.742700  0.759390  1.0  0.5365
  C  C66  1  0.765600  0.911500  0.789020  1.0  -0.0264
  C  C67  1  0.797700  0.947500  0.836790  1.0  -0.065
  C  C68  1  0.637600  0.927800  0.875840  1.0  -0.0928
  C  C69  1  0.431600  0.872900  0.867830  1.0  0.0532
  C  C70  1  0.248400  0.852700  0.904610  1.0  -0.079
  C  C71  1  0.063400  0.794500  0.894810  1.0  -0.0865
  C  C72  1  0.040400  0.757200  0.847830  1.0  -0.0064
  C  C73  1  0.718200  0.959200  0.927070  1.0  0.6667
  C  C74  1  0.215600  0.901600  0.950940  1.0  0.672
  C  C75  1  0.421300  0.138100  0.888280  1.0  0.1832
  C  C76  1  0.467300  0.176500  0.842390  1.0  -0.2317
  C  C77  1  0.311400  0.227400  0.825680  1.0  0.2602
  C  C78  1  0.119000  0.241200  0.855850  1.0  -0.235
  C  C79  1  0.085300  0.200500  0.900680  1.0  0.1764
  C  C80  1  0.547800  0.318900  0.769690  1.0  0.5298
  C  C81  1  0.573800  0.355800  0.719250  1.0  -0.172
  C  C82  1  0.404200  0.335600  0.680810  1.0  0.075
  C  C83  1  0.204600  0.278900  0.690180  1.0  -0.1789
  C  C84  1  0.167500  0.242700  0.740610  1.0  0.5375
  C  C85  1  0.765600  0.411500  0.710980  1.0  -0.0256
  C  C86  1  0.797700  0.447500  0.663210  1.0  -0.0635
  C  C87  1  0.637600  0.427800  0.624160  1.0  -0.0926
  C  C88  1  0.431600  0.372900  0.632170  1.0  0.0532
  C  C89  1  0.248400  0.352700  0.595390  1.0  -0.0793
  C  C90  1  0.063400  0.294500  0.605190  1.0  -0.0852
  C  C91  1  0.040400  0.257200  0.652170  1.0  -0.0065
  C  C92  1  0.718200  0.459200  0.572930  1.0  0.6665
  C  C93  1  0.215600  0.401600  0.549060  1.0  0.6723
  C  C94  1  0.578700  0.361900  0.388280  1.0  0.1828
  C  C95  1  0.532700  0.323500  0.342390  1.0  -0.2316
  C  C96  1  0.688600  0.272600  0.325680  1.0  0.2596
  C  C97  1  0.881000  0.258800  0.355850  1.0  -0.2343
  C  C98  1  0.914700  0.299500  0.400680  1.0  0.1777
  C  C99  1  0.452200  0.181100  0.269690  1.0  0.5314
  C  C100  1  0.426200  0.144200  0.219250  1.0  -0.1729
  C  C101  1  0.595800  0.164400  0.180810  1.0  0.0746
  C  C102  1  0.795400  0.221100  0.190180  1.0  -0.1769
  C  C103  1  0.832500  0.257300  0.240610  1.0  0.5394
  C  C104  1  0.234400  0.088500  0.210980  1.0  -0.0262
  C  C105  1  0.202300  0.052500  0.163210  1.0  -0.0641
  C  C106  1  0.362400  0.072200  0.124160  1.0  -0.0928
  C  C107  1  0.568400  0.127100  0.132170  1.0  0.0532
  C  C108  1  0.751600  0.147300  0.095390  1.0  -0.0793
  C  C109  1  0.936600  0.205500  0.105190  1.0  -0.0847
  C  C110  1  0.959600  0.242800  0.152170  1.0  -0.0043
  C  C111  1  0.281800  0.040800  0.072930  1.0  0.6666
  C  C112  1  0.784400  0.098400  0.049060  1.0  0.6723
  N  N113  1  0.769000  0.850900  0.083460  1.0  -0.3246
  N  N114  1  0.656800  0.735900  0.223120  1.0  -0.2616
  N  N115  1  0.231000  0.649100  0.583460  1.0  -0.3247
  N  N116  1  0.343200  0.764100  0.723120  1.0  -0.2618
  N  N117  1  0.231000  0.149100  0.916540  1.0  -0.3234
  N  N118  1  0.343200  0.264100  0.776880  1.0  -0.2616
  N  N119  1  0.769000  0.350900  0.416540  1.0  -0.3243
  N  N120  1  0.656800  0.235900  0.276880  1.0  -0.2614
  O  O121  1  0.302100  0.589030  0.463790  1.0  -0.5648
  O  O122  1  0.181600  0.471650  0.428540  1.0  -0.5736
  O  O123  1  0.748600  0.525450  0.445090  1.0  -0.5924
  O  O124  1  0.868700  0.633470  0.489780  1.0  -0.5809
  O  O125  1  0.311200  0.666500  0.196170  1.0  -0.4831
  O  O126  1  0.003100  0.804500  0.248990  1.0  -0.4819
  O  O127  1  0.697900  0.910970  0.963790  1.0  -0.5649
  O  O128  1  0.818400  0.028350  0.928540  1.0  -0.5741
  O  O129  1  0.251400  0.974550  0.945090  1.0  -0.5924
  O  O130  1  0.131300  0.866530  0.989780  1.0  -0.5809
  O  O131  1  0.688800  0.833500  0.696170  1.0  -0.4825
  O  O132  1  0.996900  0.695500  0.748990  1.0  -0.4817
  O  O133  1  0.697900  0.410970  0.536210  1.0  -0.5663
  O  O134  1  0.818400  0.528350  0.571460  1.0  -0.5742
  O  O135  1  0.251400  0.474550  0.554910  1.0  -0.5923
  O  O136  1  0.131300  0.366530  0.510220  1.0  -0.5795
  O  O137  1  0.688800  0.333500  0.803830  1.0  -0.4809
  O  O138  1  0.996900  0.195500  0.751010  1.0  -0.4811
  O  O139  1  0.302100  0.089030  0.036210  1.0  -0.5662
  O  O140  1  0.181600  0.971650  0.071460  1.0  -0.5735
  O  O141  1  0.748600  0.025450  0.054910  1.0  -0.5925
  O  O142  1  0.868700  0.133470  0.010220  1.0  -0.5807
  O  O143  1  0.311200  0.166500  0.303830  1.0  -0.4826
  O  O144  1  0.003100  0.304500  0.251010  1.0  -0.4813
