# generated using pymatgen
data_MnH8C19(NO3)2
_symmetry_space_group_name_H-M   'P 1'
_cell_length_a   5.01690000
_cell_length_b   20.69490000
_cell_length_c   24.98510000
_cell_angle_alpha   90.00000000
_cell_angle_beta   90.00000000
_cell_angle_gamma   95.72100000
_symmetry_Int_Tables_number   1
_chemical_formula_structural   MnH8C19(NO3)2
_chemical_formula_sum   'Mn4 H32 C76 N8 O24'
_cell_volume   2581.13836637
_cell_formula_units_Z   4
loop_
 _symmetry_equiv_pos_site_id
 _symmetry_equiv_pos_as_xyz
  1  'x, y, z'
loop_
 _atom_site_type_symbol
 _atom_site_label
 _atom_site_symmetry_multiplicity
 _atom_site_fract_x
 _atom_site_fract_y
 _atom_site_fract_z
 _atom_site_occupancy
 _atom_site_charge
  Mn  Mn1  1  0.179340  0.061540  0.960450  1.0  1.1391
  Mn  Mn2  1  0.320660  0.438460  0.460450  1.0  1.1401
  Mn  Mn3  1  0.820660  0.938460  0.039550  1.0  1.1403
  Mn  Mn4  1  0.679340  0.561540  0.539550  1.0  1.1395
  H  H5  1  0.681600  0.341600  0.402400  1.0  0.1017
  H  H6  1  0.691700  0.279200  0.324500  1.0  0.1369
  H  H7  1  0.079900  0.369800  0.263200  1.0  0.1353
  H  H8  1  0.069700  0.432200  0.341100  1.0  0.0988
  H  H9  1  0.940000  0.312700  0.122600  1.0  0.1218
  H  H10  1  0.998000  0.243800  0.051200  1.0  0.113
  H  H11  1  0.014600  0.043200  0.140700  1.0  0.1019
  H  H12  1  0.935800  0.117700  0.206000  1.0  0.1162
  H  H13  1  0.818400  0.158400  0.902400  1.0  0.1017
  H  H14  1  0.808300  0.220800  0.824500  1.0  0.1382
  H  H15  1  0.420100  0.130200  0.763200  1.0  0.1362
  H  H16  1  0.430300  0.067800  0.841100  1.0  0.0992
  H  H17  1  0.560000  0.187300  0.622600  1.0  0.1211
  H  H18  1  0.502000  0.256200  0.551200  1.0  0.1118
  H  H19  1  0.485400  0.456800  0.640700  1.0  0.1018
  H  H20  1  0.564200  0.382300  0.706000  1.0  0.1152
  H  H21  1  0.318400  0.658400  0.597600  1.0  0.1011
  H  H22  1  0.308300  0.720800  0.675500  1.0  0.1377
  H  H23  1  0.920100  0.630200  0.736800  1.0  0.1366
  H  H24  1  0.930300  0.567800  0.658900  1.0  0.0991
  H  H25  1  0.060000  0.687300  0.877400  1.0  0.1208
  H  H26  1  0.002000  0.756200  0.948800  1.0  0.1126
  H  H27  1  0.985400  0.956800  0.859300  1.0  0.1016
  H  H28  1  0.064200  0.882300  0.794000  1.0  0.1154
  H  H29  1  0.181600  0.841600  0.097600  1.0  0.1013
  H  H30  1  0.191700  0.779200  0.175500  1.0  0.1373
  H  H31  1  0.579900  0.869800  0.236800  1.0  0.1352
  H  H32  1  0.569700  0.932200  0.158900  1.0  0.0985
  H  H33  1  0.440000  0.812700  0.377400  1.0  0.122
  H  H34  1  0.498000  0.743800  0.448800  1.0  0.1118
  H  H35  1  0.514600  0.543200  0.359300  1.0  0.1014
  H  H36  1  0.435800  0.617700  0.294000  1.0  0.1153
  C  C37  1  0.559400  0.347300  0.374200  1.0  0.1723
  C  C38  1  0.565400  0.310200  0.327900  1.0  -0.1705
  C  C39  1  0.387000  0.318600  0.286500  1.0  0.2336
  C  C40  1  0.202000  0.364000  0.291500  1.0  -0.1825
  C  C41  1  0.196000  0.401100  0.337800  1.0  0.1735
  C  C42  1  0.589000  0.300300  0.201600  1.0  0.5368
  C  C43  1  0.620000  0.257200  0.154700  1.0  -0.1808
  C  C44  1  0.452800  0.198500  0.149500  1.0  0.0687
  C  C45  1  0.247000  0.184200  0.186900  1.0  -0.1894
  C  C46  1  0.200000  0.227800  0.231900  1.0  0.5325
  C  C47  1  0.825000  0.273600  0.118500  1.0  -0.0273
  C  C48  1  0.859000  0.232100  0.076300  1.0  -0.0779
  C  C49  1  0.700000  0.174100  0.069100  1.0  -0.0922
  C  C50  1  0.499600  0.155500  0.106600  1.0  0.0464
  C  C51  1  0.333500  0.095300  0.106200  1.0  -0.076
  C  C52  1  0.126800  0.082900  0.142900  1.0  -0.0828
  C  C53  1  0.082000  0.126700  0.182000  1.0  -0.0019
  C  C54  1  0.393300  0.037200  0.072600  1.0  0.6943
  C  C55  1  0.749300  0.139300  0.017500  1.0  0.7089
  C  C56  1  0.940600  0.152700  0.874200  1.0  0.1704
  C  C57  1  0.934600  0.189800  0.827900  1.0  -0.174
  C  C58  1  0.113000  0.181400  0.786500  1.0  0.2331
  C  C59  1  0.298000  0.136000  0.791500  1.0  -0.1835
  C  C60  1  0.304000  0.098900  0.837800  1.0  0.1741
  C  C61  1  0.911000  0.199700  0.701600  1.0  0.5383
  C  C62  1  0.880000  0.242800  0.654700  1.0  -0.1803
  C  C63  1  0.047200  0.301500  0.649500  1.0  0.0691
  C  C64  1  0.253000  0.315800  0.686900  1.0  -0.1893
  C  C65  1  0.300000  0.272200  0.731900  1.0  0.5335
  C  C66  1  0.675000  0.226400  0.618500  1.0  -0.03
  C  C67  1  0.641000  0.267900  0.576300  1.0  -0.0779
  C  C68  1  0.800000  0.325900  0.569100  1.0  -0.0928
  C  C69  1  0.000400  0.344500  0.606600  1.0  0.0461
  C  C70  1  0.166500  0.404700  0.606200  1.0  -0.0754
  C  C71  1  0.373200  0.417100  0.642900  1.0  -0.0829
  C  C72  1  0.418000  0.373300  0.682000  1.0  -0.0007
  C  C73  1  0.106700  0.462800  0.572600  1.0  0.6938
  C  C74  1  0.750700  0.360700  0.517500  1.0  0.7088
  C  C75  1  0.440600  0.652700  0.625800  1.0  0.1725
  C  C76  1  0.434600  0.689800  0.672100  1.0  -0.1752
  C  C77  1  0.613000  0.681400  0.713500  1.0  0.2339
  C  C78  1  0.798000  0.636000  0.708500  1.0  -0.1843
  C  C79  1  0.804000  0.598900  0.662200  1.0  0.1753
  C  C80  1  0.411000  0.699700  0.798400  1.0  0.5371
  C  C81  1  0.380000  0.742800  0.845300  1.0  -0.1806
  C  C82  1  0.547200  0.801500  0.850500  1.0  0.0695
  C  C83  1  0.753000  0.815800  0.813100  1.0  -0.1882
  C  C84  1  0.800000  0.772200  0.768100  1.0  0.534
  C  C85  1  0.175000  0.726400  0.881500  1.0  -0.0314
  C  C86  1  0.141000  0.767900  0.923700  1.0  -0.0793
  C  C87  1  0.300000  0.825900  0.930900  1.0  -0.0916
  C  C88  1  0.500400  0.844500  0.893400  1.0  0.046
  C  C89  1  0.666500  0.904700  0.893800  1.0  -0.0754
  C  C90  1  0.873200  0.917100  0.857100  1.0  -0.081
  C  C91  1  0.918000  0.873300  0.818000  1.0  -0.0024
  C  C92  1  0.606700  0.962800  0.927400  1.0  0.694
  C  C93  1  0.250700  0.860700  0.982500  1.0  0.7084
  C  C94  1  0.059400  0.847300  0.125800  1.0  0.1725
  C  C95  1  0.065400  0.810200  0.172100  1.0  -0.1738
  C  C96  1  0.887000  0.818600  0.213500  1.0  0.2344
  C  C97  1  0.702000  0.864000  0.208500  1.0  -0.1841
  C  C98  1  0.696000  0.901100  0.162200  1.0  0.1744
  C  C99  1  0.089000  0.800300  0.298400  1.0  0.536
  C  C100  1  0.120000  0.757200  0.345300  1.0  -0.1806
  C  C101  1  0.952800  0.698500  0.350500  1.0  0.0692
  C  C102  1  0.747000  0.684200  0.313100  1.0  -0.1867
  C  C103  1  0.700000  0.727800  0.268100  1.0  0.533
  C  C104  1  0.325000  0.773600  0.381500  1.0  -0.0318
  C  C105  1  0.359000  0.732100  0.423700  1.0  -0.078
  C  C106  1  0.200000  0.674100  0.430900  1.0  -0.0901
  C  C107  1  0.999600  0.655500  0.393400  1.0  0.0464
  C  C108  1  0.833500  0.595300  0.393800  1.0  -0.076
  C  C109  1  0.626800  0.582900  0.357100  1.0  -0.0826
  C  C110  1  0.582000  0.626700  0.318000  1.0  -0.0059
  C  C111  1  0.893300  0.537200  0.427400  1.0  0.6948
  C  C112  1  0.249300  0.639300  0.482500  1.0  0.7086
  N  N113  1  0.374700  0.392800  0.379100  1.0  -0.4045
  N  N114  1  0.394300  0.280800  0.237200  1.0  -0.2351
  N  N115  1  0.125300  0.107200  0.879100  1.0  -0.4047
  N  N116  1  0.105700  0.219200  0.737200  1.0  -0.235
  N  N117  1  0.625300  0.607200  0.620900  1.0  -0.4073
  N  N118  1  0.605700  0.719200  0.762800  1.0  -0.2349
  N  N119  1  0.874700  0.892800  0.120900  1.0  -0.4058
  N  N120  1  0.894300  0.780800  0.262800  1.0  -0.235
  O  O121  1  0.214300  0.009600  0.042000  1.0  -0.6639
  O  O122  1  0.620000  0.018700  0.079600  1.0  -0.5892
  O  O123  1  0.552500  0.121800  0.988700  1.0  -0.656
  O  O124  1  0.985100  0.136300  0.006000  1.0  -0.6051
  O  O125  1  0.734900  0.351300  0.206900  1.0  -0.5027
  O  O126  1  0.016600  0.218000  0.263900  1.0  -0.4865
  O  O127  1  0.285700  0.490400  0.542000  1.0  -0.6629
  O  O128  1  0.880000  0.481300  0.579600  1.0  -0.588
  O  O129  1  0.947500  0.378200  0.488700  1.0  -0.6567
  O  O130  1  0.514900  0.363700  0.506000  1.0  -0.6048
  O  O131  1  0.765100  0.148700  0.706900  1.0  -0.5059
  O  O132  1  0.483400  0.282000  0.763900  1.0  -0.486
  O  O133  1  0.785700  0.990400  0.958000  1.0  -0.6631
  O  O134  1  0.380000  0.981300  0.920400  1.0  -0.5887
  O  O135  1  0.447500  0.878200  0.011300  1.0  -0.657
  O  O136  1  0.014900  0.863700  0.994000  1.0  -0.6045
  O  O137  1  0.265100  0.648700  0.793100  1.0  -0.5064
  O  O138  1  0.983400  0.782000  0.736100  1.0  -0.4873
  O  O139  1  0.714300  0.509600  0.458000  1.0  -0.6634
  O  O140  1  0.120000  0.518700  0.420400  1.0  -0.5904
  O  O141  1  0.052500  0.621800  0.511300  1.0  -0.6579
  O  O142  1  0.485100  0.636300  0.494000  1.0  -0.6052
  O  O143  1  0.234900  0.851300  0.293100  1.0  -0.504
  O  O144  1  0.516600  0.718000  0.236100  1.0  -0.4866
