# generated using pymatgen
data_ZnH8C19(NO3)2
_symmetry_space_group_name_H-M   'P 1'
_cell_length_a   5.64150000
_cell_length_b   14.84700000
_cell_length_c   27.63300000
_cell_angle_alpha   90.00000000
_cell_angle_beta   90.00000000
_cell_angle_gamma   100.14900000
_symmetry_Int_Tables_number   1
_chemical_formula_structural   ZnH8C19(NO3)2
_chemical_formula_sum   'Zn4 H32 C76 N8 O24'
_cell_volume   2278.30644432
_cell_formula_units_Z   4
loop_
 _symmetry_equiv_pos_site_id
 _symmetry_equiv_pos_as_xyz
  1  'x, y, z'
loop_
 _atom_site_type_symbol
 _atom_site_label
 _atom_site_symmetry_multiplicity
 _atom_site_fract_x
 _atom_site_fract_y
 _atom_site_fract_z
 _atom_site_occupancy
 _atom_site_charge
  Zn  Zn1  1  0.960750  0.589230  0.976280  1.0  0.952
  Zn  Zn2  1  0.539250  0.910770  0.476280  1.0  0.9517
  Zn  Zn3  1  0.039250  0.410770  0.023720  1.0  0.9516
  Zn  Zn4  1  0.460750  0.089230  0.523720  1.0  0.9519
  H  H5  1  0.239800  0.760500  0.422800  1.0  0.0989
  H  H6  1  0.222700  0.697400  0.345600  1.0  0.1395
  H  H7  1  0.916700  0.820600  0.324900  1.0  0.1426
  H  H8  1  0.918200  0.879000  0.403700  1.0  0.0909
  H  H9  1  0.920800  0.537400  0.225000  1.0  0.1155
  H  H10  1  0.913800  0.486000  0.144900  1.0  0.1019
  H  H11  1  0.140200  0.751700  0.091700  1.0  0.1247
  H  H12  1  0.163100  0.804900  0.172000  1.0  0.1192
  H  H13  1  0.260200  0.739500  0.922800  1.0  0.0993
  H  H14  1  0.277300  0.802600  0.845600  1.0  0.138
  H  H15  1  0.583300  0.679400  0.824900  1.0  0.1423
  H  H16  1  0.581800  0.621000  0.903700  1.0  0.0905
  H  H17  1  0.579200  0.962600  0.725000  1.0  0.1154
  H  H18  1  0.586200  0.014000  0.644900  1.0  0.1016
  H  H19  1  0.359800  0.748300  0.591700  1.0  0.1231
  H  H20  1  0.336900  0.695100  0.672000  1.0  0.1193
  H  H21  1  0.760200  0.239500  0.577200  1.0  0.0987
  H  H22  1  0.777300  0.302600  0.654400  1.0  0.137
  H  H23  1  0.083300  0.179400  0.675100  1.0  0.1417
  H  H24  1  0.081800  0.121000  0.596300  1.0  0.0904
  H  H25  1  0.079200  0.462600  0.775000  1.0  0.1158
  H  H26  1  0.086200  0.514000  0.855100  1.0  0.1013
  H  H27  1  0.859800  0.248300  0.908300  1.0  0.1238
  H  H28  1  0.836900  0.195100  0.828000  1.0  0.1192
  H  H29  1  0.739800  0.260500  0.077200  1.0  0.0973
  H  H30  1  0.722700  0.197400  0.154400  1.0  0.1391
  H  H31  1  0.416700  0.320600  0.175100  1.0  0.1426
  H  H32  1  0.418200  0.379000  0.096300  1.0  0.0905
  H  H33  1  0.420800  0.037400  0.275000  1.0  0.1155
  H  H34  1  0.413800  0.986000  0.355100  1.0  0.1016
  H  H35  1  0.640200  0.251700  0.408300  1.0  0.1245
  H  H36  1  0.663100  0.304900  0.328000  1.0  0.1193
  C  C37  1  0.377900  0.773100  0.402600  1.0  0.1834
  C  C38  1  0.365400  0.735700  0.356660  1.0  -0.2282
  C  C39  1  0.565100  0.755200  0.327300  1.0  0.2639
  C  C40  1  0.776300  0.808300  0.344470  1.0  -0.2236
  C  C41  1  0.775300  0.842900  0.391290  1.0  0.1807
  C  C42  1  0.706900  0.660100  0.265520  1.0  0.5211
  C  C43  1  0.693500  0.627500  0.214630  1.0  -0.1751
  C  C44  1  0.540800  0.660600  0.180680  1.0  0.0773
  C  C45  1  0.398500  0.725800  0.195020  1.0  -0.166
  C  C46  1  0.396300  0.756700  0.246300  1.0  0.5245
  C  C47  1  0.826100  0.561700  0.201530  1.0  -0.0045
  C  C48  1  0.820700  0.530900  0.153660  1.0  -0.0613
  C  C49  1  0.684100  0.563900  0.119020  1.0  -0.0879
  C  C50  1  0.530100  0.628400  0.131920  1.0  0.0488
  C  C51  1  0.365600  0.660200  0.099360  1.0  -0.0717
  C  C52  1  0.238800  0.727200  0.114300  1.0  -0.076
  C  C53  1  0.253400  0.759700  0.162310  1.0  -0.0248
  C  C54  1  0.729200  0.538700  0.067080  1.0  0.6586
  C  C55  1  0.284300  0.612100  0.052320  1.0  0.6618
  C  C56  1  0.122100  0.726900  0.902600  1.0  0.1831
  C  C57  1  0.134600  0.764300  0.856660  1.0  -0.2296
  C  C58  1  0.934900  0.744800  0.827300  1.0  0.2625
  C  C59  1  0.723700  0.691700  0.844470  1.0  -0.2228
  C  C60  1  0.724700  0.657100  0.891290  1.0  0.1798
  C  C61  1  0.793100  0.839900  0.765520  1.0  0.5216
  C  C62  1  0.806500  0.872500  0.714630  1.0  -0.175
  C  C63  1  0.959200  0.839400  0.680680  1.0  0.0776
  C  C64  1  0.101500  0.774200  0.695020  1.0  -0.1694
  C  C65  1  0.103700  0.743300  0.746300  1.0  0.5243
  C  C66  1  0.673900  0.938300  0.701530  1.0  -0.0065
  C  C67  1  0.679300  0.969100  0.653660  1.0  -0.0609
  C  C68  1  0.815900  0.936100  0.619020  1.0  -0.0883
  C  C69  1  0.969900  0.871600  0.631920  1.0  0.0481
  C  C70  1  0.134400  0.839800  0.599360  1.0  -0.0715
  C  C71  1  0.261200  0.772800  0.614300  1.0  -0.0741
  C  C72  1  0.246600  0.740300  0.662310  1.0  -0.0248
  C  C73  1  0.770800  0.961300  0.567080  1.0  0.6583
  C  C74  1  0.215700  0.887900  0.552320  1.0  0.6615
  C  C75  1  0.622100  0.226900  0.597400  1.0  0.183
  C  C76  1  0.634600  0.264300  0.643340  1.0  -0.2291
  C  C77  1  0.434900  0.244800  0.672700  1.0  0.2628
  C  C78  1  0.223700  0.191700  0.655530  1.0  -0.2227
  C  C79  1  0.224700  0.157100  0.608710  1.0  0.1793
  C  C80  1  0.293100  0.339900  0.734480  1.0  0.5228
  C  C81  1  0.306500  0.372500  0.785370  1.0  -0.1759
  C  C82  1  0.459200  0.339400  0.819320  1.0  0.0773
  C  C83  1  0.601500  0.274200  0.804980  1.0  -0.169
  C  C84  1  0.603700  0.243300  0.753700  1.0  0.5242
  C  C85  1  0.173900  0.438300  0.798470  1.0  -0.006
  C  C86  1  0.179300  0.469100  0.846340  1.0  -0.0611
  C  C87  1  0.315900  0.436100  0.880980  1.0  -0.0883
  C  C88  1  0.469900  0.371600  0.868080  1.0  0.0484
  C  C89  1  0.634400  0.339800  0.900640  1.0  -0.0708
  C  C90  1  0.761200  0.272800  0.885700  1.0  -0.0734
  C  C91  1  0.746600  0.240300  0.837690  1.0  -0.0251
  C  C92  1  0.270800  0.461300  0.932920  1.0  0.6587
  C  C93  1  0.715700  0.387900  0.947680  1.0  0.661
  C  C94  1  0.877900  0.273100  0.097400  1.0  0.1838
  C  C95  1  0.865400  0.235700  0.143340  1.0  -0.2292
  C  C96  1  0.065100  0.255200  0.172700  1.0  0.264
  C  C97  1  0.276300  0.308300  0.155530  1.0  -0.2235
  C  C98  1  0.275300  0.342900  0.108710  1.0  0.18
  C  C99  1  0.206900  0.160100  0.234480  1.0  0.5211
  C  C100  1  0.193500  0.127500  0.285370  1.0  -0.1755
  C  C101  1  0.040800  0.160600  0.319320  1.0  0.0772
  C  C102  1  0.898500  0.225800  0.304980  1.0  -0.1654
  C  C103  1  0.896300  0.256700  0.253700  1.0  0.5248
  C  C104  1  0.326100  0.061700  0.298470  1.0  -0.0054
  C  C105  1  0.320700  0.030900  0.346340  1.0  -0.0614
  C  C106  1  0.184100  0.063900  0.380980  1.0  -0.0882
  C  C107  1  0.030100  0.128400  0.368080  1.0  0.049
  C  C108  1  0.865600  0.160200  0.400640  1.0  -0.0706
  C  C109  1  0.738800  0.227200  0.385700  1.0  -0.0754
  C  C110  1  0.753400  0.259700  0.337690  1.0  -0.0254
  C  C111  1  0.229200  0.038700  0.432920  1.0  0.6589
  C  C112  1  0.784300  0.112100  0.447680  1.0  0.6613
  N  N113  1  0.576200  0.826500  0.419780  1.0  -0.3365
  N  N114  1  0.555700  0.722700  0.277760  1.0  -0.2709
  N  N115  1  0.923800  0.673500  0.919780  1.0  -0.335
  N  N116  1  0.944300  0.777300  0.777760  1.0  -0.2709
  N  N117  1  0.423800  0.173500  0.580220  1.0  -0.3379
  N  N118  1  0.444300  0.277300  0.722240  1.0  -0.271
  N  N119  1  0.076200  0.326500  0.080220  1.0  -0.3377
  N  N120  1  0.055700  0.222700  0.222240  1.0  -0.2711
  O  O121  1  0.756600  0.601500  0.035730  1.0  -0.5577
  O  O122  1  0.762300  0.457400  0.060930  1.0  -0.5863
  O  O123  1  0.232100  0.661800  0.018140  1.0  -0.5704
  O  O124  1  0.247800  0.525900  0.053960  1.0  -0.5993
  O  O125  1  0.270900  0.809200  0.261050  1.0  -0.4764
  O  O126  1  0.839000  0.635300  0.295990  1.0  -0.4791
  O  O127  1  0.743400  0.898500  0.535730  1.0  -0.5593
  O  O128  1  0.737700  0.042600  0.560930  1.0  -0.586
  O  O129  1  0.267900  0.838200  0.518140  1.0  -0.5726
  O  O130  1  0.252200  0.974100  0.553960  1.0  -0.5994
  O  O131  1  0.229100  0.690800  0.761050  1.0  -0.478
  O  O132  1  0.661000  0.864700  0.795990  1.0  -0.4791
  O  O133  1  0.243400  0.398500  0.964270  1.0  -0.5573
  O  O134  1  0.237700  0.542600  0.939070  1.0  -0.5863
  O  O135  1  0.767900  0.338200  0.981860  1.0  -0.572
  O  O136  1  0.752200  0.474100  0.946040  1.0  -0.5998
  O  O137  1  0.729100  0.190800  0.738950  1.0  -0.4789
  O  O138  1  0.161000  0.364700  0.704010  1.0  -0.48
  O  O139  1  0.256600  0.101500  0.464270  1.0  -0.5562
  O  O140  1  0.262300  0.957400  0.439070  1.0  -0.586
  O  O141  1  0.732100  0.161800  0.481860  1.0  -0.5707
  O  O142  1  0.747800  0.025900  0.446040  1.0  -0.5997
  O  O143  1  0.770900  0.309200  0.238950  1.0  -0.4773
  O  O144  1  0.339000  0.135300  0.204010  1.0  -0.4797
