# generated using pymatgen
data_ZnH8C19(NO3)2
_symmetry_space_group_name_H-M   'P 1'
_cell_length_a   5.57970000
_cell_length_b   16.79310000
_cell_length_c   25.92310000
_cell_angle_alpha   90.00000000
_cell_angle_beta   90.00000000
_cell_angle_gamma   98.57500000
_symmetry_Int_Tables_number   1
_chemical_formula_structural   ZnH8C19(NO3)2
_chemical_formula_sum   'Zn4 H32 C76 N8 O24'
_cell_volume   2401.85383108
_cell_formula_units_Z   4
loop_
 _symmetry_equiv_pos_site_id
 _symmetry_equiv_pos_as_xyz
  1  'x, y, z'
loop_
 _atom_site_type_symbol
 _atom_site_label
 _atom_site_symmetry_multiplicity
 _atom_site_fract_x
 _atom_site_fract_y
 _atom_site_fract_z
 _atom_site_occupancy
 _atom_site_charge
  Zn  Zn1  1  0.119230  0.579620  0.520870  1.0  0.9397
  Zn  Zn2  1  0.880770  0.920380  0.020870  1.0  0.9396
  Zn  Zn3  1  0.880770  0.420380  0.479130  1.0  0.9394
  Zn  Zn4  1  0.119230  0.079620  0.979130  1.0  0.9395
  H  H5  1  0.447900  0.871900  0.088400  1.0  0.0938
  H  H6  1  0.382100  0.798200  0.164700  1.0  0.1348
  H  H7  1  0.956500  0.686900  0.128600  1.0  0.1426
  H  H8  1  0.010000  0.764900  0.054300  1.0  0.0978
  H  H9  1  0.116900  0.531200  0.249700  1.0  0.119
  H  H10  1  0.058600  0.479200  0.333800  1.0  0.1123
  H  H11  1  0.063400  0.701100  0.404500  1.0  0.1155
  H  H12  1  0.105200  0.754400  0.321400  1.0  0.1168
  H  H13  1  0.552100  0.628100  0.588400  1.0  0.0944
  H  H14  1  0.617900  0.701800  0.664700  1.0  0.1355
  H  H15  1  0.043500  0.813100  0.628600  1.0  0.1426
  H  H16  1  0.990000  0.735100  0.554300  1.0  0.0977
  H  H17  1  0.883100  0.968800  0.749700  1.0  0.1183
  H  H18  1  0.941400  0.020800  0.833800  1.0  0.1124
  H  H19  1  0.936600  0.798900  0.904500  1.0  0.116
  H  H20  1  0.894800  0.745600  0.821400  1.0  0.1161
  H  H21  1  0.552100  0.128100  0.911600  1.0  0.0941
  H  H22  1  0.617900  0.201800  0.835300  1.0  0.135
  H  H23  1  0.043500  0.313100  0.871400  1.0  0.1418
  H  H24  1  0.990000  0.235100  0.945700  1.0  0.098
  H  H25  1  0.883100  0.468800  0.750300  1.0  0.1188
  H  H26  1  0.941400  0.520800  0.666200  1.0  0.1121
  H  H27  1  0.936600  0.298900  0.595500  1.0  0.115
  H  H28  1  0.894800  0.245600  0.678600  1.0  0.1163
  H  H29  1  0.447900  0.371900  0.411600  1.0  0.094
  H  H30  1  0.382100  0.298200  0.335300  1.0  0.1348
  H  H31  1  0.956500  0.186900  0.371400  1.0  0.1419
  H  H32  1  0.010000  0.264900  0.445700  1.0  0.0986
  H  H33  1  0.116900  0.031200  0.250300  1.0  0.1194
  H  H34  1  0.058600  0.979200  0.166200  1.0  0.1125
  H  H35  1  0.063400  0.201100  0.095500  1.0  0.1164
  H  H36  1  0.105200  0.254400  0.178600  1.0  0.1168
  C  C37  1  0.554700  0.835100  0.097460  1.0  0.185
  C  C38  1  0.514400  0.791700  0.142810  1.0  -0.2266
  C  C39  1  0.672300  0.738900  0.155280  1.0  0.2608
  C  C40  1  0.854400  0.726100  0.121600  1.0  -0.2272
  C  C41  1  0.883200  0.772200  0.077470  1.0  0.18
  C  C42  1  0.446100  0.642600  0.213410  1.0  0.5291
  C  C43  1  0.424500  0.606900  0.265940  1.0  -0.1742
  C  C44  1  0.597600  0.632200  0.304210  1.0  0.0753
  C  C45  1  0.802200  0.689200  0.292480  1.0  -0.178
  C  C46  1  0.836400  0.724100  0.239980  1.0  0.5306
  C  C47  1  0.228500  0.549900  0.276320  1.0  -0.0185
  C  C48  1  0.193800  0.519200  0.326720  1.0  -0.0739
  C  C49  1  0.351800  0.545900  0.365750  1.0  -0.0962
  C  C50  1  0.565600  0.600640  0.355350  1.0  0.053
  C  C51  1  0.750100  0.626800  0.392320  1.0  -0.0804
  C  C52  1  0.944300  0.683200  0.379210  1.0  -0.0762
  C  C53  1  0.970400  0.714900  0.329560  1.0  -0.0075
  C  C54  1  0.263900  0.523900  0.419710  1.0  0.6705
  C  C55  1  0.773900  0.586000  0.443730  1.0  0.6661
  C  C56  1  0.445300  0.664900  0.597460  1.0  0.1858
  C  C57  1  0.485600  0.708300  0.642810  1.0  -0.224
  C  C58  1  0.327700  0.761100  0.655280  1.0  0.2613
  C  C59  1  0.145600  0.773900  0.621600  1.0  -0.2254
  C  C60  1  0.116800  0.727800  0.577470  1.0  0.1784
  C  C61  1  0.553900  0.857400  0.713410  1.0  0.5282
  C  C62  1  0.575500  0.893100  0.765940  1.0  -0.1734
  C  C63  1  0.402400  0.867800  0.804210  1.0  0.0757
  C  C64  1  0.197800  0.810800  0.792480  1.0  -0.1785
  C  C65  1  0.163600  0.775900  0.739980  1.0  0.5318
  C  C66  1  0.771500  0.950100  0.776320  1.0  -0.0179
  C  C67  1  0.806200  0.980800  0.826720  1.0  -0.0725
  C  C68  1  0.648200  0.954100  0.865750  1.0  -0.0965
  C  C69  1  0.434400  0.899360  0.855350  1.0  0.0532
  C  C70  1  0.249900  0.873200  0.892320  1.0  -0.0796
  C  C71  1  0.055700  0.816800  0.879210  1.0  -0.0784
  C  C72  1  0.029600  0.785100  0.829560  1.0  -0.0076
  C  C73  1  0.736100  0.976100  0.919710  1.0  0.6709
  C  C74  1  0.226100  0.914000  0.943730  1.0  0.6668
  C  C75  1  0.445300  0.164900  0.902540  1.0  0.1859
  C  C76  1  0.485600  0.208300  0.857190  1.0  -0.2237
  C  C77  1  0.327700  0.261100  0.844720  1.0  0.2606
  C  C78  1  0.145600  0.273900  0.878400  1.0  -0.2261
  C  C79  1  0.116800  0.227800  0.922530  1.0  0.1775
  C  C80  1  0.553900  0.357400  0.786590  1.0  0.5262
  C  C81  1  0.575500  0.393100  0.734060  1.0  -0.174
  C  C82  1  0.402400  0.367800  0.695790  1.0  0.076
  C  C83  1  0.197800  0.310800  0.707520  1.0  -0.1787
  C  C84  1  0.163600  0.275900  0.760020  1.0  0.5323
  C  C85  1  0.771500  0.450100  0.723680  1.0  -0.0155
  C  C86  1  0.806200  0.480800  0.673280  1.0  -0.0716
  C  C87  1  0.648200  0.454100  0.634250  1.0  -0.0962
  C  C88  1  0.434400  0.399360  0.644650  1.0  0.053
  C  C89  1  0.249900  0.373200  0.607680  1.0  -0.0792
  C  C90  1  0.055700  0.316800  0.620790  1.0  -0.0777
  C  C91  1  0.029600  0.285100  0.670440  1.0  -0.0085
  C  C92  1  0.736100  0.476100  0.580290  1.0  0.6706
  C  C93  1  0.226100  0.414000  0.556270  1.0  0.6667
  C  C94  1  0.554700  0.335100  0.402540  1.0  0.1849
  C  C95  1  0.514400  0.291700  0.357190  1.0  -0.2258
  C  C96  1  0.672300  0.238900  0.344720  1.0  0.2602
  C  C97  1  0.854400  0.226100  0.378400  1.0  -0.2261
  C  C98  1  0.883200  0.272200  0.422530  1.0  0.1793
  C  C99  1  0.446100  0.142600  0.286590  1.0  0.5284
  C  C100  1  0.424500  0.106900  0.234060  1.0  -0.1749
  C  C101  1  0.597600  0.132200  0.195790  1.0  0.0754
  C  C102  1  0.802200  0.189200  0.207520  1.0  -0.1777
  C  C103  1  0.836400  0.224100  0.260020  1.0  0.5313
  C  C104  1  0.228500  0.049900  0.223680  1.0  -0.0158
  C  C105  1  0.193800  0.019200  0.173280  1.0  -0.0722
  C  C106  1  0.351800  0.045900  0.134250  1.0  -0.096
  C  C107  1  0.565600  0.100640  0.144650  1.0  0.0529
  C  C108  1  0.750100  0.126800  0.107680  1.0  -0.08
  C  C109  1  0.944300  0.183200  0.120790  1.0  -0.0765
  C  C110  1  0.970400  0.214900  0.170440  1.0  -0.0075
  C  C111  1  0.263900  0.023900  0.080290  1.0  0.6701
  C  C112  1  0.773900  0.086000  0.056270  1.0  0.6663
  N  N113  1  0.739500  0.826870  0.065850  1.0  -0.3314
  N  N114  1  0.652100  0.699650  0.204580  1.0  -0.2562
  N  N115  1  0.260500  0.673130  0.565850  1.0  -0.332
  N  N116  1  0.347900  0.800350  0.704580  1.0  -0.2566
  N  N117  1  0.260500  0.173130  0.934150  1.0  -0.3311
  N  N118  1  0.347900  0.300350  0.795420  1.0  -0.2564
  N  N119  1  0.739500  0.326870  0.434150  1.0  -0.3315
  N  N120  1  0.652100  0.199650  0.295420  1.0  -0.2559
  O  O121  1  0.289100  0.579930  0.452420  1.0  -0.576
  O  O122  1  0.154800  0.454650  0.426250  1.0  -0.5768
  O  O123  1  0.727900  0.510540  0.444010  1.0  -0.5875
  O  O124  1  0.862400  0.630060  0.480110  1.0  -0.5838
  O  O125  1  0.299000  0.625870  0.179560  1.0  -0.4701
  O  O126  1  0.010800  0.773350  0.228330  1.0  -0.4875
  O  O127  1  0.710900  0.920070  0.952420  1.0  -0.5754
  O  O128  1  0.845200  0.045350  0.926250  1.0  -0.5769
  O  O129  1  0.272100  0.989460  0.944010  1.0  -0.5873
  O  O130  1  0.137600  0.869940  0.980110  1.0  -0.5838
  O  O131  1  0.701000  0.874130  0.679560  1.0  -0.4711
  O  O132  1  0.989200  0.726650  0.728330  1.0  -0.4875
  O  O133  1  0.710900  0.420070  0.547580  1.0  -0.5753
  O  O134  1  0.845200  0.545350  0.573750  1.0  -0.5769
  O  O135  1  0.272100  0.489460  0.555990  1.0  -0.5873
  O  O136  1  0.137600  0.369940  0.519890  1.0  -0.5835
  O  O137  1  0.701000  0.374130  0.820440  1.0  -0.4692
  O  O138  1  0.989200  0.226650  0.771670  1.0  -0.4867
  O  O139  1  0.289100  0.079930  0.047580  1.0  -0.576
  O  O140  1  0.154800  0.954650  0.073750  1.0  -0.5764
  O  O141  1  0.727900  0.010540  0.055990  1.0  -0.5874
  O  O142  1  0.862400  0.130060  0.019890  1.0  -0.5837
  O  O143  1  0.299000  0.125870  0.320440  1.0  -0.4694
  O  O144  1  0.010800  0.273350  0.271670  1.0  -0.4869
