# generated using pymatgen
data_ZnH8C19(NO3)2
_symmetry_space_group_name_H-M   'P 1'
_cell_length_a   5.63640000
_cell_length_b   18.88630000
_cell_length_c   25.30100000
_cell_angle_alpha   90.00000000
_cell_angle_beta   90.00000000
_cell_angle_gamma   95.47000000
_symmetry_Int_Tables_number   1
_chemical_formula_structural   ZnH8C19(NO3)2
_chemical_formula_sum   'Zn4 H32 C76 N8 O24'
_cell_volume   2681.04553573
_cell_formula_units_Z   4
loop_
 _symmetry_equiv_pos_site_id
 _symmetry_equiv_pos_as_xyz
  1  'x, y, z'
loop_
 _atom_site_type_symbol
 _atom_site_label
 _atom_site_symmetry_multiplicity
 _atom_site_fract_x
 _atom_site_fract_y
 _atom_site_fract_z
 _atom_site_occupancy
 _atom_site_charge
  Zn  Zn1  1  0.103000  0.560250  0.533320  1.0  0.9279
  Zn  Zn2  1  0.897000  0.939750  0.033320  1.0  0.9272
  Zn  Zn3  1  0.897000  0.439750  0.466680  1.0  0.9271
  Zn  Zn4  1  0.103000  0.060250  0.966680  1.0  0.9279
  H  H5  1  0.475300  0.910600  0.107400  1.0  0.0846
  H  H6  1  0.390800  0.845300  0.184200  1.0  0.1421
  H  H7  1  0.987000  0.745400  0.158300  1.0  0.1517
  H  H8  1  0.058400  0.815500  0.084300  1.0  0.0934
  H  H9  1  0.127000  0.600800  0.256900  1.0  0.1223
  H  H10  1  0.072800  0.534400  0.334800  1.0  0.1106
  H  H11  1  0.029500  0.707400  0.432500  1.0  0.1221
  H  H12  1  0.067100  0.776100  0.355800  1.0  0.1152
  H  H13  1  0.524700  0.589400  0.607400  1.0  0.0852
  H  H14  1  0.609200  0.654700  0.684200  1.0  0.1427
  H  H15  1  0.013000  0.754600  0.658300  1.0  0.1529
  H  H16  1  0.941600  0.684500  0.584300  1.0  0.0932
  H  H17  1  0.873000  0.899200  0.756900  1.0  0.1227
  H  H18  1  0.927200  0.965600  0.834800  1.0  0.1111
  H  H19  1  0.970500  0.792600  0.932500  1.0  0.1219
  H  H20  1  0.932900  0.723900  0.855800  1.0  0.1142
  H  H21  1  0.524700  0.089400  0.892600  1.0  0.0849
  H  H22  1  0.609200  0.154700  0.815800  1.0  0.1423
  H  H23  1  0.013000  0.254600  0.841700  1.0  0.1524
  H  H24  1  0.941600  0.184500  0.915700  1.0  0.0933
  H  H25  1  0.873000  0.399200  0.743100  1.0  0.1232
  H  H26  1  0.927200  0.465600  0.665200  1.0  0.1116
  H  H27  1  0.970500  0.292600  0.567500  1.0  0.1204
  H  H28  1  0.932900  0.223900  0.644200  1.0  0.1148
  H  H29  1  0.475300  0.410600  0.392600  1.0  0.0843
  H  H30  1  0.390800  0.345300  0.315800  1.0  0.1421
  H  H31  1  0.987000  0.245400  0.341700  1.0  0.1512
  H  H32  1  0.058400  0.315500  0.415700  1.0  0.0939
  H  H33  1  0.127000  0.100800  0.243100  1.0  0.1229
  H  H34  1  0.072800  0.034400  0.165200  1.0  0.1108
  H  H35  1  0.029500  0.207400  0.067500  1.0  0.1224
  H  H36  1  0.067100  0.276100  0.144200  1.0  0.1156
  C  C37  1  0.581300  0.877400  0.118610  1.0  0.1856
  C  C38  1  0.529900  0.839000  0.164130  1.0  -0.242
  C  C39  1  0.687300  0.791100  0.179760  1.0  0.2639
  C  C40  1  0.883000  0.780200  0.149090  1.0  -0.2468
  C  C41  1  0.921200  0.821300  0.105100  1.0  0.1828
  C  C42  1  0.450900  0.702200  0.232090  1.0  0.5206
  C  C43  1  0.423900  0.661100  0.281700  1.0  -0.1718
  C  C44  1  0.588700  0.673400  0.323220  1.0  0.0754
  C  C45  1  0.784700  0.726800  0.318170  1.0  -0.1685
  C  C46  1  0.820600  0.767200  0.268810  1.0  0.5454
  C  C47  1  0.234700  0.609500  0.285590  1.0  -0.0224
  C  C48  1  0.203400  0.570000  0.332100  1.0  -0.0729
  C  C49  1  0.357300  0.581300  0.374280  1.0  -0.0838
  C  C50  1  0.561200  0.632200  0.370260  1.0  0.0526
  C  C51  1  0.738500  0.644000  0.409980  1.0  -0.0775
  C  C52  1  0.918500  0.698000  0.404510  1.0  -0.0826
  C  C53  1  0.941100  0.739100  0.358710  1.0  -0.0098
  C  C54  1  0.275200  0.544800  0.424830  1.0  0.6618
  C  C55  1  0.774400  0.592900  0.454610  1.0  0.6686
  C  C56  1  0.418700  0.622600  0.618610  1.0  0.1861
  C  C57  1  0.470100  0.661000  0.664130  1.0  -0.2419
  C  C58  1  0.312700  0.708900  0.679760  1.0  0.2642
  C  C59  1  0.117000  0.719800  0.649090  1.0  -0.2468
  C  C60  1  0.078800  0.678700  0.605100  1.0  0.1831
  C  C61  1  0.549100  0.797800  0.732090  1.0  0.5208
  C  C62  1  0.576100  0.838900  0.781700  1.0  -0.1715
  C  C63  1  0.411300  0.826600  0.823220  1.0  0.0756
  C  C64  1  0.215300  0.773200  0.818170  1.0  -0.1686
  C  C65  1  0.179400  0.732800  0.768810  1.0  0.5433
  C  C66  1  0.765300  0.890500  0.785590  1.0  -0.0221
  C  C67  1  0.796600  0.930000  0.832100  1.0  -0.0696
  C  C68  1  0.642700  0.918700  0.874280  1.0  -0.0835
  C  C69  1  0.438800  0.867800  0.870260  1.0  0.053
  C  C70  1  0.261500  0.856000  0.909980  1.0  -0.0773
  C  C71  1  0.081500  0.802000  0.904510  1.0  -0.0838
  C  C72  1  0.058900  0.760900  0.858710  1.0  -0.0098
  C  C73  1  0.724800  0.955200  0.924830  1.0  0.6622
  C  C74  1  0.225600  0.907100  0.954610  1.0  0.669
  C  C75  1  0.418700  0.122600  0.881390  1.0  0.187
  C  C76  1  0.470100  0.161000  0.835870  1.0  -0.2425
  C  C77  1  0.312700  0.208900  0.820240  1.0  0.2637
  C  C78  1  0.117000  0.219800  0.850910  1.0  -0.2472
  C  C79  1  0.078800  0.178700  0.894900  1.0  0.1827
  C  C80  1  0.549100  0.297800  0.767910  1.0  0.5197
  C  C81  1  0.576100  0.338900  0.718300  1.0  -0.1716
  C  C82  1  0.411300  0.326600  0.676780  1.0  0.0756
  C  C83  1  0.215300  0.273200  0.681830  1.0  -0.1685
  C  C84  1  0.179400  0.232800  0.731190  1.0  0.5445
  C  C85  1  0.765300  0.390500  0.714410  1.0  -0.0194
  C  C86  1  0.796600  0.430000  0.667900  1.0  -0.0705
  C  C87  1  0.642700  0.418700  0.625720  1.0  -0.0843
  C  C88  1  0.438800  0.367800  0.629740  1.0  0.0531
  C  C89  1  0.261500  0.356000  0.590020  1.0  -0.078
  C  C90  1  0.081500  0.302000  0.595490  1.0  -0.0832
  C  C91  1  0.058900  0.260900  0.641290  1.0  -0.0112
  C  C92  1  0.724800  0.455200  0.575170  1.0  0.6623
  C  C93  1  0.225600  0.407100  0.545390  1.0  0.6687
  C  C94  1  0.581300  0.377400  0.381390  1.0  0.1861
  C  C95  1  0.529900  0.339000  0.335870  1.0  -0.2422
  C  C96  1  0.687300  0.291100  0.320240  1.0  0.2635
  C  C97  1  0.883000  0.280200  0.350910  1.0  -0.2462
  C  C98  1  0.921200  0.321300  0.394900  1.0  0.1834
  C  C99  1  0.450900  0.202200  0.267910  1.0  0.5203
  C  C100  1  0.423900  0.161100  0.218300  1.0  -0.1729
  C  C101  1  0.588700  0.173400  0.176780  1.0  0.0754
  C  C102  1  0.784700  0.226800  0.181830  1.0  -0.1683
  C  C103  1  0.820600  0.267200  0.231190  1.0  0.5467
  C  C104  1  0.234700  0.109500  0.214410  1.0  -0.0204
  C  C105  1  0.203400  0.070000  0.167900  1.0  -0.0726
  C  C106  1  0.357300  0.081300  0.125720  1.0  -0.0844
  C  C107  1  0.561200  0.132200  0.129740  1.0  0.0526
  C  C108  1  0.738500  0.144000  0.090020  1.0  -0.0781
  C  C109  1  0.918500  0.198000  0.095490  1.0  -0.0821
  C  C110  1  0.941100  0.239100  0.141290  1.0  -0.009
  C  C111  1  0.275200  0.044800  0.075170  1.0  0.6618
  C  C112  1  0.774400  0.092900  0.045390  1.0  0.6685
  N  N113  1  0.775900  0.869450  0.089520  1.0  -0.3174
  N  N114  1  0.651200  0.752900  0.229030  1.0  -0.2615
  N  N115  1  0.224100  0.630550  0.589520  1.0  -0.3176
  N  N116  1  0.348800  0.747100  0.729030  1.0  -0.2612
  N  N117  1  0.224100  0.130550  0.910480  1.0  -0.3168
  N  N118  1  0.348800  0.247100  0.770970  1.0  -0.261
  N  N119  1  0.775900  0.369450  0.410480  1.0  -0.3171
  N  N120  1  0.651200  0.252900  0.270970  1.0  -0.2612
  O  O121  1  0.290200  0.582000  0.466350  1.0  -0.5755
  O  O122  1  0.178600  0.482320  0.420840  1.0  -0.5805
  O  O123  1  0.741200  0.527700  0.442930  1.0  -0.589
  O  O124  1  0.854900  0.618300  0.497150  1.0  -0.5705
  O  O125  1  0.315400  0.694220  0.194830  1.0  -0.4799
  O  O126  1  0.987400  0.811900  0.261880  1.0  -0.4779
  O  O127  1  0.709800  0.918000  0.966350  1.0  -0.574
  O  O128  1  0.821400  0.017680  0.920840  1.0  -0.5805
  O  O129  1  0.258800  0.972300  0.942930  1.0  -0.5892
  O  O130  1  0.145100  0.881700  0.997150  1.0  -0.5722
  O  O131  1  0.684600  0.805780  0.694830  1.0  -0.4799
  O  O132  1  0.012600  0.688100  0.761880  1.0  -0.4777
  O  O133  1  0.709800  0.418000  0.533650  1.0  -0.5751
  O  O134  1  0.821400  0.517680  0.579160  1.0  -0.5807
  O  O135  1  0.258800  0.472300  0.557070  1.0  -0.5891
  O  O136  1  0.145100  0.381700  0.502850  1.0  -0.5712
  O  O137  1  0.684600  0.305780  0.805170  1.0  -0.4787
  O  O138  1  0.012600  0.188100  0.738120  1.0  -0.4774
  O  O139  1  0.290200  0.082000  0.033650  1.0  -0.576
  O  O140  1  0.178600  0.982320  0.079160  1.0  -0.5801
  O  O141  1  0.741200  0.027700  0.057070  1.0  -0.5889
  O  O142  1  0.854900  0.118300  0.002850  1.0  -0.5712
  O  O143  1  0.315400  0.194220  0.305170  1.0  -0.4798
  O  O144  1  0.987400  0.311900  0.238120  1.0  -0.4776
