# generated using pymatgen
data_ZnH8C19(NO3)2
_symmetry_space_group_name_H-M   'P 1'
_cell_length_a   5.58710000
_cell_length_b   25.94620000
_cell_length_c   17.49830000
_cell_angle_alpha   90.00000000
_cell_angle_beta   96.03100000
_cell_angle_gamma   90.00000000
_symmetry_Int_Tables_number   1
_chemical_formula_structural   ZnH8C19(NO3)2
_chemical_formula_sum   'Zn4 H32 C76 N8 O24'
_cell_volume   2522.58408704
_cell_formula_units_Z   4
loop_
 _symmetry_equiv_pos_site_id
 _symmetry_equiv_pos_as_xyz
  1  'x, y, z'
loop_
 _atom_site_type_symbol
 _atom_site_label
 _atom_site_symmetry_multiplicity
 _atom_site_fract_x
 _atom_site_fract_y
 _atom_site_fract_z
 _atom_site_occupancy
 _atom_site_charge
  Zn  Zn1  1  0.892060  0.473230  0.428070  1.0  0.9452
  Zn  Zn2  1  0.107940  0.973230  0.071930  1.0  0.9449
  Zn  Zn3  1  0.107940  0.526770  0.571930  1.0  0.9448
  Zn  Zn4  1  0.892060  0.026770  0.928070  1.0  0.9452
  H  H5  1  0.534600  0.903300  0.111500  1.0  0.092
  H  H6  1  0.606600  0.828000  0.180800  1.0  0.1243
  H  H7  1  0.018400  0.856200  0.286700  1.0  0.1384
  H  H8  1  0.955800  0.929400  0.213000  1.0  0.0989
  H  H9  1  0.870400  0.745100  0.435500  1.0  0.1191
  H  H10  1  0.928400  0.664800  0.493200  1.0  0.1059
  H  H11  1  0.967900  0.582100  0.290200  1.0  0.1115
  H  H12  1  0.925400  0.662700  0.230700  1.0  0.121
  H  H13  1  0.465400  0.403300  0.388500  1.0  0.0916
  H  H14  1  0.393400  0.328000  0.319200  1.0  0.1245
  H  H15  1  0.981600  0.356200  0.213300  1.0  0.1384
  H  H16  1  0.044200  0.429400  0.287000  1.0  0.0986
  H  H17  1  0.129600  0.245100  0.064500  1.0  0.1192
  H  H18  1  0.071600  0.164800  0.006800  1.0  0.1056
  H  H19  1  0.032100  0.082100  0.209800  1.0  0.1117
  H  H20  1  0.074600  0.162700  0.269300  1.0  0.1216
  H  H21  1  0.465400  0.096700  0.888500  1.0  0.0904
  H  H22  1  0.393400  0.172000  0.819200  1.0  0.1244
  H  H23  1  0.981600  0.143800  0.713300  1.0  0.1384
  H  H24  1  0.044200  0.070600  0.787000  1.0  0.099
  H  H25  1  0.129600  0.254900  0.564500  1.0  0.1186
  H  H26  1  0.071600  0.335200  0.506800  1.0  0.1057
  H  H27  1  0.032100  0.417900  0.709800  1.0  0.1115
  H  H28  1  0.074600  0.337300  0.769300  1.0  0.1211
  H  H29  1  0.534600  0.596700  0.611500  1.0  0.0907
  H  H30  1  0.606600  0.672000  0.680800  1.0  0.1245
  H  H31  1  0.018400  0.643800  0.786700  1.0  0.1385
  H  H32  1  0.955800  0.570600  0.713000  1.0  0.0984
  H  H33  1  0.870400  0.754900  0.935500  1.0  0.1191
  H  H34  1  0.928400  0.835200  0.993200  1.0  0.1062
  H  H35  1  0.967900  0.917900  0.790200  1.0  0.1117
  H  H36  1  0.925400  0.837300  0.730700  1.0  0.1213
  C  C37  1  0.427800  0.893100  0.145900  1.0  0.1794
  C  C38  1  0.472300  0.848040  0.187500  1.0  -0.1764
  C  C39  1  0.314400  0.833310  0.238900  1.0  0.2249
  C  C40  1  0.122000  0.864500  0.250300  1.0  -0.2623
  C  C41  1  0.087100  0.908470  0.206300  1.0  0.1559
  C  C42  1  0.545500  0.777530  0.330100  1.0  0.5498
  C  C43  1  0.573700  0.726320  0.367400  1.0  -0.1453
  C  C44  1  0.408300  0.686540  0.346500  1.0  0.0651
  C  C45  1  0.208800  0.695650  0.291500  1.0  -0.143
  C  C46  1  0.167400  0.747030  0.256400  1.0  0.5355
  C  C47  1  0.763900  0.718310  0.421500  1.0  -0.0464
  C  C48  1  0.799100  0.669820  0.456000  1.0  -0.0546
  C  C49  1  0.644800  0.629390  0.435600  1.0  -0.083
  C  C50  1  0.438500  0.637060  0.381900  1.0  0.0536
  C  C51  1  0.259700  0.598850  0.361500  1.0  -0.0533
  C  C52  1  0.076800  0.608260  0.305200  1.0  -0.0719
  C  C53  1  0.050200  0.656990  0.269200  1.0  -0.0721
  C  C54  1  0.729700  0.576930  0.465000  1.0  0.6754
  C  C55  1  0.230100  0.550900  0.408400  1.0  0.6644
  C  C56  1  0.572200  0.393100  0.354100  1.0  0.1781
  C  C57  1  0.527700  0.348040  0.312500  1.0  -0.1754
  C  C58  1  0.685600  0.333333  0.261100  1.0  0.2523
  C  C59  1  0.878000  0.364500  0.249700  1.0  -0.2596
  C  C60  1  0.912900  0.408470  0.293700  1.0  0.1563
  C  C61  1  0.454500  0.277530  0.169900  1.0  0.5512
  C  C62  1  0.426300  0.226320  0.132600  1.0  -0.146
  C  C63  1  0.591700  0.186540  0.153500  1.0  0.0652
  C  C64  1  0.791200  0.195650  0.208500  1.0  -0.1444
  C  C65  1  0.832600  0.247030  0.243600  1.0  0.5343
  C  C66  1  0.236100  0.218310  0.078500  1.0  -0.0465
  C  C67  1  0.200900  0.169820  0.044000  1.0  -0.0552
  C  C68  1  0.355200  0.129390  0.064400  1.0  -0.0843
  C  C69  1  0.561500  0.137060  0.118100  1.0  0.0534
  C  C70  1  0.740300  0.098850  0.138500  1.0  -0.0535
  C  C71  1  0.923200  0.108260  0.194800  1.0  -0.0734
  C  C72  1  0.949800  0.156990  0.230800  1.0  -0.0754
  C  C73  1  0.270300  0.076930  0.035000  1.0  0.6751
  C  C74  1  0.769900  0.050900  0.091600  1.0  0.6639
  C  C75  1  0.572200  0.106900  0.854100  1.0  0.1786
  C  C76  1  0.527700  0.151960  0.812500  1.0  -0.1759
  C  C77  1  0.685600  0.166690  0.761100  1.0  0.2244
  C  C78  1  0.878000  0.135500  0.749700  1.0  -0.2594
  C  C79  1  0.912900  0.091530  0.793700  1.0  0.155
  C  C80  1  0.454500  0.222470  0.669900  1.0  0.5511
  C  C81  1  0.426300  0.273680  0.632600  1.0  -0.1467
  C  C82  1  0.591700  0.313460  0.653500  1.0  0.0655
  C  C83  1  0.791200  0.304350  0.708500  1.0  -0.1437
  C  C84  1  0.832600  0.252970  0.743600  1.0  0.5341
  C  C85  1  0.236100  0.281690  0.578500  1.0  -0.0453
  C  C86  1  0.200900  0.330180  0.544000  1.0  -0.0557
  C  C87  1  0.355200  0.370610  0.564400  1.0  -0.0827
  C  C88  1  0.561500  0.362940  0.618100  1.0  0.0534
  C  C89  1  0.740300  0.401150  0.638500  1.0  -0.0532
  C  C90  1  0.923200  0.391740  0.694800  1.0  -0.0724
  C  C91  1  0.949800  0.343010  0.730800  1.0  -0.0746
  C  C92  1  0.270300  0.423070  0.535000  1.0  0.6749
  C  C93  1  0.769900  0.449100  0.591600  1.0  0.6634
  C  C94  1  0.427800  0.606900  0.645900  1.0  0.1793
  C  C95  1  0.472300  0.651960  0.687500  1.0  -0.1755
  C  C96  1  0.314400  0.666667  0.738900  1.0  0.2531
  C  C97  1  0.122000  0.635500  0.750300  1.0  -0.262
  C  C98  1  0.087100  0.591530  0.706300  1.0  0.1567
  C  C99  1  0.545500  0.722470  0.830100  1.0  0.5501
  C  C100  1  0.573700  0.773680  0.867400  1.0  -0.1466
  C  C101  1  0.408300  0.813460  0.846500  1.0  0.0654
  C  C102  1  0.208800  0.804350  0.791500  1.0  -0.1437
  C  C103  1  0.167400  0.752970  0.756400  1.0  0.5359
  C  C104  1  0.763900  0.781690  0.921500  1.0  -0.0472
  C  C105  1  0.799100  0.830180  0.956000  1.0  -0.0555
  C  C106  1  0.644800  0.870610  0.935600  1.0  -0.0821
  C  C107  1  0.438500  0.862940  0.881900  1.0  0.0536
  C  C108  1  0.259700  0.901150  0.861500  1.0  -0.0534
  C  C109  1  0.076800  0.891740  0.805200  1.0  -0.0713
  C  C110  1  0.050200  0.843010  0.769200  1.0  -0.0713
  C  C111  1  0.729700  0.923070  0.965000  1.0  0.6751
  C  C112  1  0.230100  0.949100  0.908400  1.0  0.6628
  N  N113  1  0.233800  0.922380  0.154260  1.0  -0.3328
  N  N114  1  0.343000  0.784470  0.277600  1.0  -0.2461
  N  N115  1  0.766200  0.422380  0.345740  1.0  -0.3338
  N  N116  1  0.657000  0.284470  0.222400  1.0  -0.2458
  N  N117  1  0.766200  0.077620  0.845740  1.0  -0.334
  N  N118  1  0.657000  0.215530  0.722400  1.0  -0.2456
  N  N119  1  0.233800  0.577620  0.654260  1.0  -0.3328
  N  N120  1  0.343000  0.715530  0.777600  1.0  -0.246
  O  O121  1  0.713000  0.540980  0.416840  1.0  -0.5752
  O  O122  1  0.829900  0.575550  0.532390  1.0  -0.5729
  O  O123  1  0.264200  0.556160  0.480020  1.0  -0.5862
  O  O124  1  0.146600  0.511830  0.372620  1.0  -0.5728
  O  O125  1  0.685500  0.813040  0.344670  1.0  -0.4965
  O  O126  1  0.993800  0.757400  0.211300  1.0  -0.4793
  O  O127  1  0.287000  0.040980  0.083160  1.0  -0.576
  O  O128  1  0.170100  0.075550  0.967610  1.0  -0.5737
  O  O129  1  0.735800  0.056160  0.019980  1.0  -0.5855
  O  O130  1  0.853400  0.011830  0.127380  1.0  -0.5709
  O  O131  1  0.314500  0.313040  0.155330  1.0  -0.4972
  O  O132  1  0.006200  0.257400  0.288700  1.0  -0.4786
  O  O133  1  0.287000  0.459020  0.583160  1.0  -0.576
  O  O134  1  0.170100  0.424450  0.467610  1.0  -0.5738
  O  O135  1  0.735800  0.443840  0.519980  1.0  -0.5856
  O  O136  1  0.853400  0.488170  0.627380  1.0  -0.5713
  O  O137  1  0.314500  0.186960  0.655330  1.0  -0.4965
  O  O138  1  0.006200  0.242600  0.788700  1.0  -0.4778
  O  O139  1  0.713000  0.959020  0.916840  1.0  -0.575
  O  O140  1  0.829900  0.924450  0.032390  1.0  -0.5728
  O  O141  1  0.264200  0.943840  0.980020  1.0  -0.5864
  O  O142  1  0.146600  0.988170  0.872620  1.0  -0.573
  O  O143  1  0.685500  0.686960  0.844670  1.0  -0.4974
  O  O144  1  0.993800  0.742600  0.711300  1.0  -0.4802
