# generated using pymatgen
data_MnCu2H9C12I2N2O5
_symmetry_space_group_name_H-M   'P 1'
_cell_length_a   18.00430000
_cell_length_b   18.15940000
_cell_length_c   21.11640000
_cell_angle_alpha   90.00000000
_cell_angle_beta   90.00000000
_cell_angle_gamma   93.34400000
_symmetry_Int_Tables_number   1
_chemical_formula_structural   MnCu2H9C12I2N2O5
_chemical_formula_sum   'Mn8 Cu16 H72 C96 I16 N16 O40'
_cell_volume   6892.19441487
_cell_formula_units_Z   8
loop_
 _symmetry_equiv_pos_site_id
 _symmetry_equiv_pos_as_xyz
  1  'x, y, z'
loop_
 _atom_site_type_symbol
 _atom_site_label
 _atom_site_symmetry_multiplicity
 _atom_site_fract_x
 _atom_site_fract_y
 _atom_site_fract_z
 _atom_site_occupancy
 _atom_site_charge
  Mn  Mn1  1  0.305230  0.014260  0.062740  1.0  1.1094
  Mn  Mn2  1  0.653960  0.352600  0.685030  1.0  1.0978
  Mn  Mn3  1  0.694770  0.485740  0.562740  1.0  1.1088
  Mn  Mn4  1  0.346040  0.147400  0.185030  1.0  1.1015
  Mn  Mn5  1  0.694770  0.985740  0.937260  1.0  1.1086
  Mn  Mn6  1  0.346040  0.647400  0.314970  1.0  1.1019
  Mn  Mn7  1  0.305230  0.514260  0.437260  1.0  1.1093
  Mn  Mn8  1  0.653960  0.852600  0.814970  1.0  1.099
  Cu  Cu9  1  0.268680  0.511990  0.770000  1.0  0.1059
  Cu  Cu10  1  0.205010  0.591290  0.863400  1.0  0.1085
  Cu  Cu11  1  0.208030  0.440520  0.870190  1.0  0.1299
  Cu  Cu12  1  0.119820  0.509490  0.790780  1.0  0.1718
  Cu  Cu13  1  0.731320  0.988010  0.270000  1.0  0.1066
  Cu  Cu14  1  0.794990  0.908710  0.363400  1.0  0.1086
  Cu  Cu15  1  0.791970  0.059480  0.370190  1.0  0.129
  Cu  Cu16  1  0.880180  0.990510  0.290780  1.0  0.1705
  Cu  Cu17  1  0.731320  0.488010  0.230000  1.0  0.1065
  Cu  Cu18  1  0.794990  0.408710  0.136600  1.0  0.1093
  Cu  Cu19  1  0.791970  0.559480  0.129810  1.0  0.1293
  Cu  Cu20  1  0.880180  0.490510  0.209220  1.0  0.1706
  Cu  Cu21  1  0.268680  0.011990  0.730000  1.0  0.1059
  Cu  Cu22  1  0.205010  0.091290  0.636600  1.0  0.1091
  Cu  Cu23  1  0.208030  0.940520  0.629810  1.0  0.13
  Cu  Cu24  1  0.119820  0.009490  0.709220  1.0  0.1719
  H  H25  1  0.623700  0.435100  0.784300  1.0  0.4827
  H  H26  1  0.701100  0.219300  0.701700  1.0  0.4948
  H  H27  1  0.242900  0.641500  0.991100  1.0  0.0871
  H  H28  1  0.910600  0.551700  0.646400  1.0  0.1203
  H  H29  1  0.424500  0.484900  0.785700  1.0  0.0769
  H  H30  1  0.026600  0.571300  0.692000  1.0  0.0892
  H  H31  1  0.277500  0.747100  0.045200  1.0  0.1183
  H  H32  1  0.222700  0.863000  0.895400  1.0  0.1144
  H  H33  1  0.318700  0.513000  0.632100  1.0  0.0839
  H  H34  1  0.984900  0.415000  0.808200  1.0  0.0826
  H  H35  1  0.245500  0.407100  0.002000  1.0  0.0864
  H  H36  1  0.225300  0.279400  0.857600  1.0  0.1083
  H  H37  1  0.268100  0.182100  0.918300  1.0  0.1171
  H  H38  1  0.280800  0.314400  0.065700  1.0  0.1163
  H  H39  1  0.423400  0.503300  0.573200  1.0  0.1333
  H  H40  1  0.869600  0.390500  0.765600  1.0  0.1207
  H  H41  1  0.532500  0.464100  0.733700  1.0  0.1141
  H  H42  1  0.194800  0.755400  0.842700  1.0  0.095
  H  H43  1  0.376300  0.064900  0.284300  1.0  0.4839
  H  H44  1  0.298900  0.280700  0.201700  1.0  0.4976
  H  H45  1  0.757100  0.858500  0.491100  1.0  0.0865
  H  H46  1  0.089400  0.948300  0.146400  1.0  0.1194
  H  H47  1  0.575500  0.015100  0.285700  1.0  0.0781
  H  H48  1  0.973400  0.928700  0.192000  1.0  0.0887
  H  H49  1  0.722500  0.752900  0.545200  1.0  0.1182
  H  H50  1  0.777300  0.637000  0.395400  1.0  0.1136
  H  H51  1  0.681300  0.987000  0.132100  1.0  0.0829
  H  H52  1  0.015100  0.085000  0.308200  1.0  0.083
  H  H53  1  0.754500  0.092900  0.502000  1.0  0.0858
  H  H54  1  0.774700  0.220600  0.357600  1.0  0.1084
  H  H55  1  0.731900  0.317900  0.418300  1.0  0.1172
  H  H56  1  0.719200  0.185600  0.565700  1.0  0.1166
  H  H57  1  0.576600  0.996700  0.073200  1.0  0.1335
  H  H58  1  0.130400  0.109500  0.265600  1.0  0.1206
  H  H59  1  0.467500  0.035900  0.233700  1.0  0.1148
  H  H60  1  0.805200  0.744600  0.342700  1.0  0.095
  H  H61  1  0.376300  0.564900  0.215700  1.0  0.4848
  H  H62  1  0.298900  0.780700  0.298300  1.0  0.4991
  H  H63  1  0.757100  0.358500  0.008900  1.0  0.0859
  H  H64  1  0.089400  0.448300  0.353600  1.0  0.1197
  H  H65  1  0.575500  0.515100  0.214300  1.0  0.0774
  H  H66  1  0.973400  0.428700  0.308000  1.0  0.0894
  H  H67  1  0.722500  0.252900  0.954800  1.0  0.1176
  H  H68  1  0.777300  0.137000  0.104600  1.0  0.1136
  H  H69  1  0.681300  0.487000  0.367900  1.0  0.0833
  H  H70  1  0.015100  0.585000  0.191800  1.0  0.0828
  H  H71  1  0.754500  0.592900  0.998000  1.0  0.085
  H  H72  1  0.774700  0.720600  0.142400  1.0  0.1082
  H  H73  1  0.731900  0.817900  0.081700  1.0  0.1168
  H  H74  1  0.719200  0.685600  0.934300  1.0  0.1163
  H  H75  1  0.576600  0.496700  0.426800  1.0  0.1332
  H  H76  1  0.130400  0.609500  0.234400  1.0  0.1207
  H  H77  1  0.467500  0.535900  0.266300  1.0  0.115
  H  H78  1  0.805200  0.244600  0.157300  1.0  0.0949
  H  H79  1  0.623700  0.935100  0.715700  1.0  0.4819
  H  H80  1  0.701100  0.719300  0.798300  1.0  0.4965
  H  H81  1  0.242900  0.141500  0.508900  1.0  0.0862
  H  H82  1  0.910600  0.051700  0.853600  1.0  0.1203
  H  H83  1  0.424500  0.984900  0.714300  1.0  0.0767
  H  H84  1  0.026600  0.071300  0.808000  1.0  0.0896
  H  H85  1  0.277500  0.247100  0.454800  1.0  0.1176
  H  H86  1  0.222700  0.363000  0.604600  1.0  0.1136
  H  H87  1  0.318700  0.013000  0.867900  1.0  0.0838
  H  H88  1  0.984900  0.915000  0.691800  1.0  0.0829
  H  H89  1  0.245500  0.907100  0.498000  1.0  0.0857
  H  H90  1  0.225300  0.779400  0.642400  1.0  0.1083
  H  H91  1  0.268100  0.682100  0.581700  1.0  0.117
  H  H92  1  0.280800  0.814400  0.434300  1.0  0.1158
  H  H93  1  0.423400  0.003300  0.926800  1.0  0.1324
  H  H94  1  0.869600  0.890500  0.734400  1.0  0.1209
  H  H95  1  0.532500  0.964100  0.766300  1.0  0.1144
  H  H96  1  0.194800  0.255400  0.657300  1.0  0.0949
  C  C97  1  0.239700  0.686600  0.970800  1.0  0.1341
  C  C98  1  0.925100  0.521000  0.678800  1.0  -0.0998
  C  C99  1  0.424200  0.487200  0.741700  1.0  0.1929
  C  C100  1  0.994800  0.533200  0.707300  1.0  0.151
  C  C101  1  0.260000  0.750400  0.004000  1.0  -0.1124
  C  C102  1  0.228500  0.818400  0.915900  1.0  -0.1145
  C  C103  1  0.562900  0.476500  0.614900  1.0  0.6864
  C  C104  1  0.363100  0.504900  0.652700  1.0  0.1665
  C  C105  1  0.970900  0.443300  0.773900  1.0  0.174
  C  C106  1  0.302900  0.175500  0.040800  1.0  0.7245
  C  C107  1  0.248800  0.360500  0.984300  1.0  0.171
  C  C108  1  0.237800  0.287100  0.899900  1.0  0.1003
  C  C109  1  0.262100  0.227800  0.936900  1.0  -0.0635
  C  C110  1  0.275400  0.889800  0.010600  1.0  0.6683
  C  C111  1  0.270500  0.305100  0.023200  1.0  -0.1317
  C  C112  1  0.254500  0.818300  0.976800  1.0  -0.1032
  C  C113  1  0.276500  0.237900  0.999200  1.0  -0.0991
  C  C114  1  0.425300  0.498800  0.617100  1.0  -0.1753
  C  C115  1  0.901200  0.427400  0.748200  1.0  -0.1122
  C  C116  1  0.490300  0.476700  0.711700  1.0  -0.1742
  C  C117  1  0.802400  0.450400  0.665000  1.0  0.7297
  C  C118  1  0.210900  0.753100  0.884400  1.0  0.1464
  C  C119  1  0.490400  0.486000  0.646800  1.0  -0.0905
  C  C120  1  0.879700  0.465200  0.698400  1.0  -0.122
  C  C121  1  0.760300  0.813400  0.470800  1.0  0.1346
  C  C122  1  0.074900  0.979000  0.178800  1.0  -0.099
  C  C123  1  0.575800  0.012800  0.241700  1.0  0.1927
  C  C124  1  0.005200  0.966800  0.207300  1.0  0.1518
  C  C125  1  0.740000  0.749600  0.504000  1.0  -0.1131
  C  C126  1  0.771500  0.681600  0.415900  1.0  -0.1131
  C  C127  1  0.437100  0.023500  0.114900  1.0  0.6854
  C  C128  1  0.636900  0.995100  0.152700  1.0  0.1671
  C  C129  1  0.029100  0.056700  0.273900  1.0  0.1724
  C  C130  1  0.697100  0.324500  0.540800  1.0  0.7244
  C  C131  1  0.751200  0.139500  0.484300  1.0  0.1691
  C  C132  1  0.762200  0.212900  0.399900  1.0  0.0995
  C  C133  1  0.737900  0.272200  0.436900  1.0  -0.0665
  C  C134  1  0.724600  0.610200  0.510600  1.0  0.6676
  C  C135  1  0.729500  0.194900  0.523200  1.0  -0.1318
  C  C136  1  0.745500  0.681700  0.476800  1.0  -0.1033
  C  C137  1  0.723500  0.262100  0.499200  1.0  -0.1007
  C  C138  1  0.574700  0.001200  0.117100  1.0  -0.1747
  C  C139  1  0.098800  0.072600  0.248200  1.0  -0.1121
  C  C140  1  0.509700  0.023300  0.211700  1.0  -0.1739
  C  C141  1  0.197600  0.049600  0.165000  1.0  0.7286
  C  C142  1  0.789100  0.746900  0.384400  1.0  0.1466
  C  C143  1  0.509600  0.014000  0.146800  1.0  -0.0912
  C  C144  1  0.120300  0.034800  0.198400  1.0  -0.1197
  C  C145  1  0.760300  0.313400  0.029200  1.0  0.1345
  C  C146  1  0.074900  0.479000  0.321200  1.0  -0.0995
  C  C147  1  0.575800  0.512800  0.258300  1.0  0.1925
  C  C148  1  0.005200  0.466800  0.292700  1.0  0.1524
  C  C149  1  0.740000  0.249600  0.996000  1.0  -0.1119
  C  C150  1  0.771500  0.181600  0.084100  1.0  -0.1138
  C  C151  1  0.437100  0.523500  0.385100  1.0  0.686
  C  C152  1  0.636900  0.495100  0.347300  1.0  0.1671
  C  C153  1  0.029100  0.556700  0.226100  1.0  0.1723
  C  C154  1  0.697100  0.824500  0.959200  1.0  0.7241
  C  C155  1  0.751200  0.639500  0.015700  1.0  0.1686
  C  C156  1  0.762200  0.712900  0.100100  1.0  0.1014
  C  C157  1  0.737900  0.772200  0.063100  1.0  -0.0658
  C  C158  1  0.724600  0.110200  0.989400  1.0  0.6683
  C  C159  1  0.729500  0.694900  0.976800  1.0  -0.1315
  C  C160  1  0.745500  0.181700  0.023200  1.0  -0.1024
  C  C161  1  0.723500  0.762100  0.000800  1.0  -0.1017
  C  C162  1  0.574700  0.501200  0.382900  1.0  -0.1763
  C  C163  1  0.098800  0.572600  0.251800  1.0  -0.1121
  C  C164  1  0.509700  0.523300  0.288300  1.0  -0.174
  C  C165  1  0.197600  0.549600  0.335000  1.0  0.7291
  C  C166  1  0.789100  0.246900  0.115600  1.0  0.1474
  C  C167  1  0.509600  0.514000  0.353200  1.0  -0.0912
  C  C168  1  0.120300  0.534800  0.301600  1.0  -0.1196
  C  C169  1  0.239700  0.186600  0.529200  1.0  0.1332
  C  C170  1  0.925100  0.021000  0.821200  1.0  -0.1007
  C  C171  1  0.424200  0.987200  0.758300  1.0  0.1929
  C  C172  1  0.994800  0.033200  0.792700  1.0  0.1508
  C  C173  1  0.260000  0.250400  0.496000  1.0  -0.1111
  C  C174  1  0.228500  0.318400  0.584100  1.0  -0.1145
  C  C175  1  0.562900  0.976500  0.885100  1.0  0.6874
  C  C176  1  0.363100  0.004900  0.847300  1.0  0.1662
  C  C177  1  0.970900  0.943300  0.726100  1.0  0.172
  C  C178  1  0.302900  0.675500  0.459200  1.0  0.7243
  C  C179  1  0.248800  0.860500  0.515700  1.0  0.1702
  C  C180  1  0.237800  0.787100  0.600100  1.0  0.1003
  C  C181  1  0.262100  0.727800  0.563100  1.0  -0.0635
  C  C182  1  0.275400  0.389800  0.489400  1.0  0.6692
  C  C183  1  0.270500  0.805100  0.476800  1.0  -0.1321
  C  C184  1  0.254500  0.318300  0.523200  1.0  -0.1016
  C  C185  1  0.276500  0.737900  0.500800  1.0  -0.1003
  C  C186  1  0.425300  0.998800  0.882900  1.0  -0.1768
  C  C187  1  0.901200  0.927400  0.751800  1.0  -0.112
  C  C188  1  0.490300  0.976700  0.788300  1.0  -0.1743
  C  C189  1  0.802400  0.950400  0.835000  1.0  0.7299
  C  C190  1  0.210900  0.253100  0.615600  1.0  0.1463
  C  C191  1  0.490400  0.986000  0.853200  1.0  -0.0912
  C  C192  1  0.879700  0.965200  0.801600  1.0  -0.1205
  I  I193  1  0.191280  0.627560  0.739550  1.0  -0.2202
  I  I194  1  0.184620  0.385340  0.754830  1.0  -0.2192
  I  I195  1  0.093900  0.509620  0.918020  1.0  -0.2353
  I  I196  1  0.332400  0.529630  0.889440  1.0  -0.247
  I  I197  1  0.808720  0.872440  0.239550  1.0  -0.2202
  I  I198  1  0.815380  0.114660  0.254830  1.0  -0.2185
  I  I199  1  0.906100  0.990380  0.418020  1.0  -0.2353
  I  I200  1  0.667600  0.970370  0.389440  1.0  -0.2472
  I  I201  1  0.808720  0.372440  0.260450  1.0  -0.2212
  I  I202  1  0.815380  0.614660  0.245170  1.0  -0.2188
  I  I203  1  0.906100  0.490380  0.081980  1.0  -0.2357
  I  I204  1  0.667600  0.470370  0.110560  1.0  -0.2489
  I  I205  1  0.191280  0.127560  0.760450  1.0  -0.2214
  I  I206  1  0.184620  0.885340  0.745170  1.0  -0.2193
  I  I207  1  0.093900  0.009620  0.581980  1.0  -0.2353
  I  I208  1  0.332400  0.029630  0.610560  1.0  -0.2482
  N  N209  1  0.017500  0.493900  0.754100  1.0  -0.1306
  N  N210  1  0.215900  0.687000  0.910900  1.0  -0.3062
  N  N211  1  0.232800  0.352700  0.925100  1.0  -0.2838
  N  N212  1  0.362400  0.499900  0.715500  1.0  -0.3189
  N  N213  1  0.982500  0.006100  0.254100  1.0  -0.1307
  N  N214  1  0.784100  0.813000  0.410900  1.0  -0.3057
  N  N215  1  0.767200  0.147300  0.425100  1.0  -0.28
  N  N216  1  0.637600  0.000100  0.215500  1.0  -0.3165
  N  N217  1  0.982500  0.506100  0.245900  1.0  -0.1293
  N  N218  1  0.784100  0.313000  0.089100  1.0  -0.3057
  N  N219  1  0.767200  0.647300  0.074900  1.0  -0.2815
  N  N220  1  0.637600  0.500100  0.284500  1.0  -0.3172
  N  N221  1  0.017500  0.993900  0.745900  1.0  -0.1284
  N  N222  1  0.215900  0.187000  0.589100  1.0  -0.3051
  N  N223  1  0.232800  0.852700  0.574900  1.0  -0.2844
  N  N224  1  0.362400  0.999900  0.784500  1.0  -0.318
  O  O225  1  0.638500  0.393200  0.785200  1.0  -0.6871
  O  O226  1  0.690300  0.248300  0.729500  1.0  -0.6592
  O  O227  1  0.762600  0.401100  0.692300  1.0  -0.5916
  O  O228  1  0.298600  0.113800  0.015000  1.0  -0.5759
  O  O229  1  0.295200  0.886300  0.067500  1.0  -0.5659
  O  O230  1  0.324400  0.192900  0.094000  1.0  -0.6457
  O  O231  1  0.568300  0.498500  0.557600  1.0  -0.5953
  O  O232  1  0.271400  0.947400  0.981700  1.0  -0.5288
  O  O233  1  0.789700  0.483100  0.616200  1.0  -0.5756
  O  O234  1  0.618900  0.456600  0.642800  1.0  -0.6258
  O  O235  1  0.361500  0.106800  0.285200  1.0  -0.6898
  O  O236  1  0.309700  0.251700  0.229500  1.0  -0.6577
  O  O237  1  0.237400  0.098900  0.192300  1.0  -0.5936
  O  O238  1  0.701400  0.386200  0.515000  1.0  -0.5769
  O  O239  1  0.704800  0.613700  0.567500  1.0  -0.5655
  O  O240  1  0.675600  0.307100  0.594000  1.0  -0.6442
  O  O241  1  0.431700  0.001500  0.057600  1.0  -0.595
  O  O242  1  0.728600  0.552600  0.481700  1.0  -0.5289
  O  O243  1  0.210300  0.016900  0.116200  1.0  -0.5763
  O  O244  1  0.381100  0.043400  0.142800  1.0  -0.625
  O  O245  1  0.361500  0.606800  0.214800  1.0  -0.6902
  O  O246  1  0.309700  0.751700  0.270500  1.0  -0.659
  O  O247  1  0.237400  0.598900  0.307700  1.0  -0.593
  O  O248  1  0.701400  0.886200  0.985000  1.0  -0.5762
  O  O249  1  0.704800  0.113700  0.932500  1.0  -0.5644
  O  O250  1  0.675600  0.807100  0.906000  1.0  -0.6443
  O  O251  1  0.431700  0.501500  0.442400  1.0  -0.5972
  O  O252  1  0.728600  0.052600  0.018300  1.0  -0.5289
  O  O253  1  0.210300  0.516900  0.383800  1.0  -0.5756
  O  O254  1  0.381100  0.543400  0.357200  1.0  -0.6252
  O  O255  1  0.638500  0.893200  0.714800  1.0  -0.6857
  O  O256  1  0.690300  0.748300  0.770500  1.0  -0.6597
  O  O257  1  0.762600  0.901100  0.807700  1.0  -0.5913
  O  O258  1  0.298600  0.613800  0.485000  1.0  -0.5762
  O  O259  1  0.295200  0.386300  0.432500  1.0  -0.5644
  O  O260  1  0.324400  0.692900  0.406000  1.0  -0.6451
  O  O261  1  0.568300  0.998500  0.942400  1.0  -0.5983
  O  O262  1  0.271400  0.447400  0.518300  1.0  -0.5287
  O  O263  1  0.789700  0.983100  0.883800  1.0  -0.5751
  O  O264  1  0.618900  0.956600  0.857200  1.0  -0.6262
