# generated using pymatgen
data_MnH19C27(NO2)2
_symmetry_space_group_name_H-M   'P 1'
_cell_length_a   9.98700000
_cell_length_b   11.66400000
_cell_length_c   22.77100000
_cell_angle_alpha   90.00000000
_cell_angle_beta   90.00000000
_cell_angle_gamma   100.58800000
_symmetry_Int_Tables_number   1
_chemical_formula_structural   MnH19C27(NO2)2
_chemical_formula_sum   'Mn4 H76 C108 N8 O16'
_cell_volume   2607.39381203
_cell_formula_units_Z   4
loop_
 _symmetry_equiv_pos_site_id
 _symmetry_equiv_pos_as_xyz
  1  'x, y, z'
loop_
 _atom_site_type_symbol
 _atom_site_label
 _atom_site_symmetry_multiplicity
 _atom_site_fract_x
 _atom_site_fract_y
 _atom_site_fract_z
 _atom_site_occupancy
 _atom_site_charge
  Mn  Mn1  1  0.584440  0.883560  0.949870  1.0  0.9879
  Mn  Mn2  1  0.415560  0.616440  0.449870  1.0  0.9877
  Mn  Mn3  1  0.415560  0.116440  0.050130  1.0  0.9865
  Mn  Mn4  1  0.584440  0.383560  0.550130  1.0  0.9865
  H  H5  1  0.854500  0.013900  0.004600  1.0  0.0697
  H  H6  1  0.010600  0.182000  0.006700  1.0  0.1252
  H  H7  1  0.796700  0.307300  0.881500  1.0  0.137
  H  H8  1  0.646000  0.134800  0.883800  1.0  0.0781
  H  H9  1  0.000300  0.434500  0.917200  1.0  0.1013
  H  H10  1  0.150400  0.348800  0.001300  1.0  0.0996
  H  H11  1  0.341100  0.487500  0.040500  1.0  0.1236
  H  H12  1  0.496800  0.658600  0.033200  1.0  0.0795
  H  H13  1  0.314600  0.751100  0.897300  1.0  0.0778
  H  H14  1  0.152900  0.585900  0.901400  1.0  0.1071
  H  H15  1  0.010900  0.810300  0.881100  1.0  0.1042
  H  H16  1  0.152500  0.746300  0.814300  1.0  0.0972
  H  H17  1  0.692900  0.629300  0.797600  1.0  0.1135
  H  H18  1  0.109500  0.497200  0.808500  1.0  0.1056
  H  H19  1  0.259600  0.476600  0.802100  1.0  0.1234
  H  H20  1  0.139400  0.388500  0.773900  1.0  0.1149
  H  H21  1  0.328500  0.457200  0.690700  1.0  0.1068
  H  H22  1  0.205900  0.690200  0.587900  1.0  0.0966
  H  H23  1  0.060300  0.727800  0.659400  1.0  0.0788
  H  H24  1  0.145500  0.486100  0.504600  1.0  0.0694
  H  H25  1  0.989400  0.318000  0.506700  1.0  0.1247
  H  H26  1  0.203300  0.192700  0.381500  1.0  0.1371
  H  H27  1  0.354000  0.365200  0.383800  1.0  0.078
  H  H28  1  0.999700  0.065500  0.417200  1.0  0.101
  H  H29  1  0.849600  0.151200  0.501300  1.0  0.0997
  H  H30  1  0.658900  0.012500  0.540500  1.0  0.1239
  H  H31  1  0.503200  0.841400  0.533200  1.0  0.0792
  H  H32  1  0.685400  0.748900  0.397300  1.0  0.078
  H  H33  1  0.847100  0.914100  0.401400  1.0  0.1076
  H  H34  1  0.989100  0.689700  0.381100  1.0  0.1041
  H  H35  1  0.847500  0.753700  0.314300  1.0  0.0981
  H  H36  1  0.307100  0.870700  0.297600  1.0  0.1129
  H  H37  1  0.890500  0.002800  0.308500  1.0  0.1058
  H  H38  1  0.740400  0.023400  0.302100  1.0  0.1239
  H  H39  1  0.860600  0.111500  0.273900  1.0  0.1153
  H  H40  1  0.671500  0.042800  0.190700  1.0  0.1067
  H  H41  1  0.794100  0.809800  0.087900  1.0  0.0961
  H  H42  1  0.939700  0.772200  0.159400  1.0  0.0789
  H  H43  1  0.145500  0.986100  0.995400  1.0  0.0695
  H  H44  1  0.989400  0.818000  0.993300  1.0  0.1245
  H  H45  1  0.203300  0.692700  0.118500  1.0  0.137
  H  H46  1  0.354000  0.865200  0.116200  1.0  0.0789
  H  H47  1  0.999700  0.565500  0.082800  1.0  0.1013
  H  H48  1  0.849600  0.651200  0.998700  1.0  0.0996
  H  H49  1  0.658900  0.512500  0.959500  1.0  0.1244
  H  H50  1  0.503200  0.341400  0.966800  1.0  0.079
  H  H51  1  0.685400  0.248900  0.102700  1.0  0.0783
  H  H52  1  0.847100  0.414100  0.098600  1.0  0.1077
  H  H53  1  0.989100  0.189700  0.118900  1.0  0.1043
  H  H54  1  0.847500  0.253700  0.185700  1.0  0.0982
  H  H55  1  0.307100  0.370700  0.202400  1.0  0.1126
  H  H56  1  0.890500  0.502800  0.191500  1.0  0.1061
  H  H57  1  0.740400  0.523400  0.197900  1.0  0.1236
  H  H58  1  0.860600  0.611500  0.226100  1.0  0.1157
  H  H59  1  0.671500  0.542800  0.309300  1.0  0.1067
  H  H60  1  0.794100  0.309800  0.412100  1.0  0.0966
  H  H61  1  0.939700  0.272200  0.340600  1.0  0.0787
  H  H62  1  0.854500  0.513900  0.495400  1.0  0.0694
  H  H63  1  0.010600  0.682000  0.493300  1.0  0.1246
  H  H64  1  0.796700  0.807300  0.618500  1.0  0.1373
  H  H65  1  0.646000  0.634800  0.616200  1.0  0.0785
  H  H66  1  0.000300  0.934500  0.582800  1.0  0.1011
  H  H67  1  0.150400  0.848800  0.498700  1.0  0.0988
  H  H68  1  0.341100  0.987500  0.459500  1.0  0.1241
  H  H69  1  0.496800  0.158600  0.466800  1.0  0.0791
  H  H70  1  0.314600  0.251100  0.602700  1.0  0.0776
  H  H71  1  0.152900  0.085900  0.598600  1.0  0.1074
  H  H72  1  0.010900  0.310300  0.618900  1.0  0.1043
  H  H73  1  0.152500  0.246300  0.685700  1.0  0.0973
  H  H74  1  0.692900  0.129300  0.702400  1.0  0.1134
  H  H75  1  0.109500  0.997200  0.691500  1.0  0.1063
  H  H76  1  0.259600  0.976600  0.697900  1.0  0.1234
  H  H77  1  0.139400  0.888500  0.726100  1.0  0.1153
  H  H78  1  0.328500  0.957200  0.809300  1.0  0.1065
  H  H79  1  0.205900  0.190200  0.912100  1.0  0.0968
  H  H80  1  0.060300  0.227800  0.840600  1.0  0.0789
  C  C81  1  0.842700  0.073900  0.979400  1.0  0.1807
  C  C82  1  0.936700  0.174900  0.981200  1.0  -0.2009
  C  C83  1  0.921000  0.266100  0.944900  1.0  0.1321
  C  C84  1  0.810400  0.248900  0.907400  1.0  -0.2276
  C  C85  1  0.720900  0.144300  0.908800  1.0  0.185
  C  C86  1  0.019300  0.377800  0.943000  1.0  -0.1113
  C  C87  1  0.131600  0.404200  0.974600  1.0  -0.0974
  C  C88  1  0.228300  0.514200  0.970600  1.0  0.1209
  C  C89  1  0.333100  0.539600  0.010400  1.0  -0.2214
  C  C90  1  0.427200  0.642900  0.005600  1.0  0.1811
  C  C91  1  0.320500  0.696700  0.926600  1.0  0.182
  C  C92  1  0.223200  0.597100  0.928700  1.0  -0.2043
  C  C93  1  0.743100  0.778700  0.885100  1.0  0.6554
  C  C94  1  0.837500  0.730600  0.844800  1.0  -0.0898
  C  C95  1  0.974100  0.762200  0.850400  1.0  -0.0741
  C  C96  1  0.058800  0.722700  0.810200  1.0  -0.1199
  C  C97  1  0.010400  0.650100  0.764500  1.0  0.0583
  C  C98  1  0.786500  0.654400  0.800700  1.0  -0.0636
  C  C99  1  0.872400  0.613900  0.760400  1.0  -0.09
  C  C100  1  0.104800  0.618000  0.719500  1.0  0.0069
  C  C101  1  0.187800  0.536500  0.729300  1.0  0.0932
  C  C102  1  0.172800  0.469000  0.783000  1.0  -0.3568
  C  C103  1  0.274500  0.513200  0.684500  1.0  -0.1179
  C  C104  1  0.282500  0.569500  0.632200  1.0  -0.1358
  C  C105  1  0.377300  0.544200  0.585000  1.0  0.6766
  C  C106  1  0.201800  0.650200  0.623400  1.0  -0.0689
  C  C107  1  0.114800  0.672700  0.666667  1.0  -0.1267
  C  C108  1  0.157300  0.426100  0.479400  1.0  0.1803
  C  C109  1  0.063300  0.325100  0.481200  1.0  -0.2008
  C  C110  1  0.079000  0.233900  0.444900  1.0  0.1323
  C  C111  1  0.189600  0.251100  0.407400  1.0  -0.2277
  C  C112  1  0.279100  0.355700  0.408800  1.0  0.1845
  C  C113  1  0.980700  0.122200  0.443000  1.0  -0.1106
  C  C114  1  0.868400  0.095800  0.474600  1.0  -0.0969
  C  C115  1  0.771700  0.985800  0.470600  1.0  0.1189
  C  C116  1  0.666900  0.960400  0.510400  1.0  -0.2215
  C  C117  1  0.572800  0.857100  0.505600  1.0  0.1816
  C  C118  1  0.679500  0.803300  0.426600  1.0  0.1818
  C  C119  1  0.776800  0.902900  0.428700  1.0  -0.2047
  C  C120  1  0.256900  0.721300  0.385100  1.0  0.6546
  C  C121  1  0.162500  0.769400  0.344800  1.0  -0.0901
  C  C122  1  0.025900  0.737800  0.350400  1.0  -0.0732
  C  C123  1  0.941200  0.777300  0.310200  1.0  -0.1189
  C  C124  1  0.989600  0.849900  0.264500  1.0  0.0602
  C  C125  1  0.213500  0.845600  0.300700  1.0  -0.0644
  C  C126  1  0.127600  0.886100  0.260400  1.0  -0.0905
  C  C127  1  0.895200  0.882000  0.219500  1.0  0.0047
  C  C128  1  0.812200  0.963500  0.229300  1.0  0.0924
  C  C129  1  0.827200  0.031000  0.283000  1.0  -0.3572
  C  C130  1  0.725500  0.986800  0.184500  1.0  -0.1169
  C  C131  1  0.717500  0.930500  0.132200  1.0  -0.1358
  C  C132  1  0.622700  0.955800  0.085000  1.0  0.6764
  C  C133  1  0.798200  0.849800  0.123400  1.0  -0.0692
  C  C134  1  0.885200  0.827300  0.166600  1.0  -0.1235
  C  C135  1  0.157300  0.926100  0.020600  1.0  0.1804
  C  C136  1  0.063300  0.825100  0.018800  1.0  -0.2008
  C  C137  1  0.079000  0.733900  0.055100  1.0  0.1331
  C  C138  1  0.189600  0.751100  0.092600  1.0  -0.227
  C  C139  1  0.279100  0.855700  0.091200  1.0  0.1862
  C  C140  1  0.980700  0.622200  0.057000  1.0  -0.1106
  C  C141  1  0.868400  0.595800  0.025400  1.0  -0.0967
  C  C142  1  0.771700  0.485800  0.029400  1.0  0.1189
  C  C143  1  0.666900  0.460400  0.989600  1.0  -0.2222
  C  C144  1  0.572800  0.357100  0.994400  1.0  0.1813
  C  C145  1  0.679500  0.303300  0.073400  1.0  0.1822
  C  C146  1  0.776800  0.402900  0.071300  1.0  -0.205
  C  C147  1  0.256900  0.221300  0.114900  1.0  0.6548
  C  C148  1  0.162500  0.269400  0.155200  1.0  -0.0899
  C  C149  1  0.025900  0.237800  0.149600  1.0  -0.0743
  C  C150  1  0.941200  0.277300  0.189800  1.0  -0.1186
  C  C151  1  0.989600  0.349900  0.235500  1.0  0.0589
  C  C152  1  0.213500  0.345600  0.199300  1.0  -0.0642
  C  C153  1  0.127600  0.386100  0.239600  1.0  -0.0857
  C  C154  1  0.895200  0.382000  0.280500  1.0  0.0045
  C  C155  1  0.812200  0.463500  0.270700  1.0  0.0925
  C  C156  1  0.827200  0.531000  0.217000  1.0  -0.3561
  C  C157  1  0.725500  0.486800  0.315500  1.0  -0.117
  C  C158  1  0.717500  0.430500  0.367800  1.0  -0.1356
  C  C159  1  0.622700  0.455800  0.415000  1.0  0.6762
  C  C160  1  0.798200  0.349800  0.376600  1.0  -0.0682
  C  C161  1  0.885200  0.327300  0.333400  1.0  -0.1234
  C  C162  1  0.842700  0.573900  0.520600  1.0  0.1808
  C  C163  1  0.936700  0.674900  0.518800  1.0  -0.2006
  C  C164  1  0.921000  0.766100  0.555100  1.0  0.1331
  C  C165  1  0.810400  0.748900  0.592600  1.0  -0.2271
  C  C166  1  0.720900  0.644300  0.591200  1.0  0.186
  C  C167  1  0.019300  0.877800  0.557000  1.0  -0.1114
  C  C168  1  0.131600  0.904200  0.525400  1.0  -0.0973
  C  C169  1  0.228300  0.014200  0.529400  1.0  0.121
  C  C170  1  0.333100  0.039600  0.489600  1.0  -0.2227
  C  C171  1  0.427200  0.142900  0.494400  1.0  0.1812
  C  C172  1  0.320500  0.196700  0.573400  1.0  0.1819
  C  C173  1  0.223200  0.097100  0.571300  1.0  -0.2044
  C  C174  1  0.743100  0.278700  0.614900  1.0  0.6558
  C  C175  1  0.837500  0.230600  0.655200  1.0  -0.0898
  C  C176  1  0.974100  0.262200  0.649600  1.0  -0.0752
  C  C177  1  0.058800  0.222700  0.689800  1.0  -0.1194
  C  C178  1  0.010400  0.150100  0.735500  1.0  0.0594
  C  C179  1  0.786500  0.154400  0.699300  1.0  -0.0624
  C  C180  1  0.872400  0.113900  0.739600  1.0  -0.0845
  C  C181  1  0.104800  0.118000  0.780500  1.0  0.004
  C  C182  1  0.187800  0.036500  0.770700  1.0  0.0923
  C  C183  1  0.172800  0.969000  0.717000  1.0  -0.3565
  C  C184  1  0.274500  0.013200  0.815500  1.0  -0.1174
  C  C185  1  0.282500  0.069500  0.867800  1.0  -0.1357
  C  C186  1  0.377300  0.044200  0.915000  1.0  0.6764
  C  C187  1  0.201800  0.150200  0.876600  1.0  -0.0684
  C  C188  1  0.114800  0.172700  0.833400  1.0  -0.123
  N  N189  1  0.421700  0.718300  0.964250  1.0  -0.3377
  N  N190  1  0.734900  0.055800  0.943710  1.0  -0.3561
  N  N191  1  0.578300  0.781700  0.464250  1.0  -0.339
  N  N192  1  0.265100  0.444200  0.443710  1.0  -0.3539
  N  N193  1  0.578300  0.281700  0.035750  1.0  -0.3389
  N  N194  1  0.265100  0.944200  0.056290  1.0  -0.3524
  N  N195  1  0.421700  0.218300  0.535750  1.0  -0.3378
  N  N196  1  0.734900  0.555800  0.556290  1.0  -0.3542
  O  O197  1  0.633100  0.801100  0.864570  1.0  -0.6072
  O  O198  1  0.773800  0.799100  0.936830  1.0  -0.5835
  O  O199  1  0.434900  0.458300  0.592370  1.0  -0.593
  O  O200  1  0.392700  0.610000  0.540800  1.0  -0.6194
  O  O201  1  0.366900  0.698900  0.364570  1.0  -0.6074
  O  O202  1  0.226200  0.700900  0.436830  1.0  -0.5836
  O  O203  1  0.565100  0.041700  0.092370  1.0  -0.5945
  O  O204  1  0.607300  0.890000  0.040800  1.0  -0.62
  O  O205  1  0.366900  0.198900  0.135430  1.0  -0.608
  O  O206  1  0.226200  0.200900  0.063170  1.0  -0.5842
  O  O207  1  0.565100  0.541700  0.407630  1.0  -0.5952
  O  O208  1  0.607300  0.390000  0.459200  1.0  -0.6203
  O  O209  1  0.633100  0.301100  0.635430  1.0  -0.6089
  O  O210  1  0.773800  0.299100  0.563170  1.0  -0.584
  O  O211  1  0.434900  0.958300  0.907630  1.0  -0.5936
  O  O212  1  0.392700  0.110000  0.959200  1.0  -0.6198
