# generated using pymatgen
data_Sr5H14C36O25
_symmetry_space_group_name_H-M   'P 1'
_cell_length_a   17.25470000
_cell_length_b   10.50450000
_cell_length_c   26.60900000
_cell_angle_alpha   90.00000000
_cell_angle_beta   90.00000000
_cell_angle_gamma   90.00000000
_symmetry_Int_Tables_number   1
_chemical_formula_structural   Sr5H14C36O25
_chemical_formula_sum   'Sr20 H56 C144 O100'
_cell_volume   4822.93436556
_cell_formula_units_Z   4
loop_
 _symmetry_equiv_pos_site_id
 _symmetry_equiv_pos_as_xyz
  1  'x, y, z'
loop_
 _atom_site_type_symbol
 _atom_site_label
 _atom_site_symmetry_multiplicity
 _atom_site_fract_x
 _atom_site_fract_y
 _atom_site_fract_z
 _atom_site_occupancy
 _atom_site_charge
  Sr  Sr1  1  0.015880  0.499980  0.904070  1.0  1.5686
  Sr  Sr2  1  0.912610  0.208120  0.008180  1.0  1.6073
  Sr  Sr3  1  0.515880  0.999980  0.904070  1.0  1.5684
  Sr  Sr4  1  0.412610  0.708120  0.008180  1.0  1.6073
  Sr  Sr5  1  0.984120  0.500020  0.404070  1.0  1.5686
  Sr  Sr6  1  0.087390  0.791880  0.508180  1.0  1.6071
  Sr  Sr7  1  0.484120  0.000020  0.404070  1.0  1.5685
  Sr  Sr8  1  0.587390  0.291880  0.508180  1.0  1.6071
  Sr  Sr9  1  0.984120  0.499980  0.595930  1.0  1.5694
  Sr  Sr10  1  0.087390  0.208120  0.491820  1.0  1.6069
  Sr  Sr11  1  0.484120  0.999980  0.595930  1.0  1.5692
  Sr  Sr12  1  0.587390  0.708120  0.491820  1.0  1.6069
  Sr  Sr13  1  0.015880  0.500020  0.095930  1.0  1.569
  Sr  Sr14  1  0.912610  0.791880  0.991820  1.0  1.6072
  Sr  Sr15  1  0.515880  0.000020  0.095930  1.0  1.5688
  Sr  Sr16  1  0.412610  0.291880  0.991820  1.0  1.6072
  Sr  Sr17  1  0.000000  0.572530  0.750000  1.0  1.6516
  Sr  Sr18  1  0.500000  0.072530  0.750000  1.0  1.6516
  Sr  Sr19  1  0.000000  0.427470  0.250000  1.0  1.6523
  Sr  Sr20  1  0.500000  0.927470  0.250000  1.0  1.6523
  H  H21  1  0.746100  0.308200  0.933700  1.0  0.1128
  H  H22  1  0.546800  0.495800  0.934600  1.0  0.1184
  H  H23  1  0.747100  0.688700  0.929600  1.0  0.1321
  H  H24  1  0.226600  0.502100  0.871400  1.0  0.1116
  H  H25  1  0.426700  0.689700  0.871800  1.0  0.1202
  H  H26  1  0.245900  0.822000  0.792000  1.0  0.1286
  H  H27  1  0.070000  0.550000  0.991000  1.0  0.4325
  H  H28  1  0.246100  0.808200  0.933700  1.0  0.1128
  H  H29  1  0.046800  0.995800  0.934600  1.0  0.1184
  H  H30  1  0.247100  0.188700  0.929600  1.0  0.132
  H  H31  1  0.726600  0.002100  0.871400  1.0  0.1115
  H  H32  1  0.926700  0.189700  0.871800  1.0  0.1202
  H  H33  1  0.745900  0.322000  0.792000  1.0  0.1286
  H  H34  1  0.570000  0.050000  0.991000  1.0  0.4325
  H  H35  1  0.253900  0.691800  0.433700  1.0  0.1127
  H  H36  1  0.453200  0.504200  0.434600  1.0  0.1172
  H  H37  1  0.252900  0.311300  0.429600  1.0  0.1312
  H  H38  1  0.773400  0.497900  0.371400  1.0  0.1114
  H  H39  1  0.573300  0.310300  0.371800  1.0  0.1194
  H  H40  1  0.754100  0.178000  0.292000  1.0  0.1284
  H  H41  1  0.930000  0.450000  0.491000  1.0  0.4326
  H  H42  1  0.753900  0.191800  0.433700  1.0  0.1127
  H  H43  1  0.953200  0.004200  0.434600  1.0  0.1172
  H  H44  1  0.752900  0.811300  0.429600  1.0  0.1311
  H  H45  1  0.273400  0.997900  0.371400  1.0  0.1114
  H  H46  1  0.073300  0.810300  0.371800  1.0  0.1194
  H  H47  1  0.254100  0.678000  0.292000  1.0  0.1284
  H  H48  1  0.430000  0.950000  0.491000  1.0  0.4326
  H  H49  1  0.253900  0.308200  0.566300  1.0  0.1128
  H  H50  1  0.453200  0.495800  0.565400  1.0  0.1177
  H  H51  1  0.252900  0.688700  0.570400  1.0  0.1321
  H  H52  1  0.773400  0.502100  0.628600  1.0  0.1121
  H  H53  1  0.573300  0.689700  0.628200  1.0  0.12
  H  H54  1  0.754100  0.822000  0.708000  1.0  0.1279
  H  H55  1  0.930000  0.550000  0.509000  1.0  0.4318
  H  H56  1  0.753900  0.808200  0.566300  1.0  0.1128
  H  H57  1  0.953200  0.995800  0.565400  1.0  0.1177
  H  H58  1  0.752900  0.188700  0.570400  1.0  0.132
  H  H59  1  0.273400  0.002100  0.628600  1.0  0.112
  H  H60  1  0.073300  0.189700  0.628200  1.0  0.12
  H  H61  1  0.254100  0.322000  0.708000  1.0  0.1279
  H  H62  1  0.430000  0.050000  0.509000  1.0  0.4318
  H  H63  1  0.746100  0.691800  0.066300  1.0  0.1127
  H  H64  1  0.546800  0.504200  0.065400  1.0  0.1185
  H  H65  1  0.747100  0.311300  0.070400  1.0  0.1322
  H  H66  1  0.226600  0.497900  0.128600  1.0  0.112
  H  H67  1  0.426700  0.310300  0.128200  1.0  0.1203
  H  H68  1  0.245900  0.178000  0.208000  1.0  0.1281
  H  H69  1  0.070000  0.450000  0.009000  1.0  0.4319
  H  H70  1  0.246100  0.191800  0.066300  1.0  0.1127
  H  H71  1  0.046800  0.004200  0.065400  1.0  0.1185
  H  H72  1  0.247100  0.811300  0.070400  1.0  0.1321
  H  H73  1  0.726600  0.997900  0.128600  1.0  0.112
  H  H74  1  0.926700  0.810300  0.128200  1.0  0.1203
  H  H75  1  0.745900  0.678000  0.208000  1.0  0.1281
  H  H76  1  0.570000  0.950000  0.009000  1.0  0.4319
  C  C77  1  0.760600  0.498300  0.934300  1.0  -0.1593
  C  C78  1  0.719300  0.385000  0.933900  1.0  -0.0113
  C  C79  1  0.639900  0.383900  0.933800  1.0  -0.1618
  C  C80  1  0.600700  0.495900  0.933600  1.0  -0.033
  C  C81  1  0.640400  0.610000  0.931900  1.0  -0.1107
  C  C82  1  0.720500  0.611900  0.931600  1.0  0.0031
  C  C83  1  0.847800  0.495800  0.939100  1.0  0.6982
  C  C84  1  0.597900  0.256200  0.936100  1.0  0.662
  C  C85  1  0.595900  0.735100  0.931700  1.0  0.7218
  C  C86  1  0.223500  0.659400  0.830100  1.0  -0.1459
  C  C87  1  0.256300  0.571000  0.860800  1.0  -0.0284
  C  C88  1  0.332200  0.580300  0.876700  1.0  -0.076
  C  C89  1  0.376000  0.681700  0.860400  1.0  -0.0081
  C  C90  1  0.346600  0.774400  0.826800  1.0  -0.0955
  C  C91  1  0.268300  0.761500  0.813000  1.0  -0.0108
  C  C92  1  0.139600  0.649400  0.812400  1.0  0.7091
  C  C93  1  0.367000  0.482900  0.910700  1.0  0.7338
  C  C94  1  0.396300  0.877500  0.805600  1.0  0.7243
  C  C95  1  0.260600  0.998300  0.934300  1.0  -0.1593
  C  C96  1  0.219300  0.885000  0.933900  1.0  -0.0113
  C  C97  1  0.139900  0.883900  0.933800  1.0  -0.1618
  C  C98  1  0.100700  0.995900  0.933600  1.0  -0.033
  C  C99  1  0.140400  0.110000  0.931900  1.0  -0.1107
  C  C100  1  0.220500  0.111900  0.931600  1.0  0.0031
  C  C101  1  0.347800  0.995800  0.939100  1.0  0.6982
  C  C102  1  0.097900  0.756200  0.936100  1.0  0.662
  C  C103  1  0.095900  0.235100  0.931700  1.0  0.7218
  C  C104  1  0.723500  0.159400  0.830100  1.0  -0.1459
  C  C105  1  0.756300  0.071000  0.860800  1.0  -0.0284
  C  C106  1  0.832200  0.080300  0.876700  1.0  -0.076
  C  C107  1  0.876000  0.181700  0.860400  1.0  -0.0081
  C  C108  1  0.846600  0.274400  0.826800  1.0  -0.0955
  C  C109  1  0.768300  0.261500  0.813000  1.0  -0.0108
  C  C110  1  0.639600  0.149400  0.812400  1.0  0.7091
  C  C111  1  0.867000  0.982900  0.910700  1.0  0.7338
  C  C112  1  0.896300  0.377500  0.805600  1.0  0.7243
  C  C113  1  0.239400  0.501700  0.434300  1.0  -0.1608
  C  C114  1  0.280700  0.615000  0.433900  1.0  -0.012
  C  C115  1  0.360100  0.616100  0.433800  1.0  -0.1607
  C  C116  1  0.399300  0.504100  0.433600  1.0  -0.0342
  C  C117  1  0.359600  0.390000  0.431900  1.0  -0.1114
  C  C118  1  0.279500  0.388100  0.431600  1.0  0.0046
  C  C119  1  0.152200  0.504200  0.439100  1.0  0.6982
  C  C120  1  0.402100  0.743800  0.436100  1.0  0.6628
  C  C121  1  0.404100  0.264900  0.431700  1.0  0.7223
  C  C122  1  0.776500  0.340600  0.330100  1.0  -0.1457
  C  C123  1  0.743700  0.429000  0.360800  1.0  -0.0276
  C  C124  1  0.667800  0.419700  0.376700  1.0  -0.0745
  C  C125  1  0.624000  0.318300  0.360400  1.0  -0.01
  C  C126  1  0.653400  0.225600  0.326800  1.0  -0.0964
  C  C127  1  0.731700  0.238500  0.313000  1.0  -0.0113
  C  C128  1  0.860400  0.350600  0.312400  1.0  0.7071
  C  C129  1  0.633000  0.517100  0.410700  1.0  0.7335
  C  C130  1  0.603700  0.122500  0.305600  1.0  0.7242
  C  C131  1  0.739400  0.001700  0.434300  1.0  -0.1608
  C  C132  1  0.780700  0.115000  0.433900  1.0  -0.012
  C  C133  1  0.860100  0.116100  0.433800  1.0  -0.1607
  C  C134  1  0.899300  0.004100  0.433600  1.0  -0.0342
  C  C135  1  0.859600  0.890000  0.431900  1.0  -0.1114
  C  C136  1  0.779500  0.888100  0.431600  1.0  0.0046
  C  C137  1  0.652200  0.004200  0.439100  1.0  0.6982
  C  C138  1  0.902100  0.243800  0.436100  1.0  0.6628
  C  C139  1  0.904100  0.764900  0.431700  1.0  0.7223
  C  C140  1  0.276500  0.840600  0.330100  1.0  -0.1457
  C  C141  1  0.243700  0.929000  0.360800  1.0  -0.0276
  C  C142  1  0.167800  0.919700  0.376700  1.0  -0.0745
  C  C143  1  0.124000  0.818300  0.360400  1.0  -0.01
  C  C144  1  0.153400  0.725600  0.326800  1.0  -0.0964
  C  C145  1  0.231700  0.738500  0.313000  1.0  -0.0113
  C  C146  1  0.360400  0.850600  0.312400  1.0  0.7071
  C  C147  1  0.133000  0.017100  0.410700  1.0  0.7335
  C  C148  1  0.103700  0.622500  0.305600  1.0  0.7242
  C  C149  1  0.239400  0.498300  0.565700  1.0  -0.1591
  C  C150  1  0.280700  0.385000  0.566100  1.0  -0.013
  C  C151  1  0.360100  0.383900  0.566200  1.0  -0.1602
  C  C152  1  0.399300  0.495900  0.566400  1.0  -0.0342
  C  C153  1  0.359600  0.610000  0.568100  1.0  -0.1123
  C  C154  1  0.279500  0.611900  0.568400  1.0  0.0017
  C  C155  1  0.152200  0.495800  0.560900  1.0  0.6974
  C  C156  1  0.402100  0.256200  0.563900  1.0  0.6628
  C  C157  1  0.404100  0.735100  0.568300  1.0  0.7216
  C  C158  1  0.776500  0.659400  0.669900  1.0  -0.1432
  C  C159  1  0.743700  0.571000  0.639200  1.0  -0.0284
  C  C160  1  0.667800  0.580300  0.623300  1.0  -0.0756
  C  C161  1  0.624000  0.681700  0.639600  1.0  -0.0103
  C  C162  1  0.653400  0.774400  0.673200  1.0  -0.096
  C  C163  1  0.731700  0.761500  0.687000  1.0  -0.0104
  C  C164  1  0.860400  0.649400  0.687600  1.0  0.7071
  C  C165  1  0.633000  0.482900  0.589300  1.0  0.7331
  C  C166  1  0.603700  0.877500  0.694400  1.0  0.7232
  C  C167  1  0.739400  0.998300  0.565700  1.0  -0.1591
  C  C168  1  0.780700  0.885000  0.566100  1.0  -0.013
  C  C169  1  0.860100  0.883900  0.566200  1.0  -0.1602
  C  C170  1  0.899300  0.995900  0.566400  1.0  -0.0342
  C  C171  1  0.859600  0.110000  0.568100  1.0  -0.1123
  C  C172  1  0.779500  0.111900  0.568400  1.0  0.0017
  C  C173  1  0.652200  0.995800  0.560900  1.0  0.6974
  C  C174  1  0.902100  0.756200  0.563900  1.0  0.6629
  C  C175  1  0.904100  0.235100  0.568300  1.0  0.7216
  C  C176  1  0.276500  0.159400  0.669900  1.0  -0.1432
  C  C177  1  0.243700  0.071000  0.639200  1.0  -0.0284
  C  C178  1  0.167800  0.080300  0.623300  1.0  -0.0756
  C  C179  1  0.124000  0.181700  0.639600  1.0  -0.0103
  C  C180  1  0.153400  0.274400  0.673200  1.0  -0.096
  C  C181  1  0.231700  0.261500  0.687000  1.0  -0.0104
  C  C182  1  0.360400  0.149400  0.687600  1.0  0.7071
  C  C183  1  0.133000  0.982900  0.589300  1.0  0.7331
  C  C184  1  0.103700  0.377500  0.694400  1.0  0.7232
  C  C185  1  0.760600  0.501700  0.065700  1.0  -0.1588
  C  C186  1  0.719300  0.615000  0.066100  1.0  -0.0115
  C  C187  1  0.639900  0.616100  0.066200  1.0  -0.1602
  C  C188  1  0.600700  0.504100  0.066400  1.0  -0.033
  C  C189  1  0.640400  0.390000  0.068100  1.0  -0.1108
  C  C190  1  0.720500  0.388100  0.068400  1.0  0.0045
  C  C191  1  0.847800  0.504200  0.060900  1.0  0.6977
  C  C192  1  0.597900  0.743800  0.063900  1.0  0.6615
  C  C193  1  0.595900  0.264900  0.068300  1.0  0.7235
  C  C194  1  0.223500  0.340600  0.169900  1.0  -0.1429
  C  C195  1  0.256300  0.429000  0.139200  1.0  -0.0284
  C  C196  1  0.332200  0.419700  0.123300  1.0  -0.0742
  C  C197  1  0.376000  0.318300  0.139600  1.0  -0.0101
  C  C198  1  0.346600  0.225600  0.173200  1.0  -0.0952
  C  C199  1  0.268300  0.238500  0.187000  1.0  -0.0128
  C  C200  1  0.139600  0.350600  0.187600  1.0  0.7077
  C  C201  1  0.367000  0.517100  0.089300  1.0  0.7333
  C  C202  1  0.396300  0.122500  0.194400  1.0  0.7239
  C  C203  1  0.260600  0.001700  0.065700  1.0  -0.1588
  C  C204  1  0.219300  0.115000  0.066100  1.0  -0.0115
  C  C205  1  0.139900  0.116100  0.066200  1.0  -0.1602
  C  C206  1  0.100700  0.004100  0.066400  1.0  -0.033
  C  C207  1  0.140400  0.890000  0.068100  1.0  -0.1108
  C  C208  1  0.220500  0.888100  0.068400  1.0  0.0045
  C  C209  1  0.347800  0.004200  0.060900  1.0  0.6977
  C  C210  1  0.097900  0.243800  0.063900  1.0  0.6615
  C  C211  1  0.095900  0.764900  0.068300  1.0  0.7235
  C  C212  1  0.723500  0.840600  0.169900  1.0  -0.1429
  C  C213  1  0.756300  0.929000  0.139200  1.0  -0.0284
  C  C214  1  0.832200  0.919700  0.123300  1.0  -0.0742
  C  C215  1  0.876000  0.818300  0.139600  1.0  -0.0101
  C  C216  1  0.846600  0.725600  0.173200  1.0  -0.0952
  C  C217  1  0.768300  0.738500  0.187000  1.0  -0.0128
  C  C218  1  0.639600  0.850600  0.187600  1.0  0.7077
  C  C219  1  0.867000  0.017100  0.089300  1.0  0.7333
  C  C220  1  0.896300  0.622500  0.194400  1.0  0.7239
  O  O221  1  0.881500  0.390500  0.945200  1.0  -0.7084
  O  O222  1  0.884000  0.597800  0.935300  1.0  -0.7025
  O  O223  1  0.625600  0.827900  0.909500  1.0  -0.6696
  O  O224  1  0.531800  0.740900  0.951900  1.0  -0.6791
  O  O225  1  0.525300  0.255800  0.929500  1.0  -0.7071
  O  O226  1  0.636500  0.157900  0.945000  1.0  -0.5828
  O  O227  1  0.114100  0.722600  0.780200  1.0  -0.6054
  O  O228  1  0.100500  0.559600  0.831500  1.0  -0.7368
  O  O229  1  0.351800  0.370400  0.903500  1.0  -0.6289
  O  O230  1  0.410200  0.520800  0.946300  1.0  -0.7278
  O  O231  1  0.375600  0.931100  0.765700  1.0  -0.6774
  O  O232  1  0.461000  0.903100  0.825800  1.0  -0.7738
  O  O233  1  0.381500  0.890500  0.945200  1.0  -0.7084
  O  O234  1  0.384000  0.097800  0.935300  1.0  -0.7025
  O  O235  1  0.125600  0.327900  0.909500  1.0  -0.6697
  O  O236  1  0.031800  0.240900  0.951900  1.0  -0.6791
  O  O237  1  0.025300  0.755800  0.929500  1.0  -0.7076
  O  O238  1  0.136500  0.657900  0.945000  1.0  -0.5828
  O  O239  1  0.614100  0.222600  0.780200  1.0  -0.6054
  O  O240  1  0.600500  0.059600  0.831500  1.0  -0.7368
  O  O241  1  0.851800  0.870400  0.903500  1.0  -0.6286
  O  O242  1  0.910200  0.020800  0.946300  1.0  -0.7278
  O  O243  1  0.875600  0.431100  0.765700  1.0  -0.6774
  O  O244  1  0.961000  0.403100  0.825800  1.0  -0.774
  O  O245  1  0.118500  0.609500  0.445200  1.0  -0.7084
  O  O246  1  0.116000  0.402200  0.435300  1.0  -0.7038
  O  O247  1  0.374400  0.172100  0.409500  1.0  -0.6697
  O  O248  1  0.468200  0.259100  0.451900  1.0  -0.6791
  O  O249  1  0.474700  0.744200  0.429500  1.0  -0.7066
  O  O250  1  0.363500  0.842100  0.445000  1.0  -0.5823
  O  O251  1  0.885900  0.277400  0.280200  1.0  -0.6045
  O  O252  1  0.899500  0.440400  0.331500  1.0  -0.7375
  O  O253  1  0.648200  0.629600  0.403500  1.0  -0.6287
  O  O254  1  0.589800  0.479200  0.446300  1.0  -0.7289
  O  O255  1  0.624400  0.068900  0.265700  1.0  -0.678
  O  O256  1  0.539000  0.096900  0.325800  1.0  -0.7741
  O  O257  1  0.618500  0.109500  0.445200  1.0  -0.7084
  O  O258  1  0.616000  0.902200  0.435300  1.0  -0.7038
  O  O259  1  0.874400  0.672100  0.409500  1.0  -0.6699
  O  O260  1  0.968200  0.759100  0.451900  1.0  -0.6791
  O  O261  1  0.974700  0.244200  0.429500  1.0  -0.7069
  O  O262  1  0.863500  0.342100  0.445000  1.0  -0.5823
  O  O263  1  0.385900  0.777400  0.280200  1.0  -0.6045
  O  O264  1  0.399500  0.940400  0.331500  1.0  -0.7375
  O  O265  1  0.148200  0.129600  0.403500  1.0  -0.6283
  O  O266  1  0.089800  0.979200  0.446300  1.0  -0.7289
  O  O267  1  0.124400  0.568900  0.265700  1.0  -0.678
  O  O268  1  0.039000  0.596900  0.325800  1.0  -0.7742
  O  O269  1  0.118500  0.390500  0.554800  1.0  -0.7088
  O  O270  1  0.116000  0.597800  0.564700  1.0  -0.7033
  O  O271  1  0.374400  0.827900  0.590500  1.0  -0.667
  O  O272  1  0.468200  0.740900  0.548100  1.0  -0.6793
  O  O273  1  0.474700  0.255800  0.570500  1.0  -0.7058
  O  O274  1  0.363500  0.157900  0.555000  1.0  -0.5825
  O  O275  1  0.885900  0.722600  0.719800  1.0  -0.6054
  O  O276  1  0.899500  0.559600  0.668500  1.0  -0.7358
  O  O277  1  0.648200  0.370400  0.596500  1.0  -0.6288
  O  O278  1  0.589800  0.520800  0.553700  1.0  -0.7298
  O  O279  1  0.624400  0.931100  0.734300  1.0  -0.68
  O  O280  1  0.539000  0.903100  0.674200  1.0  -0.7721
  O  O281  1  0.618500  0.890500  0.554800  1.0  -0.7088
  O  O282  1  0.616000  0.097800  0.564700  1.0  -0.7033
  O  O283  1  0.874400  0.327900  0.590500  1.0  -0.6671
  O  O284  1  0.968200  0.240900  0.548100  1.0  -0.6793
  O  O285  1  0.974700  0.755800  0.570500  1.0  -0.7066
  O  O286  1  0.863500  0.657900  0.555000  1.0  -0.5825
  O  O287  1  0.385900  0.222600  0.719800  1.0  -0.6054
  O  O288  1  0.399500  0.059600  0.668500  1.0  -0.7358
  O  O289  1  0.148200  0.870400  0.596500  1.0  -0.6284
  O  O290  1  0.089800  0.020800  0.553700  1.0  -0.7298
  O  O291  1  0.124400  0.431100  0.734300  1.0  -0.68
  O  O292  1  0.039000  0.403100  0.674200  1.0  -0.7722
  O  O293  1  0.881500  0.609500  0.054800  1.0  -0.708
  O  O294  1  0.884000  0.402200  0.064700  1.0  -0.7027
  O  O295  1  0.625600  0.172100  0.090500  1.0  -0.6666
  O  O296  1  0.531800  0.259100  0.048100  1.0  -0.6796
  O  O297  1  0.525300  0.744200  0.070500  1.0  -0.7065
  O  O298  1  0.636500  0.842100  0.055000  1.0  -0.5823
  O  O299  1  0.114100  0.277400  0.219800  1.0  -0.6054
  O  O300  1  0.100500  0.440400  0.168500  1.0  -0.7377
  O  O301  1  0.351800  0.629600  0.096500  1.0  -0.628
  O  O302  1  0.410200  0.479200  0.053700  1.0  -0.7294
  O  O303  1  0.375600  0.068900  0.234300  1.0  -0.6815
  O  O304  1  0.461000  0.096900  0.174200  1.0  -0.7733
  O  O305  1  0.381500  0.109500  0.054800  1.0  -0.708
  O  O306  1  0.384000  0.902200  0.064700  1.0  -0.7027
  O  O307  1  0.125600  0.672100  0.090500  1.0  -0.6667
  O  O308  1  0.031800  0.759100  0.048100  1.0  -0.6796
  O  O309  1  0.025300  0.244200  0.070500  1.0  -0.7074
  O  O310  1  0.136500  0.342100  0.055000  1.0  -0.5823
  O  O311  1  0.614100  0.777400  0.219800  1.0  -0.6054
  O  O312  1  0.600500  0.940400  0.168500  1.0  -0.7377
  O  O313  1  0.851800  0.129600  0.096500  1.0  -0.6276
  O  O314  1  0.910200  0.979200  0.053700  1.0  -0.7294
  O  O315  1  0.875600  0.568900  0.234300  1.0  -0.6815
  O  O316  1  0.961000  0.596900  0.174200  1.0  -0.7735
  O  O317  1  0.045700  0.500000  0.000000  1.0  -0.7342
  O  O318  1  0.545700  0.000000  0.000000  1.0  -0.7342
  O  O319  1  0.954300  0.500000  0.500000  1.0  -0.7284
  O  O320  1  0.454300  0.000000  0.500000  1.0  -0.7284
