# generated using pymatgen
data_Y2H15C33(NO5)3
_symmetry_space_group_name_H-M   'P 1'
_cell_length_a   14.45900000
_cell_length_b   20.24300000
_cell_length_c   21.10900000
_cell_angle_alpha   90.00000000
_cell_angle_beta   90.00000000
_cell_angle_gamma   90.00000000
_symmetry_Int_Tables_number   1
_chemical_formula_structural   Y2H15C33(NO5)3
_chemical_formula_sum   'Y8 H60 C132 N12 O60'
_cell_volume   6178.46787253
_cell_formula_units_Z   4
loop_
 _symmetry_equiv_pos_site_id
 _symmetry_equiv_pos_as_xyz
  1  'x, y, z'
loop_
 _atom_site_type_symbol
 _atom_site_label
 _atom_site_symmetry_multiplicity
 _atom_site_fract_x
 _atom_site_fract_y
 _atom_site_fract_z
 _atom_site_occupancy
 _atom_site_charge
  Y  Y1  1  0.051310  0.181070  0.903050  1.0  2.0913
  Y  Y2  1  0.802110  0.348880  0.933860  1.0  2.1024
  Y  Y3  1  0.448690  0.818930  0.403050  1.0  2.09
  Y  Y4  1  0.697890  0.651120  0.433860  1.0  2.1029
  Y  Y5  1  0.948690  0.681070  0.596950  1.0  2.0917
  Y  Y6  1  0.197890  0.848880  0.566140  1.0  2.1025
  Y  Y7  1  0.551310  0.318930  0.096950  1.0  2.0913
  Y  Y8  1  0.302110  0.151120  0.066140  1.0  2.1027
  H  H9  1  0.694200  0.946500  0.916700  1.0  0.3058
  H  H10  1  0.556500  0.838100  0.789200  1.0  0.2924
  H  H11  1  0.649700  0.715000  0.103100  1.0  0.306
  H  H12  1  0.677900  0.210800  0.994400  1.0  0.0824
  H  H13  1  0.553000  0.034300  0.011000  1.0  0.1232
  H  H14  1  0.799000  0.048200  0.923300  1.0  0.1224
  H  H15  1  0.633800  0.805400  0.055800  1.0  0.1102
  H  H16  1  0.585400  0.677700  0.914000  1.0  0.1187
  H  H17  1  0.621400  0.870000  0.875900  1.0  0.1005
  H  H18  1  0.449800  0.830600  0.692500  1.0  0.1297
  H  H19  1  0.573400  0.760100  0.536800  1.0  0.0788
  H  H20  1  0.695700  0.743900  0.706100  1.0  0.1249
  H  H21  1  0.645500  0.684100  0.212900  1.0  0.1262
  H  H22  1  0.626900  0.492100  0.259400  1.0  0.1204
  H  H23  1  0.607900  0.547600  0.077100  1.0  0.1294
  H  H24  1  0.805800  0.053500  0.416700  1.0  0.3068
  H  H25  1  0.943500  0.161900  0.289200  1.0  0.2929
  H  H26  1  0.850300  0.285000  0.603100  1.0  0.3072
  H  H27  1  0.822100  0.789200  0.494400  1.0  0.0821
  H  H28  1  0.947000  0.965700  0.511000  1.0  0.1232
  H  H29  1  0.701000  0.951800  0.423300  1.0  0.1221
  H  H30  1  0.866200  0.194600  0.555800  1.0  0.1095
  H  H31  1  0.914600  0.322300  0.414000  1.0  0.118
  H  H32  1  0.878600  0.130000  0.375900  1.0  0.1026
  H  H33  1  0.050200  0.169400  0.192500  1.0  0.1294
  H  H34  1  0.926600  0.239900  0.036800  1.0  0.0774
  H  H35  1  0.804300  0.256100  0.206100  1.0  0.1242
  H  H36  1  0.854500  0.315900  0.712900  1.0  0.1261
  H  H37  1  0.873100  0.507900  0.759400  1.0  0.1201
  H  H38  1  0.892100  0.452400  0.577100  1.0  0.1301
  H  H39  1  0.305800  0.446500  0.583300  1.0  0.3068
  H  H40  1  0.443500  0.338100  0.710800  1.0  0.2958
  H  H41  1  0.350300  0.215000  0.396900  1.0  0.3059
  H  H42  1  0.322100  0.710800  0.505600  1.0  0.0823
  H  H43  1  0.447000  0.534300  0.489000  1.0  0.1235
  H  H44  1  0.201000  0.548200  0.576700  1.0  0.1224
  H  H45  1  0.366200  0.305400  0.444200  1.0  0.1092
  H  H46  1  0.414600  0.177700  0.586000  1.0  0.1185
  H  H47  1  0.378600  0.370000  0.624100  1.0  0.0987
  H  H48  1  0.550200  0.330600  0.807500  1.0  0.1293
  H  H49  1  0.426600  0.260100  0.963200  1.0  0.0779
  H  H50  1  0.304300  0.243900  0.793900  1.0  0.1245
  H  H51  1  0.354500  0.184100  0.287100  1.0  0.1264
  H  H52  1  0.373100  0.992100  0.240600  1.0  0.1199
  H  H53  1  0.392100  0.047600  0.422900  1.0  0.1297
  H  H54  1  0.194200  0.553500  0.083300  1.0  0.306
  H  H55  1  0.056500  0.661900  0.210800  1.0  0.2904
  H  H56  1  0.149700  0.785000  0.896900  1.0  0.3078
  H  H57  1  0.177900  0.289200  0.005600  1.0  0.0821
  H  H58  1  0.053000  0.465700  0.989000  1.0  0.1233
  H  H59  1  0.299000  0.451800  0.076700  1.0  0.1225
  H  H60  1  0.133800  0.694600  0.944200  1.0  0.1092
  H  H61  1  0.085400  0.822300  0.086000  1.0  0.1181
  H  H62  1  0.121400  0.630000  0.124100  1.0  0.1013
  H  H63  1  0.949800  0.669400  0.307500  1.0  0.1298
  H  H64  1  0.073400  0.739900  0.463200  1.0  0.0766
  H  H65  1  0.195700  0.756100  0.293900  1.0  0.125
  H  H66  1  0.145500  0.815900  0.787100  1.0  0.1261
  H  H67  1  0.126900  0.007900  0.740600  1.0  0.1196
  H  H68  1  0.107900  0.952400  0.922900  1.0  0.1297
  C  C69  1  0.830800  0.176700  0.932600  1.0  0.7706
  C  C70  1  0.750700  0.135800  0.955400  1.0  -0.1475
  C  C71  1  0.677400  0.165520  0.987100  1.0  0.0103
  C  C72  1  0.603300  0.127500  0.007900  1.0  -0.1651
  C  C73  1  0.602600  0.059800  0.997000  1.0  -0.0909
  C  C74  1  0.675900  0.030080  0.965300  1.0  0.1975
  C  C75  1  0.749900  0.068100  0.944500  1.0  -0.1008
  C  C76  1  0.524500  0.157300  0.040700  1.0  0.8062
  C  C77  1  0.640900  0.916000  0.993900  1.0  0.5569
  C  C78  1  0.629100  0.848200  0.968400  1.0  -0.1186
  C  C79  1  0.622400  0.796700  0.013200  1.0  -0.0339
  C  C80  1  0.599800  0.735100  0.994900  1.0  -0.0975
  C  C81  1  0.595200  0.720800  0.927700  1.0  -0.0103
  C  C82  1  0.605300  0.770300  0.884400  1.0  -0.1085
  C  C83  1  0.619100  0.835600  0.905100  1.0  -0.1069
  C  C84  1  0.598000  0.753500  0.816500  1.0  0.5264
  C  C85  1  0.574100  0.788500  0.708200  1.0  0.1988
  C  C86  1  0.499500  0.809500  0.673100  1.0  -0.1145
  C  C87  1  0.500000  0.798100  0.606500  1.0  -0.1418
  C  C88  1  0.418100  0.822600  0.568900  1.0  0.7668
  C  C89  1  0.573300  0.767500  0.580300  1.0  0.0151
  C  C90  1  0.646900  0.747100  0.615000  1.0  -0.1487
  C  C91  1  0.727700  0.708500  0.587600  1.0  0.7867
  C  C92  1  0.646200  0.757900  0.681300  1.0  -0.1028
  C  C93  1  0.591800  0.676100  0.034500  1.0  0.5069
  C  C94  1  0.626700  0.624000  0.137400  1.0  0.1769
  C  C95  1  0.638000  0.640220  0.200900  1.0  -0.1134
  C  C96  1  0.638100  0.590800  0.246640  1.0  -0.1401
  C  C97  1  0.626900  0.525200  0.228800  1.0  0.0029
  C  C98  1  0.615500  0.509000  0.165300  1.0  -0.1242
  C  C99  1  0.615500  0.558400  0.119590  1.0  -0.0914
  C  C100  1  0.657600  0.609700  0.312800  1.0  0.6686
  C  C101  1  0.596600  0.441200  0.142200  1.0  0.6726
  C  C102  1  0.669200  0.823300  0.432600  1.0  0.7728
  C  C103  1  0.749300  0.864200  0.455400  1.0  -0.1464
  C  C104  1  0.822600  0.834480  0.487100  1.0  0.0104
  C  C105  1  0.896700  0.872500  0.507900  1.0  -0.1649
  C  C106  1  0.897400  0.940200  0.497000  1.0  -0.09
  C  C107  1  0.824100  0.969920  0.465300  1.0  0.1976
  C  C108  1  0.750100  0.931900  0.444500  1.0  -0.1011
  C  C109  1  0.975500  0.842700  0.540700  1.0  0.8062
  C  C110  1  0.859100  0.084000  0.493900  1.0  0.5573
  C  C111  1  0.870900  0.151800  0.468400  1.0  -0.1185
  C  C112  1  0.877600  0.203300  0.513200  1.0  -0.035
  C  C113  1  0.900200  0.264900  0.494900  1.0  -0.098
  C  C114  1  0.904800  0.279200  0.427700  1.0  -0.0071
  C  C115  1  0.894700  0.229700  0.384400  1.0  -0.1087
  C  C116  1  0.880900  0.164400  0.405100  1.0  -0.1046
  C  C117  1  0.902000  0.246500  0.316500  1.0  0.5256
  C  C118  1  0.925900  0.211500  0.208200  1.0  0.1994
  C  C119  1  0.000500  0.190500  0.173100  1.0  -0.1128
  C  C120  1  0.000000  0.201900  0.106500  1.0  -0.1423
  C  C121  1  0.081900  0.177400  0.068900  1.0  0.7728
  C  C122  1  0.926700  0.232500  0.080300  1.0  0.0153
  C  C123  1  0.853100  0.252900  0.115000  1.0  -0.1483
  C  C124  1  0.772300  0.291500  0.087600  1.0  0.7904
  C  C125  1  0.853800  0.242100  0.181300  1.0  -0.1017
  C  C126  1  0.908200  0.323900  0.534500  1.0  0.5074
  C  C127  1  0.873300  0.376000  0.637400  1.0  0.176
  C  C128  1  0.862000  0.359780  0.700900  1.0  -0.1101
  C  C129  1  0.861900  0.409200  0.746640  1.0  -0.1403
  C  C130  1  0.873100  0.474800  0.728800  1.0  0.0026
  C  C131  1  0.884500  0.491000  0.665300  1.0  -0.1234
  C  C132  1  0.884500  0.441600  0.619590  1.0  -0.0923
  C  C133  1  0.842400  0.390300  0.812800  1.0  0.6675
  C  C134  1  0.903400  0.558800  0.642200  1.0  0.6741
  C  C135  1  0.169200  0.676700  0.567400  1.0  0.7701
  C  C136  1  0.249300  0.635800  0.544600  1.0  -0.1469
  C  C137  1  0.322600  0.665520  0.512900  1.0  0.0101
  C  C138  1  0.396700  0.627500  0.492100  1.0  -0.1643
  C  C139  1  0.397400  0.559800  0.503000  1.0  -0.0905
  C  C140  1  0.324100  0.530080  0.534700  1.0  0.1975
  C  C141  1  0.250100  0.568100  0.555500  1.0  -0.1013
  C  C142  1  0.475500  0.657300  0.459300  1.0  0.8071
  C  C143  1  0.359100  0.416000  0.506100  1.0  0.5577
  C  C144  1  0.370900  0.348200  0.531600  1.0  -0.1178
  C  C145  1  0.377600  0.296700  0.486800  1.0  -0.0336
  C  C146  1  0.400200  0.235100  0.505100  1.0  -0.0976
  C  C147  1  0.404800  0.220800  0.572300  1.0  -0.0106
  C  C148  1  0.394700  0.270300  0.615600  1.0  -0.1089
  C  C149  1  0.380900  0.335600  0.594900  1.0  -0.1097
  C  C150  1  0.402000  0.253500  0.683500  1.0  0.5264
  C  C151  1  0.425900  0.288500  0.791800  1.0  0.198
  C  C152  1  0.500500  0.309500  0.826900  1.0  -0.1135
  C  C153  1  0.500000  0.298100  0.893500  1.0  -0.142
  C  C154  1  0.581900  0.322600  0.931100  1.0  0.7666
  C  C155  1  0.426700  0.267500  0.919700  1.0  0.013
  C  C156  1  0.353100  0.247100  0.885000  1.0  -0.1484
  C  C157  1  0.272300  0.208500  0.912400  1.0  0.7855
  C  C158  1  0.353800  0.257900  0.818700  1.0  -0.1011
  C  C159  1  0.408200  0.176100  0.465500  1.0  0.5072
  C  C160  1  0.373300  0.124000  0.362600  1.0  0.1767
  C  C161  1  0.362000  0.140220  0.299100  1.0  -0.1133
  C  C162  1  0.361900  0.090800  0.253360  1.0  -0.136
  C  C163  1  0.373100  0.025200  0.271200  1.0  0.0028
  C  C164  1  0.384500  0.009000  0.334700  1.0  -0.1245
  C  C165  1  0.384500  0.058400  0.380410  1.0  -0.0927
  C  C166  1  0.342400  0.109700  0.187200  1.0  0.6683
  C  C167  1  0.403400  0.941200  0.357800  1.0  0.6729
  C  C168  1  0.330800  0.323300  0.067400  1.0  0.7706
  C  C169  1  0.250700  0.364200  0.044600  1.0  -0.1469
  C  C170  1  0.177400  0.334480  0.012900  1.0  0.01
  C  C171  1  0.103300  0.372500  0.992100  1.0  -0.1646
  C  C172  1  0.102600  0.440200  0.003000  1.0  -0.0918
  C  C173  1  0.175900  0.469920  0.034700  1.0  0.1974
  C  C174  1  0.249900  0.431900  0.055500  1.0  -0.1009
  C  C175  1  0.024500  0.342700  0.959300  1.0  0.8084
  C  C176  1  0.140900  0.584000  0.006100  1.0  0.5579
  C  C177  1  0.129100  0.651800  0.031600  1.0  -0.118
  C  C178  1  0.122400  0.703300  0.986800  1.0  -0.0336
  C  C179  1  0.099800  0.764900  0.005100  1.0  -0.098
  C  C180  1  0.095200  0.779200  0.072300  1.0  -0.0058
  C  C181  1  0.105300  0.729700  0.115600  1.0  -0.1089
  C  C182  1  0.119100  0.664400  0.094900  1.0  -0.1084
  C  C183  1  0.098000  0.746500  0.183500  1.0  0.525
  C  C184  1  0.074100  0.711500  0.291800  1.0  0.1982
  C  C185  1  0.999500  0.690500  0.326900  1.0  -0.1139
  C  C186  1  0.000000  0.701900  0.393500  1.0  -0.1424
  C  C187  1  0.918100  0.677400  0.431100  1.0  0.7749
  C  C188  1  0.073300  0.732500  0.419700  1.0  0.0134
  C  C189  1  0.146900  0.752900  0.385000  1.0  -0.1488
  C  C190  1  0.227700  0.791500  0.412400  1.0  0.7905
  C  C191  1  0.146200  0.742100  0.318700  1.0  -0.1029
  C  C192  1  0.091800  0.823900  0.965500  1.0  0.5079
  C  C193  1  0.126700  0.876000  0.862600  1.0  0.1759
  C  C194  1  0.138000  0.859780  0.799100  1.0  -0.1099
  C  C195  1  0.138100  0.909200  0.753360  1.0  -0.1363
  C  C196  1  0.126900  0.974800  0.771200  1.0  0.0032
  C  C197  1  0.115500  0.991000  0.834700  1.0  -0.1228
  C  C198  1  0.115500  0.941600  0.880410  1.0  -0.0933
  C  C199  1  0.157600  0.890300  0.687200  1.0  0.6686
  C  C200  1  0.096600  0.058800  0.857800  1.0  0.6735
  N  N201  1  0.673600  0.960400  0.952500  1.0  -0.4491
  N  N202  1  0.573300  0.800000  0.775300  1.0  -0.4212
  N  N203  1  0.625500  0.678200  0.091300  1.0  -0.3824
  N  N204  1  0.826400  0.039600  0.452500  1.0  -0.4477
  N  N205  1  0.926700  0.200000  0.275300  1.0  -0.42
  N  N206  1  0.874500  0.321800  0.591300  1.0  -0.3839
  N  N207  1  0.326400  0.460400  0.547500  1.0  -0.4498
  N  N208  1  0.426700  0.300000  0.724700  1.0  -0.4199
  N  N209  1  0.374500  0.178200  0.408700  1.0  -0.3815
  N  N210  1  0.173600  0.539600  0.047500  1.0  -0.4509
  N  N211  1  0.073300  0.700000  0.224700  1.0  -0.4196
  N  N212  1  0.125500  0.821800  0.908700  1.0  -0.3837
  O  O213  1  0.904800  0.146200  0.918900  1.0  -0.697
  O  O214  1  0.820500  0.239400  0.929700  1.0  -0.7271
  O  O215  1  0.534700  0.213700  0.064900  1.0  -0.7546
  O  O216  1  0.449600  0.126800  0.041600  1.0  -0.7014
  O  O217  1  0.620800  0.931600  0.045700  1.0  -0.4699
  O  O218  1  0.345300  0.832100  0.597700  1.0  -0.6747
  O  O219  1  0.430500  0.826600  0.509400  1.0  -0.7363
  O  O220  1  0.715200  0.681000  0.534100  1.0  -0.7736
  O  O221  1  0.801500  0.708700  0.618000  1.0  -0.6912
  O  O222  1  0.620800  0.695600  0.800100  1.0  -0.5066
  O  O223  1  0.677900  0.567600  0.354500  1.0  -0.6595
  O  O224  1  0.647300  0.671100  0.329500  1.0  -0.6838
  O  O225  1  0.570500  0.396000  0.181800  1.0  -0.6784
  O  O226  1  0.605600  0.428400  0.083700  1.0  -0.644
  O  O227  1  0.534200  0.627800  0.017900  1.0  -0.5238
  O  O228  1  0.595200  0.853800  0.418900  1.0  -0.6951
  O  O229  1  0.679500  0.760600  0.429700  1.0  -0.7281
  O  O230  1  0.965300  0.786300  0.564900  1.0  -0.7572
  O  O231  1  0.050400  0.873200  0.541600  1.0  -0.7018
  O  O232  1  0.879200  0.068400  0.545700  1.0  -0.4714
  O  O233  1  0.154700  0.167900  0.097700  1.0  -0.6764
  O  O234  1  0.069500  0.173400  0.009400  1.0  -0.7362
  O  O235  1  0.784800  0.319000  0.034100  1.0  -0.7738
  O  O236  1  0.698500  0.291300  0.118000  1.0  -0.6913
  O  O237  1  0.879200  0.304400  0.300100  1.0  -0.5085
  O  O238  1  0.822100  0.432400  0.854500  1.0  -0.6627
  O  O239  1  0.852700  0.328900  0.829500  1.0  -0.6803
  O  O240  1  0.929500  0.604000  0.681800  1.0  -0.678
  O  O241  1  0.894400  0.571600  0.583700  1.0  -0.6428
  O  O242  1  0.965800  0.372200  0.517900  1.0  -0.5234
  O  O243  1  0.095200  0.646200  0.581100  1.0  -0.6942
  O  O244  1  0.179500  0.739400  0.570300  1.0  -0.7273
  O  O245  1  0.465300  0.713700  0.435100  1.0  -0.7558
  O  O246  1  0.550400  0.626800  0.458400  1.0  -0.702
  O  O247  1  0.379200  0.431600  0.454300  1.0  -0.4793
  O  O248  1  0.654700  0.332100  0.902300  1.0  -0.6744
  O  O249  1  0.569500  0.326600  0.990600  1.0  -0.736
  O  O250  1  0.284800  0.181000  0.965900  1.0  -0.7725
  O  O251  1  0.198500  0.208700  0.882000  1.0  -0.6909
  O  O252  1  0.379200  0.195600  0.699900  1.0  -0.5079
  O  O253  1  0.322100  0.067600  0.145500  1.0  -0.6609
  O  O254  1  0.352700  0.171100  0.170500  1.0  -0.6832
  O  O255  1  0.429500  0.896000  0.318200  1.0  -0.679
  O  O256  1  0.394400  0.928400  0.416300  1.0  -0.6455
  O  O257  1  0.465800  0.127800  0.482100  1.0  -0.5225
  O  O258  1  0.404800  0.353800  0.081100  1.0  -0.6966
  O  O259  1  0.320500  0.260600  0.070300  1.0  -0.7271
  O  O260  1  0.034700  0.286300  0.935100  1.0  -0.7584
  O  O261  1  0.949600  0.373200  0.958400  1.0  -0.7003
  O  O262  1  0.120800  0.568400  0.954300  1.0  -0.48
  O  O263  1  0.845300  0.667900  0.402300  1.0  -0.6755
  O  O264  1  0.930500  0.673400  0.490600  1.0  -0.7368
  O  O265  1  0.215200  0.819000  0.465900  1.0  -0.7725
  O  O266  1  0.301500  0.791300  0.382000  1.0  -0.6922
  O  O267  1  0.120800  0.804400  0.199900  1.0  -0.5102
  O  O268  1  0.177900  0.932400  0.645500  1.0  -0.6613
  O  O269  1  0.147300  0.828900  0.670500  1.0  -0.6799
  O  O270  1  0.070500  0.104000  0.818200  1.0  -0.68
  O  O271  1  0.105600  0.071600  0.916300  1.0  -0.6466
  O  O272  1  0.034200  0.872200  0.982100  1.0  -0.5195
