# generated using pymatgen
data_CuBH11C17N5F4
_symmetry_space_group_name_H-M   'P 1'
_cell_length_a   8.96460000
_cell_length_b   22.89240000
_cell_length_c   23.94970000
_cell_angle_alpha   90.00000000
_cell_angle_beta   90.00000000
_cell_angle_gamma   90.00000000
_symmetry_Int_Tables_number   1
_chemical_formula_structural   CuBH11C17N5F4
_chemical_formula_sum   'Cu8 B8 H88 C136 N40 F32'
_cell_volume   4914.98639015
_cell_formula_units_Z   8
loop_
 _symmetry_equiv_pos_site_id
 _symmetry_equiv_pos_as_xyz
  1  'x, y, z'
loop_
 _atom_site_type_symbol
 _atom_site_label
 _atom_site_symmetry_multiplicity
 _atom_site_fract_x
 _atom_site_fract_y
 _atom_site_fract_z
 _atom_site_occupancy
 _atom_site_charge
  Cu  Cu1  1  0.502780  0.279390  0.578230  1.0  0.5848
  Cu  Cu2  1  0.997220  0.720610  0.078230  1.0  0.5865
  Cu  Cu3  1  0.497220  0.779390  0.921770  1.0  0.586
  Cu  Cu4  1  0.002780  0.220610  0.421770  1.0  0.5874
  Cu  Cu5  1  0.497220  0.720610  0.421770  1.0  0.5871
  Cu  Cu6  1  0.002780  0.279390  0.921770  1.0  0.5862
  Cu  Cu7  1  0.502780  0.220610  0.078230  1.0  0.5867
  Cu  Cu8  1  0.997220  0.779390  0.578230  1.0  0.5846
  B  B9  1  0.723900  0.610300  0.579800  1.0  0.9976
  B  B10  1  0.776100  0.389700  0.079800  1.0  1.0002
  B  B11  1  0.276100  0.110300  0.920200  1.0  0.9998
  B  B12  1  0.223900  0.889700  0.420200  1.0  0.9981
  B  B13  1  0.276100  0.389700  0.420200  1.0  1.0003
  B  B14  1  0.223900  0.610300  0.920200  1.0  0.9977
  B  B15  1  0.723900  0.889700  0.079800  1.0  0.9981
  B  B16  1  0.776100  0.110300  0.579800  1.0  0.9998
  H  H17  1  0.782200  0.219900  0.520100  1.0  0.07
  H  H18  1  0.603500  0.369100  0.477400  1.0  0.0832
  H  H19  1  0.947500  0.359200  0.397900  1.0  0.0938
  H  H20  1  0.645300  0.270100  0.372000  1.0  0.094
  H  H21  1  0.569500  0.234100  0.284900  1.0  0.1072
  H  H22  1  0.844700  0.347800  0.207300  1.0  0.0871
  H  H23  1  0.922200  0.384400  0.293700  1.0  0.1138
  H  H24  1  0.595100  0.413400  0.355600  1.0  0.0838
  H  H25  1  0.516100  0.510700  0.365100  1.0  0.1062
  H  H26  1  0.877600  0.547000  0.457800  1.0  0.1011
  H  H27  1  0.959400  0.449600  0.448600  1.0  0.0891
  H  H28  1  0.717800  0.780100  0.020100  1.0  0.0696
  H  H29  1  0.896500  0.630900  0.977400  1.0  0.0834
  H  H30  1  0.552500  0.640800  0.897900  1.0  0.0936
  H  H31  1  0.854700  0.729900  0.872000  1.0  0.0945
  H  H32  1  0.930500  0.765900  0.784900  1.0  0.1081
  H  H33  1  0.655300  0.652200  0.707300  1.0  0.0871
  H  H34  1  0.577800  0.615600  0.793700  1.0  0.1135
  H  H35  1  0.904900  0.586600  0.855600  1.0  0.0842
  H  H36  1  0.983900  0.489300  0.865100  1.0  0.1057
  H  H37  1  0.622400  0.453000  0.957800  1.0  0.1013
  H  H38  1  0.540600  0.550400  0.948600  1.0  0.089
  H  H39  1  0.217800  0.719900  0.979900  1.0  0.0695
  H  H40  1  0.396500  0.869100  0.022600  1.0  0.0837
  H  H41  1  0.052500  0.859200  0.102100  1.0  0.0939
  H  H42  1  0.354700  0.770100  0.128000  1.0  0.0942
  H  H43  1  0.430500  0.734100  0.215100  1.0  0.1077
  H  H44  1  0.155300  0.847800  0.292700  1.0  0.0879
  H  H45  1  0.077800  0.884400  0.206300  1.0  0.1137
  H  H46  1  0.404900  0.913400  0.144400  1.0  0.084
  H  H47  1  0.483900  0.010700  0.134900  1.0  0.1055
  H  H48  1  0.122400  0.047000  0.042200  1.0  0.1014
  H  H49  1  0.040600  0.949600  0.051400  1.0  0.0892
  H  H50  1  0.282200  0.280100  0.479900  1.0  0.0698
  H  H51  1  0.103500  0.130900  0.522600  1.0  0.0835
  H  H52  1  0.447500  0.140800  0.602100  1.0  0.0941
  H  H53  1  0.145300  0.229900  0.628000  1.0  0.094
  H  H54  1  0.069500  0.265900  0.715100  1.0  0.1089
  H  H55  1  0.344700  0.152200  0.792700  1.0  0.088
  H  H56  1  0.422200  0.115600  0.706300  1.0  0.1136
  H  H57  1  0.095100  0.086600  0.644400  1.0  0.0837
  H  H58  1  0.016100  0.989300  0.634900  1.0  0.1063
  H  H59  1  0.377600  0.953000  0.542200  1.0  0.1014
  H  H60  1  0.459400  0.050400  0.551400  1.0  0.0891
  H  H61  1  0.217800  0.780100  0.479900  1.0  0.0697
  H  H62  1  0.396500  0.630900  0.522600  1.0  0.0832
  H  H63  1  0.052500  0.640800  0.602100  1.0  0.0938
  H  H64  1  0.354700  0.729900  0.628000  1.0  0.0942
  H  H65  1  0.430500  0.765900  0.715100  1.0  0.108
  H  H66  1  0.155300  0.652200  0.792700  1.0  0.087
  H  H67  1  0.077800  0.615600  0.706300  1.0  0.1133
  H  H68  1  0.404900  0.586600  0.644400  1.0  0.0837
  H  H69  1  0.483900  0.489300  0.634900  1.0  0.1054
  H  H70  1  0.122400  0.453000  0.542200  1.0  0.1011
  H  H71  1  0.040600  0.550400  0.551400  1.0  0.0889
  H  H72  1  0.282200  0.219900  0.979900  1.0  0.0697
  H  H73  1  0.103500  0.369100  0.022600  1.0  0.0836
  H  H74  1  0.447500  0.359200  0.102100  1.0  0.0942
  H  H75  1  0.145300  0.270100  0.128000  1.0  0.0937
  H  H76  1  0.069500  0.234100  0.215100  1.0  0.1072
  H  H77  1  0.344700  0.347800  0.292700  1.0  0.0868
  H  H78  1  0.422200  0.384400  0.206300  1.0  0.1137
  H  H79  1  0.095100  0.413400  0.144400  1.0  0.0841
  H  H80  1  0.016100  0.510700  0.134900  1.0  0.1062
  H  H81  1  0.377600  0.547000  0.042200  1.0  0.1012
  H  H82  1  0.459400  0.449600  0.051400  1.0  0.0893
  H  H83  1  0.782200  0.280100  0.020100  1.0  0.0698
  H  H84  1  0.603500  0.130900  0.977400  1.0  0.0837
  H  H85  1  0.947500  0.140800  0.897900  1.0  0.0939
  H  H86  1  0.645300  0.229900  0.872000  1.0  0.0943
  H  H87  1  0.569500  0.265900  0.784900  1.0  0.1089
  H  H88  1  0.844700  0.152200  0.707300  1.0  0.0861
  H  H89  1  0.922200  0.115600  0.793700  1.0  0.1138
  H  H90  1  0.595100  0.086600  0.855600  1.0  0.0837
  H  H91  1  0.516100  0.989300  0.865100  1.0  0.1063
  H  H92  1  0.877600  0.953000  0.957800  1.0  0.1015
  H  H93  1  0.959400  0.050400  0.948600  1.0  0.0892
  H  H94  1  0.717800  0.719900  0.520100  1.0  0.0698
  H  H95  1  0.896500  0.869100  0.477400  1.0  0.0834
  H  H96  1  0.552500  0.859200  0.397900  1.0  0.0937
  H  H97  1  0.854700  0.770100  0.372000  1.0  0.0943
  H  H98  1  0.930500  0.734100  0.284900  1.0  0.1077
  H  H99  1  0.655300  0.847800  0.207300  1.0  0.0862
  H  H100  1  0.577800  0.884400  0.293700  1.0  0.114
  H  H101  1  0.904900  0.913400  0.355600  1.0  0.0843
  H  H102  1  0.983900  0.010700  0.365100  1.0  0.1059
  H  H103  1  0.622400  0.047000  0.457800  1.0  0.1014
  H  H104  1  0.540600  0.949600  0.448600  1.0  0.0889
  C  C105  1  0.764200  0.255600  0.501000  1.0  0.2123
  C  C106  1  0.666300  0.335700  0.479000  1.0  0.1369
  C  C107  1  0.836000  0.359400  0.396400  1.0  0.0255
  C  C108  1  0.788200  0.330500  0.341100  1.0  0.0207
  C  C109  1  0.685500  0.286100  0.338600  1.0  -0.0453
  C  C110  1  0.641000  0.264700  0.286900  1.0  -0.1303
  C  C111  1  0.700400  0.287700  0.238600  1.0  -0.0374
  C  C112  1  0.804500  0.332200  0.240800  1.0  -0.1039
  C  C113  1  0.850200  0.354000  0.291800  1.0  -0.1214
  C  C114  1  0.784500  0.422400  0.400700  1.0  0.0877
  C  C115  1  0.653600  0.440300  0.376300  1.0  -0.1339
  C  C116  1  0.606500  0.498100  0.381900  1.0  -0.154
  C  C117  1  0.691900  0.536500  0.412000  1.0  -0.0577
  C  C118  1  0.820600  0.519800  0.436800  1.0  -0.088
  C  C119  1  0.869200  0.461800  0.431400  1.0  -0.1016
  C  C120  1  0.645800  0.266400  0.185800  1.0  0.3303
  C  C121  1  0.642400  0.597100  0.415600  1.0  0.3237
  C  C122  1  0.735800  0.744400  0.001000  1.0  0.2118
  C  C123  1  0.833700  0.664300  0.979000  1.0  0.1378
  C  C124  1  0.664000  0.640600  0.896400  1.0  0.0248
  C  C125  1  0.711800  0.669500  0.841100  1.0  0.0217
  C  C126  1  0.814500  0.713900  0.838600  1.0  -0.0445
  C  C127  1  0.859000  0.735300  0.786900  1.0  -0.1318
  C  C128  1  0.799600  0.712300  0.738600  1.0  -0.0368
  C  C129  1  0.695500  0.667800  0.740800  1.0  -0.1037
  C  C130  1  0.649800  0.646000  0.791800  1.0  -0.1217
  C  C131  1  0.715500  0.577600  0.900700  1.0  0.0859
  C  C132  1  0.846400  0.559700  0.876300  1.0  -0.1385
  C  C133  1  0.893500  0.501900  0.881900  1.0  -0.1543
  C  C134  1  0.808100  0.463500  0.912000  1.0  -0.0603
  C  C135  1  0.679400  0.480200  0.936800  1.0  -0.0869
  C  C136  1  0.630800  0.538200  0.931400  1.0  -0.102
  C  C137  1  0.854200  0.733600  0.685800  1.0  0.3294
  C  C138  1  0.857600  0.402900  0.915600  1.0  0.327
  C  C139  1  0.235800  0.755600  0.999000  1.0  0.2129
  C  C140  1  0.333700  0.835700  0.021000  1.0  0.1372
  C  C141  1  0.164000  0.859400  0.103600  1.0  0.0249
  C  C142  1  0.211800  0.830500  0.158900  1.0  0.0222
  C  C143  1  0.314500  0.786100  0.161400  1.0  -0.0472
  C  C144  1  0.359000  0.764700  0.213100  1.0  -0.1353
  C  C145  1  0.299600  0.787700  0.261400  1.0  -0.0374
  C  C146  1  0.195500  0.832200  0.259200  1.0  -0.104
  C  C147  1  0.149800  0.854000  0.208200  1.0  -0.1214
  C  C148  1  0.215500  0.922400  0.099300  1.0  0.0873
  C  C149  1  0.346400  0.940300  0.123700  1.0  -0.1354
  C  C150  1  0.393500  0.998100  0.118100  1.0  -0.1528
  C  C151  1  0.308100  0.036500  0.088000  1.0  -0.0562
  C  C152  1  0.179400  0.019800  0.063200  1.0  -0.0872
  C  C153  1  0.130800  0.961800  0.068600  1.0  -0.102
  C  C154  1  0.354200  0.766400  0.314200  1.0  0.3301
  C  C155  1  0.357600  0.097100  0.084400  1.0  0.3247
  C  C156  1  0.264200  0.244400  0.499000  1.0  0.2124
  C  C157  1  0.166300  0.164300  0.521000  1.0  0.1376
  C  C158  1  0.336000  0.140600  0.603600  1.0  0.0263
  C  C159  1  0.288200  0.169500  0.658900  1.0  0.0219
  C  C160  1  0.185500  0.213900  0.661400  1.0  -0.0449
  C  C161  1  0.141000  0.235300  0.713100  1.0  -0.1316
  C  C162  1  0.200400  0.212300  0.761400  1.0  -0.0373
  C  C163  1  0.304500  0.167800  0.759200  1.0  -0.1026
  C  C164  1  0.350200  0.146000  0.708200  1.0  -0.1211
  C  C165  1  0.284500  0.077600  0.599300  1.0  0.0863
  C  C166  1  0.153600  0.059700  0.623700  1.0  -0.1348
  C  C167  1  0.106500  0.001900  0.618100  1.0  -0.1546
  C  C168  1  0.191900  0.963500  0.588000  1.0  -0.0593
  C  C169  1  0.320600  0.980200  0.563200  1.0  -0.0885
  C  C170  1  0.369200  0.038200  0.568600  1.0  -0.1023
  C  C171  1  0.145800  0.233600  0.814200  1.0  0.33
  C  C172  1  0.142400  0.902900  0.584400  1.0  0.3264
  C  C173  1  0.235800  0.744400  0.499000  1.0  0.2126
  C  C174  1  0.333700  0.664300  0.521000  1.0  0.137
  C  C175  1  0.164000  0.640600  0.603600  1.0  0.0253
  C  C176  1  0.211800  0.669500  0.658900  1.0  0.0226
  C  C177  1  0.314500  0.713900  0.661400  1.0  -0.0447
  C  C178  1  0.359000  0.735300  0.713100  1.0  -0.1319
  C  C179  1  0.299600  0.712300  0.761400  1.0  -0.0371
  C  C180  1  0.195500  0.667800  0.759200  1.0  -0.1034
  C  C181  1  0.149800  0.646000  0.708200  1.0  -0.1206
  C  C182  1  0.215500  0.577600  0.599300  1.0  0.086
  C  C183  1  0.346400  0.559700  0.623700  1.0  -0.1372
  C  C184  1  0.393500  0.501900  0.618100  1.0  -0.1542
  C  C185  1  0.308100  0.463500  0.588000  1.0  -0.0595
  C  C186  1  0.179400  0.480200  0.563200  1.0  -0.0874
  C  C187  1  0.130800  0.538200  0.568600  1.0  -0.1021
  C  C188  1  0.354200  0.733600  0.814200  1.0  0.3291
  C  C189  1  0.357600  0.402900  0.584400  1.0  0.3269
  C  C190  1  0.264200  0.255600  0.999000  1.0  0.2125
  C  C191  1  0.166300  0.335700  0.021000  1.0  0.1377
  C  C192  1  0.336000  0.359400  0.103600  1.0  0.0259
  C  C193  1  0.288200  0.330500  0.158900  1.0  0.0216
  C  C194  1  0.185500  0.286100  0.161400  1.0  -0.0453
  C  C195  1  0.141000  0.264700  0.213100  1.0  -0.1309
  C  C196  1  0.200400  0.287700  0.261400  1.0  -0.0375
  C  C197  1  0.304500  0.332200  0.259200  1.0  -0.1034
  C  C198  1  0.350200  0.354000  0.208200  1.0  -0.121
  C  C199  1  0.284500  0.422400  0.099300  1.0  0.0877
  C  C200  1  0.153600  0.440300  0.123700  1.0  -0.134
  C  C201  1  0.106500  0.498100  0.118100  1.0  -0.1549
  C  C202  1  0.191900  0.536500  0.088000  1.0  -0.0556
  C  C203  1  0.320600  0.519800  0.063200  1.0  -0.0877
  C  C204  1  0.369200  0.461800  0.068600  1.0  -0.1012
  C  C205  1  0.145800  0.266400  0.314200  1.0  0.3303
  C  C206  1  0.142400  0.597100  0.084400  1.0  0.324
  C  C207  1  0.764200  0.244400  0.001000  1.0  0.2121
  C  C208  1  0.666300  0.164300  0.979000  1.0  0.1375
  C  C209  1  0.836000  0.140600  0.896400  1.0  0.0258
  C  C210  1  0.788200  0.169500  0.841100  1.0  0.0212
  C  C211  1  0.685500  0.213900  0.838600  1.0  -0.0448
  C  C212  1  0.641000  0.235300  0.786900  1.0  -0.1313
  C  C213  1  0.700400  0.212300  0.738600  1.0  -0.037
  C  C214  1  0.804500  0.167800  0.740800  1.0  -0.1033
  C  C215  1  0.850200  0.146000  0.791800  1.0  -0.1221
  C  C216  1  0.784500  0.077600  0.900700  1.0  0.0863
  C  C217  1  0.653600  0.059700  0.876300  1.0  -0.1353
  C  C218  1  0.606500  0.001900  0.881900  1.0  -0.1535
  C  C219  1  0.691900  0.963500  0.912000  1.0  -0.0601
  C  C220  1  0.820600  0.980200  0.936800  1.0  -0.0882
  C  C221  1  0.869200  0.038200  0.931400  1.0  -0.1022
  C  C222  1  0.645800  0.233600  0.685800  1.0  0.3303
  C  C223  1  0.642400  0.902900  0.915600  1.0  0.3268
  C  C224  1  0.735800  0.755600  0.501000  1.0  0.2123
  C  C225  1  0.833700  0.835700  0.479000  1.0  0.1375
  C  C226  1  0.664000  0.859400  0.396400  1.0  0.0245
  C  C227  1  0.711800  0.830500  0.341100  1.0  0.0212
  C  C228  1  0.814500  0.786100  0.338600  1.0  -0.0471
  C  C229  1  0.859000  0.764700  0.286900  1.0  -0.1346
  C  C230  1  0.799600  0.787700  0.238600  1.0  -0.0372
  C  C231  1  0.695500  0.832200  0.240800  1.0  -0.1041
  C  C232  1  0.649800  0.854000  0.291800  1.0  -0.1219
  C  C233  1  0.715500  0.922400  0.400700  1.0  0.0872
  C  C234  1  0.846400  0.940300  0.376300  1.0  -0.1363
  C  C235  1  0.893500  0.998100  0.381900  1.0  -0.1544
  C  C236  1  0.808100  0.036500  0.412000  1.0  -0.0582
  C  C237  1  0.679400  0.019800  0.436800  1.0  -0.0872
  C  C238  1  0.630800  0.961800  0.431400  1.0  -0.1021
  C  C239  1  0.854200  0.766400  0.185800  1.0  0.3302
  C  C240  1  0.857600  0.097100  0.415600  1.0  0.3239
  N  N241  1  0.844700  0.272830  0.458390  1.0  -0.4237
  N  N242  1  0.653300  0.292800  0.515560  1.0  -0.4436
  N  N243  1  0.780700  0.325410  0.444640  1.0  0.0611
  N  N244  1  0.597300  0.249200  0.144800  1.0  -0.4301
  N  N245  1  0.599500  0.643600  0.416400  1.0  -0.4287
  N  N246  1  0.655300  0.727170  0.958390  1.0  -0.4247
  N  N247  1  0.846700  0.707200  0.015560  1.0  -0.4437
  N  N248  1  0.719300  0.674590  0.944640  1.0  0.0606
  N  N249  1  0.902700  0.750800  0.644800  1.0  -0.433
  N  N250  1  0.900500  0.356400  0.916400  1.0  -0.4285
  N  N251  1  0.155300  0.772830  0.041610  1.0  -0.4258
  N  N252  1  0.346700  0.792800  0.984440  1.0  -0.4475
  N  N253  1  0.219300  0.825410  0.055360  1.0  0.0599
  N  N254  1  0.402700  0.749200  0.355200  1.0  -0.4292
  N  N255  1  0.400500  0.143600  0.083600  1.0  -0.4289
  N  N256  1  0.344700  0.227170  0.541610  1.0  -0.4247
  N  N257  1  0.153300  0.207200  0.484440  1.0  -0.4456
  N  N258  1  0.280700  0.174590  0.555360  1.0  0.06
  N  N259  1  0.097300  0.250800  0.855200  1.0  -0.4311
  N  N260  1  0.099500  0.856400  0.583600  1.0  -0.4292
  N  N261  1  0.155300  0.727170  0.541610  1.0  -0.4253
  N  N262  1  0.346700  0.707200  0.484440  1.0  -0.4466
  N  N263  1  0.219300  0.674590  0.555360  1.0  0.0597
  N  N264  1  0.402700  0.750800  0.855200  1.0  -0.4307
  N  N265  1  0.400500  0.356400  0.583600  1.0  -0.429
  N  N266  1  0.344700  0.272830  0.041610  1.0  -0.4244
  N  N267  1  0.153300  0.292800  0.984440  1.0  -0.4464
  N  N268  1  0.280700  0.325410  0.055360  1.0  0.0605
  N  N269  1  0.097300  0.249200  0.355200  1.0  -0.4299
  N  N270  1  0.099500  0.643600  0.083600  1.0  -0.4293
  N  N271  1  0.844700  0.227170  0.958390  1.0  -0.4243
  N  N272  1  0.653300  0.207200  0.015560  1.0  -0.4434
  N  N273  1  0.780700  0.174590  0.944640  1.0  0.0609
  N  N274  1  0.597300  0.250800  0.644800  1.0  -0.432
  N  N275  1  0.599500  0.856400  0.916400  1.0  -0.429
  N  N276  1  0.655300  0.772830  0.458390  1.0  -0.4247
  N  N277  1  0.846700  0.792800  0.515560  1.0  -0.4439
  N  N278  1  0.719300  0.825410  0.444640  1.0  0.0606
  N  N279  1  0.902700  0.749200  0.144800  1.0  -0.4306
  N  N280  1  0.900500  0.143600  0.416400  1.0  -0.4279
  F  F281  1  0.837900  0.629300  0.543850  1.0  -0.3488
  F  F282  1  0.628800  0.654100  0.592630  1.0  -0.2544
  F  F283  1  0.652800  0.564900  0.554700  1.0  -0.2232
  F  F284  1  0.797500  0.593400  0.629100  1.0  -0.2797
  F  F285  1  0.662100  0.370700  0.043850  1.0  -0.35
  F  F286  1  0.871200  0.345900  0.092630  1.0  -0.2546
  F  F287  1  0.847200  0.435100  0.054700  1.0  -0.2248
  F  F288  1  0.702500  0.406600  0.129100  1.0  -0.2797
  F  F289  1  0.162100  0.129300  0.956150  1.0  -0.3499
  F  F290  1  0.371200  0.154100  0.907370  1.0  -0.2553
  F  F291  1  0.347200  0.064900  0.945300  1.0  -0.2222
  F  F292  1  0.202500  0.093400  0.870900  1.0  -0.2793
  F  F293  1  0.337900  0.870700  0.456150  1.0  -0.3487
  F  F294  1  0.128800  0.845900  0.407370  1.0  -0.2546
  F  F295  1  0.152800  0.935100  0.445300  1.0  -0.2253
  F  F296  1  0.297500  0.906600  0.370900  1.0  -0.28
  F  F297  1  0.162100  0.370700  0.456150  1.0  -0.35
  F  F298  1  0.371200  0.345900  0.407370  1.0  -0.2552
  F  F299  1  0.347200  0.435100  0.445300  1.0  -0.2248
  F  F300  1  0.202500  0.406600  0.370900  1.0  -0.2793
  F  F301  1  0.337900  0.629300  0.956150  1.0  -0.3485
  F  F302  1  0.128800  0.654100  0.907370  1.0  -0.2548
  F  F303  1  0.152800  0.564900  0.945300  1.0  -0.2234
  F  F304  1  0.297500  0.593400  0.870900  1.0  -0.28
  F  F305  1  0.837900  0.870700  0.043850  1.0  -0.3488
  F  F306  1  0.628800  0.845900  0.092630  1.0  -0.2541
  F  F307  1  0.652800  0.935100  0.054700  1.0  -0.2254
  F  F308  1  0.797500  0.906600  0.129100  1.0  -0.2796
  F  F309  1  0.662100  0.129300  0.543850  1.0  -0.3503
  F  F310  1  0.871200  0.154100  0.592630  1.0  -0.2551
  F  F311  1  0.847200  0.064900  0.554700  1.0  -0.2224
  F  F312  1  0.702500  0.093400  0.629100  1.0  -0.2793
