# generated using pymatgen
data_Zr3H4C12(SO6)2
_symmetry_space_group_name_H-M   'P 1'
_cell_length_a   27.59840000
_cell_length_b   27.59840000
_cell_length_c   27.59840000
_cell_angle_alpha   60.00000000
_cell_angle_beta   60.00000000
_cell_angle_gamma   60.00000000
_symmetry_Int_Tables_number   1
_chemical_formula_structural   Zr3H4C12(SO6)2
_chemical_formula_sum   'Zr36 H48 C144 S24 O144'
_cell_volume   14864.03491188
_cell_formula_units_Z   12
loop_
 _symmetry_equiv_pos_site_id
 _symmetry_equiv_pos_as_xyz
  1  'x, y, z'
loop_
 _atom_site_type_symbol
 _atom_site_label
 _atom_site_symmetry_multiplicity
 _atom_site_fract_x
 _atom_site_fract_y
 _atom_site_fract_z
 _atom_site_occupancy
 _atom_site_charge
  Zr  Zr1  1  0.454660  0.454660  0.981270  1.0  2.0813
  Zr  Zr2  1  0.454660  0.454660  0.109410  1.0  2.084
  Zr  Zr3  1  0.981270  0.109410  0.454660  1.0  2.0835
  Zr  Zr4  1  0.109410  0.981270  0.454660  1.0  2.0636
  Zr  Zr5  1  0.454660  0.981270  0.109410  1.0  2.0828
  Zr  Zr6  1  0.454660  0.109410  0.981270  1.0  2.0823
  Zr  Zr7  1  0.981270  0.454660  0.454660  1.0  2.082
  Zr  Zr8  1  0.109410  0.454660  0.454660  1.0  2.0633
  Zr  Zr9  1  0.454660  0.109410  0.454660  1.0  2.0815
  Zr  Zr10  1  0.454660  0.981270  0.454660  1.0  2.082
  Zr  Zr11  1  0.981270  0.454660  0.109410  1.0  2.0827
  Zr  Zr12  1  0.109410  0.454660  0.981270  1.0  2.0641
  Zr  Zr13  1  0.545340  0.545340  0.018730  1.0  2.0849
  Zr  Zr14  1  0.545340  0.545340  0.890590  1.0  2.0815
  Zr  Zr15  1  0.890590  0.018730  0.545340  1.0  2.0845
  Zr  Zr16  1  0.018730  0.890590  0.545340  1.0  2.0733
  Zr  Zr17  1  0.018730  0.545340  0.890590  1.0  2.084
  Zr  Zr18  1  0.890590  0.545340  0.018730  1.0  2.0836
  Zr  Zr19  1  0.545340  0.018730  0.545340  1.0  2.0824
  Zr  Zr20  1  0.545340  0.890590  0.545340  1.0  2.0732
  Zr  Zr21  1  0.890590  0.545340  0.545340  1.0  2.0844
  Zr  Zr22  1  0.018730  0.545340  0.545340  1.0  2.0857
  Zr  Zr23  1  0.545340  0.018730  0.890590  1.0  2.0819
  Zr  Zr24  1  0.545340  0.890590  0.018730  1.0  2.0727
  Zr  Zr25  1  0.588930  0.411070  0.000000  1.0  2.1701
  Zr  Zr26  1  0.411070  0.588930  0.000000  1.0  2.1652
  Zr  Zr27  1  0.000000  0.000000  0.588930  1.0  2.1766
  Zr  Zr28  1  0.000000  0.000000  0.411070  1.0  2.1768
  Zr  Zr29  1  0.588930  0.000000  0.000000  1.0  2.1725
  Zr  Zr30  1  0.411070  0.000000  0.000000  1.0  2.1726
  Zr  Zr31  1  0.000000  0.588930  0.411070  1.0  2.1711
  Zr  Zr32  1  0.000000  0.411070  0.588930  1.0  2.1754
  Zr  Zr33  1  0.588930  0.000000  0.411070  1.0  2.1725
  Zr  Zr34  1  0.411070  0.000000  0.588930  1.0  2.1729
  Zr  Zr35  1  0.000000  0.411070  0.000000  1.0  2.1755
  Zr  Zr36  1  0.000000  0.588930  0.000000  1.0  2.1712
  H  H37  1  0.654100  0.218500  0.130700  1.0  0.1287
  H  H38  1  0.218500  0.654100  0.996700  1.0  0.1291
  H  H39  1  0.130700  0.996700  0.654100  1.0  0.1283
  H  H40  1  0.996700  0.130700  0.218500  1.0  0.1287
  H  H41  1  0.654100  0.130700  0.996700  1.0  0.1289
  H  H42  1  0.218500  0.996700  0.130700  1.0  0.1284
  H  H43  1  0.130700  0.654100  0.218500  1.0  0.1295
  H  H44  1  0.996700  0.218500  0.654100  1.0  0.1278
  H  H45  1  0.654100  0.996700  0.218500  1.0  0.1284
  H  H46  1  0.218500  0.130700  0.654100  1.0  0.129
  H  H47  1  0.130700  0.218500  0.996700  1.0  0.1285
  H  H48  1  0.996700  0.654100  0.130700  1.0  0.1298
  H  H49  1  0.781500  0.345900  0.869300  1.0  0.1292
  H  H50  1  0.345900  0.781500  0.003300  1.0  0.1282
  H  H51  1  0.003300  0.869300  0.345900  1.0  0.1295
  H  H52  1  0.869300  0.003300  0.781500  1.0  0.129
  H  H53  1  0.869300  0.345900  0.003300  1.0  0.1297
  H  H54  1  0.003300  0.781500  0.869300  1.0  0.1275
  H  H55  1  0.345900  0.869300  0.781500  1.0  0.1287
  H  H56  1  0.781500  0.003300  0.345900  1.0  0.1284
  H  H57  1  0.003300  0.345900  0.781500  1.0  0.1294
  H  H58  1  0.869300  0.781500  0.345900  1.0  0.1284
  H  H59  1  0.781500  0.869300  0.003300  1.0  0.1288
  H  H60  1  0.345900  0.003300  0.869300  1.0  0.128
  H  H61  1  0.345900  0.781500  0.869300  1.0  0.1275
  H  H62  1  0.781500  0.345900  0.003300  1.0  0.1293
  H  H63  1  0.869300  0.003300  0.345900  1.0  0.1291
  H  H64  1  0.003300  0.869300  0.781500  1.0  0.1296
  H  H65  1  0.345900  0.869300  0.003300  1.0  0.1288
  H  H66  1  0.781500  0.003300  0.869300  1.0  0.1278
  H  H67  1  0.869300  0.345900  0.781500  1.0  0.1295
  H  H68  1  0.003300  0.781500  0.345900  1.0  0.1279
  H  H69  1  0.345900  0.003300  0.781500  1.0  0.128
  H  H70  1  0.781500  0.869300  0.345900  1.0  0.129
  H  H71  1  0.869300  0.781500  0.003300  1.0  0.1284
  H  H72  1  0.003300  0.345900  0.869300  1.0  0.1296
  H  H73  1  0.218500  0.654100  0.130700  1.0  0.1299
  H  H74  1  0.654100  0.218500  0.996700  1.0  0.1282
  H  H75  1  0.996700  0.130700  0.654100  1.0  0.1291
  H  H76  1  0.130700  0.996700  0.218500  1.0  0.1281
  H  H77  1  0.130700  0.654100  0.996700  1.0  0.1294
  H  H78  1  0.996700  0.218500  0.130700  1.0  0.1281
  H  H79  1  0.654100  0.130700  0.218500  1.0  0.1292
  H  H80  1  0.218500  0.996700  0.654100  1.0  0.1282
  H  H81  1  0.996700  0.654100  0.218500  1.0  0.1295
  H  H82  1  0.130700  0.218500  0.654100  1.0  0.1283
  H  H83  1  0.218500  0.130700  0.996700  1.0  0.1287
  H  H84  1  0.654100  0.996700  0.130700  1.0  0.1286
  C  C85  1  0.559450  0.325790  0.134330  1.0  0.7658
  C  C86  1  0.575040  0.265120  0.176940  1.0  -0.1562
  C  C87  1  0.623900  0.217500  0.167100  1.0  -0.0328
  C  C88  1  0.325790  0.559450  0.980430  1.0  0.7654
  C  C89  1  0.265120  0.575040  0.982900  1.0  -0.1573
  C  C90  1  0.217500  0.623900  0.991500  1.0  -0.0344
  C  C91  1  0.134330  0.980430  0.559450  1.0  0.7691
  C  C92  1  0.176940  0.982900  0.575040  1.0  -0.1577
  C  C93  1  0.167100  0.991500  0.623900  1.0  -0.0343
  C  C94  1  0.980430  0.134330  0.325790  1.0  0.7674
  C  C95  1  0.982900  0.176940  0.265120  1.0  -0.1588
  C  C96  1  0.991500  0.167100  0.217500  1.0  -0.035
  C  C97  1  0.559450  0.134330  0.980430  1.0  0.7671
  C  C98  1  0.575040  0.176940  0.982900  1.0  -0.1571
  C  C99  1  0.623900  0.167100  0.991500  1.0  -0.0325
  C  C100  1  0.325790  0.980430  0.134330  1.0  0.7658
  C  C101  1  0.265120  0.982900  0.176940  1.0  -0.1556
  C  C102  1  0.217500  0.991500  0.167100  1.0  -0.0326
  C  C103  1  0.134330  0.559450  0.325790  1.0  0.77
  C  C104  1  0.176940  0.575040  0.265120  1.0  -0.1559
  C  C105  1  0.167100  0.623900  0.217500  1.0  -0.0342
  C  C106  1  0.980430  0.325790  0.559450  1.0  0.7659
  C  C107  1  0.982900  0.265120  0.575040  1.0  -0.1577
  C  C108  1  0.991500  0.217500  0.623900  1.0  -0.0319
  C  C109  1  0.559450  0.980430  0.325790  1.0  0.7676
  C  C110  1  0.575040  0.982900  0.265120  1.0  -0.1576
  C  C111  1  0.623900  0.991500  0.217500  1.0  -0.0313
  C  C112  1  0.325790  0.134330  0.559450  1.0  0.7656
  C  C113  1  0.265120  0.176940  0.575040  1.0  -0.1561
  C  C114  1  0.217500  0.167100  0.623900  1.0  -0.0346
  C  C115  1  0.134330  0.325790  0.980430  1.0  0.7678
  C  C116  1  0.176940  0.265120  0.982900  1.0  -0.1569
  C  C117  1  0.167100  0.217500  0.991500  1.0  -0.0341
  C  C118  1  0.980430  0.559450  0.134330  1.0  0.7666
  C  C119  1  0.982900  0.575040  0.176940  1.0  -0.1559
  C  C120  1  0.991500  0.623900  0.167100  1.0  -0.0329
  C  C121  1  0.674210  0.440550  0.865670  1.0  0.7664
  C  C122  1  0.734880  0.424960  0.823060  1.0  -0.157
  C  C123  1  0.782500  0.376100  0.832900  1.0  -0.0337
  C  C124  1  0.440550  0.674210  0.019570  1.0  0.7671
  C  C125  1  0.424960  0.734880  0.017100  1.0  -0.1567
  C  C126  1  0.376100  0.782500  0.008500  1.0  -0.0331
  C  C127  1  0.019570  0.865670  0.440550  1.0  0.7674
  C  C128  1  0.017100  0.823060  0.424960  1.0  -0.1577
  C  C129  1  0.008500  0.832900  0.376100  1.0  -0.0345
  C  C130  1  0.865670  0.019570  0.674210  1.0  0.767
  C  C131  1  0.823060  0.017100  0.734880  1.0  -0.1581
  C  C132  1  0.832900  0.008500  0.782500  1.0  -0.034
  C  C133  1  0.865670  0.440550  0.019570  1.0  0.7675
  C  C134  1  0.823060  0.424960  0.017100  1.0  -0.1569
  C  C135  1  0.832900  0.376100  0.008500  1.0  -0.0335
  C  C136  1  0.019570  0.674210  0.865670  1.0  0.7679
  C  C137  1  0.017100  0.734880  0.823060  1.0  -0.158
  C  C138  1  0.008500  0.782500  0.832900  1.0  -0.0323
  C  C139  1  0.440550  0.865670  0.674210  1.0  0.7671
  C  C140  1  0.424960  0.823060  0.734880  1.0  -0.1571
  C  C141  1  0.376100  0.832900  0.782500  1.0  -0.0339
  C  C142  1  0.674210  0.019570  0.440550  1.0  0.7663
  C  C143  1  0.734880  0.017100  0.424960  1.0  -0.1564
  C  C144  1  0.782500  0.008500  0.376100  1.0  -0.0323
  C  C145  1  0.019570  0.440550  0.674210  1.0  0.7672
  C  C146  1  0.017100  0.424960  0.734880  1.0  -0.1562
  C  C147  1  0.008500  0.376100  0.782500  1.0  -0.0322
  C  C148  1  0.865670  0.674210  0.440550  1.0  0.7674
  C  C149  1  0.823060  0.734880  0.424960  1.0  -0.1565
  C  C150  1  0.832900  0.782500  0.376100  1.0  -0.0348
  C  C151  1  0.674210  0.865670  0.019570  1.0  0.7662
  C  C152  1  0.734880  0.823060  0.017100  1.0  -0.1563
  C  C153  1  0.782500  0.832900  0.008500  1.0  -0.0341
  C  C154  1  0.440550  0.019570  0.865670  1.0  0.768
  C  C155  1  0.424960  0.017100  0.823060  1.0  -0.1572
  C  C156  1  0.376100  0.008500  0.832900  1.0  -0.0321
  C  C157  1  0.440550  0.674210  0.865670  1.0  0.7673
  C  C158  1  0.424960  0.734880  0.823060  1.0  -0.1575
  C  C159  1  0.376100  0.782500  0.832900  1.0  -0.0335
  C  C160  1  0.674210  0.440550  0.019570  1.0  0.7663
  C  C161  1  0.734880  0.424960  0.017100  1.0  -0.1569
  C  C162  1  0.782500  0.376100  0.008500  1.0  -0.0347
  C  C163  1  0.865670  0.019570  0.440550  1.0  0.7675
  C  C164  1  0.823060  0.017100  0.424960  1.0  -0.1587
  C  C165  1  0.832900  0.008500  0.376100  1.0  -0.0347
  C  C166  1  0.019570  0.865670  0.674210  1.0  0.767
  C  C167  1  0.017100  0.823060  0.734880  1.0  -0.1589
  C  C168  1  0.008500  0.832900  0.782500  1.0  -0.0342
  C  C169  1  0.440550  0.865670  0.019570  1.0  0.7673
  C  C170  1  0.424960  0.823060  0.017100  1.0  -0.1565
  C  C171  1  0.376100  0.832900  0.008500  1.0  -0.0342
  C  C172  1  0.674210  0.019570  0.865670  1.0  0.7663
  C  C173  1  0.734880  0.017100  0.823060  1.0  -0.157
  C  C174  1  0.782500  0.008500  0.832900  1.0  -0.0316
  C  C175  1  0.865670  0.440550  0.674210  1.0  0.7672
  C  C176  1  0.823060  0.424960  0.734880  1.0  -0.1574
  C  C177  1  0.832900  0.376100  0.782500  1.0  -0.0339
  C  C178  1  0.019570  0.674210  0.440550  1.0  0.7677
  C  C179  1  0.017100  0.734880  0.424960  1.0  -0.1576
  C  C180  1  0.008500  0.782500  0.376100  1.0  -0.0339
  C  C181  1  0.440550  0.019570  0.674210  1.0  0.7672
  C  C182  1  0.424960  0.017100  0.734880  1.0  -0.157
  C  C183  1  0.376100  0.008500  0.782500  1.0  -0.0321
  C  C184  1  0.674210  0.865670  0.440550  1.0  0.7665
  C  C185  1  0.734880  0.823060  0.424960  1.0  -0.1561
  C  C186  1  0.782500  0.832900  0.376100  1.0  -0.0346
  C  C187  1  0.865670  0.674210  0.019570  1.0  0.7669
  C  C188  1  0.823060  0.734880  0.017100  1.0  -0.1573
  C  C189  1  0.832900  0.782500  0.008500  1.0  -0.0348
  C  C190  1  0.019570  0.440550  0.865670  1.0  0.768
  C  C191  1  0.017100  0.424960  0.823060  1.0  -0.1572
  C  C192  1  0.008500  0.376100  0.832900  1.0  -0.0324
  C  C193  1  0.325790  0.559450  0.134330  1.0  0.7656
  C  C194  1  0.265120  0.575040  0.176940  1.0  -0.1566
  C  C195  1  0.217500  0.623900  0.167100  1.0  -0.0347
  C  C196  1  0.559450  0.325790  0.980430  1.0  0.7657
  C  C197  1  0.575040  0.265120  0.982900  1.0  -0.1571
  C  C198  1  0.623900  0.217500  0.991500  1.0  -0.0324
  C  C199  1  0.980430  0.134330  0.559450  1.0  0.7669
  C  C200  1  0.982900  0.176940  0.575040  1.0  -0.1584
  C  C201  1  0.991500  0.167100  0.623900  1.0  -0.0357
  C  C202  1  0.134330  0.980430  0.325790  1.0  0.7699
  C  C203  1  0.176940  0.982900  0.265120  1.0  -0.1576
  C  C204  1  0.167100  0.991500  0.217500  1.0  -0.035
  C  C205  1  0.134330  0.559450  0.980430  1.0  0.7697
  C  C206  1  0.176940  0.575040  0.982900  1.0  -0.1574
  C  C207  1  0.167100  0.623900  0.991500  1.0  -0.0346
  C  C208  1  0.980430  0.325790  0.134330  1.0  0.766
  C  C209  1  0.982900  0.265120  0.176940  1.0  -0.158
  C  C210  1  0.991500  0.217500  0.167100  1.0  -0.0333
  C  C211  1  0.559450  0.134330  0.325790  1.0  0.7673
  C  C212  1  0.575040  0.176940  0.265120  1.0  -0.1573
  C  C213  1  0.623900  0.167100  0.217500  1.0  -0.0327
  C  C214  1  0.325790  0.980430  0.559450  1.0  0.7653
  C  C215  1  0.265120  0.982900  0.575040  1.0  -0.1567
  C  C216  1  0.217500  0.991500  0.623900  1.0  -0.0315
  C  C217  1  0.980430  0.559450  0.325790  1.0  0.7673
  C  C218  1  0.982900  0.575040  0.265120  1.0  -0.1566
  C  C219  1  0.991500  0.623900  0.217500  1.0  -0.0334
  C  C220  1  0.134330  0.325790  0.559450  1.0  0.7675
  C  C221  1  0.176940  0.265120  0.575040  1.0  -0.1572
  C  C222  1  0.167100  0.217500  0.623900  1.0  -0.0348
  C  C223  1  0.325790  0.134330  0.980430  1.0  0.766
  C  C224  1  0.265120  0.176940  0.982900  1.0  -0.1565
  C  C225  1  0.217500  0.167100  0.991500  1.0  -0.0346
  C  C226  1  0.559450  0.980430  0.134330  1.0  0.767
  C  C227  1  0.575040  0.982900  0.176940  1.0  -0.1576
  C  C228  1  0.623900  0.991500  0.167100  1.0  -0.0315
  S  S229  1  0.529250  0.248910  0.248910  1.0  0.1636
  S  S230  1  0.248910  0.529250  0.972930  1.0  0.1671
  S  S231  1  0.248910  0.972930  0.529250  1.0  0.166
  S  S232  1  0.972930  0.248910  0.248910  1.0  0.1717
  S  S233  1  0.529250  0.248910  0.972930  1.0  0.1625
  S  S234  1  0.248910  0.972930  0.248910  1.0  0.1683
  S  S235  1  0.248910  0.529250  0.248910  1.0  0.1659
  S  S236  1  0.972930  0.248910  0.529250  1.0  0.1683
  S  S237  1  0.529250  0.972930  0.248910  1.0  0.1635
  S  S238  1  0.248910  0.248910  0.529250  1.0  0.1611
  S  S239  1  0.248910  0.248910  0.972930  1.0  0.1613
  S  S240  1  0.972930  0.529250  0.248910  1.0  0.1645
  S  S241  1  0.751090  0.470750  0.751090  1.0  0.1656
  S  S242  1  0.470750  0.751090  0.027070  1.0  0.1611
  S  S243  1  0.027070  0.751090  0.470750  1.0  0.1691
  S  S244  1  0.751090  0.027070  0.751090  1.0  0.1671
  S  S245  1  0.751090  0.470750  0.027070  1.0  0.1676
  S  S246  1  0.027070  0.751090  0.751090  1.0  0.1696
  S  S247  1  0.470750  0.751090  0.751090  1.0  0.1607
  S  S248  1  0.751090  0.027070  0.470750  1.0  0.1682
  S  S249  1  0.027070  0.470750  0.751090  1.0  0.1646
  S  S250  1  0.751090  0.751090  0.470750  1.0  0.1611
  S  S251  1  0.751090  0.751090  0.027070  1.0  0.1626
  S  S252  1  0.470750  0.027070  0.751090  1.0  0.1593
  O  O253  1  0.596250  0.335410  0.082330  1.0  -0.5893
  O  O254  1  0.509960  0.362380  0.152780  1.0  -0.6195
  O  O255  1  0.335410  0.596250  0.986010  1.0  -0.5921
  O  O256  1  0.362380  0.509960  0.974880  1.0  -0.6209
  O  O257  1  0.082330  0.986010  0.596250  1.0  -0.5866
  O  O258  1  0.152780  0.974880  0.509960  1.0  -0.6202
  O  O259  1  0.986010  0.082330  0.335410  1.0  -0.5869
  O  O260  1  0.974880  0.152780  0.362380  1.0  -0.6175
  O  O261  1  0.596250  0.082330  0.986010  1.0  -0.5895
  O  O262  1  0.509960  0.152780  0.974880  1.0  -0.6226
  O  O263  1  0.335410  0.986010  0.082330  1.0  -0.5878
  O  O264  1  0.362380  0.974880  0.152780  1.0  -0.6225
  O  O265  1  0.082330  0.596250  0.335410  1.0  -0.5888
  O  O266  1  0.152780  0.509960  0.362380  1.0  -0.6201
  O  O267  1  0.986010  0.335410  0.596250  1.0  -0.586
  O  O268  1  0.974880  0.362380  0.509960  1.0  -0.6256
  O  O269  1  0.596250  0.986010  0.335410  1.0  -0.5903
  O  O270  1  0.509960  0.974880  0.362380  1.0  -0.6217
  O  O271  1  0.335410  0.082330  0.596250  1.0  -0.5883
  O  O272  1  0.362380  0.152780  0.509960  1.0  -0.6239
  O  O273  1  0.082330  0.335410  0.986010  1.0  -0.5873
  O  O274  1  0.152780  0.362380  0.974880  1.0  -0.6179
  O  O275  1  0.986010  0.596250  0.082330  1.0  -0.5895
  O  O276  1  0.974880  0.509960  0.152780  1.0  -0.6194
  O  O277  1  0.664590  0.403750  0.917670  1.0  -0.5921
  O  O278  1  0.637620  0.490040  0.847220  1.0  -0.6215
  O  O279  1  0.403750  0.664590  0.013990  1.0  -0.5878
  O  O280  1  0.490040  0.637620  0.025120  1.0  -0.6208
  O  O281  1  0.013990  0.917670  0.403750  1.0  -0.5889
  O  O282  1  0.025120  0.847220  0.490040  1.0  -0.6162
  O  O283  1  0.917670  0.013990  0.664590  1.0  -0.5879
  O  O284  1  0.847220  0.025120  0.637620  1.0  -0.6207
  O  O285  1  0.917670  0.403750  0.013990  1.0  -0.5892
  O  O286  1  0.847220  0.490040  0.025120  1.0  -0.6193
  O  O287  1  0.013990  0.664590  0.917670  1.0  -0.5864
  O  O288  1  0.025120  0.637620  0.847220  1.0  -0.6261
  O  O289  1  0.403750  0.917670  0.664590  1.0  -0.5893
  O  O290  1  0.490040  0.847220  0.637620  1.0  -0.6216
  O  O291  1  0.664590  0.013990  0.403750  1.0  -0.5875
  O  O292  1  0.637620  0.025120  0.490040  1.0  -0.621
  O  O293  1  0.013990  0.403750  0.664590  1.0  -0.59
  O  O294  1  0.025120  0.490040  0.637620  1.0  -0.6177
  O  O295  1  0.917670  0.664590  0.403750  1.0  -0.5882
  O  O296  1  0.847220  0.637620  0.490040  1.0  -0.6201
  O  O297  1  0.664590  0.917670  0.013990  1.0  -0.5892
  O  O298  1  0.637620  0.847220  0.025120  1.0  -0.6218
  O  O299  1  0.403750  0.013990  0.917670  1.0  -0.5892
  O  O300  1  0.490040  0.025120  0.847220  1.0  -0.6212
  O  O301  1  0.403750  0.664590  0.917670  1.0  -0.5893
  O  O302  1  0.490040  0.637620  0.847220  1.0  -0.6225
  O  O303  1  0.664590  0.403750  0.013990  1.0  -0.5909
  O  O304  1  0.637620  0.490040  0.025120  1.0  -0.6185
  O  O305  1  0.917670  0.013990  0.403750  1.0  -0.5875
  O  O306  1  0.847220  0.025120  0.490040  1.0  -0.6185
  O  O307  1  0.013990  0.917670  0.664590  1.0  -0.5884
  O  O308  1  0.025120  0.847220  0.637620  1.0  -0.6185
  O  O309  1  0.403750  0.917670  0.013990  1.0  -0.5894
  O  O310  1  0.490040  0.847220  0.025120  1.0  -0.621
  O  O311  1  0.664590  0.013990  0.917670  1.0  -0.5865
  O  O312  1  0.637620  0.025120  0.847220  1.0  -0.6246
  O  O313  1  0.917670  0.403750  0.664590  1.0  -0.5892
  O  O314  1  0.847220  0.490040  0.637620  1.0  -0.6202
  O  O315  1  0.013990  0.664590  0.403750  1.0  -0.5876
  O  O316  1  0.025120  0.637620  0.490040  1.0  -0.6219
  O  O317  1  0.403750  0.013990  0.664590  1.0  -0.588
  O  O318  1  0.490040  0.025120  0.637620  1.0  -0.6223
  O  O319  1  0.664590  0.917670  0.403750  1.0  -0.5895
  O  O320  1  0.637620  0.847220  0.490040  1.0  -0.62
  O  O321  1  0.917670  0.664590  0.013990  1.0  -0.5882
  O  O322  1  0.847220  0.637620  0.025120  1.0  -0.6229
  O  O323  1  0.013990  0.403750  0.917670  1.0  -0.5908
  O  O324  1  0.025120  0.490040  0.847220  1.0  -0.6177
  O  O325  1  0.335410  0.596250  0.082330  1.0  -0.5911
  O  O326  1  0.362380  0.509960  0.152780  1.0  -0.6202
  O  O327  1  0.596250  0.335410  0.986010  1.0  -0.5903
  O  O328  1  0.509960  0.362380  0.974880  1.0  -0.6207
  O  O329  1  0.986010  0.082330  0.596250  1.0  -0.588
  O  O330  1  0.974880  0.152780  0.509960  1.0  -0.621
  O  O331  1  0.082330  0.986010  0.335410  1.0  -0.5866
  O  O332  1  0.152780  0.974880  0.362380  1.0  -0.6173
  O  O333  1  0.082330  0.596250  0.986010  1.0  -0.589
  O  O334  1  0.152780  0.509960  0.974880  1.0  -0.6206
  O  O335  1  0.986010  0.335410  0.082330  1.0  -0.5872
  O  O336  1  0.974880  0.362380  0.152780  1.0  -0.6221
  O  O337  1  0.596250  0.082330  0.335410  1.0  -0.5894
  O  O338  1  0.509960  0.152780  0.362380  1.0  -0.6213
  O  O339  1  0.335410  0.986010  0.596250  1.0  -0.5866
  O  O340  1  0.362380  0.974880  0.509960  1.0  -0.6244
  O  O341  1  0.986010  0.596250  0.335410  1.0  -0.59
  O  O342  1  0.974880  0.509960  0.362380  1.0  -0.6196
  O  O343  1  0.082330  0.335410  0.596250  1.0  -0.5867
  O  O344  1  0.152780  0.362380  0.509960  1.0  -0.6189
  O  O345  1  0.335410  0.082330  0.986010  1.0  -0.5875
  O  O346  1  0.362380  0.152780  0.974880  1.0  -0.6222
  O  O347  1  0.596250  0.986010  0.082330  1.0  -0.5896
  O  O348  1  0.509960  0.974880  0.152780  1.0  -0.6217
  O  O349  1  0.498280  0.412920  0.044400  1.0  -1.191
  O  O350  1  0.412920  0.498280  0.044400  1.0  -1.192
  O  O351  1  0.044400  0.044400  0.498280  1.0  -1.1883
  O  O352  1  0.044400  0.044400  0.412920  1.0  -1.1896
  O  O353  1  0.498280  0.044400  0.044400  1.0  -1.1863
  O  O354  1  0.412920  0.044400  0.044400  1.0  -1.1872
  O  O355  1  0.044400  0.498280  0.412920  1.0  -1.1874
  O  O356  1  0.044400  0.412920  0.498280  1.0  -1.1872
  O  O357  1  0.498280  0.044400  0.412920  1.0  -1.1875
  O  O358  1  0.412920  0.044400  0.498280  1.0  -1.1871
  O  O359  1  0.044400  0.412920  0.044400  1.0  -1.1861
  O  O360  1  0.044400  0.498280  0.044400  1.0  -1.1858
  O  O361  1  0.587080  0.501720  0.955600  1.0  -1.1895
  O  O362  1  0.501720  0.587080  0.955600  1.0  -1.189
  O  O363  1  0.955600  0.955600  0.501720  1.0  -1.191
  O  O364  1  0.955600  0.955600  0.587080  1.0  -1.1905
  O  O365  1  0.955600  0.501720  0.955600  1.0  -1.1877
  O  O366  1  0.955600  0.587080  0.955600  1.0  -1.1867
  O  O367  1  0.501720  0.955600  0.587080  1.0  -1.1855
  O  O368  1  0.587080  0.955600  0.501720  1.0  -1.186
  O  O369  1  0.955600  0.501720  0.587080  1.0  -1.1865
  O  O370  1  0.955600  0.587080  0.501720  1.0  -1.1868
  O  O371  1  0.587080  0.955600  0.955600  1.0  -1.187
  O  O372  1  0.501720  0.955600  0.955600  1.0  -1.1872
  O  O373  1  0.456720  0.543280  0.936880  1.0  -1.1368
  O  O374  1  0.543280  0.456720  0.063120  1.0  -1.128
  O  O375  1  0.936880  0.063120  0.456720  1.0  -1.138
  O  O376  1  0.063120  0.936880  0.543280  1.0  -1.1365
  O  O377  1  0.456720  0.936880  0.063120  1.0  -1.1351
  O  O378  1  0.543280  0.063120  0.936880  1.0  -1.136
  O  O379  1  0.936880  0.456720  0.543280  1.0  -1.1338
  O  O380  1  0.063120  0.543280  0.456720  1.0  -1.132
  O  O381  1  0.456720  0.063120  0.543280  1.0  -1.134
  O  O382  1  0.543280  0.936880  0.456720  1.0  -1.135
  O  O383  1  0.936880  0.543280  0.063120  1.0  -1.133
  O  O384  1  0.063120  0.456720  0.936880  1.0  -1.1324
  O  O385  1  0.456720  0.543280  0.063120  1.0  -1.1286
  O  O386  1  0.543280  0.456720  0.936880  1.0  -1.1377
  O  O387  1  0.936880  0.063120  0.543280  1.0  -1.1376
  O  O388  1  0.063120  0.936880  0.456720  1.0  -1.1361
  O  O389  1  0.063120  0.543280  0.936880  1.0  -1.1325
  O  O390  1  0.936880  0.456720  0.063120  1.0  -1.1327
  O  O391  1  0.543280  0.063120  0.456720  1.0  -1.1347
  O  O392  1  0.456720  0.936880  0.543280  1.0  -1.1349
  O  O393  1  0.936880  0.543280  0.456720  1.0  -1.1346
  O  O394  1  0.063120  0.456720  0.543280  1.0  -1.132
  O  O395  1  0.456720  0.063120  0.936880  1.0  -1.1356
  O  O396  1  0.543280  0.936880  0.063120  1.0  -1.1349
