# generated using pymatgen
data_Zr3H4C12(SO6)2
_symmetry_space_group_name_H-M   'P 1'
_cell_length_a   27.66200000
_cell_length_b   27.66200000
_cell_length_c   27.66200000
_cell_angle_alpha   60.00000000
_cell_angle_beta   60.00000000
_cell_angle_gamma   60.00000000
_symmetry_Int_Tables_number   1
_chemical_formula_structural   Zr3H4C12(SO6)2
_chemical_formula_sum   'Zr36 H48 C144 S24 O144'
_cell_volume   14967.03358297
_cell_formula_units_Z   12
loop_
 _symmetry_equiv_pos_site_id
 _symmetry_equiv_pos_as_xyz
  1  'x, y, z'
loop_
 _atom_site_type_symbol
 _atom_site_label
 _atom_site_symmetry_multiplicity
 _atom_site_fract_x
 _atom_site_fract_y
 _atom_site_fract_z
 _atom_site_occupancy
 _atom_site_charge
  Zr  Zr1  1  0.454760  0.454750  0.981520  1.0  2.1124
  Zr  Zr2  1  0.454760  0.454750  0.108970  1.0  2.1152
  Zr  Zr3  1  0.981530  0.108970  0.454750  1.0  2.1164
  Zr  Zr4  1  0.108980  0.981520  0.454750  1.0  2.0955
  Zr  Zr5  1  0.454760  0.981520  0.108970  1.0  2.1138
  Zr  Zr6  1  0.454760  0.108970  0.981520  1.0  2.1146
  Zr  Zr7  1  0.981530  0.454750  0.454750  1.0  2.1127
  Zr  Zr8  1  0.108980  0.454750  0.454750  1.0  2.0953
  Zr  Zr9  1  0.454760  0.108970  0.454750  1.0  2.1139
  Zr  Zr10  1  0.454760  0.981520  0.454750  1.0  2.1123
  Zr  Zr11  1  0.981530  0.454750  0.108970  1.0  2.1142
  Zr  Zr12  1  0.108980  0.454750  0.981520  1.0  2.0961
  Zr  Zr13  1  0.545240  0.545250  0.018480  1.0  2.1165
  Zr  Zr14  1  0.545240  0.545250  0.891030  1.0  2.1137
  Zr  Zr15  1  0.891020  0.018480  0.545250  1.0  2.1142
  Zr  Zr16  1  0.018470  0.891030  0.545250  1.0  2.114
  Zr  Zr17  1  0.018470  0.545250  0.891030  1.0  2.1147
  Zr  Zr18  1  0.891020  0.545250  0.018480  1.0  2.1128
  Zr  Zr19  1  0.545240  0.018480  0.545250  1.0  2.114
  Zr  Zr20  1  0.545240  0.891030  0.545250  1.0  2.1149
  Zr  Zr21  1  0.891020  0.545250  0.545250  1.0  2.1133
  Zr  Zr22  1  0.018470  0.545250  0.545250  1.0  2.1171
  Zr  Zr23  1  0.545240  0.018480  0.891030  1.0  2.1132
  Zr  Zr24  1  0.545240  0.891030  0.018480  1.0  2.1145
  Zr  Zr25  1  0.589110  0.410890  0.000000  1.0  2.144
  Zr  Zr26  1  0.410890  0.589110  0.000000  1.0  2.14
  Zr  Zr27  1  0.000000  0.000000  0.589110  1.0  2.1504
  Zr  Zr28  1  0.000000  0.000000  0.410890  1.0  2.1497
  Zr  Zr29  1  0.589110  0.000000  0.000000  1.0  2.1459
  Zr  Zr30  1  0.410890  0.000000  0.000000  1.0  2.1456
  Zr  Zr31  1  0.000000  0.589110  0.410890  1.0  2.1454
  Zr  Zr32  1  0.000000  0.410890  0.589110  1.0  2.1494
  Zr  Zr33  1  0.589110  0.000000  0.410890  1.0  2.1452
  Zr  Zr34  1  0.410890  0.000000  0.589110  1.0  2.1467
  Zr  Zr35  1  0.000000  0.410890  0.000000  1.0  2.1487
  Zr  Zr36  1  0.000000  0.589110  0.000000  1.0  2.1461
  H  H37  1  0.655900  0.219900  0.132100  1.0  0.1347
  H  H38  1  0.219900  0.655900  0.992100  1.0  0.1352
  H  H39  1  0.132100  0.992100  0.655900  1.0  0.1345
  H  H40  1  0.992100  0.132100  0.219900  1.0  0.1351
  H  H41  1  0.655900  0.132100  0.992100  1.0  0.1353
  H  H42  1  0.219900  0.992100  0.132100  1.0  0.1346
  H  H43  1  0.132100  0.655900  0.219900  1.0  0.1356
  H  H44  1  0.992100  0.219900  0.655900  1.0  0.1343
  H  H45  1  0.655900  0.992100  0.219900  1.0  0.1346
  H  H46  1  0.219900  0.132100  0.655900  1.0  0.1351
  H  H47  1  0.132100  0.219900  0.992100  1.0  0.1348
  H  H48  1  0.992100  0.655900  0.132100  1.0  0.1355
  H  H49  1  0.780100  0.344100  0.867900  1.0  0.1358
  H  H50  1  0.344100  0.780100  0.007900  1.0  0.1342
  H  H51  1  0.007900  0.867900  0.344100  1.0  0.1353
  H  H52  1  0.867900  0.007900  0.780100  1.0  0.1351
  H  H53  1  0.867900  0.344100  0.007900  1.0  0.136
  H  H54  1  0.007900  0.780100  0.867900  1.0  0.1338
  H  H55  1  0.344100  0.867900  0.780100  1.0  0.135
  H  H56  1  0.780100  0.007900  0.344100  1.0  0.1347
  H  H57  1  0.007900  0.344100  0.780100  1.0  0.1357
  H  H58  1  0.867900  0.780100  0.344100  1.0  0.1347
  H  H59  1  0.780100  0.867900  0.007900  1.0  0.1347
  H  H60  1  0.344100  0.007900  0.867900  1.0  0.1342
  H  H61  1  0.344100  0.780100  0.867900  1.0  0.1338
  H  H62  1  0.780100  0.344100  0.007900  1.0  0.1357
  H  H63  1  0.867900  0.007900  0.344100  1.0  0.1351
  H  H64  1  0.007900  0.867900  0.780100  1.0  0.1355
  H  H65  1  0.344100  0.867900  0.007900  1.0  0.1348
  H  H66  1  0.780100  0.007900  0.867900  1.0  0.1342
  H  H67  1  0.867900  0.344100  0.780100  1.0  0.1359
  H  H68  1  0.007900  0.780100  0.344100  1.0  0.1342
  H  H69  1  0.344100  0.007900  0.780100  1.0  0.134
  H  H70  1  0.780100  0.867900  0.344100  1.0  0.1352
  H  H71  1  0.867900  0.780100  0.007900  1.0  0.1343
  H  H72  1  0.007900  0.344100  0.867900  1.0  0.1358
  H  H73  1  0.219900  0.655900  0.132100  1.0  0.1355
  H  H74  1  0.655900  0.219900  0.992100  1.0  0.1346
  H  H75  1  0.992100  0.132100  0.655900  1.0  0.1356
  H  H76  1  0.132100  0.992100  0.219900  1.0  0.1343
  H  H77  1  0.132100  0.655900  0.992100  1.0  0.1358
  H  H78  1  0.992100  0.219900  0.132100  1.0  0.1346
  H  H79  1  0.655900  0.132100  0.219900  1.0  0.1355
  H  H80  1  0.219900  0.992100  0.655900  1.0  0.1344
  H  H81  1  0.992100  0.655900  0.219900  1.0  0.1352
  H  H82  1  0.132100  0.219900  0.655900  1.0  0.1344
  H  H83  1  0.219900  0.132100  0.992100  1.0  0.1353
  H  H84  1  0.655900  0.992100  0.132100  1.0  0.1346
  C  C85  1  0.559550  0.326250  0.134410  1.0  0.7809
  C  C86  1  0.575980  0.266420  0.177700  1.0  -0.151
  C  C87  1  0.625390  0.218810  0.168390  1.0  -0.0496
  C  C88  1  0.326250  0.559550  0.979790  1.0  0.7797
  C  C89  1  0.266420  0.575980  0.979900  1.0  -0.1528
  C  C90  1  0.218810  0.625390  0.987410  1.0  -0.0517
  C  C91  1  0.134410  0.979790  0.559550  1.0  0.7824
  C  C92  1  0.177700  0.979900  0.575980  1.0  -0.1543
  C  C93  1  0.168390  0.987410  0.625390  1.0  -0.0491
  C  C94  1  0.979790  0.134410  0.326250  1.0  0.7824
  C  C95  1  0.979900  0.177700  0.266420  1.0  -0.1539
  C  C96  1  0.987410  0.168390  0.218810  1.0  -0.0511
  C  C97  1  0.559550  0.134410  0.979790  1.0  0.7814
  C  C98  1  0.575980  0.177700  0.979900  1.0  -0.1524
  C  C99  1  0.625390  0.168390  0.987410  1.0  -0.0489
  C  C100  1  0.326250  0.979790  0.134410  1.0  0.7807
  C  C101  1  0.266420  0.979900  0.177700  1.0  -0.1514
  C  C102  1  0.218810  0.987410  0.168390  1.0  -0.0477
  C  C103  1  0.134410  0.559550  0.326250  1.0  0.7833
  C  C104  1  0.177700  0.575980  0.266420  1.0  -0.1522
  C  C105  1  0.168390  0.625390  0.218810  1.0  -0.0508
  C  C106  1  0.979790  0.326250  0.559550  1.0  0.781
  C  C107  1  0.979900  0.266420  0.575980  1.0  -0.1529
  C  C108  1  0.987410  0.218810  0.625390  1.0  -0.048
  C  C109  1  0.559550  0.979790  0.326250  1.0  0.7816
  C  C110  1  0.575980  0.979900  0.266420  1.0  -0.1503
  C  C111  1  0.625390  0.987410  0.218810  1.0  -0.0471
  C  C112  1  0.326250  0.134410  0.559550  1.0  0.7814
  C  C113  1  0.266420  0.177700  0.575980  1.0  -0.1527
  C  C114  1  0.218810  0.168390  0.625390  1.0  -0.0511
  C  C115  1  0.134410  0.326250  0.979790  1.0  0.7821
  C  C116  1  0.177700  0.266420  0.979900  1.0  -0.1523
  C  C117  1  0.168390  0.218810  0.987410  1.0  -0.0496
  C  C118  1  0.979790  0.559550  0.134410  1.0  0.7807
  C  C119  1  0.979900  0.575980  0.177700  1.0  -0.1506
  C  C120  1  0.987410  0.625390  0.168390  1.0  -0.0497
  C  C121  1  0.673750  0.440450  0.865590  1.0  0.7811
  C  C122  1  0.733580  0.424020  0.822300  1.0  -0.1524
  C  C123  1  0.781190  0.374610  0.831610  1.0  -0.0498
  C  C124  1  0.440450  0.673750  0.020210  1.0  0.7819
  C  C125  1  0.424020  0.733580  0.020100  1.0  -0.1526
  C  C126  1  0.374610  0.781190  0.012590  1.0  -0.0493
  C  C127  1  0.020210  0.865590  0.440450  1.0  0.7818
  C  C128  1  0.020100  0.822300  0.424020  1.0  -0.1533
  C  C129  1  0.012590  0.831610  0.374610  1.0  -0.0517
  C  C130  1  0.865590  0.020210  0.673750  1.0  0.7806
  C  C131  1  0.822300  0.020100  0.733580  1.0  -0.1531
  C  C132  1  0.831610  0.012590  0.781190  1.0  -0.0505
  C  C133  1  0.865590  0.440450  0.020210  1.0  0.7817
  C  C134  1  0.822300  0.424020  0.020100  1.0  -0.1512
  C  C135  1  0.831610  0.374610  0.012590  1.0  -0.0503
  C  C136  1  0.020210  0.673750  0.865590  1.0  0.7818
  C  C137  1  0.020100  0.733580  0.822300  1.0  -0.1546
  C  C138  1  0.012590  0.781190  0.831610  1.0  -0.0482
  C  C139  1  0.440450  0.865590  0.673750  1.0  0.781
  C  C140  1  0.424020  0.822300  0.733580  1.0  -0.1531
  C  C141  1  0.374610  0.831610  0.781190  1.0  -0.0502
  C  C142  1  0.673750  0.020210  0.440450  1.0  0.7815
  C  C143  1  0.733580  0.020100  0.424020  1.0  -0.1516
  C  C144  1  0.781190  0.012590  0.374610  1.0  -0.0475
  C  C145  1  0.020210  0.440450  0.673750  1.0  0.7819
  C  C146  1  0.020100  0.424020  0.733580  1.0  -0.1514
  C  C147  1  0.012590  0.374610  0.781190  1.0  -0.048
  C  C148  1  0.865590  0.673750  0.440450  1.0  0.7803
  C  C149  1  0.822300  0.733580  0.424020  1.0  -0.1502
  C  C150  1  0.831610  0.781190  0.374610  1.0  -0.051
  C  C151  1  0.673750  0.865590  0.020210  1.0  0.7814
  C  C152  1  0.733580  0.822300  0.020100  1.0  -0.1511
  C  C153  1  0.781190  0.831610  0.012590  1.0  -0.0514
  C  C154  1  0.440450  0.020210  0.865590  1.0  0.7828
  C  C155  1  0.424020  0.020100  0.822300  1.0  -0.1531
  C  C156  1  0.374610  0.012590  0.831610  1.0  -0.0468
  C  C157  1  0.440450  0.673750  0.865590  1.0  0.7811
  C  C158  1  0.424020  0.733580  0.822300  1.0  -0.1534
  C  C159  1  0.374610  0.781190  0.831610  1.0  -0.0485
  C  C160  1  0.673750  0.440450  0.020210  1.0  0.7819
  C  C161  1  0.733580  0.424020  0.020100  1.0  -0.1523
  C  C162  1  0.781190  0.374610  0.012590  1.0  -0.0514
  C  C163  1  0.865590  0.020210  0.440450  1.0  0.7816
  C  C164  1  0.822300  0.020100  0.424020  1.0  -0.1526
  C  C165  1  0.831610  0.012590  0.374610  1.0  -0.0508
  C  C166  1  0.020210  0.865590  0.673750  1.0  0.781
  C  C167  1  0.020100  0.822300  0.733580  1.0  -0.1556
  C  C168  1  0.012590  0.831610  0.781190  1.0  -0.051
  C  C169  1  0.440450  0.865590  0.020210  1.0  0.7815
  C  C170  1  0.424020  0.822300  0.020100  1.0  -0.152
  C  C171  1  0.374610  0.831610  0.012590  1.0  -0.0503
  C  C172  1  0.673750  0.020210  0.865590  1.0  0.7813
  C  C173  1  0.733580  0.020100  0.822300  1.0  -0.1527
  C  C174  1  0.781190  0.012590  0.831610  1.0  -0.048
  C  C175  1  0.865590  0.440450  0.673750  1.0  0.7809
  C  C176  1  0.822300  0.424020  0.733580  1.0  -0.1519
  C  C177  1  0.831610  0.374610  0.781190  1.0  -0.0504
  C  C178  1  0.020210  0.673750  0.440450  1.0  0.782
  C  C179  1  0.020100  0.733580  0.424020  1.0  -0.1543
  C  C180  1  0.012590  0.781190  0.374610  1.0  -0.0484
  C  C181  1  0.440450  0.020210  0.673750  1.0  0.7818
  C  C182  1  0.424020  0.020100  0.733580  1.0  -0.1531
  C  C183  1  0.374610  0.012590  0.781190  1.0  -0.0474
  C  C184  1  0.673750  0.865590  0.440450  1.0  0.7813
  C  C185  1  0.733580  0.822300  0.424020  1.0  -0.1509
  C  C186  1  0.781190  0.831610  0.374610  1.0  -0.0512
  C  C187  1  0.865590  0.673750  0.020210  1.0  0.7802
  C  C188  1  0.822300  0.733580  0.020100  1.0  -0.1515
  C  C189  1  0.831610  0.781190  0.012590  1.0  -0.0513
  C  C190  1  0.020210  0.440450  0.865590  1.0  0.7828
  C  C191  1  0.020100  0.424020  0.822300  1.0  -0.1522
  C  C192  1  0.012590  0.374610  0.831610  1.0  -0.0479
  C  C193  1  0.326250  0.559550  0.134410  1.0  0.781
  C  C194  1  0.266420  0.575980  0.177700  1.0  -0.1525
  C  C195  1  0.218810  0.625390  0.168390  1.0  -0.0524
  C  C196  1  0.559550  0.326250  0.979790  1.0  0.7803
  C  C197  1  0.575980  0.266420  0.979900  1.0  -0.1518
  C  C198  1  0.625390  0.218810  0.987410  1.0  -0.0484
  C  C199  1  0.979790  0.134410  0.559550  1.0  0.7815
  C  C200  1  0.979900  0.177700  0.575980  1.0  -0.1547
  C  C201  1  0.987410  0.168390  0.625390  1.0  -0.0519
  C  C202  1  0.134410  0.979790  0.326250  1.0  0.7833
  C  C203  1  0.177700  0.979900  0.266420  1.0  -0.1531
  C  C204  1  0.168390  0.987410  0.218810  1.0  -0.0498
  C  C205  1  0.134410  0.559550  0.979790  1.0  0.7827
  C  C206  1  0.177700  0.575980  0.979900  1.0  -0.1539
  C  C207  1  0.168390  0.625390  0.987410  1.0  -0.051
  C  C208  1  0.979790  0.326250  0.134410  1.0  0.7809
  C  C209  1  0.979900  0.266420  0.177700  1.0  -0.153
  C  C210  1  0.987410  0.218810  0.168390  1.0  -0.0482
  C  C211  1  0.559550  0.134410  0.326250  1.0  0.7821
  C  C212  1  0.575980  0.177700  0.266420  1.0  -0.1525
  C  C213  1  0.625390  0.168390  0.218810  1.0  -0.0489
  C  C214  1  0.326250  0.979790  0.559550  1.0  0.7801
  C  C215  1  0.266420  0.979900  0.575980  1.0  -0.1527
  C  C216  1  0.218810  0.987410  0.625390  1.0  -0.0477
  C  C217  1  0.979790  0.559550  0.326250  1.0  0.781
  C  C218  1  0.979900  0.575980  0.266420  1.0  -0.1513
  C  C219  1  0.987410  0.625390  0.218810  1.0  -0.0498
  C  C220  1  0.134410  0.326250  0.559550  1.0  0.7821
  C  C221  1  0.177700  0.266420  0.575980  1.0  -0.1527
  C  C222  1  0.168390  0.218810  0.625390  1.0  -0.0498
  C  C223  1  0.326250  0.134410  0.979790  1.0  0.7814
  C  C224  1  0.266420  0.177700  0.979900  1.0  -0.1531
  C  C225  1  0.218810  0.168390  0.987410  1.0  -0.0503
  C  C226  1  0.559550  0.979790  0.134410  1.0  0.7816
  C  C227  1  0.575980  0.979900  0.177700  1.0  -0.1504
  C  C228  1  0.625390  0.987410  0.168390  1.0  -0.0474
  S  S229  1  0.528580  0.248780  0.248780  1.0  0.1766
  S  S230  1  0.248780  0.528580  0.973860  1.0  0.179
  S  S231  1  0.248780  0.973860  0.528580  1.0  0.1753
  S  S232  1  0.973860  0.248780  0.248780  1.0  0.1815
  S  S233  1  0.528580  0.248780  0.973860  1.0  0.1752
  S  S234  1  0.248780  0.973860  0.248780  1.0  0.1784
  S  S235  1  0.248780  0.528580  0.248780  1.0  0.1786
  S  S236  1  0.973860  0.248780  0.528580  1.0  0.1767
  S  S237  1  0.528580  0.973860  0.248780  1.0  0.1772
  S  S238  1  0.248780  0.248780  0.528580  1.0  0.1727
  S  S239  1  0.248780  0.248780  0.973860  1.0  0.1747
  S  S240  1  0.973860  0.528580  0.248780  1.0  0.1789
  S  S241  1  0.751220  0.471420  0.751220  1.0  0.1767
  S  S242  1  0.471420  0.751220  0.026140  1.0  0.1731
  S  S243  1  0.026140  0.751220  0.471420  1.0  0.1795
  S  S244  1  0.751220  0.026140  0.751220  1.0  0.1773
  S  S245  1  0.751220  0.471420  0.026140  1.0  0.1786
  S  S246  1  0.026140  0.751220  0.751220  1.0  0.178
  S  S247  1  0.471420  0.751220  0.751220  1.0  0.1723
  S  S248  1  0.751220  0.026140  0.471420  1.0  0.1797
  S  S249  1  0.026140  0.471420  0.751220  1.0  0.1768
  S  S250  1  0.751220  0.751220  0.471420  1.0  0.1755
  S  S251  1  0.751220  0.751220  0.026140  1.0  0.1735
  S  S252  1  0.471420  0.026140  0.751220  1.0  0.1726
  O  O253  1  0.596270  0.335290  0.082710  1.0  -0.6079
  O  O254  1  0.509700  0.362180  0.152780  1.0  -0.6247
  O  O255  1  0.335290  0.596270  0.985730  1.0  -0.6104
  O  O256  1  0.362180  0.509700  0.975340  1.0  -0.6242
  O  O257  1  0.082710  0.985730  0.596270  1.0  -0.6051
  O  O258  1  0.152780  0.975340  0.509700  1.0  -0.6251
  O  O259  1  0.985730  0.082710  0.335290  1.0  -0.6055
  O  O260  1  0.975340  0.152780  0.362180  1.0  -0.6215
  O  O261  1  0.596270  0.082710  0.985730  1.0  -0.6085
  O  O262  1  0.509700  0.152780  0.975340  1.0  -0.6272
  O  O263  1  0.335290  0.985730  0.082710  1.0  -0.6066
  O  O264  1  0.362180  0.975340  0.152780  1.0  -0.6268
  O  O265  1  0.082710  0.596270  0.335290  1.0  -0.6062
  O  O266  1  0.152780  0.509700  0.362180  1.0  -0.6238
  O  O267  1  0.985730  0.335290  0.596270  1.0  -0.6048
  O  O268  1  0.975340  0.362180  0.509700  1.0  -0.6292
  O  O269  1  0.596270  0.985730  0.335290  1.0  -0.6086
  O  O270  1  0.509700  0.975340  0.362180  1.0  -0.6258
  O  O271  1  0.335290  0.082710  0.596270  1.0  -0.6072
  O  O272  1  0.362180  0.152780  0.509700  1.0  -0.6274
  O  O273  1  0.082710  0.335290  0.985730  1.0  -0.6057
  O  O274  1  0.152780  0.362180  0.975340  1.0  -0.6248
  O  O275  1  0.985730  0.596270  0.082710  1.0  -0.6067
  O  O276  1  0.975340  0.509700  0.152780  1.0  -0.6224
  O  O277  1  0.664710  0.403730  0.917290  1.0  -0.6111
  O  O278  1  0.637820  0.490300  0.847220  1.0  -0.6247
  O  O279  1  0.403730  0.664710  0.014270  1.0  -0.6066
  O  O280  1  0.490300  0.637820  0.024660  1.0  -0.626
  O  O281  1  0.014270  0.917290  0.403730  1.0  -0.6061
  O  O282  1  0.024660  0.847220  0.490300  1.0  -0.6223
  O  O283  1  0.917290  0.014270  0.664710  1.0  -0.6069
  O  O284  1  0.847220  0.024660  0.637820  1.0  -0.6256
  O  O285  1  0.917290  0.403730  0.014270  1.0  -0.6083
  O  O286  1  0.847220  0.490300  0.024660  1.0  -0.623
  O  O287  1  0.014270  0.664710  0.917290  1.0  -0.6053
  O  O288  1  0.024660  0.637820  0.847220  1.0  -0.6303
  O  O289  1  0.403730  0.917290  0.664710  1.0  -0.6076
  O  O290  1  0.490300  0.847220  0.637820  1.0  -0.6269
  O  O291  1  0.664710  0.014270  0.403730  1.0  -0.6056
  O  O292  1  0.637820  0.024660  0.490300  1.0  -0.6264
  O  O293  1  0.014270  0.403730  0.664710  1.0  -0.6079
  O  O294  1  0.024660  0.490300  0.637820  1.0  -0.6208
  O  O295  1  0.917290  0.664710  0.403730  1.0  -0.6073
  O  O296  1  0.847220  0.637820  0.490300  1.0  -0.6248
  O  O297  1  0.664710  0.917290  0.014270  1.0  -0.6068
  O  O298  1  0.637820  0.847220  0.024660  1.0  -0.6278
  O  O299  1  0.403730  0.014270  0.917290  1.0  -0.6079
  O  O300  1  0.490300  0.024660  0.847220  1.0  -0.6262
  O  O301  1  0.403730  0.664710  0.917290  1.0  -0.607
  O  O302  1  0.490300  0.637820  0.847220  1.0  -0.6279
  O  O303  1  0.664710  0.403730  0.014270  1.0  -0.6106
  O  O304  1  0.637820  0.490300  0.024660  1.0  -0.6223
  O  O305  1  0.917290  0.014270  0.403730  1.0  -0.6066
  O  O306  1  0.847220  0.024660  0.490300  1.0  -0.6233
  O  O307  1  0.014270  0.917290  0.664710  1.0  -0.6058
  O  O308  1  0.024660  0.847220  0.637820  1.0  -0.6244
  O  O309  1  0.403730  0.917290  0.014270  1.0  -0.6075
  O  O310  1  0.490300  0.847220  0.024660  1.0  -0.6259
  O  O311  1  0.664710  0.014270  0.917290  1.0  -0.6052
  O  O312  1  0.637820  0.024660  0.847220  1.0  -0.6284
  O  O313  1  0.917290  0.403730  0.664710  1.0  -0.6084
  O  O314  1  0.847220  0.490300  0.637820  1.0  -0.6237
  O  O315  1  0.014270  0.664710  0.403730  1.0  -0.6056
  O  O316  1  0.024660  0.637820  0.490300  1.0  -0.6275
  O  O317  1  0.403730  0.014270  0.664710  1.0  -0.6068
  O  O318  1  0.490300  0.024660  0.637820  1.0  -0.6266
  O  O319  1  0.664710  0.917290  0.403730  1.0  -0.6071
  O  O320  1  0.637820  0.847220  0.490300  1.0  -0.6262
  O  O321  1  0.917290  0.664710  0.014270  1.0  -0.6074
  O  O322  1  0.847220  0.637820  0.024660  1.0  -0.6269
  O  O323  1  0.014270  0.403730  0.917290  1.0  -0.6088
  O  O324  1  0.024660  0.490300  0.847220  1.0  -0.6213
  O  O325  1  0.335290  0.596270  0.082710  1.0  -0.6103
  O  O326  1  0.362180  0.509700  0.152780  1.0  -0.6239
  O  O327  1  0.596270  0.335290  0.985730  1.0  -0.6082
  O  O328  1  0.509700  0.362180  0.975340  1.0  -0.6257
  O  O329  1  0.985730  0.082710  0.596270  1.0  -0.6065
  O  O330  1  0.975340  0.152780  0.509700  1.0  -0.625
  O  O331  1  0.082710  0.985730  0.335290  1.0  -0.6053
  O  O332  1  0.152780  0.975340  0.362180  1.0  -0.6225
  O  O333  1  0.082710  0.596270  0.985730  1.0  -0.6065
  O  O334  1  0.152780  0.509700  0.975340  1.0  -0.6246
  O  O335  1  0.985730  0.335290  0.082710  1.0  -0.6061
  O  O336  1  0.975340  0.362180  0.152780  1.0  -0.6275
  O  O337  1  0.596270  0.082710  0.335290  1.0  -0.6082
  O  O338  1  0.509700  0.152780  0.362180  1.0  -0.626
  O  O339  1  0.335290  0.985730  0.596270  1.0  -0.6054
  O  O340  1  0.362180  0.975340  0.509700  1.0  -0.6274
  O  O341  1  0.985730  0.596270  0.335290  1.0  -0.6078
  O  O342  1  0.975340  0.509700  0.362180  1.0  -0.6228
  O  O343  1  0.082710  0.335290  0.596270  1.0  -0.6052
  O  O344  1  0.152780  0.362180  0.509700  1.0  -0.6256
  O  O345  1  0.335290  0.082710  0.985730  1.0  -0.6064
  O  O346  1  0.362180  0.152780  0.975340  1.0  -0.6259
  O  O347  1  0.596270  0.985730  0.082710  1.0  -0.6078
  O  O348  1  0.509700  0.975340  0.152780  1.0  -0.6256
  O  O349  1  0.498540  0.411860  0.044800  1.0  -1.1924
  O  O350  1  0.411860  0.498540  0.044800  1.0  -1.1933
  O  O351  1  0.044800  0.044800  0.498540  1.0  -1.1897
  O  O352  1  0.044800  0.044800  0.411860  1.0  -1.1907
  O  O353  1  0.498540  0.044800  0.044800  1.0  -1.1883
  O  O354  1  0.411860  0.044800  0.044800  1.0  -1.1888
  O  O355  1  0.044800  0.498540  0.411860  1.0  -1.19
  O  O356  1  0.044800  0.411860  0.498540  1.0  -1.1896
  O  O357  1  0.498540  0.044800  0.411860  1.0  -1.1894
  O  O358  1  0.411860  0.044800  0.498540  1.0  -1.1888
  O  O359  1  0.044800  0.411860  0.044800  1.0  -1.188
  O  O360  1  0.044800  0.498540  0.044800  1.0  -1.1882
  O  O361  1  0.588140  0.501460  0.955200  1.0  -1.1906
  O  O362  1  0.501460  0.588140  0.955200  1.0  -1.1903
  O  O363  1  0.955200  0.955200  0.501460  1.0  -1.1923
  O  O364  1  0.955200  0.955200  0.588140  1.0  -1.1921
  O  O365  1  0.955200  0.501460  0.955200  1.0  -1.1893
  O  O366  1  0.955200  0.588140  0.955200  1.0  -1.1885
  O  O367  1  0.501460  0.955200  0.588140  1.0  -1.1879
  O  O368  1  0.588140  0.955200  0.501460  1.0  -1.1879
  O  O369  1  0.955200  0.501460  0.588140  1.0  -1.1882
  O  O370  1  0.955200  0.588140  0.501460  1.0  -1.1886
  O  O371  1  0.588140  0.955200  0.955200  1.0  -1.1893
  O  O372  1  0.501460  0.955200  0.955200  1.0  -1.1898
  O  O373  1  0.456540  0.543460  0.936260  1.0  -1.1393
  O  O374  1  0.543460  0.456540  0.063740  1.0  -1.1299
  O  O375  1  0.936260  0.063740  0.456540  1.0  -1.1397
  O  O376  1  0.063740  0.936260  0.543460  1.0  -1.1391
  O  O377  1  0.456540  0.936260  0.063740  1.0  -1.1364
  O  O378  1  0.543460  0.063740  0.936260  1.0  -1.1368
  O  O379  1  0.936260  0.456540  0.543460  1.0  -1.1358
  O  O380  1  0.063740  0.543460  0.456540  1.0  -1.1331
  O  O381  1  0.456540  0.063740  0.543460  1.0  -1.1354
  O  O382  1  0.543460  0.936260  0.456540  1.0  -1.136
  O  O383  1  0.936260  0.543460  0.063740  1.0  -1.135
  O  O384  1  0.063740  0.456540  0.936260  1.0  -1.1336
  O  O385  1  0.456540  0.543460  0.063740  1.0  -1.1299
  O  O386  1  0.543460  0.456540  0.936260  1.0  -1.1391
  O  O387  1  0.936260  0.063740  0.543460  1.0  -1.1392
  O  O388  1  0.063740  0.936260  0.456540  1.0  -1.1391
  O  O389  1  0.063740  0.543460  0.936260  1.0  -1.1336
  O  O390  1  0.936260  0.456540  0.063740  1.0  -1.1348
  O  O391  1  0.543460  0.063740  0.456540  1.0  -1.1355
  O  O392  1  0.456540  0.936260  0.543460  1.0  -1.1358
  O  O393  1  0.936260  0.543460  0.456540  1.0  -1.1362
  O  O394  1  0.063740  0.456540  0.543460  1.0  -1.1335
  O  O395  1  0.456540  0.063740  0.936260  1.0  -1.137
  O  O396  1  0.543460  0.936260  0.063740  1.0  -1.1365
