# generated using pymatgen
data_Zr3H4C12(SO6)2
_symmetry_space_group_name_H-M   'P 1'
_cell_length_a   27.65490000
_cell_length_b   27.65490000
_cell_length_c   27.65490000
_cell_angle_alpha   60.00000000
_cell_angle_beta   60.00000000
_cell_angle_gamma   60.00000000
_symmetry_Int_Tables_number   1
_chemical_formula_structural   Zr3H4C12(SO6)2
_chemical_formula_sum   'Zr36 H48 C144 S24 O144'
_cell_volume   14955.51178424
_cell_formula_units_Z   12
loop_
 _symmetry_equiv_pos_site_id
 _symmetry_equiv_pos_as_xyz
  1  'x, y, z'
loop_
 _atom_site_type_symbol
 _atom_site_label
 _atom_site_symmetry_multiplicity
 _atom_site_fract_x
 _atom_site_fract_y
 _atom_site_fract_z
 _atom_site_occupancy
 _atom_site_charge
  Zr  Zr1  1  0.454700  0.454690  0.981780  1.0  2.0751
  Zr  Zr2  1  0.454700  0.454690  0.108830  1.0  2.0776
  Zr  Zr3  1  0.981790  0.108830  0.454690  1.0  2.0758
  Zr  Zr4  1  0.108840  0.981780  0.454690  1.0  2.0574
  Zr  Zr5  1  0.454700  0.981780  0.108830  1.0  2.0773
  Zr  Zr6  1  0.454700  0.108830  0.981780  1.0  2.075
  Zr  Zr7  1  0.981790  0.454690  0.454690  1.0  2.0759
  Zr  Zr8  1  0.108840  0.454690  0.454690  1.0  2.0572
  Zr  Zr9  1  0.454700  0.108830  0.454690  1.0  2.0743
  Zr  Zr10  1  0.454700  0.981780  0.454690  1.0  2.0758
  Zr  Zr11  1  0.981790  0.454690  0.108830  1.0  2.0773
  Zr  Zr12  1  0.108840  0.454690  0.981780  1.0  2.0579
  Zr  Zr13  1  0.545300  0.545310  0.018220  1.0  2.0786
  Zr  Zr14  1  0.545300  0.545310  0.891170  1.0  2.0755
  Zr  Zr15  1  0.891160  0.018220  0.545310  1.0  2.0777
  Zr  Zr16  1  0.018210  0.891170  0.545310  1.0  2.0611
  Zr  Zr17  1  0.018210  0.545310  0.891170  1.0  2.078
  Zr  Zr18  1  0.891160  0.545310  0.018220  1.0  2.0763
  Zr  Zr19  1  0.545300  0.018220  0.545310  1.0  2.0774
  Zr  Zr20  1  0.545300  0.891170  0.545310  1.0  2.0609
  Zr  Zr21  1  0.891160  0.545310  0.545310  1.0  2.0769
  Zr  Zr22  1  0.018210  0.545310  0.545310  1.0  2.0801
  Zr  Zr23  1  0.545300  0.018220  0.891170  1.0  2.0763
  Zr  Zr24  1  0.545300  0.891170  0.018220  1.0  2.0605
  Zr  Zr25  1  0.589340  0.410660  0.000000  1.0  2.1321
  Zr  Zr26  1  0.410660  0.589340  0.000000  1.0  2.1277
  Zr  Zr27  1  0.000000  0.000000  0.589340  1.0  2.1387
  Zr  Zr28  1  0.000000  0.000000  0.410660  1.0  2.1384
  Zr  Zr29  1  0.589340  0.000000  0.000000  1.0  2.1346
  Zr  Zr30  1  0.410660  0.000000  0.000000  1.0  2.1342
  Zr  Zr31  1  0.000000  0.589340  0.410660  1.0  2.1331
  Zr  Zr32  1  0.000000  0.410660  0.589340  1.0  2.138
  Zr  Zr33  1  0.589340  0.000000  0.410660  1.0  2.134
  Zr  Zr34  1  0.410660  0.000000  0.589340  1.0  2.1351
  Zr  Zr35  1  0.000000  0.410660  0.000000  1.0  2.1375
  Zr  Zr36  1  0.000000  0.589340  0.000000  1.0  2.1336
  H  H37  1  0.656000  0.221000  0.132600  1.0  0.1279
  H  H38  1  0.221000  0.656000  0.990400  1.0  0.1282
  H  H39  1  0.132600  0.990400  0.656000  1.0  0.1274
  H  H40  1  0.990400  0.132600  0.221000  1.0  0.1277
  H  H41  1  0.656000  0.132600  0.990400  1.0  0.1284
  H  H42  1  0.221000  0.990400  0.132600  1.0  0.1272
  H  H43  1  0.132600  0.656000  0.221000  1.0  0.1288
  H  H44  1  0.990400  0.221000  0.656000  1.0  0.1273
  H  H45  1  0.656000  0.990400  0.221000  1.0  0.1275
  H  H46  1  0.221000  0.132600  0.656000  1.0  0.128
  H  H47  1  0.132600  0.221000  0.990400  1.0  0.1273
  H  H48  1  0.990400  0.656000  0.132600  1.0  0.1286
  H  H49  1  0.779000  0.344000  0.867400  1.0  0.1287
  H  H50  1  0.344000  0.779000  0.009600  1.0  0.1271
  H  H51  1  0.009600  0.867400  0.344000  1.0  0.1283
  H  H52  1  0.867400  0.009600  0.779000  1.0  0.1281
  H  H53  1  0.867400  0.344000  0.009600  1.0  0.1289
  H  H54  1  0.009600  0.779000  0.867400  1.0  0.1267
  H  H55  1  0.344000  0.867400  0.779000  1.0  0.1279
  H  H56  1  0.779000  0.009600  0.344000  1.0  0.1274
  H  H57  1  0.009600  0.344000  0.779000  1.0  0.1285
  H  H58  1  0.867400  0.779000  0.344000  1.0  0.128
  H  H59  1  0.779000  0.867400  0.009600  1.0  0.1277
  H  H60  1  0.344000  0.009600  0.867400  1.0  0.1272
  H  H61  1  0.344000  0.779000  0.867400  1.0  0.1268
  H  H62  1  0.779000  0.344000  0.009600  1.0  0.1286
  H  H63  1  0.867400  0.009600  0.344000  1.0  0.1282
  H  H64  1  0.009600  0.867400  0.779000  1.0  0.1286
  H  H65  1  0.344000  0.867400  0.009600  1.0  0.1278
  H  H66  1  0.779000  0.009600  0.867400  1.0  0.127
  H  H67  1  0.867400  0.344000  0.779000  1.0  0.1289
  H  H68  1  0.009600  0.779000  0.344000  1.0  0.127
  H  H69  1  0.344000  0.009600  0.779000  1.0  0.1272
  H  H70  1  0.779000  0.867400  0.344000  1.0  0.1281
  H  H71  1  0.867400  0.779000  0.009600  1.0  0.1276
  H  H72  1  0.009600  0.344000  0.867400  1.0  0.1285
  H  H73  1  0.221000  0.656000  0.132600  1.0  0.1286
  H  H74  1  0.656000  0.221000  0.990400  1.0  0.1276
  H  H75  1  0.990400  0.132600  0.656000  1.0  0.1283
  H  H76  1  0.132600  0.990400  0.221000  1.0  0.127
  H  H77  1  0.132600  0.656000  0.990400  1.0  0.1289
  H  H78  1  0.990400  0.221000  0.132600  1.0  0.1271
  H  H79  1  0.656000  0.132600  0.221000  1.0  0.1285
  H  H80  1  0.221000  0.990400  0.656000  1.0  0.127
  H  H81  1  0.990400  0.656000  0.221000  1.0  0.1283
  H  H82  1  0.132600  0.221000  0.656000  1.0  0.1273
  H  H83  1  0.221000  0.132600  0.990400  1.0  0.1277
  H  H84  1  0.656000  0.990400  0.132600  1.0  0.1277
  C  C85  1  0.558790  0.326290  0.134630  1.0  0.7669
  C  C86  1  0.575290  0.266290  0.177990  1.0  -0.1534
  C  C87  1  0.625200  0.219600  0.168600  1.0  -0.0547
  C  C88  1  0.326290  0.558790  0.980290  1.0  0.7658
  C  C89  1  0.266290  0.575290  0.980430  1.0  -0.1553
  C  C90  1  0.219600  0.625200  0.986600  1.0  -0.0568
  C  C91  1  0.134630  0.980290  0.558790  1.0  0.7687
  C  C92  1  0.177990  0.980430  0.575290  1.0  -0.1563
  C  C93  1  0.168600  0.986600  0.625200  1.0  -0.0544
  C  C94  1  0.980290  0.134630  0.326290  1.0  0.7687
  C  C95  1  0.980430  0.177990  0.266290  1.0  -0.1564
  C  C96  1  0.986600  0.168600  0.219600  1.0  -0.0571
  C  C97  1  0.558790  0.134630  0.980290  1.0  0.7677
  C  C98  1  0.575290  0.177990  0.980430  1.0  -0.155
  C  C99  1  0.625200  0.168600  0.986600  1.0  -0.0545
  C  C100  1  0.326290  0.980290  0.134630  1.0  0.7666
  C  C101  1  0.266290  0.980430  0.177990  1.0  -0.1537
  C  C102  1  0.219600  0.986600  0.168600  1.0  -0.0527
  C  C103  1  0.134630  0.558790  0.326290  1.0  0.7696
  C  C104  1  0.177990  0.575290  0.266290  1.0  -0.1552
  C  C105  1  0.168600  0.625200  0.219600  1.0  -0.0568
  C  C106  1  0.980290  0.326290  0.558790  1.0  0.7671
  C  C107  1  0.980430  0.266290  0.575290  1.0  -0.1551
  C  C108  1  0.986600  0.219600  0.625200  1.0  -0.0526
  C  C109  1  0.558790  0.980290  0.326290  1.0  0.7679
  C  C110  1  0.575290  0.980430  0.266290  1.0  -0.1531
  C  C111  1  0.625200  0.986600  0.219600  1.0  -0.0531
  C  C112  1  0.326290  0.134630  0.558790  1.0  0.7669
  C  C113  1  0.266290  0.177990  0.575290  1.0  -0.1551
  C  C114  1  0.219600  0.168600  0.625200  1.0  -0.0562
  C  C115  1  0.134630  0.326290  0.980290  1.0  0.7684
  C  C116  1  0.177990  0.266290  0.980430  1.0  -0.1543
  C  C117  1  0.168600  0.219600  0.986600  1.0  -0.0546
  C  C118  1  0.980290  0.558790  0.134630  1.0  0.767
  C  C119  1  0.980430  0.575290  0.177990  1.0  -0.153
  C  C120  1  0.986600  0.625200  0.168600  1.0  -0.0554
  C  C121  1  0.673710  0.441210  0.865370  1.0  0.7668
  C  C122  1  0.733710  0.424710  0.822010  1.0  -0.1548
  C  C123  1  0.780400  0.374800  0.831400  1.0  -0.0548
  C  C124  1  0.441210  0.673710  0.019710  1.0  0.7678
  C  C125  1  0.424710  0.733710  0.019570  1.0  -0.1557
  C  C126  1  0.374800  0.780400  0.013400  1.0  -0.0537
  C  C127  1  0.019710  0.865370  0.441210  1.0  0.768
  C  C128  1  0.019570  0.822010  0.424710  1.0  -0.1562
  C  C129  1  0.013400  0.831400  0.374800  1.0  -0.0577
  C  C130  1  0.865370  0.019710  0.673710  1.0  0.7668
  C  C131  1  0.822010  0.019570  0.733710  1.0  -0.1556
  C  C132  1  0.831400  0.013400  0.780400  1.0  -0.0558
  C  C133  1  0.865370  0.441210  0.019710  1.0  0.7679
  C  C134  1  0.822010  0.424710  0.019570  1.0  -0.1537
  C  C135  1  0.831400  0.374800  0.013400  1.0  -0.0556
  C  C136  1  0.019710  0.673710  0.865370  1.0  0.7679
  C  C137  1  0.019570  0.733710  0.822010  1.0  -0.1575
  C  C138  1  0.013400  0.780400  0.831400  1.0  -0.0529
  C  C139  1  0.441210  0.865370  0.673710  1.0  0.7673
  C  C140  1  0.424710  0.822010  0.733710  1.0  -0.1553
  C  C141  1  0.374800  0.831400  0.780400  1.0  -0.0555
  C  C142  1  0.673710  0.019710  0.441210  1.0  0.7669
  C  C143  1  0.733710  0.019570  0.424710  1.0  -0.1539
  C  C144  1  0.780400  0.013400  0.374800  1.0  -0.053
  C  C145  1  0.019710  0.441210  0.673710  1.0  0.768
  C  C146  1  0.019570  0.424710  0.733710  1.0  -0.154
  C  C147  1  0.013400  0.374800  0.780400  1.0  -0.0536
  C  C148  1  0.865370  0.673710  0.441210  1.0  0.7667
  C  C149  1  0.822010  0.733710  0.424710  1.0  -0.1529
  C  C150  1  0.831400  0.780400  0.374800  1.0  -0.056
  C  C151  1  0.673710  0.865370  0.019710  1.0  0.7674
  C  C152  1  0.733710  0.822010  0.019570  1.0  -0.1539
  C  C153  1  0.780400  0.831400  0.013400  1.0  -0.0568
  C  C154  1  0.441210  0.019710  0.865370  1.0  0.7686
  C  C155  1  0.424710  0.019570  0.822010  1.0  -0.1558
  C  C156  1  0.374800  0.013400  0.831400  1.0  -0.0525
  C  C157  1  0.441210  0.673710  0.865370  1.0  0.767
  C  C158  1  0.424710  0.733710  0.822010  1.0  -0.1551
  C  C159  1  0.374800  0.780400  0.831400  1.0  -0.0531
  C  C160  1  0.673710  0.441210  0.019710  1.0  0.7673
  C  C161  1  0.733710  0.424710  0.019570  1.0  -0.1539
  C  C162  1  0.780400  0.374800  0.013400  1.0  -0.0561
  C  C163  1  0.865370  0.019710  0.441210  1.0  0.7677
  C  C164  1  0.822010  0.019570  0.424710  1.0  -0.1536
  C  C165  1  0.831400  0.013400  0.374800  1.0  -0.0564
  C  C166  1  0.019710  0.865370  0.673710  1.0  0.7673
  C  C167  1  0.019570  0.822010  0.733710  1.0  -0.1575
  C  C168  1  0.013400  0.831400  0.780400  1.0  -0.0568
  C  C169  1  0.441210  0.865370  0.019710  1.0  0.7677
  C  C170  1  0.424710  0.822010  0.019570  1.0  -0.1538
  C  C171  1  0.374800  0.831400  0.013400  1.0  -0.0556
  C  C172  1  0.673710  0.019710  0.865370  1.0  0.7668
  C  C173  1  0.733710  0.019570  0.822010  1.0  -0.1541
  C  C174  1  0.780400  0.013400  0.831400  1.0  -0.053
  C  C175  1  0.865370  0.441210  0.673710  1.0  0.767
  C  C176  1  0.822010  0.424710  0.733710  1.0  -0.1532
  C  C177  1  0.831400  0.374800  0.780400  1.0  -0.0555
  C  C178  1  0.019710  0.673710  0.441210  1.0  0.7681
  C  C179  1  0.019570  0.733710  0.424710  1.0  -0.156
  C  C180  1  0.013400  0.780400  0.374800  1.0  -0.0532
  C  C181  1  0.441210  0.019710  0.673710  1.0  0.7677
  C  C182  1  0.424710  0.019570  0.733710  1.0  -0.1547
  C  C183  1  0.374800  0.013400  0.780400  1.0  -0.0524
  C  C184  1  0.673710  0.865370  0.441210  1.0  0.7674
  C  C185  1  0.733710  0.822010  0.424710  1.0  -0.1527
  C  C186  1  0.780400  0.831400  0.374800  1.0  -0.0572
  C  C187  1  0.865370  0.673710  0.019710  1.0  0.7666
  C  C188  1  0.822010  0.733710  0.019570  1.0  -0.1529
  C  C189  1  0.831400  0.780400  0.013400  1.0  -0.0557
  C  C190  1  0.019710  0.441210  0.865370  1.0  0.7687
  C  C191  1  0.019570  0.424710  0.822010  1.0  -0.1537
  C  C192  1  0.013400  0.374800  0.831400  1.0  -0.0539
  C  C193  1  0.326290  0.558790  0.134630  1.0  0.7667
  C  C194  1  0.266290  0.575290  0.177990  1.0  -0.1542
  C  C195  1  0.219600  0.625200  0.168600  1.0  -0.0572
  C  C196  1  0.558790  0.326290  0.980290  1.0  0.7667
  C  C197  1  0.575290  0.266290  0.980430  1.0  -0.1531
  C  C198  1  0.625200  0.219600  0.986600  1.0  -0.0534
  C  C199  1  0.980290  0.134630  0.558790  1.0  0.7678
  C  C200  1  0.980430  0.177990  0.575290  1.0  -0.1564
  C  C201  1  0.986600  0.168600  0.625200  1.0  -0.057
  C  C202  1  0.134630  0.980290  0.326290  1.0  0.7695
  C  C203  1  0.177990  0.980430  0.266290  1.0  -0.154
  C  C204  1  0.168600  0.986600  0.219600  1.0  -0.0555
  C  C205  1  0.134630  0.558790  0.980290  1.0  0.7691
  C  C206  1  0.177990  0.575290  0.980430  1.0  -0.1551
  C  C207  1  0.168600  0.625200  0.986600  1.0  -0.057
  C  C208  1  0.980290  0.326290  0.134630  1.0  0.7669
  C  C209  1  0.980430  0.266290  0.177990  1.0  -0.1543
  C  C210  1  0.986600  0.219600  0.168600  1.0  -0.0527
  C  C211  1  0.558790  0.134630  0.326290  1.0  0.7683
  C  C212  1  0.575290  0.177990  0.266290  1.0  -0.1542
  C  C213  1  0.625200  0.168600  0.219600  1.0  -0.0544
  C  C214  1  0.326290  0.980290  0.558790  1.0  0.7663
  C  C215  1  0.266290  0.980430  0.575290  1.0  -0.1537
  C  C216  1  0.219600  0.986600  0.625200  1.0  -0.0523
  C  C217  1  0.980290  0.558790  0.326290  1.0  0.7672
  C  C218  1  0.980430  0.575290  0.266290  1.0  -0.1526
  C  C219  1  0.986600  0.625200  0.219600  1.0  -0.0555
  C  C220  1  0.134630  0.326290  0.558790  1.0  0.7683
  C  C221  1  0.177990  0.266290  0.575290  1.0  -0.1536
  C  C222  1  0.168600  0.219600  0.625200  1.0  -0.0544
  C  C223  1  0.326290  0.134630  0.980290  1.0  0.767
  C  C224  1  0.266290  0.177990  0.980430  1.0  -0.1543
  C  C225  1  0.219600  0.168600  0.986600  1.0  -0.0558
  C  C226  1  0.558790  0.980290  0.134630  1.0  0.7675
  C  C227  1  0.575290  0.980430  0.177990  1.0  -0.152
  C  C228  1  0.625200  0.986600  0.168600  1.0  -0.0531
  S  S229  1  0.527680  0.248680  0.248680  1.0  0.1758
  S  S230  1  0.248680  0.527680  0.974960  1.0  0.1777
  S  S231  1  0.248680  0.974960  0.527680  1.0  0.1747
  S  S232  1  0.974960  0.248680  0.248680  1.0  0.1816
  S  S233  1  0.527680  0.248680  0.974960  1.0  0.1744
  S  S234  1  0.248680  0.974960  0.248680  1.0  0.1781
  S  S235  1  0.248680  0.527680  0.248680  1.0  0.1774
  S  S236  1  0.974960  0.248680  0.527680  1.0  0.1768
  S  S237  1  0.527680  0.974960  0.248680  1.0  0.1762
  S  S238  1  0.248680  0.248680  0.527680  1.0  0.1715
  S  S239  1  0.248680  0.248680  0.974960  1.0  0.1733
  S  S240  1  0.974960  0.527680  0.248680  1.0  0.1781
  S  S241  1  0.751320  0.472320  0.751320  1.0  0.176
  S  S242  1  0.472320  0.751320  0.025040  1.0  0.1721
  S  S243  1  0.025040  0.751320  0.472320  1.0  0.1792
  S  S244  1  0.751320  0.025040  0.751320  1.0  0.177
  S  S245  1  0.751320  0.472320  0.025040  1.0  0.1781
  S  S246  1  0.025040  0.751320  0.751320  1.0  0.1776
  S  S247  1  0.472320  0.751320  0.751320  1.0  0.1712
  S  S248  1  0.751320  0.025040  0.472320  1.0  0.1792
  S  S249  1  0.025040  0.472320  0.751320  1.0  0.176
  S  S250  1  0.751320  0.751320  0.472320  1.0  0.1748
  S  S251  1  0.751320  0.751320  0.025040  1.0  0.173
  S  S252  1  0.472320  0.025040  0.751320  1.0  0.1714
  O  O253  1  0.596000  0.335400  0.082960  1.0  -0.6047
  O  O254  1  0.508960  0.362180  0.152880  1.0  -0.6274
  O  O255  1  0.335400  0.596000  0.985640  1.0  -0.607
  O  O256  1  0.362180  0.508960  0.975980  1.0  -0.6276
  O  O257  1  0.082960  0.985640  0.596000  1.0  -0.601
  O  O258  1  0.152880  0.975980  0.508960  1.0  -0.6284
  O  O259  1  0.985640  0.082960  0.335400  1.0  -0.6015
  O  O260  1  0.975980  0.152880  0.362180  1.0  -0.6248
  O  O261  1  0.596000  0.082960  0.985640  1.0  -0.6041
  O  O262  1  0.508960  0.152880  0.975980  1.0  -0.6305
  O  O263  1  0.335400  0.985640  0.082960  1.0  -0.6023
  O  O264  1  0.362180  0.975980  0.152880  1.0  -0.6301
  O  O265  1  0.082960  0.596000  0.335400  1.0  -0.6021
  O  O266  1  0.152880  0.508960  0.362180  1.0  -0.6268
  O  O267  1  0.985640  0.335400  0.596000  1.0  -0.601
  O  O268  1  0.975980  0.362180  0.508960  1.0  -0.6328
  O  O269  1  0.596000  0.985640  0.335400  1.0  -0.6046
  O  O270  1  0.508960  0.975980  0.362180  1.0  -0.6298
  O  O271  1  0.335400  0.082960  0.596000  1.0  -0.6037
  O  O272  1  0.362180  0.152880  0.508960  1.0  -0.6308
  O  O273  1  0.082960  0.335400  0.985640  1.0  -0.6013
  O  O274  1  0.152880  0.362180  0.975980  1.0  -0.6282
  O  O275  1  0.985640  0.596000  0.082960  1.0  -0.6036
  O  O276  1  0.975980  0.508960  0.152880  1.0  -0.6248
  O  O277  1  0.664600  0.404000  0.917040  1.0  -0.607
  O  O278  1  0.637820  0.491040  0.847120  1.0  -0.6282
  O  O279  1  0.404000  0.664600  0.014360  1.0  -0.6033
  O  O280  1  0.491040  0.637820  0.024020  1.0  -0.6291
  O  O281  1  0.014360  0.917040  0.404000  1.0  -0.6016
  O  O282  1  0.024020  0.847120  0.491040  1.0  -0.6258
  O  O283  1  0.917040  0.014360  0.664600  1.0  -0.6034
  O  O284  1  0.847120  0.024020  0.637820  1.0  -0.6293
  O  O285  1  0.917040  0.404000  0.014360  1.0  -0.6048
  O  O286  1  0.847120  0.491040  0.024020  1.0  -0.6263
  O  O287  1  0.014360  0.664600  0.917040  1.0  -0.6003
  O  O288  1  0.024020  0.637820  0.847120  1.0  -0.6337
  O  O289  1  0.404000  0.917040  0.664600  1.0  -0.6041
  O  O290  1  0.491040  0.847120  0.637820  1.0  -0.6304
  O  O291  1  0.664600  0.014360  0.404000  1.0  -0.6012
  O  O292  1  0.637820  0.024020  0.491040  1.0  -0.6298
  O  O293  1  0.014360  0.404000  0.664600  1.0  -0.6052
  O  O294  1  0.024020  0.491040  0.637820  1.0  -0.624
  O  O295  1  0.917040  0.664600  0.404000  1.0  -0.6036
  O  O296  1  0.847120  0.637820  0.491040  1.0  -0.6283
  O  O297  1  0.664600  0.917040  0.014360  1.0  -0.603
  O  O298  1  0.637820  0.847120  0.024020  1.0  -0.6309
  O  O299  1  0.404000  0.014360  0.917040  1.0  -0.6044
  O  O300  1  0.491040  0.024020  0.847120  1.0  -0.63
  O  O301  1  0.404000  0.664600  0.917040  1.0  -0.6039
  O  O302  1  0.491040  0.637820  0.847120  1.0  -0.6319
  O  O303  1  0.664600  0.404000  0.014360  1.0  -0.6065
  O  O304  1  0.637820  0.491040  0.024020  1.0  -0.6252
  O  O305  1  0.917040  0.014360  0.404000  1.0  -0.6028
  O  O306  1  0.847120  0.024020  0.491040  1.0  -0.6269
  O  O307  1  0.014360  0.917040  0.664600  1.0  -0.6018
  O  O308  1  0.024020  0.847120  0.637820  1.0  -0.628
  O  O309  1  0.404000  0.917040  0.014360  1.0  -0.6041
  O  O310  1  0.491040  0.847120  0.024020  1.0  -0.6295
  O  O311  1  0.664600  0.014360  0.917040  1.0  -0.6006
  O  O312  1  0.637820  0.024020  0.847120  1.0  -0.6321
  O  O313  1  0.917040  0.404000  0.664600  1.0  -0.6048
  O  O314  1  0.847120  0.491040  0.637820  1.0  -0.6271
  O  O315  1  0.014360  0.664600  0.404000  1.0  -0.6008
  O  O316  1  0.024020  0.637820  0.491040  1.0  -0.6308
  O  O317  1  0.404000  0.014360  0.664600  1.0  -0.6038
  O  O318  1  0.491040  0.024020  0.637820  1.0  -0.6298
  O  O319  1  0.664600  0.917040  0.404000  1.0  -0.603
  O  O320  1  0.637820  0.847120  0.491040  1.0  -0.6294
  O  O321  1  0.917040  0.664600  0.014360  1.0  -0.6038
  O  O322  1  0.847120  0.637820  0.024020  1.0  -0.6304
  O  O323  1  0.014360  0.404000  0.917040  1.0  -0.6056
  O  O324  1  0.024020  0.491040  0.847120  1.0  -0.6249
  O  O325  1  0.335400  0.596000  0.082960  1.0  -0.6066
  O  O326  1  0.362180  0.508960  0.152880  1.0  -0.627
  O  O327  1  0.596000  0.335400  0.985640  1.0  -0.6051
  O  O328  1  0.508960  0.362180  0.975980  1.0  -0.6293
  O  O329  1  0.985640  0.082960  0.596000  1.0  -0.6029
  O  O330  1  0.975980  0.152880  0.508960  1.0  -0.6284
  O  O331  1  0.082960  0.985640  0.335400  1.0  -0.6006
  O  O332  1  0.152880  0.975980  0.362180  1.0  -0.626
  O  O333  1  0.082960  0.596000  0.985640  1.0  -0.6023
  O  O334  1  0.152880  0.508960  0.975980  1.0  -0.6278
  O  O335  1  0.985640  0.335400  0.082960  1.0  -0.6022
  O  O336  1  0.975980  0.362180  0.152880  1.0  -0.6307
  O  O337  1  0.596000  0.082960  0.335400  1.0  -0.604
  O  O338  1  0.508960  0.152880  0.362180  1.0  -0.6293
  O  O339  1  0.335400  0.985640  0.596000  1.0  -0.6012
  O  O340  1  0.362180  0.975980  0.508960  1.0  -0.6307
  O  O341  1  0.985640  0.596000  0.335400  1.0  -0.6042
  O  O342  1  0.975980  0.508960  0.362180  1.0  -0.6261
  O  O343  1  0.082960  0.335400  0.596000  1.0  -0.601
  O  O344  1  0.152880  0.362180  0.508960  1.0  -0.629
  O  O345  1  0.335400  0.082960  0.985640  1.0  -0.6027
  O  O346  1  0.362180  0.152880  0.975980  1.0  -0.6294
  O  O347  1  0.596000  0.985640  0.082960  1.0  -0.6047
  O  O348  1  0.508960  0.975980  0.152880  1.0  -0.6289
  O  O349  1  0.498700  0.413700  0.043800  1.0  -1.1744
  O  O350  1  0.413700  0.498700  0.043800  1.0  -1.1744
  O  O351  1  0.043800  0.043800  0.498700  1.0  -1.1714
  O  O352  1  0.043800  0.043800  0.413700  1.0  -1.1727
  O  O353  1  0.498700  0.043800  0.043800  1.0  -1.1699
  O  O354  1  0.413700  0.043800  0.043800  1.0  -1.1703
  O  O355  1  0.043800  0.498700  0.413700  1.0  -1.1692
  O  O356  1  0.043800  0.413700  0.498700  1.0  -1.1693
  O  O357  1  0.498700  0.043800  0.413700  1.0  -1.1713
  O  O358  1  0.413700  0.043800  0.498700  1.0  -1.1711
  O  O359  1  0.043800  0.413700  0.043800  1.0  -1.168
  O  O360  1  0.043800  0.498700  0.043800  1.0  -1.1677
  O  O361  1  0.586300  0.501300  0.956200  1.0  -1.1727
  O  O362  1  0.501300  0.586300  0.956200  1.0  -1.1727
  O  O363  1  0.956200  0.956200  0.501300  1.0  -1.174
  O  O364  1  0.956200  0.956200  0.586300  1.0  -1.1735
  O  O365  1  0.956200  0.501300  0.956200  1.0  -1.1712
  O  O366  1  0.956200  0.586300  0.956200  1.0  -1.1703
  O  O367  1  0.501300  0.956200  0.586300  1.0  -1.1679
  O  O368  1  0.586300  0.956200  0.501300  1.0  -1.168
  O  O369  1  0.956200  0.501300  0.586300  1.0  -1.1696
  O  O370  1  0.956200  0.586300  0.501300  1.0  -1.1699
  O  O371  1  0.586300  0.956200  0.956200  1.0  -1.1695
  O  O372  1  0.501300  0.956200  0.956200  1.0  -1.1695
  O  O373  1  0.456560  0.543440  0.936440  1.0  -1.0498
  O  O374  1  0.543440  0.456560  0.063560  1.0  -1.0433
  O  O375  1  0.936440  0.063560  0.456560  1.0  -1.0616
  O  O376  1  0.063560  0.936440  0.543440  1.0  -1.0594
  O  O377  1  0.456560  0.936440  0.063560  1.0  -1.049
  O  O378  1  0.543440  0.063560  0.936440  1.0  -1.0514
  O  O379  1  0.936440  0.456560  0.543440  1.0  -1.0559
  O  O380  1  0.063560  0.543440  0.456560  1.0  -1.055
  O  O381  1  0.456560  0.063560  0.543440  1.0  -1.0505
  O  O382  1  0.543440  0.936440  0.456560  1.0  -1.0484
  O  O383  1  0.936440  0.543440  0.063560  1.0  -1.0556
  O  O384  1  0.063560  0.456560  0.936440  1.0  -1.0554
  O  O385  1  0.456560  0.543440  0.063560  1.0  -1.0438
  O  O386  1  0.543440  0.456560  0.936440  1.0  -1.051
  O  O387  1  0.936440  0.063560  0.543440  1.0  -1.061
  O  O388  1  0.063560  0.936440  0.456560  1.0  -1.0591
  O  O389  1  0.063560  0.543440  0.936440  1.0  -1.055
  O  O390  1  0.936440  0.456560  0.063560  1.0  -1.0553
  O  O391  1  0.543440  0.063560  0.456560  1.0  -1.0508
  O  O392  1  0.456560  0.936440  0.543440  1.0  -1.0479
  O  O393  1  0.936440  0.543440  0.456560  1.0  -1.0572
  O  O394  1  0.063560  0.456560  0.543440  1.0  -1.0552
  O  O395  1  0.456560  0.063560  0.936440  1.0  -1.0515
  O  O396  1  0.543440  0.936440  0.063560  1.0  -1.049
