# generated using pymatgen
data_Cu2H20(C4N3)5
_symmetry_space_group_name_H-M   'P 1'
_cell_length_a   11.65310000
_cell_length_b   21.98750000
_cell_length_c   15.31040000
_cell_angle_alpha   90.00000000
_cell_angle_beta   110.02900000
_cell_angle_gamma   90.00000000
_symmetry_Int_Tables_number   1
_chemical_formula_structural   Cu2H20(C4N3)5
_chemical_formula_sum   'Cu8 H80 C80 N60'
_cell_volume   3685.61197156
_cell_formula_units_Z   4
loop_
 _symmetry_equiv_pos_site_id
 _symmetry_equiv_pos_as_xyz
  1  'x, y, z'
loop_
 _atom_site_type_symbol
 _atom_site_label
 _atom_site_symmetry_multiplicity
 _atom_site_fract_x
 _atom_site_fract_y
 _atom_site_fract_z
 _atom_site_occupancy
 _atom_site_charge
  Cu  Cu1  1  0.695150  0.165990  0.707220  1.0  0.5753
  Cu  Cu2  1  0.151210  0.192020  0.107250  1.0  0.6313
  Cu  Cu3  1  0.304850  0.665990  0.792780  1.0  0.5752
  Cu  Cu4  1  0.848790  0.692020  0.392750  1.0  0.6311
  Cu  Cu5  1  0.304850  0.834010  0.292780  1.0  0.5755
  Cu  Cu6  1  0.848790  0.807980  0.892750  1.0  0.6313
  Cu  Cu7  1  0.695150  0.334010  0.207220  1.0  0.5754
  Cu  Cu8  1  0.151210  0.307980  0.607250  1.0  0.6315
  H  H9  1  0.547900  0.121600  0.280300  1.0  0.0331
  H  H10  1  0.113300  0.208600  0.903100  1.0  0.1201
  H  H11  1  0.059100  0.088700  0.161300  1.0  0.142
  H  H12  1  0.103200  0.021800  0.157100  1.0  0.1413
  H  H13  1  0.095600  0.047700  0.250400  1.0  0.1394
  H  H14  1  0.676400  0.095200  0.850300  1.0  0.1395
  H  H15  1  0.712000  0.110300  0.956300  1.0  0.1418
  H  H16  1  0.761700  0.051000  0.924900  1.0  0.137
  H  H17  1  0.593800  0.213300  0.249100  1.0  0.1044
  H  H18  1  0.107400  0.240900  0.769500  1.0  0.0959
  H  H19  1  0.496000  0.075700  0.594100  1.0  0.0748
  H  H20  1  0.151200  0.312200  0.046000  1.0  0.1473
  H  H21  1  0.219700  0.370200  0.097900  1.0  0.1348
  H  H22  1  0.234500  0.349700  0.004200  1.0  0.1399
  H  H23  1  0.649400  0.203700  0.523700  1.0  0.1452
  H  H24  1  0.726300  0.195800  0.458200  1.0  0.1461
  H  H25  1  0.683600  0.260700  0.476300  1.0  0.145
  H  H26  1  0.857700  0.970000  0.501400  1.0  0.1401
  H  H27  1  0.933200  0.991600  0.602400  1.0  0.1383
  H  H28  1  0.909600  0.036400  0.518400  1.0  0.1245
  H  H29  1  0.452100  0.621600  0.219700  1.0  0.0322
  H  H30  1  0.886700  0.708600  0.596900  1.0  0.1204
  H  H31  1  0.940900  0.588700  0.338700  1.0  0.1415
  H  H32  1  0.896800  0.521800  0.342900  1.0  0.1416
  H  H33  1  0.904400  0.547700  0.249600  1.0  0.1389
  H  H34  1  0.323600  0.595200  0.649700  1.0  0.1386
  H  H35  1  0.288000  0.610300  0.543700  1.0  0.1433
  H  H36  1  0.238300  0.551000  0.575100  1.0  0.1381
  H  H37  1  0.406200  0.713300  0.250900  1.0  0.1044
  H  H38  1  0.892600  0.740900  0.730500  1.0  0.0954
  H  H39  1  0.504000  0.575700  0.905900  1.0  0.0744
  H  H40  1  0.848800  0.812200  0.454000  1.0  0.1467
  H  H41  1  0.780300  0.870200  0.402100  1.0  0.1347
  H  H42  1  0.765500  0.849700  0.495800  1.0  0.1412
  H  H43  1  0.350600  0.703700  0.976300  1.0  0.1452
  H  H44  1  0.273700  0.695800  0.041800  1.0  0.1455
  H  H45  1  0.316400  0.760700  0.023700  1.0  0.1437
  H  H46  1  0.142300  0.470000  0.998600  1.0  0.1389
  H  H47  1  0.066800  0.491600  0.897600  1.0  0.1387
  H  H48  1  0.090400  0.536400  0.981600  1.0  0.1233
  H  H49  1  0.452100  0.878400  0.719700  1.0  0.0326
  H  H50  1  0.886700  0.791400  0.096900  1.0  0.1205
  H  H51  1  0.940900  0.911300  0.838700  1.0  0.1423
  H  H52  1  0.896800  0.978200  0.842900  1.0  0.1416
  H  H53  1  0.904400  0.952300  0.749600  1.0  0.1386
  H  H54  1  0.323600  0.904800  0.149700  1.0  0.1388
  H  H55  1  0.288000  0.889700  0.043700  1.0  0.1429
  H  H56  1  0.238300  0.949000  0.075100  1.0  0.1391
  H  H57  1  0.406200  0.786700  0.750900  1.0  0.1047
  H  H58  1  0.892600  0.759100  0.230500  1.0  0.0955
  H  H59  1  0.504000  0.924300  0.405900  1.0  0.0742
  H  H60  1  0.848800  0.687800  0.954000  1.0  0.1462
  H  H61  1  0.780300  0.629800  0.902100  1.0  0.1345
  H  H62  1  0.765500  0.650300  0.995800  1.0  0.1416
  H  H63  1  0.350600  0.796300  0.476300  1.0  0.1452
  H  H64  1  0.273700  0.804200  0.541800  1.0  0.1452
  H  H65  1  0.316400  0.739300  0.523700  1.0  0.144
  H  H66  1  0.142300  0.030000  0.498600  1.0  0.138
  H  H67  1  0.066800  0.008400  0.397600  1.0  0.139
  H  H68  1  0.090400  0.963600  0.481600  1.0  0.1237
  H  H69  1  0.547900  0.378400  0.780300  1.0  0.0332
  H  H70  1  0.113300  0.291400  0.403100  1.0  0.12
  H  H71  1  0.059100  0.411300  0.661300  1.0  0.1426
  H  H72  1  0.103200  0.478200  0.657100  1.0  0.1424
  H  H73  1  0.095600  0.452300  0.750400  1.0  0.1393
  H  H74  1  0.676400  0.404800  0.350300  1.0  0.1396
  H  H75  1  0.712000  0.389700  0.456300  1.0  0.1418
  H  H76  1  0.761700  0.449000  0.424900  1.0  0.1391
  H  H77  1  0.593800  0.286700  0.749100  1.0  0.1048
  H  H78  1  0.107400  0.259100  0.269500  1.0  0.0962
  H  H79  1  0.496000  0.424300  0.094100  1.0  0.0749
  H  H80  1  0.151200  0.187800  0.546000  1.0  0.1464
  H  H81  1  0.219700  0.129800  0.597900  1.0  0.1352
  H  H82  1  0.234500  0.150300  0.504200  1.0  0.1406
  H  H83  1  0.649400  0.296300  0.023700  1.0  0.1453
  H  H84  1  0.726300  0.304200  0.958200  1.0  0.1459
  H  H85  1  0.683600  0.239300  0.976300  1.0  0.1437
  H  H86  1  0.857700  0.530000  0.001400  1.0  0.1399
  H  H87  1  0.933200  0.508400  0.102400  1.0  0.1383
  H  H88  1  0.909600  0.463600  0.018400  1.0  0.1235
  C  C89  1  0.384200  0.150100  0.218600  1.0  0.2184
  C  C90  1  0.941700  0.184600  0.826400  1.0  0.1707
  C  C91  1  0.466700  0.110600  0.267500  1.0  0.1918
  C  C92  1  0.044300  0.188000  0.904700  1.0  0.1296
  C  C93  1  0.241400  0.079100  0.221600  1.0  0.4249
  C  C94  1  0.848700  0.126800  0.906800  1.0  0.4224
  C  C95  1  0.113600  0.057400  0.195300  1.0  -0.4419
  C  C96  1  0.740100  0.092900  0.909800  1.0  -0.4881
  C  C97  1  0.411000  0.210600  0.189000  1.0  0.206
  C  C98  1  0.936000  0.211900  0.735200  1.0  0.1983
  C  C99  1  0.559400  0.015300  0.524600  1.0  0.1311
  C  C100  1  0.525600  0.235600  0.214200  1.0  0.1472
  C  C101  1  0.033200  0.238600  0.720700  1.0  0.1506
  C  C102  1  0.566500  0.062900  0.584100  1.0  0.1513
  C  C103  1  0.330900  0.297700  0.113100  1.0  0.3165
  C  C104  1  0.823800  0.229100  0.583200  1.0  0.3507
  C  C105  1  0.761100  0.025000  0.556500  1.0  0.4339
  C  C106  1  0.224700  0.335800  0.060700  1.0  -0.484
  C  C107  1  0.711100  0.221700  0.503500  1.0  -0.4882
  C  C108  1  0.875500  0.003900  0.543500  1.0  -0.4789
  C  C109  1  0.615800  0.650100  0.281400  1.0  0.2184
  C  C110  1  0.058300  0.684600  0.673600  1.0  0.1709
  C  C111  1  0.533300  0.610600  0.232500  1.0  0.1933
  C  C112  1  0.955700  0.688000  0.595300  1.0  0.1303
  C  C113  1  0.758600  0.579100  0.278400  1.0  0.4246
  C  C114  1  0.151300  0.626800  0.593200  1.0  0.423
  C  C115  1  0.886400  0.557400  0.304700  1.0  -0.4431
  C  C116  1  0.259900  0.592900  0.590200  1.0  -0.4893
  C  C117  1  0.589000  0.710600  0.311000  1.0  0.2058
  C  C118  1  0.064000  0.711900  0.764800  1.0  0.1987
  C  C119  1  0.440600  0.515300  0.975400  1.0  0.1333
  C  C120  1  0.474400  0.735600  0.285800  1.0  0.1483
  C  C121  1  0.966800  0.738600  0.779300  1.0  0.1507
  C  C122  1  0.433500  0.562900  0.915900  1.0  0.1501
  C  C123  1  0.669100  0.797700  0.386900  1.0  0.3156
  C  C124  1  0.176200  0.729100  0.916800  1.0  0.3503
  C  C125  1  0.238900  0.525000  0.943500  1.0  0.4337
  C  C126  1  0.775300  0.835800  0.439300  1.0  -0.4847
  C  C127  1  0.288900  0.721700  0.996500  1.0  -0.4897
  C  C128  1  0.124500  0.503900  0.956500  1.0  -0.4768
  C  C129  1  0.615800  0.849900  0.781400  1.0  0.2183
  C  C130  1  0.058300  0.815400  0.173600  1.0  0.1711
  C  C131  1  0.533300  0.889400  0.732500  1.0  0.1929
  C  C132  1  0.955700  0.812000  0.095300  1.0  0.13
  C  C133  1  0.758600  0.920900  0.778400  1.0  0.4246
  C  C134  1  0.151300  0.873200  0.093200  1.0  0.4228
  C  C135  1  0.886400  0.942600  0.804700  1.0  -0.4438
  C  C136  1  0.259900  0.907100  0.090200  1.0  -0.4893
  C  C137  1  0.589000  0.789400  0.811000  1.0  0.2057
  C  C138  1  0.064000  0.788100  0.264800  1.0  0.1985
  C  C139  1  0.440600  0.984700  0.475400  1.0  0.1335
  C  C140  1  0.474400  0.764400  0.785800  1.0  0.149
  C  C141  1  0.966800  0.761400  0.279300  1.0  0.1507
  C  C142  1  0.433500  0.937100  0.415900  1.0  0.1497
  C  C143  1  0.669100  0.702300  0.886900  1.0  0.3235
  C  C144  1  0.176200  0.770900  0.416800  1.0  0.3501
  C  C145  1  0.238900  0.975000  0.443500  1.0  0.434
  C  C146  1  0.775300  0.664200  0.939300  1.0  -0.4847
  C  C147  1  0.288900  0.778300  0.496500  1.0  -0.489
  C  C148  1  0.124500  0.996100  0.456500  1.0  -0.4769
  C  C149  1  0.384200  0.349900  0.718600  1.0  0.2187
  C  C150  1  0.941700  0.315400  0.326400  1.0  0.1706
  C  C151  1  0.466700  0.389400  0.767500  1.0  0.1918
  C  C152  1  0.044300  0.312000  0.404700  1.0  0.1292
  C  C153  1  0.241400  0.420900  0.721600  1.0  0.4249
  C  C154  1  0.848700  0.373200  0.406800  1.0  0.4221
  C  C155  1  0.113600  0.442600  0.695300  1.0  -0.4422
  C  C156  1  0.740100  0.407100  0.409800  1.0  -0.4878
  C  C157  1  0.411000  0.289400  0.689000  1.0  0.2064
  C  C158  1  0.936000  0.288100  0.235200  1.0  0.198
  C  C159  1  0.559400  0.484700  0.024600  1.0  0.131
  C  C160  1  0.525600  0.264400  0.714200  1.0  0.1478
  C  C161  1  0.033200  0.261400  0.220700  1.0  0.1506
  C  C162  1  0.566500  0.437100  0.084100  1.0  0.1518
  C  C163  1  0.330900  0.202300  0.613100  1.0  0.3246
  C  C164  1  0.823800  0.270900  0.083200  1.0  0.3504
  C  C165  1  0.761100  0.475000  0.056500  1.0  0.4343
  C  C166  1  0.224700  0.164200  0.560700  1.0  -0.4844
  C  C167  1  0.711100  0.278300  0.003500  1.0  -0.4876
  C  C168  1  0.875500  0.496100  0.043500  1.0  -0.4789
  N  N169  1  0.265800  0.133600  0.193400  1.0  -0.3502
  N  N170  1  0.840200  0.156500  0.827600  1.0  -0.5164
  N  N171  1  0.447000  0.056800  0.300700  1.0  -0.2407
  N  N172  1  0.043900  0.161100  0.984100  1.0  -0.3165
  N  N173  1  0.324300  0.038100  0.270700  1.0  -0.252
  N  N174  1  0.946900  0.129100  0.982300  1.0  -0.2378
  N  N175  1  0.310800  0.240300  0.135500  1.0  -0.4921
  N  N176  1  0.829000  0.208500  0.668000  1.0  -0.4654
  N  N177  1  0.657100  0.996100  0.509600  1.0  -0.4823
  N  N178  1  0.537300  0.208400  0.688100  1.0  -0.3115
  N  N179  1  0.024200  0.261400  0.638400  1.0  -0.3332
  N  N180  1  0.669500  0.090800  0.627100  1.0  -0.2483
  N  N181  1  0.440700  0.325000  0.138900  1.0  -0.2587
  N  N182  1  0.917700  0.254400  0.566800  1.0  -0.2722
  N  N183  1  0.770300  0.071100  0.611600  1.0  -0.2303
  N  N184  1  0.734200  0.633600  0.306600  1.0  -0.3469
  N  N185  1  0.159800  0.656500  0.672400  1.0  -0.5147
  N  N186  1  0.553000  0.556800  0.199300  1.0  -0.2405
  N  N187  1  0.956100  0.661100  0.515900  1.0  -0.3169
  N  N188  1  0.675700  0.538100  0.229300  1.0  -0.2514
  N  N189  1  0.053100  0.629100  0.517700  1.0  -0.2397
  N  N190  1  0.689200  0.740300  0.364500  1.0  -0.4919
  N  N191  1  0.171000  0.708500  0.832000  1.0  -0.4636
  N  N192  1  0.342900  0.496100  0.990400  1.0  -0.4824
  N  N193  1  0.462700  0.708400  0.811900  1.0  -0.3117
  N  N194  1  0.975800  0.761400  0.861600  1.0  -0.3319
  N  N195  1  0.330500  0.590800  0.872900  1.0  -0.2487
  N  N196  1  0.559300  0.825000  0.361100  1.0  -0.2595
  N  N197  1  0.082300  0.754400  0.933200  1.0  -0.2718
  N  N198  1  0.229700  0.571100  0.888400  1.0  -0.2276
  N  N199  1  0.734200  0.866400  0.806600  1.0  -0.3473
  N  N200  1  0.159800  0.843500  0.172400  1.0  -0.5148
  N  N201  1  0.553000  0.943200  0.699300  1.0  -0.2403
  N  N202  1  0.956100  0.838900  0.015900  1.0  -0.3167
  N  N203  1  0.675700  0.961900  0.729300  1.0  -0.2511
  N  N204  1  0.053100  0.870900  0.017700  1.0  -0.2388
  N  N205  1  0.689200  0.759700  0.864500  1.0  -0.4917
  N  N206  1  0.171000  0.791500  0.332000  1.0  -0.4631
  N  N207  1  0.342900  0.003900  0.490400  1.0  -0.4815
  N  N208  1  0.462700  0.791600  0.311900  1.0  -0.3118
  N  N209  1  0.975800  0.738600  0.361600  1.0  -0.3324
  N  N210  1  0.330500  0.909200  0.372900  1.0  -0.2488
  N  N211  1  0.559300  0.675000  0.861100  1.0  -0.2595
  N  N212  1  0.082300  0.745600  0.433200  1.0  -0.2715
  N  N213  1  0.229700  0.928900  0.388400  1.0  -0.2273
  N  N214  1  0.265800  0.366400  0.693400  1.0  -0.351
  N  N215  1  0.840200  0.343500  0.327600  1.0  -0.5165
  N  N216  1  0.447000  0.443200  0.800700  1.0  -0.2419
  N  N217  1  0.043900  0.338900  0.484100  1.0  -0.3172
  N  N218  1  0.324300  0.461900  0.770700  1.0  -0.2522
  N  N219  1  0.946900  0.370900  0.482300  1.0  -0.238
  N  N220  1  0.310800  0.259700  0.635500  1.0  -0.4916
  N  N221  1  0.829000  0.291500  0.168000  1.0  -0.4656
  N  N222  1  0.657100  0.503900  0.009600  1.0  -0.4821
  N  N223  1  0.537300  0.291600  0.188100  1.0  -0.3118
  N  N224  1  0.024200  0.238600  0.138400  1.0  -0.3332
  N  N225  1  0.669500  0.409200  0.127100  1.0  -0.2474
  N  N226  1  0.440700  0.175000  0.638900  1.0  -0.2589
  N  N227  1  0.917700  0.245600  0.066800  1.0  -0.2726
  N  N228  1  0.770300  0.428900  0.111600  1.0  -0.2291
