# generated using pymatgen
data_Hf6H14C30S5O28
_symmetry_space_group_name_H-M   'P 1'
_cell_length_a   13.53000000
_cell_length_b   19.71000000
_cell_length_c   28.30000000
_cell_angle_alpha   90.00000000
_cell_angle_beta   90.00000000
_cell_angle_gamma   90.00000000
_symmetry_Int_Tables_number   1
_chemical_formula_structural   Hf6H14C30S5O28
_chemical_formula_sum   'Hf24 H56 C120 S20 O112'
_cell_volume   7546.93929000
_cell_formula_units_Z   4
loop_
 _symmetry_equiv_pos_site_id
 _symmetry_equiv_pos_as_xyz
  1  'x, y, z'
loop_
 _atom_site_type_symbol
 _atom_site_label
 _atom_site_symmetry_multiplicity
 _atom_site_fract_x
 _atom_site_fract_y
 _atom_site_fract_z
 _atom_site_occupancy
 _atom_site_charge
  Hf  Hf1  1  0.193390  0.121730  0.126020  1.0  2.2159
  Hf  Hf2  1  0.304370  0.883210  0.124230  1.0  2.1137
  Hf  Hf3  1  0.143310  0.978350  0.194390  1.0  2.2529
  Hf  Hf4  1  0.387440  0.031570  0.179890  1.0  2.2817
  Hf  Hf5  1  0.355860  0.027350  0.055160  1.0  2.2639
  Hf  Hf6  1  0.112620  0.974230  0.071660  1.0  2.3047
  Hf  Hf7  1  0.306610  0.878270  0.626020  1.0  2.2145
  Hf  Hf8  1  0.195630  0.116790  0.624230  1.0  2.1166
  Hf  Hf9  1  0.356690  0.021650  0.694390  1.0  2.2525
  Hf  Hf10  1  0.112560  0.968430  0.679890  1.0  2.2835
  Hf  Hf11  1  0.144140  0.972650  0.555160  1.0  2.2785
  Hf  Hf12  1  0.387380  0.025770  0.571660  1.0  2.2945
  Hf  Hf13  1  0.806610  0.621730  0.373980  1.0  2.2148
  Hf  Hf14  1  0.695630  0.383210  0.375770  1.0  2.1188
  Hf  Hf15  1  0.856690  0.478350  0.305610  1.0  2.2509
  Hf  Hf16  1  0.612560  0.531570  0.320110  1.0  2.2829
  Hf  Hf17  1  0.644140  0.527350  0.444840  1.0  2.2789
  Hf  Hf18  1  0.887380  0.474230  0.428340  1.0  2.2953
  Hf  Hf19  1  0.693390  0.378270  0.873980  1.0  2.219
  Hf  Hf20  1  0.804370  0.616790  0.875770  1.0  2.1144
  Hf  Hf21  1  0.643310  0.521650  0.805610  1.0  2.2508
  Hf  Hf22  1  0.887440  0.468430  0.820110  1.0  2.282
  Hf  Hf23  1  0.855860  0.472650  0.944840  1.0  2.2631
  Hf  Hf24  1  0.612620  0.525770  0.928340  1.0  2.3055
  H  H25  1  0.280300  0.327500  0.193000  1.0  0.0893
  H  H26  1  0.373000  0.415500  0.232900  1.0  0.0976
  H  H27  1  0.287500  0.328300  0.060100  1.0  0.0925
  H  H28  1  0.384400  0.412800  0.016300  1.0  0.0987
  H  H29  1  0.189200  0.671700  0.070700  1.0  0.093
  H  H30  1  0.086800  0.588500  0.032500  1.0  0.095
  H  H31  1  0.194000  0.680700  0.179200  1.0  0.0777
  H  H32  1  0.102700  0.590900  0.221400  1.0  0.0909
  H  H33  1  0.457900  0.028100  0.332200  1.0  0.1063
  H  H34  1  0.459900  0.039600  0.417400  1.0  0.0862
  H  H35  1  0.684790  0.409890  0.287780  1.0  0.2466
  H  H36  1  0.723060  0.407090  0.458450  1.0  0.2237
  H  H37  1  0.984710  0.534000  0.367600  1.0  0.3735
  H  H38  1  0.581000  0.623200  0.387450  1.0  0.2036
  H  H39  1  0.219700  0.672500  0.693000  1.0  0.0896
  H  H40  1  0.127000  0.584500  0.732900  1.0  0.098
  H  H41  1  0.212500  0.671700  0.560100  1.0  0.0927
  H  H42  1  0.115600  0.587200  0.516300  1.0  0.0989
  H  H43  1  0.310800  0.328300  0.570700  1.0  0.0929
  H  H44  1  0.413200  0.411500  0.532500  1.0  0.0942
  H  H45  1  0.306000  0.319300  0.679200  1.0  0.0784
  H  H46  1  0.397300  0.409100  0.721400  1.0  0.0911
  H  H47  1  0.042100  0.971900  0.832200  1.0  0.1059
  H  H48  1  0.040100  0.960400  0.917400  1.0  0.0859
  H  H49  1  0.815210  0.590110  0.787780  1.0  0.2454
  H  H50  1  0.776940  0.592910  0.958450  1.0  0.2234
  H  H51  1  0.515290  0.466000  0.867600  1.0  0.3769
  H  H52  1  0.919000  0.376800  0.887450  1.0  0.2009
  H  H53  1  0.719700  0.827500  0.307000  1.0  0.0894
  H  H54  1  0.627000  0.915500  0.267100  1.0  0.0975
  H  H55  1  0.712500  0.828300  0.439900  1.0  0.0931
  H  H56  1  0.615600  0.912800  0.483700  1.0  0.0996
  H  H57  1  0.810800  0.171700  0.429300  1.0  0.0927
  H  H58  1  0.913200  0.088500  0.467500  1.0  0.0955
  H  H59  1  0.806000  0.180700  0.320800  1.0  0.0786
  H  H60  1  0.897300  0.090900  0.278600  1.0  0.091
  H  H61  1  0.542100  0.528100  0.167800  1.0  0.1059
  H  H62  1  0.540100  0.539600  0.082600  1.0  0.0853
  H  H63  1  0.315210  0.909890  0.212220  1.0  0.2457
  H  H64  1  0.276940  0.907090  0.041550  1.0  0.2236
  H  H65  1  0.015290  0.034000  0.132400  1.0  0.3765
  H  H66  1  0.419000  0.123200  0.112550  1.0  0.202
  H  H67  1  0.780300  0.172500  0.807000  1.0  0.0898
  H  H68  1  0.873000  0.084500  0.767100  1.0  0.0983
  H  H69  1  0.787500  0.171700  0.939900  1.0  0.0926
  H  H70  1  0.884400  0.087200  0.983700  1.0  0.0996
  H  H71  1  0.689200  0.828300  0.929300  1.0  0.0932
  H  H72  1  0.586800  0.911500  0.967500  1.0  0.0953
  H  H73  1  0.694000  0.819300  0.820800  1.0  0.0784
  H  H74  1  0.602700  0.909100  0.778600  1.0  0.0901
  H  H75  1  0.957900  0.471900  0.667800  1.0  0.1059
  H  H76  1  0.959900  0.460400  0.582600  1.0  0.0858
  H  H77  1  0.184790  0.090110  0.712220  1.0  0.2475
  H  H78  1  0.223060  0.092910  0.541550  1.0  0.2227
  H  H79  1  0.484710  0.966000  0.632400  1.0  0.3743
  H  H80  1  0.081000  0.876800  0.612550  1.0  0.2032
  C  C81  1  0.340100  0.193100  0.197100  1.0  0.6732
  C  C82  1  0.372300  0.256200  0.220700  1.0  -0.2197
  C  C83  1  0.334000  0.319200  0.212700  1.0  -0.0866
  C  C84  1  0.384000  0.369500  0.237500  1.0  -0.1009
  C  C85  1  0.453700  0.344600  0.270100  1.0  -0.1711
  C  C86  1  0.518000  0.384100  0.302300  1.0  0.6996
  C  C87  1  0.319000  0.186100  0.044200  1.0  0.6722
  C  C88  1  0.354000  0.252100  0.020900  1.0  -0.2309
  C  C89  1  0.332000  0.317800  0.036300  1.0  -0.0812
  C  C90  1  0.389000  0.367000  0.010500  1.0  -0.038
  C  C91  1  0.447000  0.341600  0.978200  1.0  -0.118
  C  C92  1  0.516500  0.378100  0.947200  1.0  0.7295
  C  C93  1  0.151200  0.816600  0.055800  1.0  0.7009
  C  C94  1  0.114700  0.748500  0.034800  1.0  -0.2508
  C  C95  1  0.140000  0.682100  0.048800  1.0  -0.1129
  C  C96  1  0.083000  0.634500  0.025400  1.0  -0.064
  C  C97  1  0.023000  0.657700  0.992800  1.0  -0.1474
  C  C98  1  0.956200  0.618100  0.961300  1.0  0.6901
  C  C99  1  0.171400  0.814500  0.203800  1.0  0.6966
  C  C100  1  0.129000  0.750500  0.221200  1.0  -0.1881
  C  C101  1  0.150000  0.688700  0.203700  1.0  -0.1005
  C  C102  1  0.095000  0.637100  0.227000  1.0  -0.1248
  C  C103  1  0.032000  0.663900  0.258200  1.0  -0.1986
  C  C104  1  0.958000  0.624800  0.286800  1.0  0.7095
  C  C105  1  0.292300  0.008700  0.279600  1.0  0.6119
  C  C106  1  0.310000  0.010100  0.330600  1.0  -0.1483
  C  C107  1  0.402000  0.023000  0.350600  1.0  -0.0728
  C  C108  1  0.405000  0.027000  0.399800  1.0  -0.0926
  C  C109  1  0.313800  0.008400  0.418700  1.0  -0.1672
  C  C110  1  0.291900  0.001700  0.470400  1.0  0.6823
  C  C111  1  0.159900  0.806900  0.697100  1.0  0.6743
  C  C112  1  0.127700  0.743800  0.720700  1.0  -0.2197
  C  C113  1  0.166000  0.680800  0.712700  1.0  -0.0875
  C  C114  1  0.116000  0.630500  0.737500  1.0  -0.0993
  C  C115  1  0.046300  0.655400  0.770100  1.0  -0.173
  C  C116  1  0.982000  0.615900  0.802300  1.0  0.6982
  C  C117  1  0.181000  0.813900  0.544200  1.0  0.67
  C  C118  1  0.146000  0.747900  0.520900  1.0  -0.2297
  C  C119  1  0.168000  0.682200  0.536300  1.0  -0.0784
  C  C120  1  0.111000  0.633000  0.510500  1.0  -0.0368
  C  C121  1  0.053000  0.658400  0.478200  1.0  -0.1168
  C  C122  1  0.983500  0.621900  0.447200  1.0  0.7314
  C  C123  1  0.348800  0.183400  0.555800  1.0  0.7013
  C  C124  1  0.385300  0.251500  0.534800  1.0  -0.253
  C  C125  1  0.360000  0.317900  0.548800  1.0  -0.1145
  C  C126  1  0.417000  0.365500  0.525400  1.0  -0.0635
  C  C127  1  0.477000  0.342300  0.492800  1.0  -0.1492
  C  C128  1  0.543800  0.381900  0.461300  1.0  0.6915
  C  C129  1  0.328600  0.185500  0.703800  1.0  0.6975
  C  C130  1  0.371000  0.249500  0.721200  1.0  -0.1887
  C  C131  1  0.350000  0.311300  0.703700  1.0  -0.1
  C  C132  1  0.405000  0.362900  0.727000  1.0  -0.125
  C  C133  1  0.468000  0.336100  0.758200  1.0  -0.1981
  C  C134  1  0.542000  0.375200  0.786800  1.0  0.709
  C  C135  1  0.207700  0.991300  0.779600  1.0  0.6115
  C  C136  1  0.190000  0.989900  0.830600  1.0  -0.1463
  C  C137  1  0.098000  0.977000  0.850600  1.0  -0.0727
  C  C138  1  0.095000  0.973000  0.899800  1.0  -0.0913
  C  C139  1  0.186200  0.991600  0.918700  1.0  -0.166
  C  C140  1  0.208100  0.998300  0.970400  1.0  0.6819
  C  C141  1  0.659900  0.693100  0.302900  1.0  0.6752
  C  C142  1  0.627700  0.756200  0.279300  1.0  -0.2202
  C  C143  1  0.666000  0.819200  0.287300  1.0  -0.0873
  C  C144  1  0.616000  0.869500  0.262500  1.0  -0.1017
  C  C145  1  0.546300  0.844600  0.229900  1.0  -0.1731
  C  C146  1  0.482000  0.884100  0.197700  1.0  0.6982
  C  C147  1  0.681000  0.686100  0.455800  1.0  0.6699
  C  C148  1  0.646000  0.752100  0.479100  1.0  -0.2289
  C  C149  1  0.668000  0.817800  0.463700  1.0  -0.0796
  C  C150  1  0.611000  0.867000  0.489500  1.0  -0.0391
  C  C151  1  0.553000  0.841600  0.521800  1.0  -0.1161
  C  C152  1  0.483500  0.878100  0.552800  1.0  0.7316
  C  C153  1  0.848800  0.316600  0.444200  1.0  0.6997
  C  C154  1  0.885300  0.248500  0.465200  1.0  -0.2494
  C  C155  1  0.860000  0.182100  0.451200  1.0  -0.1139
  C  C156  1  0.917000  0.134500  0.474600  1.0  -0.0629
  C  C157  1  0.977000  0.157700  0.507200  1.0  -0.1487
  C  C158  1  0.043800  0.118100  0.538700  1.0  0.6914
  C  C159  1  0.828600  0.314500  0.296200  1.0  0.6987
  C  C160  1  0.871000  0.250500  0.278800  1.0  -0.1878
  C  C161  1  0.850000  0.188700  0.296300  1.0  -0.1
  C  C162  1  0.905000  0.137100  0.273000  1.0  -0.1242
  C  C163  1  0.968000  0.163900  0.241800  1.0  -0.1967
  C  C164  1  0.042000  0.124800  0.213200  1.0  0.7084
  C  C165  1  0.707700  0.508700  0.220400  1.0  0.6137
  C  C166  1  0.690000  0.510100  0.169400  1.0  -0.1457
  C  C167  1  0.598000  0.523000  0.149400  1.0  -0.0727
  C  C168  1  0.595000  0.527000  0.100200  1.0  -0.0925
  C  C169  1  0.686200  0.508400  0.081300  1.0  -0.167
  C  C170  1  0.708100  0.501700  0.029600  1.0  0.6796
  C  C171  1  0.840100  0.306900  0.802900  1.0  0.6735
  C  C172  1  0.872300  0.243800  0.779300  1.0  -0.2199
  C  C173  1  0.834000  0.180800  0.787300  1.0  -0.0868
  C  C174  1  0.884000  0.130500  0.762500  1.0  -0.1006
  C  C175  1  0.953700  0.155400  0.729900  1.0  -0.1711
  C  C176  1  0.018000  0.115900  0.697700  1.0  0.7001
  C  C177  1  0.819000  0.313900  0.955800  1.0  0.6714
  C  C178  1  0.854000  0.247900  0.979100  1.0  -0.2276
  C  C179  1  0.832000  0.182200  0.963700  1.0  -0.0814
  C  C180  1  0.889000  0.133000  0.989500  1.0  -0.0367
  C  C181  1  0.947000  0.158400  0.021800  1.0  -0.1163
  C  C182  1  0.016500  0.121900  0.052800  1.0  0.729
  C  C183  1  0.651200  0.683400  0.944200  1.0  0.6996
  C  C184  1  0.614700  0.751500  0.965200  1.0  -0.2489
  C  C185  1  0.640000  0.817900  0.951200  1.0  -0.1136
  C  C186  1  0.583000  0.865500  0.974600  1.0  -0.0634
  C  C187  1  0.523000  0.842300  0.007200  1.0  -0.148
  C  C188  1  0.456200  0.881900  0.038700  1.0  0.6908
  C  C189  1  0.671400  0.685500  0.796200  1.0  0.6972
  C  C190  1  0.629000  0.749500  0.778800  1.0  -0.1899
  C  C191  1  0.650000  0.811300  0.796300  1.0  -0.0998
  C  C192  1  0.595000  0.862900  0.773000  1.0  -0.1247
  C  C193  1  0.532000  0.836100  0.741800  1.0  -0.1991
  C  C194  1  0.458000  0.875200  0.713200  1.0  0.7084
  C  C195  1  0.792300  0.491300  0.720400  1.0  0.6138
  C  C196  1  0.810000  0.489900  0.669400  1.0  -0.1478
  C  C197  1  0.902000  0.477000  0.649400  1.0  -0.0718
  C  C198  1  0.905000  0.473000  0.600200  1.0  -0.0923
  C  C199  1  0.813800  0.491600  0.581300  1.0  -0.1674
  C  C200  1  0.791900  0.498300  0.529600  1.0  0.6807
  S  S201  1  0.460300  0.256300  0.265800  1.0  0.1249
  S  S202  1  0.440600  0.253300  0.977700  1.0  0.1447
  S  S203  1  0.025000  0.745300  0.992500  1.0  0.13
  S  S204  1  0.041100  0.749500  0.264800  1.0  0.1368
  S  S205  1  0.226300  0.994000  0.375800  1.0  0.1124
  S  S206  1  0.039700  0.743700  0.765800  1.0  0.1267
  S  S207  1  0.059400  0.746700  0.477700  1.0  0.1436
  S  S208  1  0.475000  0.254700  0.492500  1.0  0.1291
  S  S209  1  0.458900  0.250500  0.764800  1.0  0.1361
  S  S210  1  0.273700  0.006000  0.875800  1.0  0.1111
  S  S211  1  0.539700  0.756300  0.234200  1.0  0.1265
  S  S212  1  0.559400  0.753300  0.522300  1.0  0.1429
  S  S213  1  0.975000  0.245300  0.507500  1.0  0.1283
  S  S214  1  0.958900  0.249500  0.235200  1.0  0.137
  S  S215  1  0.773700  0.494000  0.124200  1.0  0.111
  S  S216  1  0.960300  0.243700  0.734200  1.0  0.1256
  S  S217  1  0.940600  0.246700  0.022300  1.0  0.1451
  S  S218  1  0.525000  0.754700  0.007500  1.0  0.1281
  S  S219  1  0.541100  0.750500  0.735200  1.0  0.1377
  S  S220  1  0.726300  0.506000  0.624200  1.0  0.112
  O  O221  1  0.352700  0.092800  0.119800  1.0  -0.8934
  O  O222  1  0.215400  0.052000  0.072800  1.0  -0.89
  O  O223  1  0.089200  0.034000  0.132400  1.0  -0.9718
  O  O224  1  0.233100  0.064500  0.184800  1.0  -0.834
  O  O225  1  0.293100  0.938300  0.189200  1.0  -0.9694
  O  O226  1  0.390200  0.973200  0.117800  1.0  -0.8202
  O  O227  1  0.262000  0.941600  0.062400  1.0  -0.9177
  O  O228  1  0.156300  0.919600  0.131000  1.0  -0.8694
  O  O229  1  0.254100  0.195100  0.075700  1.0  -0.6396
  O  O230  1  0.354900  0.133500  0.027300  1.0  -0.6733
  O  O231  1  0.566600  0.344200  0.917400  1.0  -0.6279
  O  O232  1  0.514200  0.441200  0.953000  1.0  -0.714
  O  O233  1  0.916800  0.656000  0.321200  1.0  -0.6398
  O  O234  1  0.945700  0.564900  0.275400  1.0  -0.6512
  O  O235  1  0.271300  0.197300  0.170200  1.0  -0.6333
  O  O236  1  0.391200  0.137800  0.208200  1.0  -0.6523
  O  O237  1  0.197000  0.988900  0.267800  1.0  -0.6361
  O  O238  1  0.360000  0.024000  0.256400  1.0  -0.6647
  O  O239  1  0.368200  0.018400  0.494800  1.0  -0.6515
  O  O240  1  0.207700  0.983500  0.483500  1.0  -0.6539
  O  O241  1  0.515500  0.446400  0.297100  1.0  -0.6491
  O  O242  1  0.569000  0.350500  0.332400  1.0  -0.637
  O  O243  1  0.944800  0.555000  0.972200  1.0  -0.6619
  O  O244  1  0.915200  0.651700  0.928400  1.0  -0.6307
  O  O245  1  0.105300  0.865800  0.043300  1.0  -0.6495
  O  O246  1  0.223500  0.807800  0.081800  1.0  -0.6471
  O  O247  1  0.136800  0.870800  0.221600  1.0  -0.6829
  O  O248  1  0.239900  0.809300  0.173800  1.0  -0.6509
  O  O249  1  0.147300  0.907200  0.619800  1.0  -0.8944
  O  O250  1  0.284600  0.948000  0.572800  1.0  -0.8907
  O  O251  1  0.410800  0.966000  0.632400  1.0  -0.9722
  O  O252  1  0.266900  0.935500  0.684800  1.0  -0.8339
  O  O253  1  0.206900  0.061700  0.689200  1.0  -0.9721
  O  O254  1  0.109800  0.026800  0.617800  1.0  -0.8213
  O  O255  1  0.238000  0.058400  0.562400  1.0  -0.9176
  O  O256  1  0.343700  0.080400  0.631000  1.0  -0.8656
  O  O257  1  0.245900  0.804900  0.575700  1.0  -0.6409
  O  O258  1  0.145100  0.866500  0.527300  1.0  -0.6717
  O  O259  1  0.933400  0.655800  0.417400  1.0  -0.6278
  O  O260  1  0.985800  0.558800  0.453000  1.0  -0.7137
  O  O261  1  0.583200  0.344000  0.821200  1.0  -0.6417
  O  O262  1  0.554300  0.435100  0.775400  1.0  -0.6519
  O  O263  1  0.228700  0.802700  0.670200  1.0  -0.6345
  O  O264  1  0.108800  0.862200  0.708200  1.0  -0.6493
  O  O265  1  0.303000  0.011100  0.767800  1.0  -0.6381
  O  O266  1  0.140000  0.976000  0.756400  1.0  -0.6633
  O  O267  1  0.131800  0.981600  0.994800  1.0  -0.6533
  O  O268  1  0.292300  0.016500  0.983500  1.0  -0.6545
  O  O269  1  0.984500  0.553600  0.797100  1.0  -0.6501
  O  O270  1  0.931000  0.649500  0.832400  1.0  -0.6387
  O  O271  1  0.555200  0.445000  0.472200  1.0  -0.6612
  O  O272  1  0.584800  0.348300  0.428400  1.0  -0.632
  O  O273  1  0.394700  0.134200  0.543300  1.0  -0.6473
  O  O274  1  0.276500  0.192200  0.581800  1.0  -0.6468
  O  O275  1  0.363200  0.129200  0.721600  1.0  -0.686
  O  O276  1  0.260100  0.190700  0.673800  1.0  -0.6504
  O  O277  1  0.647300  0.592800  0.380200  1.0  -0.8947
  O  O278  1  0.784600  0.552000  0.427200  1.0  -0.8895
  O  O279  1  0.910800  0.534000  0.367600  1.0  -0.9725
  O  O280  1  0.766900  0.564500  0.315200  1.0  -0.8335
  O  O281  1  0.706900  0.438300  0.310800  1.0  -0.9724
  O  O282  1  0.609800  0.473200  0.382200  1.0  -0.8214
  O  O283  1  0.738000  0.441600  0.437600  1.0  -0.917
  O  O284  1  0.843700  0.419600  0.369000  1.0  -0.8683
  O  O285  1  0.745900  0.695100  0.424300  1.0  -0.639
  O  O286  1  0.645100  0.633500  0.472700  1.0  -0.6715
  O  O287  1  0.433400  0.844200  0.582600  1.0  -0.6274
  O  O288  1  0.485800  0.941200  0.547000  1.0  -0.7123
  O  O289  1  0.083200  0.156000  0.178800  1.0  -0.6411
  O  O290  1  0.054300  0.064900  0.224600  1.0  -0.6525
  O  O291  1  0.728700  0.697300  0.329800  1.0  -0.6346
  O  O292  1  0.608800  0.637800  0.291800  1.0  -0.6523
  O  O293  1  0.803000  0.488900  0.232200  1.0  -0.6387
  O  O294  1  0.640000  0.524000  0.243600  1.0  -0.6641
  O  O295  1  0.631800  0.518400  0.005200  1.0  -0.6518
  O  O296  1  0.792300  0.483500  0.016500  1.0  -0.6542
  O  O297  1  0.484500  0.946400  0.202900  1.0  -0.6478
  O  O298  1  0.431000  0.850500  0.167600  1.0  -0.6384
  O  O299  1  0.055200  0.055000  0.527800  1.0  -0.6613
  O  O300  1  0.084800  0.151700  0.571600  1.0  -0.6321
  O  O301  1  0.894700  0.365800  0.456700  1.0  -0.6467
  O  O302  1  0.776500  0.307800  0.418200  1.0  -0.6464
  O  O303  1  0.863200  0.370800  0.278400  1.0  -0.684
  O  O304  1  0.760100  0.309300  0.326200  1.0  -0.6509
  O  O305  1  0.852700  0.407200  0.880200  1.0  -0.8941
  O  O306  1  0.715400  0.448000  0.927200  1.0  -0.8914
  O  O307  1  0.589200  0.466000  0.867600  1.0  -0.9721
  O  O308  1  0.733100  0.435500  0.815200  1.0  -0.8335
  O  O309  1  0.793100  0.561700  0.810800  1.0  -0.9697
  O  O310  1  0.890200  0.526800  0.882200  1.0  -0.8205
  O  O311  1  0.762000  0.558400  0.937600  1.0  -0.9167
  O  O312  1  0.656300  0.580400  0.869000  1.0  -0.8681
  O  O313  1  0.754100  0.304900  0.924300  1.0  -0.6405
  O  O314  1  0.854900  0.366500  0.972700  1.0  -0.6724
  O  O315  1  0.066600  0.155800  0.082600  1.0  -0.6282
  O  O316  1  0.014200  0.058800  0.047000  1.0  -0.7135
  O  O317  1  0.416800  0.844000  0.678800  1.0  -0.64
  O  O318  1  0.445700  0.935100  0.724600  1.0  -0.6504
  O  O319  1  0.771300  0.302700  0.829800  1.0  -0.6336
  O  O320  1  0.891200  0.362200  0.791800  1.0  -0.6524
  O  O321  1  0.697000  0.511100  0.732200  1.0  -0.6373
  O  O322  1  0.860000  0.476000  0.743600  1.0  -0.6633
  O  O323  1  0.868200  0.481600  0.505200  1.0  -0.6522
  O  O324  1  0.707700  0.516500  0.516500  1.0  -0.6526
  O  O325  1  0.015500  0.053600  0.702900  1.0  -0.6488
  O  O326  1  0.069000  0.149500  0.667600  1.0  -0.6392
  O  O327  1  0.444800  0.945000  0.027800  1.0  -0.6606
  O  O328  1  0.415200  0.848300  0.071600  1.0  -0.6325
  O  O329  1  0.605300  0.634200  0.956700  1.0  -0.6497
  O  O330  1  0.723500  0.692200  0.918200  1.0  -0.6474
  O  O331  1  0.636800  0.629200  0.778400  1.0  -0.6838
  O  O332  1  0.739900  0.690700  0.826200  1.0  -0.6511
