# generated using pymatgen
data_Zn8H92C139(N15O16)2
_symmetry_space_group_name_H-M   'P 1'
_cell_length_a   17.99460000
_cell_length_b   20.49000000
_cell_length_c   27.77200000
_cell_angle_alpha   82.11300000
_cell_angle_beta   72.54300000
_cell_angle_gamma   84.88400000
_symmetry_Int_Tables_number   1
_chemical_formula_structural   Zn8H92C139(N15O16)2
_chemical_formula_sum   'Zn16 H184 C278 N60 O64'
_cell_volume   9663.27843155
_cell_formula_units_Z   2
loop_
 _symmetry_equiv_pos_site_id
 _symmetry_equiv_pos_as_xyz
  1  'x, y, z'
loop_
 _atom_site_type_symbol
 _atom_site_label
 _atom_site_symmetry_multiplicity
 _atom_site_fract_x
 _atom_site_fract_y
 _atom_site_fract_z
 _atom_site_occupancy
 _atom_site_charge
  Zn  Zn1  1  0.074930  0.732420  0.769850  1.0  0.9376
  Zn  Zn2  1  0.672100  0.070890  0.531610  1.0  0.8382
  Zn  Zn3  1  0.610280  0.258560  0.274140  1.0  0.9516
  Zn  Zn4  1  0.054520  0.210760  0.777530  1.0  0.8649
  Zn  Zn5  1  0.374660  0.222750  0.930250  1.0  0.8401
  Zn  Zn6  1  0.202310  0.599180  0.024500  1.0  0.9172
  Zn  Zn7  1  0.912430  0.720830  0.428900  1.0  0.9584
  Zn  Zn8  1  0.582280  0.738040  0.279600  1.0  0.9238
  Zn  Zn9  1  0.925070  0.267580  0.230150  1.0  0.9373
  Zn  Zn10  1  0.327900  0.929110  0.468390  1.0  0.8355
  Zn  Zn11  1  0.389720  0.741440  0.725860  1.0  0.9517
  Zn  Zn12  1  0.945480  0.789240  0.222470  1.0  0.864
  Zn  Zn13  1  0.625340  0.777250  0.069750  1.0  0.8406
  Zn  Zn14  1  0.797690  0.400820  0.975500  1.0  0.9168
  Zn  Zn15  1  0.087570  0.279170  0.571100  1.0  0.958
  Zn  Zn16  1  0.417720  0.261960  0.720400  1.0  0.9215
  H  H17  1  0.895500  0.415800  0.119900  1.0  0.1228
  H  H18  1  0.696900  0.509800  0.190300  1.0  0.1149
  H  H19  1  0.888600  0.611900  0.123400  1.0  0.1241
  H  H20  1  0.786600  0.344600  0.106400  1.0  0.1167
  H  H21  1  0.713100  0.255600  0.160500  1.0  0.1067
  H  H22  1  0.695900  0.395200  0.244200  1.0  0.0992
  H  H23  1  0.992200  0.450900  0.030400  1.0  0.1173
  H  H24  1  0.129200  0.491200  0.988800  1.0  0.1151
  H  H25  1  0.021700  0.600200  0.095700  1.0  0.0628
  H  H26  1  0.705300  0.777900  0.175200  1.0  0.0978
  H  H27  1  0.799000  0.707300  0.123400  1.0  0.1276
  H  H28  1  0.656500  0.598600  0.237200  1.0  0.0939
  H  H29  1  0.142200  0.620300  0.222300  1.0  0.1277
  H  H30  1  0.214100  0.674400  0.333700  1.0  0.1163
  H  H31  1  0.364300  0.673200  0.192000  1.0  0.1154
  H  H32  1  0.081700  0.721200  0.355800  1.0  0.0969
  H  H33  1  0.928200  0.592000  0.369100  1.0  0.1076
  H  H34  1  0.045800  0.563600  0.296100  1.0  0.1708
  H  H35  1  0.166100  0.634200  0.136300  1.0  0.0924
  H  H36  1  0.370400  0.603000  0.039900  1.0  0.1042
  H  H37  1  0.393800  0.621300  0.119500  1.0  0.112
  H  H38  1  0.459900  0.690800  0.227700  1.0  0.1133
  H  H39  1  0.295700  0.731300  0.354400  1.0  0.1186
  H  H40  1  0.421400  0.757800  0.361000  1.0  0.1134
  H  H41  1  0.761300  0.786700  0.866100  1.0  0.1134
  H  H42  1  0.552600  0.740200  0.859400  1.0  0.113
  H  H43  1  0.740600  0.732900  0.737100  1.0  0.1049
  H  H44  1  0.896500  0.728200  0.823600  1.0  0.0686
  H  H45  1  0.851900  0.782000  0.690500  1.0  0.1256
  H  H46  1  0.993500  0.786700  0.678800  1.0  0.1039
  H  H47  1  0.494600  0.773500  0.786500  1.0  0.1
  H  H48  1  0.656300  0.641000  0.727300  1.0  0.1228
  H  H49  1  0.544900  0.635900  0.694600  1.0  0.1035
  H  H50  1  0.697200  0.749400  0.956000  1.0  0.0972
  H  H51  1  0.517000  0.843400  0.911400  1.0  0.1231
  H  H52  1  0.491200  0.828400  0.008100  1.0  0.1084
  H  H53  1  0.166200  0.983200  0.687000  1.0  0.1192
  H  H54  1  0.359600  0.084700  0.617000  1.0  0.1257
  H  H55  1  0.364800  0.888900  0.616700  1.0  0.1058
  H  H56  1  0.160100  0.867700  0.740800  1.0  0.0932
  H  H57  1  0.262700  0.816300  0.603700  1.0  0.1354
  H  H58  1  0.180800  0.728700  0.655800  1.0  0.0994
  H  H59  1  0.133100  0.072300  0.736800  1.0  0.1001
  H  H60  1  0.170000  0.250000  0.668900  1.0  0.0933
  H  H61  1  0.264800  0.177900  0.618100  1.0  0.1261
  H  H62  1  0.495100  0.065300  0.603800  1.0  0.0955
  H  H63  1  0.475200  0.904600  0.546100  1.0  0.1228
  H  H64  1  0.610000  0.935900  0.513100  1.0  0.1061
  H  H65  1  0.679500  0.159500  0.840700  1.0  0.1066
  H  H66  1  0.829500  0.145300  0.701900  1.0  0.1109
  H  H67  1  0.604400  0.103000  0.731700  1.0  0.1054
  H  H68  1  0.499000  0.053800  0.808300  1.0  0.1302
  H  H69  1  0.382600  0.094000  0.871900  1.0  0.1005
  H  H70  1  0.551100  0.206300  0.865500  1.0  0.108
  H  H71  1  0.629700  0.100900  0.647500  1.0  0.09
  H  H72  1  0.855100  0.105100  0.629400  1.0  0.1233
  H  H73  1  0.831600  0.067700  0.553600  1.0  0.1002
  H  H74  1  0.924000  0.165700  0.731500  1.0  0.1197
  H  H75  1  0.897700  0.230300  0.862700  1.0  0.1008
  H  H76  1  0.769800  0.200600  0.864400  1.0  0.1288
  H  H77  1  0.723600  0.896700  0.212000  1.0  0.1106
  H  H78  1  0.790700  0.991800  0.179900  1.0  0.0958
  H  H79  1  0.738200  0.091100  0.205100  1.0  0.1094
  H  H80  1  0.543500  0.005500  0.293400  1.0  0.0956
  H  H81  1  0.582200  0.522500  0.406300  1.0  0.1067
  H  H82  1  0.646200  0.466300  0.460300  1.0  0.0966
  H  H83  1  0.738100  0.514700  0.482400  1.0  0.111
  H  H84  1  0.703900  0.681900  0.396300  1.0  0.0986
  H  H85  1  0.423300  0.604500  0.859000  1.0  0.0905
  H  H86  1  0.499600  0.549800  0.795700  1.0  0.1141
  H  H87  1  0.506600  0.434400  0.806100  1.0  0.1039
  H  H88  1  0.339500  0.437600  0.940900  1.0  0.1207
  H  H89  1  0.039800  0.828100  0.038100  1.0  0.1198
  H  H90  1  0.977200  0.905200  0.991100  1.0  0.0815
  H  H91  1  0.985500  0.894000  0.908400  1.0  0.1101
  H  H92  1  0.112500  0.723400  0.918600  1.0  0.1001
  H  H93  1  0.913900  0.103000  0.387800  1.0  0.1049
  H  H94  1  0.014600  0.063600  0.323700  1.0  0.1283
  H  H95  1  0.035100  0.949600  0.324400  1.0  0.0876
  H  H96  1  0.848900  0.916600  0.444900  1.0  0.1105
  H  H97  1  0.526500  0.305200  0.556800  1.0  0.0946
  H  H98  1  0.497800  0.403400  0.511000  1.0  0.0958
  H  H99  1  0.528000  0.410400  0.422500  1.0  0.108
  H  H100  1  0.607700  0.223600  0.428500  1.0  0.0856
  H  H101  1  0.189500  0.371300  0.712600  1.0  0.0957
  H  H102  1  0.256300  0.467300  0.680300  1.0  0.0942
  H  H103  1  0.202600  0.566300  0.705100  1.0  0.1197
  H  H104  1  0.009600  0.479500  0.791700  1.0  0.1002
  H  H105  1  0.178200  0.165800  0.892000  1.0  0.0934
  H  H106  1  0.060800  0.002800  0.913300  1.0  0.0899
  H  H107  1  0.113700  0.957100  0.975100  1.0  0.1174
  H  H108  1  0.204500  0.014600  0.993200  1.0  0.0994
  H  H109  1  0.104500  0.584200  0.880100  1.0  0.1233
  H  H110  1  0.303100  0.490200  0.809700  1.0  0.1156
  H  H111  1  0.111400  0.388100  0.876600  1.0  0.1241
  H  H112  1  0.213400  0.655400  0.893600  1.0  0.1165
  H  H113  1  0.286900  0.744400  0.839500  1.0  0.1075
  H  H114  1  0.304100  0.604800  0.755800  1.0  0.1004
  H  H115  1  0.007800  0.549100  0.969600  1.0  0.1161
  H  H116  1  0.870800  0.508800  0.011200  1.0  0.1143
  H  H117  1  0.978300  0.399800  0.904300  1.0  0.0628
  H  H118  1  0.294700  0.222100  0.824800  1.0  0.0982
  H  H119  1  0.201000  0.292700  0.876600  1.0  0.1281
  H  H120  1  0.343500  0.401400  0.762800  1.0  0.0933
  H  H121  1  0.857800  0.379700  0.777700  1.0  0.1271
  H  H122  1  0.785900  0.325600  0.666300  1.0  0.1175
  H  H123  1  0.635700  0.326800  0.808000  1.0  0.1155
  H  H124  1  0.918300  0.278800  0.644200  1.0  0.0957
  H  H125  1  0.071800  0.408000  0.630900  1.0  0.1082
  H  H126  1  0.954200  0.436400  0.703900  1.0  0.1693
  H  H127  1  0.833900  0.365800  0.863700  1.0  0.094
  H  H128  1  0.629600  0.397000  0.960100  1.0  0.1045
  H  H129  1  0.606200  0.378700  0.880500  1.0  0.1123
  H  H130  1  0.540100  0.309200  0.772300  1.0  0.1131
  H  H131  1  0.704300  0.268700  0.645600  1.0  0.1168
  H  H132  1  0.578600  0.242200  0.639000  1.0  0.1156
  H  H133  1  0.238700  0.213300  0.133900  1.0  0.1133
  H  H134  1  0.447400  0.259800  0.140600  1.0  0.1115
  H  H135  1  0.259400  0.267100  0.262900  1.0  0.1044
  H  H136  1  0.103500  0.271800  0.176400  1.0  0.0692
  H  H137  1  0.148100  0.218000  0.309500  1.0  0.1268
  H  H138  1  0.006500  0.213300  0.321200  1.0  0.1041
  H  H139  1  0.505400  0.226500  0.213500  1.0  0.0997
  H  H140  1  0.343700  0.359000  0.272700  1.0  0.1238
  H  H141  1  0.455100  0.364100  0.305400  1.0  0.1036
  H  H142  1  0.302800  0.250600  0.044000  1.0  0.0981
  H  H143  1  0.483000  0.156600  0.088600  1.0  0.1223
  H  H144  1  0.508800  0.171600  0.991900  1.0  0.1078
  H  H145  1  0.833800  0.016800  0.313000  1.0  0.1195
  H  H146  1  0.640400  0.915300  0.383000  1.0  0.1261
  H  H147  1  0.635200  0.111100  0.383300  1.0  0.1069
  H  H148  1  0.839900  0.132300  0.259200  1.0  0.0928
  H  H149  1  0.737300  0.183700  0.396300  1.0  0.1343
  H  H150  1  0.819200  0.271300  0.344200  1.0  0.1001
  H  H151  1  0.866900  0.927700  0.263200  1.0  0.0993
  H  H152  1  0.830000  0.750000  0.331100  1.0  0.0938
  H  H153  1  0.735200  0.822100  0.381900  1.0  0.1263
  H  H154  1  0.504900  0.934700  0.396200  1.0  0.0953
  H  H155  1  0.524800  0.095400  0.453900  1.0  0.1226
  H  H156  1  0.390000  0.064100  0.486900  1.0  0.1049
  H  H157  1  0.320500  0.840500  0.159300  1.0  0.1076
  H  H158  1  0.170500  0.854700  0.298100  1.0  0.1102
  H  H159  1  0.395600  0.897000  0.268300  1.0  0.1052
  H  H160  1  0.501000  0.946200  0.191700  1.0  0.1296
  H  H161  1  0.617400  0.906000  0.128100  1.0  0.1001
  H  H162  1  0.448900  0.793700  0.134500  1.0  0.1076
  H  H163  1  0.370300  0.899100  0.352500  1.0  0.0908
  H  H164  1  0.144900  0.894900  0.370600  1.0  0.1234
  H  H165  1  0.168400  0.932300  0.446400  1.0  0.0999
  H  H166  1  0.076000  0.834300  0.268500  1.0  0.119
  H  H167  1  0.102300  0.769700  0.137300  1.0  0.1002
  H  H168  1  0.230200  0.799400  0.135600  1.0  0.1275
  H  H169  1  0.276400  0.103300  0.788000  1.0  0.1106
  H  H170  1  0.209300  0.008200  0.820100  1.0  0.096
  H  H171  1  0.261800  0.908900  0.794900  1.0  0.1088
  H  H172  1  0.456500  0.994500  0.706600  1.0  0.0964
  H  H173  1  0.417800  0.477500  0.593700  1.0  0.107
  H  H174  1  0.353800  0.533700  0.539700  1.0  0.0967
  H  H175  1  0.261900  0.485300  0.517600  1.0  0.1109
  H  H176  1  0.296100  0.318100  0.603700  1.0  0.099
  H  H177  1  0.576700  0.395500  0.141000  1.0  0.0913
  H  H178  1  0.500400  0.450200  0.204300  1.0  0.1132
  H  H179  1  0.493400  0.565600  0.193900  1.0  0.103
  H  H180  1  0.660500  0.562400  0.059100  1.0  0.1202
  H  H181  1  0.960200  0.171900  0.961900  1.0  0.1204
  H  H182  1  0.022800  0.094800  0.008900  1.0  0.0808
  H  H183  1  0.014500  0.106000  0.091600  1.0  0.1091
  H  H184  1  0.887500  0.276600  0.081400  1.0  0.1006
  H  H185  1  0.086100  0.897000  0.612200  1.0  0.1044
  H  H186  1  0.985400  0.936400  0.676300  1.0  0.1285
  H  H187  1  0.964900  0.050400  0.675600  1.0  0.0874
  H  H188  1  0.151100  0.083400  0.555100  1.0  0.1097
  H  H189  1  0.473500  0.694800  0.443200  1.0  0.0944
  H  H190  1  0.502200  0.596600  0.489000  1.0  0.0964
  H  H191  1  0.472000  0.589600  0.577500  1.0  0.1075
  H  H192  1  0.392300  0.776400  0.571500  1.0  0.0843
  H  H193  1  0.810500  0.628700  0.287400  1.0  0.0959
  H  H194  1  0.743700  0.532700  0.319700  1.0  0.0945
  H  H195  1  0.797400  0.433700  0.294900  1.0  0.1192
  H  H196  1  0.990400  0.520500  0.208300  1.0  0.1017
  H  H197  1  0.821800  0.834200  0.108000  1.0  0.0949
  H  H198  1  0.939200  0.997200  0.086700  1.0  0.0907
  H  H199  1  0.886300  0.042900  0.024900  1.0  0.1191
  H  H200  1  0.795500  0.985400  0.006800  1.0  0.1
  C  C201  1  0.867500  0.454600  0.129700  1.0  -0.2275
  C  C202  1  0.790400  0.454000  0.156600  1.0  0.1883
  C  C203  1  0.749300  0.510900  0.171800  1.0  -0.227
  C  C204  1  0.785700  0.569500  0.159700  1.0  0.1488
  C  C205  1  0.863900  0.572200  0.131900  1.0  -0.2245
  C  C206  1  0.903200  0.514600  0.117400  1.0  0.1432
  C  C207  1  0.759700  0.344000  0.140700  1.0  -0.1659
  C  C208  1  0.719000  0.295600  0.170900  1.0  0.0472
  C  C209  1  0.709700  0.371100  0.216500  1.0  0.1876
  C  C210  1  0.019300  0.481200  0.041600  1.0  -0.0633
  C  C211  1  0.092100  0.501700  0.020000  1.0  -0.0703
  C  C212  1  0.035600  0.560200  0.082400  1.0  0.2547
  C  C213  1  0.707700  0.732100  0.181300  1.0  0.0532
  C  C214  1  0.759500  0.694200  0.152700  1.0  -0.1629
  C  C215  1  0.680400  0.634600  0.215800  1.0  0.182
  C  C216  1  0.181100  0.635400  0.233000  1.0  -0.2205
  C  C217  1  0.167500  0.650000  0.282100  1.0  0.1799
  C  C218  1  0.224700  0.668500  0.299600  1.0  -0.202
  C  C219  1  0.298600  0.678600  0.266400  1.0  0.1167
  C  C220  1  0.315200  0.666500  0.215000  1.0  -0.23
  C  C221  1  0.256400  0.644500  0.200300  1.0  0.1418
  C  C222  1  0.057200  0.685700  0.350800  1.0  0.1124
  C  C223  1  0.973600  0.615100  0.357300  1.0  0.0507
  C  C224  1  0.039400  0.597300  0.316500  1.0  -0.0336
  C  C225  1  0.219800  0.627800  0.122700  1.0  0.197
  C  C226  1  0.331900  0.610700  0.069800  1.0  -0.0059
  C  C227  1  0.345500  0.621400  0.113800  1.0  -0.0983
  C  C228  1  0.434700  0.704400  0.259400  1.0  0.1001
  C  C229  1  0.343600  0.726300  0.329900  1.0  -0.1095
  C  C230  1  0.413000  0.741800  0.333400  1.0  -0.0329
  C  C231  1  0.730700  0.773300  0.848000  1.0  -0.1783
  C  C232  1  0.651500  0.765500  0.871070  1.0  0.1973
  C  C233  1  0.605600  0.745400  0.844000  1.0  -0.1182
  C  C234  1  0.639000  0.733200  0.793790  1.0  0.1683
  C  C235  1  0.718200  0.741000  0.770720  1.0  -0.1742
  C  C236  1  0.764000  0.761100  0.797800  1.0  0.1644
  C  C237  1  0.903100  0.748200  0.790600  1.0  0.2313
  C  C238  1  0.877500  0.772700  0.715300  1.0  -0.0599
  C  C239  1  0.955700  0.774100  0.709100  1.0  -0.0108
  C  C240  1  0.520600  0.740500  0.766900  1.0  0.1179
  C  C241  1  0.610400  0.667300  0.734900  1.0  -0.1126
  C  C242  1  0.548700  0.664900  0.716700  1.0  0.0053
  C  C243  1  0.651400  0.777600  0.957000  1.0  0.1016
  C  C244  1  0.550900  0.826100  0.931500  1.0  -0.0358
  C  C245  1  0.539800  0.819000  0.983300  1.0  0.029
  C  C246  1  0.218800  0.984300  0.668900  1.0  -0.199
  C  C247  1  0.255300  0.042700  0.656600  1.0  0.1163
  C  C248  1  0.334900  0.045000  0.627000  1.0  -0.2174
  C  C249  1  0.374400  0.985900  0.613600  1.0  0.1251
  C  C250  1  0.337600  0.928000  0.626500  1.0  -0.1932
  C  C251  1  0.260900  0.927200  0.653900  1.0  0.1324
  C  C252  1  0.174900  0.843600  0.713100  1.0  0.1753
  C  C253  1  0.232000  0.816400  0.637200  1.0  -0.1432
  C  C254  1  0.186900  0.768400  0.666667  1.0  0.0411
  C  C255  1  0.153700  0.107900  0.713500  1.0  0.1497
  C  C256  1  0.174400  0.204400  0.676400  1.0  0.0735
  C  C257  1  0.226500  0.165200  0.648100  1.0  -0.1423
  C  C258  1  0.507400  0.029300  0.585300  1.0  0.1394
  C  C259  1  0.495800  0.940800  0.553500  1.0  -0.1626
  C  C260  1  0.570000  0.958000  0.535700  1.0  0.0251
  C  C261  1  0.630300  0.131100  0.791500  1.0  0.1518
  C  C262  1  0.689500  0.149700  0.807500  1.0  -0.1892
  C  C263  1  0.764400  0.154000  0.774200  1.0  0.1218
  C  C264  1  0.779800  0.140700  0.724600  1.0  -0.1937
  C  C265  1  0.719400  0.120000  0.709000  1.0  0.1366
  C  C266  1  0.644600  0.115900  0.742300  1.0  -0.2107
  C  C267  1  0.495000  0.089100  0.826900  1.0  -0.1381
  C  C268  1  0.431300  0.112000  0.862300  1.0  0.0482
  C  C269  1  0.522900  0.174300  0.859100  1.0  0.1524
  C  C270  1  0.683500  0.096600  0.633500  1.0  0.1647
  C  C271  1  0.807300  0.098500  0.624800  1.0  -0.1382
  C  C272  1  0.793100  0.080000  0.582100  1.0  0.0044
  C  C273  1  0.901600  0.178100  0.764000  1.0  0.1147
  C  C274  1  0.886400  0.213400  0.836500  1.0  0.0424
  C  C275  1  0.815600  0.197500  0.837900  1.0  -0.1679
  C  C276  1  0.578500  0.881200  0.275200  1.0  0.6678
  C  C277  1  0.623800  0.942100  0.254800  1.0  -0.1576
  C  C278  1  0.700800  0.937400  0.221300  1.0  -0.0842
  C  C279  1  0.741200  0.994200  0.202900  1.0  -0.1005
  C  C280  1  0.709600  0.053700  0.218000  1.0  -0.0259
  C  C281  1  0.635000  0.059700  0.252600  1.0  -0.211
  C  C282  1  0.601900  0.123400  0.271900  1.0  0.6965
  C  C283  1  0.593100  0.002700  0.270500  1.0  -0.0025
  C  C284  1  0.601400  0.642600  0.354300  1.0  0.6705
  C  C285  1  0.638600  0.608100  0.392300  1.0  -0.0433
  C  C286  1  0.620400  0.543000  0.414200  1.0  -0.1033
  C  C287  1  0.658300  0.509500  0.447000  1.0  -0.1225
  C  C288  1  0.712900  0.538400  0.460200  1.0  -0.0761
  C  C289  1  0.731500  0.602300  0.441300  1.0  -0.1357
  C  C290  1  0.693100  0.638000  0.408000  1.0  -0.0113
  C  C291  1  0.795400  0.635300  0.451900  1.0  0.7053
  C  C292  1  0.323600  0.561200  0.947100  1.0  0.7039
  C  C293  1  0.374400  0.527200  0.904800  1.0  -0.0859
  C  C294  1  0.422800  0.558800  0.862300  1.0  -0.0712
  C  C295  1  0.469300  0.526700  0.825200  1.0  -0.1523
  C  C296  1  0.472400  0.457300  0.831200  1.0  -0.0936
  C  C297  1  0.426100  0.423800  0.873000  1.0  -0.1264
  C  C298  1  0.373000  0.459500  0.912100  1.0  -0.0696
  C  C299  1  0.434000  0.350700  0.880300  1.0  0.6898
  C  C300  1  0.121000  0.715000  0.012100  1.0  0.6856
  C  C301  1  0.081700  0.768200  0.982200  1.0  -0.1137
  C  C302  1  0.042000  0.822700  0.005000  1.0  -0.1098
  C  C303  1  0.005300  0.869000  0.976300  1.0  -0.1008
  C  C304  1  0.010000  0.862300  0.926600  1.0  -0.045
  C  C305  1  0.050300  0.809400  0.904200  1.0  -0.1004
  C  C306  1  0.086200  0.760400  0.933100  1.0  -0.0352
  C  C307  1  0.056000  0.800000  0.850800  1.0  0.6795
  C  C308  1  0.801200  0.047500  0.460200  1.0  0.643
  C  C309  1  0.871200  0.013700  0.420500  1.0  -0.1195
  C  C310  1  0.921900  0.057900  0.385500  1.0  -0.0422
  C  C311  1  0.982200  0.035100  0.348500  1.0  -0.1328
  C  C312  1  0.993700  0.966900  0.349200  1.0  -0.0816
  C  C313  1  0.945100  0.923800  0.385700  1.0  -0.1185
  C  C314  1  0.882500  0.945400  0.421300  1.0  -0.0329
  C  C315  1  0.963400  0.852900  0.384000  1.0  0.6824
  C  C316  1  0.593100  0.192700  0.525000  1.0  0.6681
  C  C317  1  0.572200  0.255200  0.497000  1.0  -0.1127
  C  C318  1  0.538200  0.308200  0.521600  1.0  -0.024
  C  C319  1  0.520700  0.367100  0.494200  1.0  -0.1173
  C  C320  1  0.538100  0.371100  0.441100  1.0  -0.0423
  C  C321  1  0.570000  0.317100  0.416600  1.0  -0.139
  C  C322  1  0.586200  0.260300  0.445100  1.0  -0.0485
  C  C323  1  0.586400  0.318200  0.361700  1.0  0.7082
  C  C324  1  0.046300  0.353500  0.774900  1.0  0.6709
  C  C325  1  0.091300  0.414800  0.754000  1.0  -0.1366
  C  C326  1  0.165900  0.411700  0.721900  1.0  -0.0356
  C  C327  1  0.206500  0.469600  0.703100  1.0  -0.0908
  C  C328  1  0.174700  0.528400  0.717400  1.0  -0.0284
  C  C329  1  0.101300  0.532100  0.750100  1.0  -0.1307
  C  C330  1  0.059300  0.476300  0.769000  1.0  -0.0351
  C  C331  1  0.067900  0.598800  0.768700  1.0  0.7073
  C  C332  1  0.261100  0.133800  0.959400  1.0  0.6454
  C  C333  1  0.199100  0.097600  0.946200  1.0  -0.1297
  C  C334  1  0.164800  0.124100  0.908800  1.0  -0.0181
  C  C335  1  0.111600  0.091300  0.895700  1.0  -0.0861
  C  C336  1  0.095500  0.026800  0.921900  1.0  -0.1107
  C  C337  1  0.127100  0.998700  0.958200  1.0  -0.1029
  C  C338  1  0.180100  0.034100  0.969200  1.0  -0.0469
  C  C339  1  0.078400  0.116900  0.853500  1.0  0.6863
  C  C340  1  0.132500  0.545400  0.870300  1.0  -0.2274
  C  C341  1  0.209600  0.546000  0.843400  1.0  0.1881
  C  C342  1  0.250700  0.489100  0.828200  1.0  -0.2259
  C  C343  1  0.214300  0.430500  0.840300  1.0  0.1489
  C  C344  1  0.136100  0.427800  0.868100  1.0  -0.2245
  C  C345  1  0.096800  0.485400  0.882600  1.0  0.1421
  C  C346  1  0.240300  0.656000  0.859300  1.0  -0.1673
  C  C347  1  0.281000  0.704400  0.829100  1.0  0.0482
  C  C348  1  0.290300  0.628900  0.783500  1.0  0.1876
  C  C349  1  0.980700  0.518800  0.958400  1.0  -0.065
  C  C350  1  0.907900  0.498300  0.980000  1.0  -0.0711
  C  C351  1  0.964400  0.439800  0.917600  1.0  0.2523
  C  C352  1  0.292300  0.267900  0.818700  1.0  0.0541
  C  C353  1  0.240500  0.305800  0.847300  1.0  -0.1633
  C  C354  1  0.319600  0.365400  0.784200  1.0  0.1812
  C  C355  1  0.818900  0.364600  0.767000  1.0  -0.2193
  C  C356  1  0.832500  0.350000  0.717900  1.0  0.1791
  C  C357  1  0.775300  0.331500  0.700400  1.0  -0.2006
  C  C358  1  0.701400  0.321400  0.733600  1.0  0.1171
  C  C359  1  0.684800  0.333500  0.785000  1.0  -0.2317
  C  C360  1  0.743600  0.355500  0.799700  1.0  0.1411
  C  C361  1  0.942800  0.314300  0.649200  1.0  0.1135
  C  C362  1  0.026400  0.384900  0.642700  1.0  0.0528
  C  C363  1  0.960600  0.402700  0.683500  1.0  -0.035
  C  C364  1  0.780200  0.372200  0.877300  1.0  0.1988
  C  C365  1  0.668100  0.389300  0.930200  1.0  -0.0073
  C  C366  1  0.654500  0.378600  0.886200  1.0  -0.1009
  C  C367  1  0.565300  0.295600  0.740600  1.0  0.1006
  C  C368  1  0.656400  0.273700  0.670100  1.0  -0.1057
  C  C369  1  0.587000  0.258200  0.666667  1.0  -0.0287
  C  C370  1  0.269300  0.226700  0.152000  1.0  -0.1779
  C  C371  1  0.348500  0.234500  0.128930  1.0  0.1974
  C  C372  1  0.394400  0.254600  0.156000  1.0  -0.1173
  C  C373  1  0.361000  0.266800  0.206210  1.0  0.169
  C  C374  1  0.281800  0.259000  0.229280  1.0  -0.1772
  C  C375  1  0.236000  0.238900  0.202200  1.0  0.1648
  C  C376  1  0.096900  0.251800  0.209400  1.0  0.2317
  C  C377  1  0.122500  0.227300  0.284700  1.0  -0.062
  C  C378  1  0.044300  0.225900  0.290900  1.0  -0.0088
  C  C379  1  0.479400  0.259500  0.233100  1.0  0.1192
  C  C380  1  0.389600  0.332700  0.265100  1.0  -0.1123
  C  C381  1  0.451300  0.335100  0.283300  1.0  0.0037
  C  C382  1  0.348600  0.222400  0.043000  1.0  0.1006
  C  C383  1  0.449100  0.173900  0.068500  1.0  -0.0361
  C  C384  1  0.460200  0.181000  0.016700  1.0  0.0288
  C  C385  1  0.781200  0.015700  0.331100  1.0  -0.1972
  C  C386  1  0.744700  0.957300  0.343400  1.0  0.1169
  C  C387  1  0.665100  0.955000  0.373000  1.0  -0.2177
  C  C388  1  0.625600  0.014100  0.386400  1.0  0.1231
  C  C389  1  0.662400  0.072000  0.373500  1.0  -0.1952
  C  C390  1  0.739100  0.072800  0.346100  1.0  0.1321
  C  C391  1  0.825100  0.156400  0.286900  1.0  0.1745
  C  C392  1  0.768000  0.183600  0.362800  1.0  -0.1456
  C  C393  1  0.813100  0.231600  0.333400  1.0  0.0526
  C  C394  1  0.846300  0.892100  0.286500  1.0  0.1503
  C  C395  1  0.825600  0.795600  0.323600  1.0  0.0718
  C  C396  1  0.773500  0.834800  0.351900  1.0  -0.1432
  C  C397  1  0.492600  0.970700  0.414700  1.0  0.1399
  C  C398  1  0.504200  0.059200  0.446500  1.0  -0.1631
  C  C399  1  0.430000  0.042000  0.464300  1.0  0.0243
  C  C400  1  0.369700  0.868900  0.208500  1.0  0.1508
  C  C401  1  0.310500  0.850300  0.192500  1.0  -0.1869
  C  C402  1  0.235600  0.846000  0.225800  1.0  0.1221
  C  C403  1  0.220200  0.859300  0.275400  1.0  -0.1943
  C  C404  1  0.280600  0.880000  0.291000  1.0  0.1364
  C  C405  1  0.355400  0.884100  0.257700  1.0  -0.2107
  C  C406  1  0.505000  0.910900  0.173100  1.0  -0.1361
  C  C407  1  0.568700  0.888000  0.137700  1.0  0.0487
  C  C408  1  0.477100  0.825700  0.140900  1.0  0.1523
  C  C409  1  0.316500  0.903400  0.366500  1.0  0.1648
  C  C410  1  0.192700  0.901500  0.375200  1.0  -0.1382
  C  C411  1  0.206900  0.920000  0.417900  1.0  0.0047
  C  C412  1  0.098400  0.821900  0.236000  1.0  0.1129
  C  C413  1  0.113600  0.786600  0.163500  1.0  0.0428
  C  C414  1  0.184400  0.802500  0.162100  1.0  -0.1647
  C  C415  1  0.421500  0.118800  0.724800  1.0  0.6677
  C  C416  1  0.376200  0.057900  0.745200  1.0  -0.157
  C  C417  1  0.299200  0.062600  0.778700  1.0  -0.0832
  C  C418  1  0.258800  0.005800  0.797100  1.0  -0.1005
  C  C419  1  0.290400  0.946300  0.782000  1.0  -0.0253
  C  C420  1  0.365000  0.940300  0.747400  1.0  -0.2135
  C  C421  1  0.398100  0.876600  0.728100  1.0  0.6964
  C  C422  1  0.406900  0.997300  0.729500  1.0  -0.003
  C  C423  1  0.398600  0.357400  0.645700  1.0  0.6698
  C  C424  1  0.361400  0.391900  0.607700  1.0  -0.0421
  C  C425  1  0.379600  0.457000  0.585800  1.0  -0.104
  C  C426  1  0.341700  0.490500  0.553000  1.0  -0.1211
  C  C427  1  0.287100  0.461600  0.539800  1.0  -0.0749
  C  C428  1  0.268500  0.397700  0.558700  1.0  -0.14
  C  C429  1  0.306900  0.362000  0.592000  1.0  -0.0106
  C  C430  1  0.204600  0.364700  0.548100  1.0  0.7071
  C  C431  1  0.676400  0.438800  0.052900  1.0  0.7045
  C  C432  1  0.625600  0.472800  0.095200  1.0  -0.0905
  C  C433  1  0.577200  0.441200  0.137700  1.0  -0.0709
  C  C434  1  0.530700  0.473300  0.174800  1.0  -0.1517
  C  C435  1  0.527600  0.542700  0.168800  1.0  -0.0936
  C  C436  1  0.573900  0.576200  0.127000  1.0  -0.125
  C  C437  1  0.627000  0.540500  0.087900  1.0  -0.0729
  C  C438  1  0.566000  0.649300  0.119700  1.0  0.6879
  C  C439  1  0.879000  0.285000  0.987900  1.0  0.6859
  C  C440  1  0.918300  0.231800  0.017800  1.0  -0.1126
  C  C441  1  0.958000  0.177300  0.995000  1.0  -0.1081
  C  C442  1  0.994700  0.131000  0.023700  1.0  -0.1007
  C  C443  1  0.990000  0.137700  0.073400  1.0  -0.0461
  C  C444  1  0.949700  0.190600  0.095800  1.0  -0.1008
  C  C445  1  0.913800  0.239600  0.066900  1.0  -0.0369
  C  C446  1  0.944000  0.200000  0.149200  1.0  0.6803
  C  C447  1  0.198800  0.952500  0.539800  1.0  0.6429
  C  C448  1  0.128800  0.986300  0.579500  1.0  -0.1247
  C  C449  1  0.078100  0.942100  0.614500  1.0  -0.0419
  C  C450  1  0.017800  0.964900  0.651500  1.0  -0.1337
  C  C451  1  0.006300  0.033100  0.650800  1.0  -0.0829
  C  C452  1  0.054900  0.076200  0.614300  1.0  -0.1198
  C  C453  1  0.117500  0.054600  0.578700  1.0  -0.0347
  C  C454  1  0.036600  0.147100  0.616000  1.0  0.6814
  C  C455  1  0.406900  0.807300  0.475000  1.0  0.6682
  C  C456  1  0.427800  0.744800  0.503000  1.0  -0.1118
  C  C457  1  0.461800  0.691800  0.478400  1.0  -0.0228
  C  C458  1  0.479300  0.632900  0.505800  1.0  -0.1181
  C  C459  1  0.461900  0.628900  0.558900  1.0  -0.0423
  C  C460  1  0.430000  0.682900  0.583400  1.0  -0.1392
  C  C461  1  0.413800  0.739700  0.554900  1.0  -0.0485
  C  C462  1  0.413600  0.681800  0.638300  1.0  0.7101
  C  C463  1  0.953700  0.646500  0.225100  1.0  0.6702
  C  C464  1  0.908700  0.585200  0.246000  1.0  -0.1354
  C  C465  1  0.834100  0.588300  0.278100  1.0  -0.0379
  C  C466  1  0.793500  0.530400  0.296900  1.0  -0.0917
  C  C467  1  0.825300  0.471600  0.282600  1.0  -0.0318
  C  C468  1  0.898700  0.467900  0.249900  1.0  -0.1305
  C  C469  1  0.940700  0.523700  0.231000  1.0  -0.0366
  C  C470  1  0.932100  0.401200  0.231300  1.0  0.7071
  C  C471  1  0.738900  0.866200  0.040600  1.0  0.6466
  C  C472  1  0.800900  0.902400  0.053800  1.0  -0.1319
  C  C473  1  0.835200  0.875900  0.091200  1.0  -0.0184
  C  C474  1  0.888400  0.908700  0.104300  1.0  -0.0869
  C  C475  1  0.904500  0.973200  0.078100  1.0  -0.1132
  C  C476  1  0.872900  0.001300  0.041800  1.0  -0.1031
  C  C477  1  0.819900  0.965900  0.030800  1.0  -0.0446
  C  C478  1  0.921600  0.883100  0.146500  1.0  0.6849
  N  N479  1  0.656600  0.696400  0.221830  1.0  -0.4214
  N  N480  1  0.743400  0.629300  0.175300  1.0  0.0222
  N  N481  1  0.753600  0.393300  0.171140  1.0  0.0488
  N  N482  1  0.687400  0.311400  0.218600  1.0  -0.3976
  N  N483  1  0.986000  0.516900  0.088800  1.0  -0.1814
  N  N484  1  0.104900  0.545900  0.056800  1.0  -0.3779
  N  N485  1  0.253400  0.613200  0.076100  1.0  -0.3363
  N  N486  1  0.271600  0.632500  0.149050  1.0  -0.0691
  N  N487  1  0.984800  0.670400  0.377000  1.0  -0.4186
  N  N488  1  0.090800  0.643800  0.316000  1.0  0.0598
  N  N489  1  0.468300  0.730000  0.289500  1.0  -0.3413
  N  N490  1  0.355300  0.702000  0.284500  1.0  0.0132
  N  N491  1  0.971800  0.758300  0.758200  1.0  -0.4009
  N  N492  1  0.845200  0.768300  0.773000  1.0  -0.1705
  N  N493  1  0.592700  0.714700  0.765800  1.0  0.0676
  N  N494  1  0.491800  0.712800  0.736500  1.0  -0.3951
  N  N495  1  0.607400  0.799700  0.996800  1.0  -0.3902
  N  N496  1  0.623300  0.797400  0.914700  1.0  0.0332
  N  N497  1  0.151600  0.785300  0.714200  1.0  -0.3899
  N  N498  1  0.222300  0.865400  0.667880  1.0  0.0507
  N  N499  1  0.213500  0.102800  0.671450  1.0  0.0437
  N  N500  1  0.128000  0.169400  0.717760  1.0  -0.4024
  N  N501  1  0.456200  0.986600  0.584720  1.0  0.0468
  N  N502  1  0.577400  0.014100  0.556500  1.0  -0.3775
  N  N503  1  0.715900  0.082600  0.587600  1.0  -0.393
  N  N504  1  0.733300  0.104500  0.659190  1.0  0.0317
  N  N505  1  0.824800  0.175300  0.791200  1.0  -0.0005
  N  N506  1  0.939100  0.202000  0.792490  1.0  -0.3111
  N  N507  1  0.552700  0.131300  0.825100  1.0  0.0609
  N  N508  1  0.448000  0.165500  0.882300  1.0  -0.4098
  N  N509  1  0.343400  0.303600  0.778170  1.0  -0.4201
  N  N510  1  0.256600  0.370700  0.824700  1.0  0.021
  N  N511  1  0.246400  0.606700  0.828860  1.0  0.049
  N  N512  1  0.312600  0.688600  0.781400  1.0  -0.3967
  N  N513  1  0.014000  0.483100  0.911200  1.0  -0.1812
  N  N514  1  0.895100  0.454100  0.943200  1.0  -0.3754
  N  N515  1  0.746600  0.386800  0.923900  1.0  -0.3373
  N  N516  1  0.728400  0.367500  0.850950  1.0  -0.0677
  N  N517  1  0.015200  0.329600  0.623000  1.0  -0.4174
  N  N518  1  0.909200  0.356200  0.684000  1.0  0.0602
  N  N519  1  0.531700  0.270000  0.710500  1.0  -0.3424
  N  N520  1  0.644700  0.298000  0.715500  1.0  0.0127
  N  N521  1  0.028200  0.241700  0.241800  1.0  -0.399
  N  N522  1  0.154800  0.231700  0.227000  1.0  -0.1692
  N  N523  1  0.407300  0.285300  0.234200  1.0  0.068
  N  N524  1  0.508200  0.287200  0.263500  1.0  -0.3941
  N  N525  1  0.392600  0.200300  0.003200  1.0  -0.3876
  N  N526  1  0.376700  0.202600  0.085300  1.0  0.0328
  N  N527  1  0.848400  0.214700  0.285800  1.0  -0.3913
  N  N528  1  0.777700  0.134600  0.332120  1.0  0.0515
  N  N529  1  0.786500  0.897200  0.328550  1.0  0.044
  N  N530  1  0.872000  0.830600  0.282240  1.0  -0.4012
  N  N531  1  0.543800  0.013400  0.415280  1.0  0.0483
  N  N532  1  0.422600  0.985900  0.443500  1.0  -0.3771
  N  N533  1  0.284100  0.917400  0.412400  1.0  -0.3923
  N  N534  1  0.266700  0.895500  0.340810  1.0  0.0339
  N  N535  1  0.175200  0.824700  0.208800  1.0  0.0002
  N  N536  1  0.060900  0.798000  0.207510  1.0  -0.31
  N  N537  1  0.447300  0.868700  0.174900  1.0  0.063
  N  N538  1  0.552000  0.834500  0.117700  1.0  -0.4098
  O  O539  1  0.633100  0.148400  0.495880  1.0  -0.599
  O  O540  1  0.575100  0.181600  0.570600  1.0  -0.5443
  O  O541  1  0.579800  0.369600  0.334400  1.0  -0.5436
  O  O542  1  0.605500  0.263600  0.343220  1.0  -0.6033
  O  O543  1  0.750300  0.012100  0.485600  1.0  -0.5443
  O  O544  1  0.806900  0.108900  0.465800  1.0  -0.5643
  O  O545  1  0.912600  0.815400  0.416900  1.0  -0.6434
  O  O546  1  0.025900  0.832200  0.356300  1.0  -0.5647
  O  O547  1  0.086800  0.179000  0.839440  1.0  -0.6063
  O  O548  1  0.047700  0.082100  0.834260  1.0  -0.539
  O  O549  1  0.294200  0.105900  0.989400  1.0  -0.5268
  O  O550  1  0.273800  0.190400  0.934600  1.0  -0.6018
  O  O551  1  0.980800  0.357900  0.804500  1.0  -0.5392
  O  O552  1  0.082900  0.301600  0.758080  1.0  -0.5942
  O  O553  1  0.002400  0.603200  0.798200  1.0  -0.55
  O  O554  1  0.113100  0.645490  0.752010  1.0  -0.6095
  O  O555  1  0.265500  0.535200  0.977700  1.0  -0.5995
  O  O556  1  0.342700  0.617300  0.952700  1.0  -0.6113
  O  O557  1  0.374400  0.318000  0.909700  1.0  -0.6097
  O  O558  1  0.494700  0.319200  0.859240  1.0  -0.5535
  O  O559  1  0.164500  0.672200  0.985430  1.0  -0.6003
  O  O560  1  0.106800  0.714000  0.057400  1.0  -0.5433
  O  O561  1  0.072800  0.740500  0.839340  1.0  -0.603
  O  O562  1  0.044100  0.846100  0.820500  1.0  -0.5172
  O  O563  1  0.616500  0.827100  0.260840  1.0  -0.6234
  O  O564  1  0.510400  0.885300  0.302740  1.0  -0.5554
  O  O565  1  0.645500  0.171700  0.253180  1.0  -0.5975
  O  O566  1  0.537500  0.127100  0.301000  1.0  -0.5226
  O  O567  1  0.809400  0.694700  0.431600  1.0  -0.5967
  O  O568  1  0.834500  0.601600  0.477100  1.0  -0.4948
  O  O569  1  0.610800  0.704200  0.341570  1.0  -0.6051
  O  O570  1  0.567100  0.609200  0.333030  1.0  -0.5722
  O  O571  1  0.366900  0.851600  0.504120  1.0  -0.5985
  O  O572  1  0.424900  0.818400  0.429400  1.0  -0.5439
  O  O573  1  0.420200  0.630400  0.665600  1.0  -0.5418
  O  O574  1  0.394500  0.736400  0.656780  1.0  -0.6048
  O  O575  1  0.249700  0.987900  0.514400  1.0  -0.5463
  O  O576  1  0.193100  0.891100  0.534200  1.0  -0.5656
  O  O577  1  0.087400  0.184600  0.583100  1.0  -0.6436
  O  O578  1  0.974100  0.167800  0.643700  1.0  -0.563
  O  O579  1  0.913200  0.821000  0.160560  1.0  -0.605
  O  O580  1  0.952300  0.917900  0.165740  1.0  -0.5399
  O  O581  1  0.705800  0.894100  0.010600  1.0  -0.5265
  O  O582  1  0.726200  0.809600  0.065400  1.0  -0.6009
  O  O583  1  0.019200  0.642100  0.195500  1.0  -0.5424
  O  O584  1  0.917100  0.698400  0.241920  1.0  -0.5951
  O  O585  1  0.997600  0.396800  0.201800  1.0  -0.5468
  O  O586  1  0.886900  0.354510  0.247990  1.0  -0.6078
  O  O587  1  0.734500  0.464800  0.022300  1.0  -0.6008
  O  O588  1  0.657300  0.382700  0.047300  1.0  -0.6106
  O  O589  1  0.625600  0.682000  0.090300  1.0  -0.6087
  O  O590  1  0.505300  0.680800  0.140760  1.0  -0.5527
  O  O591  1  0.835500  0.327800  0.014570  1.0  -0.5997
  O  O592  1  0.893200  0.286000  0.942600  1.0  -0.5399
  O  O593  1  0.927200  0.259500  0.160660  1.0  -0.6026
  O  O594  1  0.955900  0.153900  0.179500  1.0  -0.5158
  O  O595  1  0.383500  0.172900  0.739160  1.0  -0.6259
  O  O596  1  0.489600  0.114700  0.697260  1.0  -0.5592
  O  O597  1  0.354500  0.828300  0.746820  1.0  -0.5974
  O  O598  1  0.462500  0.872900  0.699000  1.0  -0.5185
  O  O599  1  0.190600  0.305300  0.568400  1.0  -0.596
  O  O600  1  0.165500  0.398400  0.522900  1.0  -0.495
  O  O601  1  0.389200  0.295800  0.658430  1.0  -0.6047
  O  O602  1  0.432900  0.390800  0.666970  1.0  -0.577
