# generated using pymatgen
data_Zr6H14C30S5O28
_symmetry_space_group_name_H-M   'P 1'
_cell_length_a   13.57000000
_cell_length_b   19.80000000
_cell_length_c   28.39000000
_cell_angle_alpha   90.00000000
_cell_angle_beta   90.00000000
_cell_angle_gamma   90.00000000
_symmetry_Int_Tables_number   1
_chemical_formula_structural   Zr6H14C30S5O28
_chemical_formula_sum   'Zr24 H56 C120 S20 O112'
_cell_volume   7627.99554000
_cell_formula_units_Z   4
loop_
 _symmetry_equiv_pos_site_id
 _symmetry_equiv_pos_as_xyz
  1  'x, y, z'
loop_
 _atom_site_type_symbol
 _atom_site_label
 _atom_site_symmetry_multiplicity
 _atom_site_fract_x
 _atom_site_fract_y
 _atom_site_fract_z
 _atom_site_occupancy
 _atom_site_charge
  Zr  Zr1  1  0.193730  0.121930  0.626600  1.0  1.8784
  Zr  Zr2  1  0.303900  0.883100  0.623600  1.0  1.8059
  Zr  Zr3  1  0.142500  0.977390  0.696150  1.0  1.9999
  Zr  Zr4  1  0.387500  0.030000  0.678690  1.0  2.0113
  Zr  Zr5  1  0.353700  0.027800  0.555880  1.0  1.9931
  Zr  Zr6  1  0.109300  0.975300  0.570930  1.0  1.9968
  Zr  Zr7  1  0.306270  0.878070  0.126600  1.0  1.8782
  Zr  Zr8  1  0.196100  0.116900  0.123600  1.0  1.8074
  Zr  Zr9  1  0.357500  0.022610  0.196150  1.0  1.9832
  Zr  Zr10  1  0.112500  0.970000  0.178690  1.0  2.0182
  Zr  Zr11  1  0.146300  0.972200  0.055880  1.0  2.0123
  Zr  Zr12  1  0.390700  0.024700  0.070930  1.0  1.9772
  Zr  Zr13  1  0.806270  0.621930  0.873400  1.0  1.8763
  Zr  Zr14  1  0.696100  0.383100  0.876400  1.0  1.808
  Zr  Zr15  1  0.857500  0.477390  0.803850  1.0  1.9831
  Zr  Zr16  1  0.612500  0.530000  0.821310  1.0  2.0188
  Zr  Zr17  1  0.646300  0.527800  0.944120  1.0  2.012
  Zr  Zr18  1  0.890700  0.475300  0.929070  1.0  1.9768
  Zr  Zr19  1  0.693730  0.378070  0.373400  1.0  1.8801
  Zr  Zr20  1  0.803900  0.616900  0.376400  1.0  1.8047
  Zr  Zr21  1  0.642500  0.522610  0.303850  1.0  1.9987
  Zr  Zr22  1  0.887500  0.470000  0.321310  1.0  2.0116
  Zr  Zr23  1  0.853700  0.472200  0.444120  1.0  1.9914
  Zr  Zr24  1  0.609300  0.524700  0.429070  1.0  1.9972
  H  H25  1  0.295100  0.323700  0.689800  1.0  0.1126
  H  H26  1  0.377700  0.413500  0.735400  1.0  0.1306
  H  H27  1  0.277600  0.326900  0.555300  1.0  0.1126
  H  H28  1  0.377000  0.414000  0.515600  1.0  0.1141
  H  H29  1  0.207800  0.675200  0.561700  1.0  0.1133
  H  H30  1  0.096000  0.586800  0.532500  1.0  0.123
  H  H31  1  0.179100  0.679400  0.671900  1.0  0.1087
  H  H32  1  0.078900  0.591600  0.715400  1.0  0.1068
  H  H33  1  0.458200  0.015000  0.833400  1.0  0.1108
  H  H34  1  0.459900  0.034600  0.918100  1.0  0.1391
  H  H35  1  0.692660  0.415370  0.453190  1.0  0.2388
  H  H36  1  0.756740  0.421220  0.299800  1.0  0.3587
  H  H37  1  0.644660  0.619670  0.364110  1.0  0.1668
  H  H38  1  0.930310  0.558280  0.378270  1.0  0.2549
  H  H39  1  0.204900  0.676300  0.189800  1.0  0.1129
  H  H40  1  0.122300  0.586500  0.235400  1.0  0.129
  H  H41  1  0.222400  0.673100  0.055300  1.0  0.1132
  H  H42  1  0.123000  0.586000  0.015600  1.0  0.1151
  H  H43  1  0.292200  0.324800  0.061700  1.0  0.1128
  H  H44  1  0.404000  0.413200  0.032500  1.0  0.1229
  H  H45  1  0.320900  0.320600  0.171900  1.0  0.1086
  H  H46  1  0.421100  0.408400  0.215400  1.0  0.1061
  H  H47  1  0.041800  0.985000  0.333400  1.0  0.1106
  H  H48  1  0.040100  0.965400  0.418100  1.0  0.1387
  H  H49  1  0.807340  0.584630  0.953190  1.0  0.2379
  H  H50  1  0.743260  0.578780  0.799800  1.0  0.3582
  H  H51  1  0.855340  0.380330  0.864110  1.0  0.167
  H  H52  1  0.569690  0.441720  0.878270  1.0  0.2556
  H  H53  1  0.704900  0.823700  0.810200  1.0  0.1128
  H  H54  1  0.622300  0.913500  0.764600  1.0  0.1299
  H  H55  1  0.722400  0.826900  0.944700  1.0  0.1142
  H  H56  1  0.623000  0.914000  0.984400  1.0  0.1151
  H  H57  1  0.792200  0.175200  0.938300  1.0  0.1124
  H  H58  1  0.904000  0.086800  0.967500  1.0  0.1247
  H  H59  1  0.820900  0.179400  0.828100  1.0  0.109
  H  H60  1  0.921100  0.091600  0.784600  1.0  0.107
  H  H61  1  0.541800  0.515000  0.666667  1.0  0.1116
  H  H62  1  0.540100  0.534600  0.581900  1.0  0.1387
  H  H63  1  0.307340  0.915370  0.046810  1.0  0.2388
  H  H64  1  0.243260  0.921220  0.200200  1.0  0.3593
  H  H65  1  0.355340  0.119670  0.135890  1.0  0.1661
  H  H66  1  0.069690  0.058280  0.121730  1.0  0.2559
  H  H67  1  0.795100  0.176300  0.310200  1.0  0.1124
  H  H68  1  0.877700  0.086500  0.264600  1.0  0.1314
  H  H69  1  0.777600  0.173100  0.444700  1.0  0.1136
  H  H70  1  0.877000  0.086000  0.484400  1.0  0.1153
  H  H71  1  0.707800  0.824800  0.438300  1.0  0.1126
  H  H72  1  0.596000  0.913200  0.467500  1.0  0.1236
  H  H73  1  0.679100  0.820600  0.328100  1.0  0.1089
  H  H74  1  0.578900  0.908400  0.284600  1.0  0.1056
  H  H75  1  0.958200  0.485000  0.166600  1.0  0.1106
  H  H76  1  0.959900  0.465400  0.081900  1.0  0.1385
  H  H77  1  0.192660  0.084630  0.546810  1.0  0.238
  H  H78  1  0.256740  0.078780  0.700200  1.0  0.3595
  H  H79  1  0.144660  0.880330  0.635890  1.0  0.1674
  H  H80  1  0.430310  0.941720  0.621730  1.0  0.255
  C  C81  1  0.338400  0.191800  0.698300  1.0  0.7148
  C  C82  1  0.367400  0.254900  0.725000  1.0  -0.098
  C  C83  1  0.341000  0.314900  0.713500  1.0  -0.0465
  C  C84  1  0.387000  0.367600  0.740600  1.0  -0.0665
  C  C85  1  0.448100  0.342000  0.775200  1.0  -0.1787
  C  C86  1  0.512700  0.382000  0.804800  1.0  0.7361
  C  C87  1  0.316600  0.185800  0.542100  1.0  0.7347
  C  C88  1  0.352000  0.253600  0.522600  1.0  -0.1899
  C  C89  1  0.327000  0.316900  0.533800  1.0  -0.0489
  C  C90  1  0.383000  0.367900  0.509900  1.0  -0.1019
  C  C91  1  0.445000  0.339400  0.477600  1.0  -0.1951
  C  C92  1  0.512100  0.376200  0.446100  1.0  0.7209
  C  C93  1  0.146700  0.814900  0.555000  1.0  0.7294
  C  C94  1  0.110000  0.745200  0.534500  1.0  -0.1748
  C  C95  1  0.150000  0.682600  0.544700  1.0  -0.131
  C  C96  1  0.091000  0.632500  0.525300  1.0  -0.0592
  C  C97  1  0.021500  0.659200  0.493700  1.0  -0.193
  C  C98  1  0.952900  0.618800  0.461500  1.0  0.7343
  C  C99  1  0.167500  0.815500  0.700600  1.0  0.7078
  C  C100  1  0.118000  0.752300  0.714000  1.0  -0.1198
  C  C101  1  0.135000  0.688900  0.696200  1.0  -0.1012
  C  C102  1  0.075000  0.637800  0.720900  1.0  -0.0815
  C  C103  1  0.016000  0.665700  0.751300  1.0  -0.1368
  C  C104  1  0.951800  0.624600  0.783600  1.0  0.7207
  C  C105  1  0.285000  0.005500  0.779800  1.0  0.7003
  C  C106  1  0.309500  0.008300  0.829600  1.0  -0.1135
  C  C107  1  0.401000  0.015000  0.851300  1.0  -0.0722
  C  C108  1  0.406000  0.021000  0.900400  1.0  -0.0919
  C  C109  1  0.312000  0.002500  0.918000  1.0  -0.2009
  C  C110  1  0.292000  0.999400  0.968300  1.0  0.7304
  C  C111  1  0.161600  0.808200  0.198300  1.0  0.713
  C  C112  1  0.132600  0.745100  0.225000  1.0  -0.099
  C  C113  1  0.159000  0.685100  0.213500  1.0  -0.0478
  C  C114  1  0.113000  0.632400  0.240600  1.0  -0.0631
  C  C115  1  0.051900  0.658000  0.275200  1.0  -0.1793
  C  C116  1  0.987300  0.618000  0.304800  1.0  0.7348
  C  C117  1  0.183400  0.814200  0.042100  1.0  0.7336
  C  C118  1  0.148000  0.746400  0.022600  1.0  -0.1897
  C  C119  1  0.173000  0.683100  0.033800  1.0  -0.048
  C  C120  1  0.117000  0.632100  0.009900  1.0  -0.1009
  C  C121  1  0.055000  0.660600  0.977600  1.0  -0.1954
  C  C122  1  0.987900  0.623800  0.946100  1.0  0.7218
  C  C123  1  0.353300  0.185100  0.055000  1.0  0.7301
  C  C124  1  0.390000  0.254800  0.034500  1.0  -0.1743
  C  C125  1  0.350000  0.317400  0.044700  1.0  -0.1312
  C  C126  1  0.409000  0.367500  0.025300  1.0  -0.0613
  C  C127  1  0.478500  0.340800  0.993700  1.0  -0.1938
  C  C128  1  0.547100  0.381200  0.961500  1.0  0.7334
  C  C129  1  0.332500  0.184500  0.200600  1.0  0.7095
  C  C130  1  0.382000  0.247700  0.214000  1.0  -0.1207
  C  C131  1  0.365000  0.311100  0.196200  1.0  -0.0999
  C  C132  1  0.425000  0.362200  0.220900  1.0  -0.0828
  C  C133  1  0.484000  0.334300  0.251300  1.0  -0.1371
  C  C134  1  0.548200  0.375400  0.283600  1.0  0.7186
  C  C135  1  0.215000  0.994500  0.279800  1.0  0.7
  C  C136  1  0.190500  0.991700  0.329600  1.0  -0.1133
  C  C137  1  0.099000  0.985000  0.351300  1.0  -0.0707
  C  C138  1  0.094000  0.979000  0.400400  1.0  -0.0916
  C  C139  1  0.188000  0.997500  0.418000  1.0  -0.2025
  C  C140  1  0.208000  0.000600  0.468300  1.0  0.7297
  C  C141  1  0.661600  0.691800  0.801700  1.0  0.7139
  C  C142  1  0.632600  0.754900  0.775000  1.0  -0.1007
  C  C143  1  0.659000  0.814900  0.786500  1.0  -0.0464
  C  C144  1  0.613000  0.867600  0.759400  1.0  -0.0667
  C  C145  1  0.551900  0.842000  0.724800  1.0  -0.1793
  C  C146  1  0.487300  0.882000  0.695200  1.0  0.7338
  C  C147  1  0.683400  0.685800  0.957900  1.0  0.7336
  C  C148  1  0.648000  0.753600  0.977400  1.0  -0.1887
  C  C149  1  0.673000  0.816900  0.966200  1.0  -0.0486
  C  C150  1  0.617000  0.867900  0.990100  1.0  -0.1028
  C  C151  1  0.555000  0.839400  0.022400  1.0  -0.1945
  C  C152  1  0.487900  0.876200  0.053900  1.0  0.7227
  C  C153  1  0.853300  0.314900  0.945000  1.0  0.7289
  C  C154  1  0.890000  0.245200  0.965500  1.0  -0.1746
  C  C155  1  0.850000  0.182600  0.955300  1.0  -0.1309
  C  C156  1  0.909000  0.132500  0.974700  1.0  -0.0588
  C  C157  1  0.978500  0.159200  0.006300  1.0  -0.1929
  C  C158  1  0.047100  0.118800  0.038500  1.0  0.735
  C  C159  1  0.832500  0.315500  0.799400  1.0  0.7095
  C  C160  1  0.882000  0.252300  0.786000  1.0  -0.1201
  C  C161  1  0.865000  0.188900  0.803800  1.0  -0.0999
  C  C162  1  0.925000  0.137800  0.779100  1.0  -0.0819
  C  C163  1  0.984000  0.165700  0.748700  1.0  -0.1384
  C  C164  1  0.048200  0.124600  0.716400  1.0  0.7194
  C  C165  1  0.715000  0.505500  0.720200  1.0  0.6995
  C  C166  1  0.690500  0.508300  0.670400  1.0  -0.1163
  C  C167  1  0.599000  0.515000  0.648700  1.0  -0.0695
  C  C168  1  0.594000  0.521000  0.599600  1.0  -0.0925
  C  C169  1  0.688000  0.502500  0.582000  1.0  -0.2023
  C  C170  1  0.708000  0.499400  0.531700  1.0  0.7283
  C  C171  1  0.838400  0.308200  0.301700  1.0  0.7147
  C  C172  1  0.867400  0.245100  0.275000  1.0  -0.1007
  C  C173  1  0.841000  0.185100  0.286500  1.0  -0.0459
  C  C174  1  0.887000  0.132400  0.259400  1.0  -0.0646
  C  C175  1  0.948100  0.158000  0.224800  1.0  -0.1788
  C  C176  1  0.012700  0.118000  0.195200  1.0  0.7362
  C  C177  1  0.816600  0.314200  0.457900  1.0  0.7328
  C  C178  1  0.852000  0.246400  0.477400  1.0  -0.1901
  C  C179  1  0.827000  0.183100  0.466200  1.0  -0.0482
  C  C180  1  0.883000  0.132100  0.490100  1.0  -0.1007
  C  C181  1  0.945000  0.160600  0.522400  1.0  -0.1946
  C  C182  1  0.012100  0.123800  0.553900  1.0  0.7213
  C  C183  1  0.646700  0.685100  0.445000  1.0  0.7312
  C  C184  1  0.610000  0.754800  0.465500  1.0  -0.1755
  C  C185  1  0.650000  0.817400  0.455300  1.0  -0.1316
  C  C186  1  0.591000  0.867500  0.474700  1.0  -0.0608
  C  C187  1  0.521500  0.840800  0.506300  1.0  -0.1933
  C  C188  1  0.452900  0.881200  0.538500  1.0  0.7345
  C  C189  1  0.667500  0.684500  0.299400  1.0  0.7093
  C  C190  1  0.618000  0.747700  0.286000  1.0  -0.1213
  C  C191  1  0.635000  0.811100  0.303800  1.0  -0.1009
  C  C192  1  0.575000  0.862200  0.279100  1.0  -0.082
  C  C193  1  0.516000  0.834300  0.248700  1.0  -0.1372
  C  C194  1  0.451800  0.875400  0.216400  1.0  0.7208
  C  C195  1  0.785000  0.494500  0.220200  1.0  0.7002
  C  C196  1  0.809500  0.491700  0.170400  1.0  -0.1141
  C  C197  1  0.901000  0.485000  0.148700  1.0  -0.0716
  C  C198  1  0.906000  0.479000  0.099600  1.0  -0.092
  C  C199  1  0.812000  0.497500  0.082000  1.0  -0.1995
  C  C200  1  0.792000  0.500600  0.031700  1.0  0.7283
  S  S201  1  0.456000  0.256100  0.769000  1.0  0.1592
  S  S202  1  0.437000  0.252100  0.476900  1.0  0.161
  S  S203  1  0.021600  0.744600  0.493400  1.0  0.1522
  S  S204  1  0.028600  0.749100  0.758600  1.0  0.1442
  S  S205  1  0.227100  0.991400  0.875400  1.0  0.1272
  S  S206  1  0.044000  0.743900  0.269000  1.0  0.16
  S  S207  1  0.063000  0.747900  0.976900  1.0  0.1591
  S  S208  1  0.478400  0.255400  0.993400  1.0  0.1516
  S  S209  1  0.471400  0.250900  0.258600  1.0  0.1457
  S  S210  1  0.272900  0.008600  0.375400  1.0  0.1265
  S  S211  1  0.544000  0.756100  0.731000  1.0  0.1607
  S  S212  1  0.563000  0.752100  0.023100  1.0  0.1581
  S  S213  1  0.978400  0.244600  0.006600  1.0  0.1503
  S  S214  1  0.971400  0.249100  0.741400  1.0  0.1464
  S  S215  1  0.772900  0.491400  0.624600  1.0  0.126
  S  S216  1  0.956000  0.243900  0.231000  1.0  0.1591
  S  S217  1  0.937000  0.247900  0.523100  1.0  0.1601
  S  S218  1  0.521600  0.755400  0.506600  1.0  0.1505
  S  S219  1  0.528600  0.750900  0.241400  1.0  0.146
  S  S220  1  0.727100  0.508600  0.124600  1.0  0.1281
  O  O221  1  0.363300  0.097900  0.618900  1.0  -0.7479
  O  O222  1  0.217000  0.053400  0.573600  1.0  -0.8375
  O  O223  1  0.078300  0.034500  0.633800  1.0  -0.6957
  O  O224  1  0.235600  0.055800  0.678000  1.0  -0.9346
  O  O225  1  0.296300  0.936200  0.693600  1.0  -0.88
  O  O226  1  0.379900  0.973600  0.620300  1.0  -0.9663
  O  O227  1  0.266400  0.934500  0.555700  1.0  -0.8295
  O  O228  1  0.165200  0.926500  0.630000  1.0  -0.9978
  O  O229  1  0.251900  0.192400  0.574700  1.0  -0.619
  O  O230  1  0.346900  0.135700  0.526300  1.0  -0.632
  O  O231  1  0.564700  0.343900  0.417000  1.0  -0.6275
  O  O232  1  0.516700  0.440200  0.455300  1.0  -0.6631
  O  O233  1  0.911200  0.657100  0.818300  1.0  -0.6126
  O  O234  1  0.934000  0.566300  0.771900  1.0  -0.6394
  O  O235  1  0.273600  0.198700  0.671300  1.0  -0.6064
  O  O236  1  0.388500  0.137500  0.711400  1.0  -0.6118
  O  O237  1  0.198300  0.987500  0.767300  1.0  -0.6014
  O  O238  1  0.359100  0.022400  0.757000  1.0  -0.6521
  O  O239  1  0.364300  0.016500  0.993100  1.0  -0.6599
  O  O240  1  0.205400  0.981300  0.982000  1.0  -0.6151
  O  O241  1  0.510400  0.445000  0.800700  1.0  -0.6392
  O  O242  1  0.567400  0.349300  0.834700  1.0  -0.6206
  O  O243  1  0.950700  0.555200  0.471500  1.0  -0.6678
  O  O244  1  0.915200  0.649900  0.429500  1.0  -0.6132
  O  O245  1  0.102300  0.865000  0.544900  1.0  -0.6115
  O  O246  1  0.220900  0.809100  0.580800  1.0  -0.6073
  O  O247  1  0.130700  0.869100  0.719500  1.0  -0.674
  O  O248  1  0.234300  0.807300  0.671900  1.0  -0.5759
  O  O249  1  0.136700  0.902100  0.118900  1.0  -0.7458
  O  O250  1  0.283000  0.946600  0.073600  1.0  -0.8366
  O  O251  1  0.421700  0.965500  0.133800  1.0  -0.6947
  O  O252  1  0.264400  0.944200  0.178000  1.0  -0.9348
  O  O253  1  0.203700  0.063800  0.193600  1.0  -0.8782
  O  O254  1  0.120100  0.026400  0.120300  1.0  -0.97
  O  O255  1  0.233600  0.065500  0.055700  1.0  -0.8286
  O  O256  1  0.334800  0.073500  0.130000  1.0  -0.995
  O  O257  1  0.248100  0.807600  0.074700  1.0  -0.62
  O  O258  1  0.153100  0.864300  0.026300  1.0  -0.6314
  O  O259  1  0.935300  0.656100  0.917000  1.0  -0.6247
  O  O260  1  0.983300  0.559800  0.955300  1.0  -0.6633
  O  O261  1  0.588800  0.342900  0.318300  1.0  -0.6143
  O  O262  1  0.566000  0.433700  0.271900  1.0  -0.6398
  O  O263  1  0.226400  0.801300  0.171300  1.0  -0.6071
  O  O264  1  0.111500  0.862500  0.211400  1.0  -0.6112
  O  O265  1  0.301700  0.012500  0.267300  1.0  -0.6021
  O  O266  1  0.140900  0.977600  0.257000  1.0  -0.6509
  O  O267  1  0.135700  0.983500  0.493100  1.0  -0.6589
  O  O268  1  0.294600  0.018700  0.482000  1.0  -0.615
  O  O269  1  0.989600  0.555000  0.300700  1.0  -0.6374
  O  O270  1  0.932600  0.650700  0.334700  1.0  -0.6213
  O  O271  1  0.549300  0.444800  0.971500  1.0  -0.669
  O  O272  1  0.584800  0.350100  0.929500  1.0  -0.6154
  O  O273  1  0.397700  0.135000  0.044900  1.0  -0.6114
  O  O274  1  0.279100  0.190900  0.080800  1.0  -0.6074
  O  O275  1  0.369300  0.130900  0.219500  1.0  -0.6744
  O  O276  1  0.265700  0.192700  0.171900  1.0  -0.5777
  O  O277  1  0.636700  0.597900  0.881100  1.0  -0.7474
  O  O278  1  0.783000  0.553400  0.926400  1.0  -0.8375
  O  O279  1  0.921700  0.534500  0.866200  1.0  -0.6952
  O  O280  1  0.764400  0.555800  0.822000  1.0  -0.932
  O  O281  1  0.703700  0.436200  0.806400  1.0  -0.881
  O  O282  1  0.620100  0.473600  0.879700  1.0  -0.969
  O  O283  1  0.733600  0.434500  0.944300  1.0  -0.8295
  O  O284  1  0.834800  0.426500  0.870000  1.0  -0.9956
  O  O285  1  0.748100  0.692400  0.925300  1.0  -0.6212
  O  O286  1  0.653100  0.635700  0.973700  1.0  -0.6322
  O  O287  1  0.435300  0.843900  0.083000  1.0  -0.6277
  O  O288  1  0.483300  0.940200  0.044700  1.0  -0.6591
  O  O289  1  0.088800  0.157100  0.681700  1.0  -0.6153
  O  O290  1  0.066000  0.066300  0.728100  1.0  -0.6392
  O  O291  1  0.726400  0.698700  0.828700  1.0  -0.6072
  O  O292  1  0.611500  0.637500  0.788600  1.0  -0.6109
  O  O293  1  0.801700  0.487500  0.732700  1.0  -0.6032
  O  O294  1  0.640900  0.522400  0.743000  1.0  -0.6496
  O  O295  1  0.635700  0.516500  0.506900  1.0  -0.6599
  O  O296  1  0.794600  0.481300  0.518000  1.0  -0.6157
  O  O297  1  0.489600  0.945000  0.699300  1.0  -0.6369
  O  O298  1  0.432600  0.849300  0.665300  1.0  -0.6204
  O  O299  1  0.049300  0.055200  0.028500  1.0  -0.6672
  O  O300  1  0.084800  0.149900  0.070500  1.0  -0.6147
  O  O301  1  0.897700  0.365000  0.955100  1.0  -0.6123
  O  O302  1  0.779100  0.309100  0.919200  1.0  -0.6075
  O  O303  1  0.869300  0.369100  0.780500  1.0  -0.6762
  O  O304  1  0.765700  0.307300  0.828100  1.0  -0.5788
  O  O305  1  0.863300  0.402100  0.381100  1.0  -0.7491
  O  O306  1  0.717000  0.446600  0.426400  1.0  -0.8381
  O  O307  1  0.578300  0.465500  0.366200  1.0  -0.6954
  O  O308  1  0.735600  0.444200  0.322000  1.0  -0.9328
  O  O309  1  0.796300  0.563800  0.306400  1.0  -0.8799
  O  O310  1  0.879900  0.526400  0.379700  1.0  -0.9676
  O  O311  1  0.766400  0.565500  0.444300  1.0  -0.8279
  O  O312  1  0.665200  0.573500  0.370000  1.0  -0.9957
  O  O313  1  0.751900  0.307600  0.425300  1.0  -0.6203
  O  O314  1  0.846900  0.364300  0.473700  1.0  -0.633
  O  O315  1  0.064700  0.156100  0.583000  1.0  -0.6252
  O  O316  1  0.016700  0.059800  0.544700  1.0  -0.6624
  O  O317  1  0.411200  0.842900  0.181700  1.0  -0.6145
  O  O318  1  0.434000  0.933700  0.228100  1.0  -0.639
  O  O319  1  0.773600  0.301300  0.328700  1.0  -0.6061
  O  O320  1  0.888500  0.362500  0.288600  1.0  -0.6114
  O  O321  1  0.698300  0.512500  0.232700  1.0  -0.602
  O  O322  1  0.859100  0.477600  0.243000  1.0  -0.649
  O  O323  1  0.864300  0.483500  0.006900  1.0  -0.6583
  O  O324  1  0.705400  0.518700  0.018000  1.0  -0.615
  O  O325  1  0.010400  0.055000  0.199300  1.0  -0.6369
  O  O326  1  0.067400  0.150700  0.165300  1.0  -0.6223
  O  O327  1  0.450700  0.944800  0.528500  1.0  -0.6681
  O  O328  1  0.415200  0.850100  0.570500  1.0  -0.6141
  O  O329  1  0.602300  0.635000  0.455100  1.0  -0.6116
  O  O330  1  0.720900  0.690900  0.419200  1.0  -0.6086
  O  O331  1  0.630700  0.630900  0.280500  1.0  -0.675
  O  O332  1  0.734300  0.692700  0.328100  1.0  -0.5775
