# generated using pymatgen
data_Hf3H4C12(SO6)2
_symmetry_space_group_name_H-M   'P 1'
_cell_length_a   27.58420000
_cell_length_b   27.58420000
_cell_length_c   27.58420000
_cell_angle_alpha   60.00000000
_cell_angle_beta   60.00000000
_cell_angle_gamma   60.00000000
_symmetry_Int_Tables_number   1
_chemical_formula_structural   Hf3H4C12(SO6)2
_chemical_formula_sum   'Hf36 H48 C144 S24 O144'
_cell_volume   14841.10307005
_cell_formula_units_Z   12
loop_
 _symmetry_equiv_pos_site_id
 _symmetry_equiv_pos_as_xyz
  1  'x, y, z'
loop_
 _atom_site_type_symbol
 _atom_site_label
 _atom_site_symmetry_multiplicity
 _atom_site_fract_x
 _atom_site_fract_y
 _atom_site_fract_z
 _atom_site_occupancy
 _atom_site_charge
  Hf  Hf1  1  0.518360  0.045120  0.045120  1.0  2.4114
  Hf  Hf2  1  0.045130  0.518350  0.391400  1.0  2.4063
  Hf  Hf3  1  0.045130  0.391400  0.518350  1.0  2.3996
  Hf  Hf4  1  0.391410  0.045120  0.045120  1.0  2.4096
  Hf  Hf5  1  0.518360  0.045120  0.391400  1.0  2.4066
  Hf  Hf6  1  0.045130  0.391400  0.045120  1.0  2.4
  Hf  Hf7  1  0.045130  0.518350  0.045120  1.0  2.4101
  Hf  Hf8  1  0.391410  0.045120  0.518350  1.0  2.4092
  Hf  Hf9  1  0.518360  0.391400  0.045120  1.0  2.4001
  Hf  Hf10  1  0.045130  0.045120  0.518350  1.0  2.413
  Hf  Hf11  1  0.045130  0.045120  0.391400  1.0  2.4069
  Hf  Hf12  1  0.391410  0.518350  0.045120  1.0  2.4107
  Hf  Hf13  1  0.954870  0.481650  0.954880  1.0  2.4051
  Hf  Hf14  1  0.481640  0.954880  0.608600  1.0  2.4093
  Hf  Hf15  1  0.608590  0.954880  0.481650  1.0  2.3977
  Hf  Hf16  1  0.954870  0.608600  0.954880  1.0  2.4047
  Hf  Hf17  1  0.954870  0.481650  0.608600  1.0  2.4086
  Hf  Hf18  1  0.608590  0.954880  0.954880  1.0  2.3969
  Hf  Hf19  1  0.481640  0.954880  0.954880  1.0  2.4055
  Hf  Hf20  1  0.954870  0.608600  0.481650  1.0  2.4052
  Hf  Hf21  1  0.608590  0.481650  0.954880  1.0  2.3974
  Hf  Hf22  1  0.954870  0.954880  0.481650  1.0  2.4048
  Hf  Hf23  1  0.954870  0.954880  0.608600  1.0  2.4103
  Hf  Hf24  1  0.481640  0.608600  0.954880  1.0  2.4064
  Hf  Hf25  1  0.500000  0.910910  0.089090  1.0  2.51
  Hf  Hf26  1  0.910910  0.500000  0.500000  1.0  2.5077
  Hf  Hf27  1  0.089090  0.500000  0.500000  1.0  2.5059
  Hf  Hf28  1  0.500000  0.089090  0.910910  1.0  2.5066
  Hf  Hf29  1  0.500000  0.089090  0.500000  1.0  2.5057
  Hf  Hf30  1  0.910910  0.500000  0.089090  1.0  2.5072
  Hf  Hf31  1  0.089090  0.500000  0.910910  1.0  2.5067
  Hf  Hf32  1  0.500000  0.910910  0.500000  1.0  2.5109
  Hf  Hf33  1  0.500000  0.500000  0.910910  1.0  2.5107
  Hf  Hf34  1  0.910910  0.089090  0.500000  1.0  2.5023
  Hf  Hf35  1  0.089090  0.910910  0.500000  1.0  2.5043
  Hf  Hf36  1  0.500000  0.500000  0.089090  1.0  2.5106
  H  H37  1  0.632200  0.720600  0.157200  1.0  0.104
  H  H38  1  0.720600  0.632200  0.490000  1.0  0.1044
  H  H39  1  0.157200  0.490000  0.632200  1.0  0.1043
  H  H40  1  0.490000  0.157200  0.720600  1.0  0.105
  H  H41  1  0.632200  0.157200  0.490000  1.0  0.1056
  H  H42  1  0.720600  0.490000  0.157200  1.0  0.1039
  H  H43  1  0.157200  0.632200  0.720600  1.0  0.105
  H  H44  1  0.490000  0.720600  0.632200  1.0  0.1038
  H  H45  1  0.632200  0.490000  0.720600  1.0  0.1038
  H  H46  1  0.720600  0.157200  0.632200  1.0  0.1052
  H  H47  1  0.157200  0.720600  0.490000  1.0  0.1041
  H  H48  1  0.490000  0.632200  0.157200  1.0  0.1049
  H  H49  1  0.279400  0.367800  0.842800  1.0  0.1047
  H  H50  1  0.367800  0.279400  0.510000  1.0  0.1043
  H  H51  1  0.510000  0.842800  0.367800  1.0  0.1052
  H  H52  1  0.842800  0.510000  0.279400  1.0  0.104
  H  H53  1  0.842800  0.367800  0.510000  1.0  0.1044
  H  H54  1  0.510000  0.279400  0.842800  1.0  0.1037
  H  H55  1  0.367800  0.842800  0.279400  1.0  0.1054
  H  H56  1  0.279400  0.510000  0.367800  1.0  0.1039
  H  H57  1  0.510000  0.367800  0.279400  1.0  0.1052
  H  H58  1  0.842800  0.279400  0.367800  1.0  0.1034
  H  H59  1  0.279400  0.842800  0.510000  1.0  0.1049
  H  H60  1  0.367800  0.510000  0.842800  1.0  0.1047
  H  H61  1  0.367800  0.279400  0.842800  1.0  0.1045
  H  H62  1  0.279400  0.367800  0.510000  1.0  0.1042
  H  H63  1  0.842800  0.510000  0.367800  1.0  0.104
  H  H64  1  0.510000  0.842800  0.279400  1.0  0.105
  H  H65  1  0.367800  0.842800  0.510000  1.0  0.1054
  H  H66  1  0.279400  0.510000  0.842800  1.0  0.1041
  H  H67  1  0.842800  0.367800  0.279400  1.0  0.1046
  H  H68  1  0.510000  0.279400  0.367800  1.0  0.1037
  H  H69  1  0.367800  0.510000  0.279400  1.0  0.1046
  H  H70  1  0.279400  0.842800  0.367800  1.0  0.1051
  H  H71  1  0.842800  0.279400  0.510000  1.0  0.1038
  H  H72  1  0.510000  0.367800  0.842800  1.0  0.105
  H  H73  1  0.720600  0.632200  0.157200  1.0  0.1044
  H  H74  1  0.632200  0.720600  0.490000  1.0  0.1039
  H  H75  1  0.490000  0.157200  0.632200  1.0  0.1052
  H  H76  1  0.157200  0.490000  0.720600  1.0  0.1042
  H  H77  1  0.157200  0.632200  0.490000  1.0  0.1049
  H  H78  1  0.490000  0.720600  0.157200  1.0  0.1041
  H  H79  1  0.632200  0.157200  0.720600  1.0  0.1054
  H  H80  1  0.720600  0.490000  0.632200  1.0  0.1038
  H  H81  1  0.490000  0.632200  0.720600  1.0  0.1045
  H  H82  1  0.157200  0.720600  0.632200  1.0  0.1043
  H  H83  1  0.720600  0.157200  0.490000  1.0  0.1048
  H  H84  1  0.632200  0.490000  0.157200  1.0  0.1041
  C  C85  1  0.634190  0.826530  0.058930  1.0  0.7375
  C  C86  1  0.677600  0.766000  0.076200  1.0  -0.1823
  C  C87  1  0.668400  0.719200  0.126200  1.0  -0.0776
  C  C88  1  0.826530  0.634190  0.480350  1.0  0.7366
  C  C89  1  0.766000  0.677600  0.480200  1.0  -0.1833
  C  C90  1  0.719200  0.668400  0.486200  1.0  -0.0785
  C  C91  1  0.058930  0.480350  0.634190  1.0  0.7365
  C  C92  1  0.076200  0.480200  0.677600  1.0  -0.1813
  C  C93  1  0.126200  0.486200  0.668400  1.0  -0.0764
  C  C94  1  0.480350  0.058930  0.826530  1.0  0.7364
  C  C95  1  0.480200  0.076200  0.766000  1.0  -0.1813
  C  C96  1  0.486200  0.126200  0.719200  1.0  -0.0787
  C  C97  1  0.634190  0.058930  0.480350  1.0  0.739
  C  C98  1  0.677600  0.076200  0.480200  1.0  -0.1829
  C  C99  1  0.668400  0.126200  0.486200  1.0  -0.0793
  C  C100  1  0.826530  0.480350  0.058930  1.0  0.7361
  C  C101  1  0.766000  0.480200  0.076200  1.0  -0.1816
  C  C102  1  0.719200  0.486200  0.126200  1.0  -0.0763
  C  C103  1  0.058930  0.634190  0.826530  1.0  0.7374
  C  C104  1  0.076200  0.677600  0.766000  1.0  -0.1827
  C  C105  1  0.126200  0.668400  0.719200  1.0  -0.0774
  C  C106  1  0.480350  0.826530  0.634190  1.0  0.7362
  C  C107  1  0.480200  0.766000  0.677600  1.0  -0.183
  C  C108  1  0.486200  0.719200  0.668400  1.0  -0.0765
  C  C109  1  0.634190  0.480350  0.826530  1.0  0.7386
  C  C110  1  0.677600  0.480200  0.766000  1.0  -0.1835
  C  C111  1  0.668400  0.486200  0.719200  1.0  -0.0781
  C  C112  1  0.826530  0.058930  0.634190  1.0  0.7356
  C  C113  1  0.766000  0.076200  0.677600  1.0  -0.1829
  C  C114  1  0.719200  0.126200  0.668400  1.0  -0.0807
  C  C115  1  0.058930  0.826530  0.480350  1.0  0.7355
  C  C116  1  0.076200  0.766000  0.480200  1.0  -0.1815
  C  C117  1  0.126200  0.719200  0.486200  1.0  -0.0766
  C  C118  1  0.480350  0.634190  0.058930  1.0  0.7374
  C  C119  1  0.480200  0.677600  0.076200  1.0  -0.1839
  C  C120  1  0.486200  0.668400  0.126200  1.0  -0.0802
  C  C121  1  0.173470  0.365810  0.941070  1.0  0.7371
  C  C122  1  0.234000  0.322400  0.923800  1.0  -0.1812
  C  C123  1  0.280800  0.331600  0.873800  1.0  -0.0801
  C  C124  1  0.365810  0.173470  0.519650  1.0  0.7353
  C  C125  1  0.322400  0.234000  0.519800  1.0  -0.181
  C  C126  1  0.331600  0.280800  0.513800  1.0  -0.0793
  C  C127  1  0.519650  0.941070  0.365810  1.0  0.7376
  C  C128  1  0.519800  0.923800  0.322400  1.0  -0.1827
  C  C129  1  0.513800  0.873800  0.331600  1.0  -0.0764
  C  C130  1  0.941070  0.519650  0.173470  1.0  0.7367
  C  C131  1  0.923800  0.519800  0.234000  1.0  -0.1846
  C  C132  1  0.873800  0.513800  0.280800  1.0  -0.0757
  C  C133  1  0.941070  0.365810  0.519650  1.0  0.7378
  C  C134  1  0.923800  0.322400  0.519800  1.0  -0.1825
  C  C135  1  0.873800  0.331600  0.513800  1.0  -0.0783
  C  C136  1  0.519650  0.173470  0.941070  1.0  0.737
  C  C137  1  0.519800  0.234000  0.923800  1.0  -0.185
  C  C138  1  0.513800  0.280800  0.873800  1.0  -0.0762
  C  C139  1  0.365810  0.941070  0.173470  1.0  0.7355
  C  C140  1  0.322400  0.923800  0.234000  1.0  -0.1812
  C  C141  1  0.331600  0.873800  0.280800  1.0  -0.0788
  C  C142  1  0.173470  0.519650  0.365810  1.0  0.7366
  C  C143  1  0.234000  0.519800  0.322400  1.0  -0.1828
  C  C144  1  0.280800  0.513800  0.331600  1.0  -0.0765
  C  C145  1  0.519650  0.365810  0.173470  1.0  0.7373
  C  C146  1  0.519800  0.322400  0.234000  1.0  -0.1853
  C  C147  1  0.513800  0.331600  0.280800  1.0  -0.08
  C  C148  1  0.941070  0.173470  0.365810  1.0  0.7365
  C  C149  1  0.923800  0.234000  0.322400  1.0  -0.1834
  C  C150  1  0.873800  0.280800  0.331600  1.0  -0.0763
  C  C151  1  0.173470  0.941070  0.519650  1.0  0.7358
  C  C152  1  0.234000  0.923800  0.519800  1.0  -0.1826
  C  C153  1  0.280800  0.873800  0.513800  1.0  -0.0794
  C  C154  1  0.365810  0.519650  0.941070  1.0  0.7361
  C  C155  1  0.322400  0.519800  0.923800  1.0  -0.1829
  C  C156  1  0.331600  0.513800  0.873800  1.0  -0.0794
  C  C157  1  0.365810  0.173470  0.941070  1.0  0.7354
  C  C158  1  0.322400  0.234000  0.923800  1.0  -0.1798
  C  C159  1  0.331600  0.280800  0.873800  1.0  -0.0789
  C  C160  1  0.173470  0.365810  0.519650  1.0  0.7371
  C  C161  1  0.234000  0.322400  0.519800  1.0  -0.1808
  C  C162  1  0.280800  0.331600  0.513800  1.0  -0.0798
  C  C163  1  0.941070  0.519650  0.365810  1.0  0.7376
  C  C164  1  0.923800  0.519800  0.322400  1.0  -0.1832
  C  C165  1  0.873800  0.513800  0.331600  1.0  -0.0754
  C  C166  1  0.519650  0.941070  0.173470  1.0  0.7369
  C  C167  1  0.519800  0.923800  0.234000  1.0  -0.1811
  C  C168  1  0.513800  0.873800  0.280800  1.0  -0.0769
  C  C169  1  0.365810  0.941070  0.519650  1.0  0.7362
  C  C170  1  0.322400  0.923800  0.519800  1.0  -0.1804
  C  C171  1  0.331600  0.873800  0.513800  1.0  -0.0787
  C  C172  1  0.173470  0.519650  0.941070  1.0  0.7359
  C  C173  1  0.234000  0.519800  0.923800  1.0  -0.1819
  C  C174  1  0.280800  0.513800  0.873800  1.0  -0.0758
  C  C175  1  0.941070  0.365810  0.173470  1.0  0.7374
  C  C176  1  0.923800  0.322400  0.234000  1.0  -0.1822
  C  C177  1  0.873800  0.331600  0.280800  1.0  -0.078
  C  C178  1  0.519650  0.173470  0.365810  1.0  0.7375
  C  C179  1  0.519800  0.234000  0.322400  1.0  -0.1839
  C  C180  1  0.513800  0.280800  0.331600  1.0  -0.0763
  C  C181  1  0.365810  0.519650  0.173470  1.0  0.7353
  C  C182  1  0.322400  0.519800  0.234000  1.0  -0.1814
  C  C183  1  0.331600  0.513800  0.280800  1.0  -0.0789
  C  C184  1  0.173470  0.941070  0.365810  1.0  0.7359
  C  C185  1  0.234000  0.923800  0.322400  1.0  -0.1819
  C  C186  1  0.280800  0.873800  0.331600  1.0  -0.0785
  C  C187  1  0.941070  0.173470  0.519650  1.0  0.7364
  C  C188  1  0.923800  0.234000  0.519800  1.0  -0.183
  C  C189  1  0.873800  0.280800  0.513800  1.0  -0.0769
  C  C190  1  0.519650  0.365810  0.941070  1.0  0.7381
  C  C191  1  0.519800  0.322400  0.923800  1.0  -0.1833
  C  C192  1  0.513800  0.331600  0.873800  1.0  -0.0803
  C  C193  1  0.826530  0.634190  0.058930  1.0  0.7365
  C  C194  1  0.766000  0.677600  0.076200  1.0  -0.1816
  C  C195  1  0.719200  0.668400  0.126200  1.0  -0.0792
  C  C196  1  0.634190  0.826530  0.480350  1.0  0.7374
  C  C197  1  0.677600  0.766000  0.480200  1.0  -0.1819
  C  C198  1  0.668400  0.719200  0.486200  1.0  -0.0774
  C  C199  1  0.480350  0.058930  0.634190  1.0  0.736
  C  C200  1  0.480200  0.076200  0.677600  1.0  -0.1798
  C  C201  1  0.486200  0.126200  0.668400  1.0  -0.0786
  C  C202  1  0.058930  0.480350  0.826530  1.0  0.7371
  C  C203  1  0.076200  0.480200  0.766000  1.0  -0.18
  C  C204  1  0.126200  0.486200  0.719200  1.0  -0.0759
  C  C205  1  0.058930  0.634190  0.480350  1.0  0.737
  C  C206  1  0.076200  0.677600  0.480200  1.0  -0.1811
  C  C207  1  0.126200  0.668400  0.486200  1.0  -0.0772
  C  C208  1  0.480350  0.826530  0.058930  1.0  0.7368
  C  C209  1  0.480200  0.766000  0.076200  1.0  -0.1811
  C  C210  1  0.486200  0.719200  0.126200  1.0  -0.0762
  C  C211  1  0.634190  0.058930  0.826530  1.0  0.7393
  C  C212  1  0.677600  0.076200  0.766000  1.0  -0.1822
  C  C213  1  0.668400  0.126200  0.719200  1.0  -0.0793
  C  C214  1  0.826530  0.480350  0.634190  1.0  0.7359
  C  C215  1  0.766000  0.480200  0.677600  1.0  -0.1805
  C  C216  1  0.719200  0.486200  0.668400  1.0  -0.0765
  C  C217  1  0.480350  0.634190  0.826530  1.0  0.7382
  C  C218  1  0.480200  0.677600  0.766000  1.0  -0.1833
  C  C219  1  0.486200  0.668400  0.719200  1.0  -0.0796
  C  C220  1  0.058930  0.826530  0.634190  1.0  0.7354
  C  C221  1  0.076200  0.766000  0.677600  1.0  -0.18
  C  C222  1  0.126200  0.719200  0.668400  1.0  -0.0772
  C  C223  1  0.826530  0.058930  0.480350  1.0  0.7353
  C  C224  1  0.766000  0.076200  0.480200  1.0  -0.1815
  C  C225  1  0.719200  0.126200  0.486200  1.0  -0.0803
  C  C226  1  0.634190  0.480350  0.058930  1.0  0.7378
  C  C227  1  0.677600  0.480200  0.076200  1.0  -0.183
  C  C228  1  0.668400  0.486200  0.126200  1.0  -0.0774
  S  S229  1  0.748880  0.748880  0.028380  1.0  0.1455
  S  S230  1  0.748880  0.748880  0.473860  1.0  0.1474
  S  S231  1  0.028380  0.473860  0.748880  1.0  0.15
  S  S232  1  0.473860  0.028380  0.748880  1.0  0.1516
  S  S233  1  0.748880  0.028380  0.473860  1.0  0.1515
  S  S234  1  0.748880  0.473860  0.028380  1.0  0.1481
  S  S235  1  0.028380  0.748880  0.748880  1.0  0.1491
  S  S236  1  0.473860  0.748880  0.748880  1.0  0.154
  S  S237  1  0.748880  0.473860  0.748880  1.0  0.151
  S  S238  1  0.748880  0.028380  0.748880  1.0  0.1512
  S  S239  1  0.028380  0.748880  0.473860  1.0  0.1476
  S  S240  1  0.473860  0.748880  0.028380  1.0  0.1495
  S  S241  1  0.251120  0.251120  0.971620  1.0  0.1481
  S  S242  1  0.251120  0.251120  0.526140  1.0  0.146
  S  S243  1  0.526140  0.971620  0.251120  1.0  0.1495
  S  S244  1  0.971620  0.526140  0.251120  1.0  0.1456
  S  S245  1  0.971620  0.251120  0.526140  1.0  0.1458
  S  S246  1  0.526140  0.251120  0.971620  1.0  0.152
  S  S247  1  0.251120  0.971620  0.251120  1.0  0.1493
  S  S248  1  0.251120  0.526140  0.251120  1.0  0.1499
  S  S249  1  0.526140  0.251120  0.251120  1.0  0.151
  S  S250  1  0.971620  0.251120  0.251120  1.0  0.145
  S  S251  1  0.251120  0.971620  0.526140  1.0  0.1512
  S  S252  1  0.251120  0.526140  0.971620  1.0  0.1521
  O  O253  1  0.652610  0.862670  0.008910  1.0  -0.6767
  O  O254  1  0.582250  0.835410  0.096490  1.0  -0.616
  O  O255  1  0.862670  0.652610  0.475810  1.0  -0.6756
  O  O256  1  0.835410  0.582250  0.485850  1.0  -0.6184
  O  O257  1  0.008910  0.475810  0.652610  1.0  -0.678
  O  O258  1  0.096490  0.485850  0.582250  1.0  -0.6198
  O  O259  1  0.475810  0.008910  0.862670  1.0  -0.6757
  O  O260  1  0.485850  0.096490  0.835410  1.0  -0.62
  O  O261  1  0.652610  0.008910  0.475810  1.0  -0.6746
  O  O262  1  0.582250  0.096490  0.485850  1.0  -0.6181
  O  O263  1  0.862670  0.475810  0.008910  1.0  -0.6798
  O  O264  1  0.835410  0.485850  0.096490  1.0  -0.6154
  O  O265  1  0.008910  0.652610  0.862670  1.0  -0.6761
  O  O266  1  0.096490  0.582250  0.835410  1.0  -0.6191
  O  O267  1  0.475810  0.862670  0.652610  1.0  -0.6784
  O  O268  1  0.485850  0.835410  0.582250  1.0  -0.6163
  O  O269  1  0.652610  0.475810  0.862670  1.0  -0.6746
  O  O270  1  0.582250  0.485850  0.835410  1.0  -0.6155
  O  O271  1  0.862670  0.008910  0.652610  1.0  -0.6758
  O  O272  1  0.835410  0.096490  0.582250  1.0  -0.6212
  O  O273  1  0.008910  0.862670  0.475810  1.0  -0.6777
  O  O274  1  0.096490  0.835410  0.485850  1.0  -0.6207
  O  O275  1  0.475810  0.652610  0.008910  1.0  -0.6747
  O  O276  1  0.485850  0.582250  0.096490  1.0  -0.6184
  O  O277  1  0.137330  0.347390  0.991090  1.0  -0.6772
  O  O278  1  0.164590  0.417750  0.903510  1.0  -0.6187
  O  O279  1  0.347390  0.137330  0.524190  1.0  -0.6789
  O  O280  1  0.417750  0.164590  0.514150  1.0  -0.618
  O  O281  1  0.524190  0.991090  0.347390  1.0  -0.6724
  O  O282  1  0.514150  0.903510  0.417750  1.0  -0.6214
  O  O283  1  0.991090  0.524190  0.137330  1.0  -0.6778
  O  O284  1  0.903510  0.514150  0.164590  1.0  -0.6187
  O  O285  1  0.991090  0.347390  0.524190  1.0  -0.6767
  O  O286  1  0.903510  0.417750  0.514150  1.0  -0.6183
  O  O287  1  0.524190  0.137330  0.991090  1.0  -0.6771
  O  O288  1  0.514150  0.164590  0.903510  1.0  -0.6166
  O  O289  1  0.347390  0.991090  0.137330  1.0  -0.6752
  O  O290  1  0.417750  0.903510  0.164590  1.0  -0.6189
  O  O291  1  0.137330  0.524190  0.347390  1.0  -0.679
  O  O292  1  0.164590  0.514150  0.417750  1.0  -0.6156
  O  O293  1  0.524190  0.347390  0.137330  1.0  -0.6743
  O  O294  1  0.514150  0.417750  0.164590  1.0  -0.6172
  O  O295  1  0.991090  0.137330  0.347390  1.0  -0.679
  O  O296  1  0.903510  0.164590  0.417750  1.0  -0.6191
  O  O297  1  0.137330  0.991090  0.524190  1.0  -0.6726
  O  O298  1  0.164590  0.903510  0.514150  1.0  -0.6218
  O  O299  1  0.347390  0.524190  0.991090  1.0  -0.676
  O  O300  1  0.417750  0.514150  0.903510  1.0  -0.6168
  O  O301  1  0.347390  0.137330  0.991090  1.0  -0.6769
  O  O302  1  0.417750  0.164590  0.903510  1.0  -0.6186
  O  O303  1  0.137330  0.347390  0.524190  1.0  -0.6785
  O  O304  1  0.164590  0.417750  0.514150  1.0  -0.618
  O  O305  1  0.991090  0.524190  0.347390  1.0  -0.6779
  O  O306  1  0.903510  0.514150  0.417750  1.0  -0.6198
  O  O307  1  0.524190  0.991090  0.137330  1.0  -0.6718
  O  O308  1  0.514150  0.903510  0.164590  1.0  -0.6203
  O  O309  1  0.347390  0.991090  0.524190  1.0  -0.6742
  O  O310  1  0.417750  0.903510  0.514150  1.0  -0.6191
  O  O311  1  0.137330  0.524190  0.991090  1.0  -0.6774
  O  O312  1  0.164590  0.514150  0.903510  1.0  -0.6161
  O  O313  1  0.991090  0.347390  0.137330  1.0  -0.6778
  O  O314  1  0.903510  0.417750  0.164590  1.0  -0.6182
  O  O315  1  0.524190  0.137330  0.347390  1.0  -0.6789
  O  O316  1  0.514150  0.164590  0.417750  1.0  -0.616
  O  O317  1  0.347390  0.524190  0.137330  1.0  -0.678
  O  O318  1  0.417750  0.514150  0.164590  1.0  -0.6172
  O  O319  1  0.137330  0.991090  0.347390  1.0  -0.6748
  O  O320  1  0.164590  0.903510  0.417750  1.0  -0.6234
  O  O321  1  0.991090  0.137330  0.524190  1.0  -0.6769
  O  O322  1  0.903510  0.164590  0.514150  1.0  -0.6179
  O  O323  1  0.524190  0.347390  0.991090  1.0  -0.6727
  O  O324  1  0.514150  0.417750  0.903510  1.0  -0.6172
  O  O325  1  0.862670  0.652610  0.008910  1.0  -0.6769
  O  O326  1  0.835410  0.582250  0.096490  1.0  -0.6184
  O  O327  1  0.652610  0.862670  0.475810  1.0  -0.6758
  O  O328  1  0.582250  0.835410  0.485850  1.0  -0.6172
  O  O329  1  0.475810  0.008910  0.652610  1.0  -0.6744
  O  O330  1  0.485850  0.096490  0.582250  1.0  -0.6193
  O  O331  1  0.008910  0.475810  0.862670  1.0  -0.6784
  O  O332  1  0.096490  0.485850  0.835410  1.0  -0.6204
  O  O333  1  0.008910  0.652610  0.475810  1.0  -0.6773
  O  O334  1  0.096490  0.582250  0.485850  1.0  -0.619
  O  O335  1  0.475810  0.862670  0.008910  1.0  -0.6802
  O  O336  1  0.485850  0.835410  0.096490  1.0  -0.6152
  O  O337  1  0.652610  0.008910  0.862670  1.0  -0.6739
  O  O338  1  0.582250  0.096490  0.835410  1.0  -0.6182
  O  O339  1  0.862670  0.475810  0.652610  1.0  -0.6796
  O  O340  1  0.835410  0.485850  0.582250  1.0  -0.6165
  O  O341  1  0.475810  0.652610  0.862670  1.0  -0.6716
  O  O342  1  0.485850  0.582250  0.835410  1.0  -0.6174
  O  O343  1  0.008910  0.862670  0.652610  1.0  -0.6766
  O  O344  1  0.096490  0.835410  0.582250  1.0  -0.6193
  O  O345  1  0.862670  0.008910  0.475810  1.0  -0.6761
  O  O346  1  0.835410  0.096490  0.485850  1.0  -0.6223
  O  O347  1  0.652610  0.475810  0.008910  1.0  -0.6768
  O  O348  1  0.582250  0.485850  0.096490  1.0  -0.6156
  O  O349  1  0.564070  0.956870  0.043130  1.0  -1.1798
  O  O350  1  0.956870  0.564070  0.435930  1.0  -1.1837
  O  O351  1  0.043130  0.435930  0.564070  1.0  -1.1839
  O  O352  1  0.435930  0.043130  0.956870  1.0  -1.1827
  O  O353  1  0.564070  0.043130  0.435930  1.0  -1.1798
  O  O354  1  0.956870  0.435930  0.043130  1.0  -1.1831
  O  O355  1  0.043130  0.564070  0.956870  1.0  -1.1825
  O  O356  1  0.435930  0.956870  0.564070  1.0  -1.1814
  O  O357  1  0.564070  0.435930  0.956870  1.0  -1.1853
  O  O358  1  0.956870  0.043130  0.564070  1.0  -1.1765
  O  O359  1  0.043130  0.956870  0.435930  1.0  -1.185
  O  O360  1  0.435930  0.564070  0.043130  1.0  -1.1862
  O  O361  1  0.043130  0.435930  0.956870  1.0  -1.1835
  O  O362  1  0.435930  0.043130  0.564070  1.0  -1.1812
  O  O363  1  0.564070  0.956870  0.435930  1.0  -1.1801
  O  O364  1  0.956870  0.564070  0.043130  1.0  -1.1825
  O  O365  1  0.956870  0.435930  0.564070  1.0  -1.1838
  O  O366  1  0.564070  0.043130  0.956870  1.0  -1.1795
  O  O367  1  0.435930  0.956870  0.043130  1.0  -1.1821
  O  O368  1  0.043130  0.564070  0.435930  1.0  -1.1836
  O  O369  1  0.564070  0.435930  0.043130  1.0  -1.1856
  O  O370  1  0.956870  0.043130  0.435930  1.0  -1.184
  O  O371  1  0.043130  0.956870  0.564070  1.0  -1.1761
  O  O372  1  0.435930  0.564070  0.956870  1.0  -1.1863
  O  O373  1  0.455800  0.000640  0.087760  1.0  -1.1981
  O  O374  1  0.000640  0.455800  0.455800  1.0  -1.198
  O  O375  1  0.087760  0.455800  0.455800  1.0  -1.1976
  O  O376  1  0.455800  0.087760  0.000640  1.0  -1.1983
  O  O377  1  0.455800  0.087760  0.455800  1.0  -1.1987
  O  O378  1  0.000640  0.455800  0.087760  1.0  -1.1964
  O  O379  1  0.087760  0.455800  0.000640  1.0  -1.1965
  O  O380  1  0.455800  0.000640  0.455800  1.0  -1.1996
  O  O381  1  0.455800  0.455800  0.000640  1.0  -1.201
  O  O382  1  0.000640  0.087760  0.455800  1.0  -1.2002
  O  O383  1  0.087760  0.000640  0.455800  1.0  -1.2007
  O  O384  1  0.455800  0.455800  0.087760  1.0  -1.2005
  O  O385  1  0.999360  0.544200  0.912240  1.0  -1.1995
  O  O386  1  0.544200  0.999360  0.544200  1.0  -1.1968
  O  O387  1  0.544200  0.912240  0.544200  1.0  -1.1966
  O  O388  1  0.912240  0.544200  0.999360  1.0  -1.1993
  O  O389  1  0.912240  0.544200  0.544200  1.0  -1.1988
  O  O390  1  0.544200  0.999360  0.912240  1.0  -1.1982
  O  O391  1  0.544200  0.912240  0.999360  1.0  -1.1978
  O  O392  1  0.999360  0.544200  0.544200  1.0  -1.1981
  O  O393  1  0.544200  0.544200  0.999360  1.0  -1.1995
  O  O394  1  0.912240  0.999360  0.544200  1.0  -1.202
  O  O395  1  0.999360  0.912240  0.544200  1.0  -1.2012
  O  O396  1  0.544200  0.544200  0.912240  1.0  -1.2007
