# generated using pymatgen
data_ZnH10C17N3O4
_symmetry_space_group_name_H-M   'P 1'
_cell_length_a   11.72100000
_cell_length_b   14.95460000
_cell_length_c   14.95460000
_cell_angle_alpha   96.44850000
_cell_angle_beta   107.06000000
_cell_angle_gamma   107.06000000
_symmetry_Int_Tables_number   1
_chemical_formula_structural   ZnH10C17N3O4
_chemical_formula_sum   'Zn4 H40 C68 N12 O16'
_cell_volume   2338.56024421
_cell_formula_units_Z   4
loop_
 _symmetry_equiv_pos_site_id
 _symmetry_equiv_pos_as_xyz
  1  'x, y, z'
loop_
 _atom_site_type_symbol
 _atom_site_label
 _atom_site_symmetry_multiplicity
 _atom_site_fract_x
 _atom_site_fract_y
 _atom_site_fract_z
 _atom_site_occupancy
 _atom_site_charge
  Zn  Zn1  1  0.881900  0.805430  0.560810  1.0  0.8383
  Zn  Zn2  1  0.881900  0.560810  0.805430  1.0  0.8332
  Zn  Zn3  1  0.118100  0.439190  0.194570  1.0  0.8333
  Zn  Zn4  1  0.118100  0.194570  0.439190  1.0  0.8363
  H  H5  1  0.080500  0.740400  0.509800  1.0  0.0815
  H  H6  1  0.293000  0.795700  0.530700  1.0  0.1201
  H  H7  1  0.314800  0.050300  0.661500  1.0  0.1186
  H  H8  1  0.104900  0.988700  0.639500  1.0  0.0799
  H  H9  1  0.495500  0.846900  0.568500  1.0  0.1224
  H  H10  1  0.807400  0.082600  0.657600  1.0  0.1172
  H  H11  1  0.951600  0.379800  0.848000  1.0  0.0716
  H  H12  1  0.871600  0.216500  0.795100  1.0  0.1245
  H  H13  1  0.554900  0.243900  0.624500  1.0  0.1158
  H  H14  1  0.644600  0.404900  0.678100  1.0  0.0833
  H  H15  1  0.080500  0.509800  0.740400  1.0  0.082
  H  H16  1  0.293000  0.530700  0.795700  1.0  0.1208
  H  H17  1  0.314800  0.661500  0.050300  1.0  0.1192
  H  H18  1  0.104900  0.639500  0.988700  1.0  0.0797
  H  H19  1  0.495500  0.568500  0.846900  1.0  0.1216
  H  H20  1  0.807400  0.657600  0.082600  1.0  0.1174
  H  H21  1  0.951600  0.848000  0.379800  1.0  0.0709
  H  H22  1  0.871600  0.795100  0.216500  1.0  0.125
  H  H23  1  0.554900  0.624500  0.243900  1.0  0.1162
  H  H24  1  0.644600  0.678100  0.404900  1.0  0.0847
  H  H25  1  0.919500  0.490200  0.259600  1.0  0.0816
  H  H26  1  0.707000  0.469300  0.204300  1.0  0.1213
  H  H27  1  0.685200  0.338500  0.949700  1.0  0.1191
  H  H28  1  0.895100  0.360500  0.011300  1.0  0.0801
  H  H29  1  0.504500  0.431500  0.153100  1.0  0.1229
  H  H30  1  0.192600  0.342400  0.917400  1.0  0.1169
  H  H31  1  0.048400  0.152000  0.620200  1.0  0.0722
  H  H32  1  0.128400  0.204900  0.783500  1.0  0.1255
  H  H33  1  0.445100  0.375500  0.756100  1.0  0.1157
  H  H34  1  0.355400  0.321900  0.595100  1.0  0.0844
  H  H35  1  0.919500  0.259600  0.490200  1.0  0.0809
  H  H36  1  0.707000  0.204300  0.469300  1.0  0.1198
  H  H37  1  0.685200  0.949700  0.338500  1.0  0.1192
  H  H38  1  0.895100  0.011300  0.360500  1.0  0.0804
  H  H39  1  0.504500  0.153100  0.431500  1.0  0.1217
  H  H40  1  0.192600  0.917400  0.342400  1.0  0.1167
  H  H41  1  0.048400  0.620200  0.152000  1.0  0.0717
  H  H42  1  0.128400  0.783500  0.204900  1.0  0.1246
  H  H43  1  0.445100  0.756100  0.375500  1.0  0.1155
  H  H44  1  0.355400  0.595100  0.321900  1.0  0.0834
  C  C45  1  0.128600  0.803700  0.541300  1.0  0.172
  C  C46  1  0.256600  0.836600  0.553400  1.0  -0.1847
  C  C47  1  0.330300  0.930400  0.599600  1.0  0.0607
  C  C48  1  0.269500  0.986500  0.630700  1.0  -0.1551
  C  C49  1  0.143100  0.949100  0.616900  1.0  0.1737
  C  C50  1  0.468400  0.971100  0.613500  1.0  0.2105
  C  C51  1  0.535900  0.912600  0.592200  1.0  -0.0964
  C  C52  1  0.663800  0.955500  0.607100  1.0  -0.073
  C  C53  1  0.721000  0.052700  0.645300  1.0  -0.1067
  C  C54  1  0.647900  0.105500  0.664900  1.0  0.2158
  C  C55  1  0.871200  0.351800  0.801400  1.0  0.163
  C  C56  1  0.823600  0.253500  0.770500  1.0  -0.2078
  C  C57  1  0.702900  0.210300  0.701900  1.0  0.0823
  C  C58  1  0.636700  0.270000  0.669200  1.0  -0.1785
  C  C59  1  0.690600  0.366500  0.702300  1.0  0.1736
  C  C60  1  0.740400  0.896200  0.583400  1.0  0.6256
  C  C61  1  0.128600  0.541300  0.803700  1.0  0.1755
  C  C62  1  0.256600  0.553400  0.836600  1.0  -0.1821
  C  C63  1  0.330300  0.599600  0.930400  1.0  0.0611
  C  C64  1  0.269500  0.630700  0.986500  1.0  -0.1522
  C  C65  1  0.143100  0.616900  0.949100  1.0  0.1749
  C  C66  1  0.468400  0.613500  0.971100  1.0  0.2038
  C  C67  1  0.535900  0.592200  0.912600  1.0  -0.1024
  C  C68  1  0.663800  0.607100  0.955500  1.0  -0.0739
  C  C69  1  0.721000  0.645300  0.052700  1.0  -0.1093
  C  C70  1  0.647900  0.664900  0.105500  1.0  0.2103
  C  C71  1  0.871200  0.801400  0.351800  1.0  0.1633
  C  C72  1  0.823600  0.770500  0.253500  1.0  -0.208
  C  C73  1  0.702900  0.701900  0.210300  1.0  0.0811
  C  C74  1  0.636700  0.669200  0.270000  1.0  -0.1772
  C  C75  1  0.690600  0.702300  0.366500  1.0  0.1742
  C  C76  1  0.740400  0.583400  0.896200  1.0  0.6288
  C  C77  1  0.912400  0.727400  0.727400  1.0  0.5547
  C  C78  1  0.866700  0.641800  0.641800  1.0  0.5695
  C  C79  1  0.871400  0.458700  0.196300  1.0  0.1775
  C  C80  1  0.743400  0.446600  0.163400  1.0  -0.1831
  C  C81  1  0.669700  0.400400  0.069600  1.0  0.0607
  C  C82  1  0.730500  0.369300  0.013500  1.0  -0.1521
  C  C83  1  0.856900  0.383100  0.050900  1.0  0.1751
  C  C84  1  0.531600  0.386500  0.028900  1.0  0.2043
  C  C85  1  0.464100  0.407800  0.087400  1.0  -0.1012
  C  C86  1  0.336200  0.392900  0.044500  1.0  -0.0724
  C  C87  1  0.279000  0.354700  0.947300  1.0  -0.1096
  C  C88  1  0.352100  0.335100  0.894500  1.0  0.2102
  C  C89  1  0.128800  0.198600  0.648200  1.0  0.163
  C  C90  1  0.176400  0.229500  0.746500  1.0  -0.2072
  C  C91  1  0.297100  0.298100  0.789700  1.0  0.0798
  C  C92  1  0.363300  0.330800  0.730000  1.0  -0.1778
  C  C93  1  0.309400  0.297700  0.633500  1.0  0.1737
  C  C94  1  0.259600  0.416600  0.103800  1.0  0.6289
  C  C95  1  0.871400  0.196300  0.458700  1.0  0.1718
  C  C96  1  0.743400  0.163400  0.446600  1.0  -0.1829
  C  C97  1  0.669700  0.069600  0.400400  1.0  0.0588
  C  C98  1  0.730500  0.013500  0.369300  1.0  -0.1528
  C  C99  1  0.856900  0.050900  0.383100  1.0  0.1747
  C  C100  1  0.531600  0.028900  0.386500  1.0  0.2081
  C  C101  1  0.464100  0.087400  0.407800  1.0  -0.1062
  C  C102  1  0.336200  0.044500  0.392900  1.0  -0.0758
  C  C103  1  0.279000  0.947300  0.354700  1.0  -0.1095
  C  C104  1  0.352100  0.894500  0.335100  1.0  0.2104
  C  C105  1  0.128800  0.648200  0.198600  1.0  0.1636
  C  C106  1  0.176400  0.746500  0.229500  1.0  -0.2068
  C  C107  1  0.297100  0.789700  0.298100  1.0  0.0816
  C  C108  1  0.363300  0.730000  0.330800  1.0  -0.1797
  C  C109  1  0.309400  0.633500  0.297700  1.0  0.1737
  C  C110  1  0.259600  0.103800  0.416600  1.0  0.6261
  C  C111  1  0.087600  0.272600  0.272600  1.0  0.5573
  C  C112  1  0.133300  0.358200  0.358200  1.0  0.5677
  N  N113  1  0.071600  0.858780  0.572780  1.0  -0.3119
  N  N114  1  0.523000  0.065230  0.648370  1.0  -0.3983
  N  N115  1  0.807400  0.408980  0.768080  1.0  -0.315
  N  N116  1  0.071600  0.572780  0.858780  1.0  -0.3112
  N  N117  1  0.523000  0.648370  0.065230  1.0  -0.4012
  N  N118  1  0.807400  0.768080  0.408980  1.0  -0.3178
  N  N119  1  0.928400  0.427220  0.141220  1.0  -0.3112
  N  N120  1  0.477000  0.351630  0.934770  1.0  -0.4018
  N  N121  1  0.192600  0.231920  0.591020  1.0  -0.3228
  N  N122  1  0.928400  0.141220  0.427220  1.0  -0.3122
  N  N123  1  0.477000  0.934770  0.351630  1.0  -0.3993
  N  N124  1  0.192600  0.591020  0.231920  1.0  -0.3156
  O  O125  1  0.689800  0.807800  0.559600  1.0  -0.5728
  O  O126  1  0.852000  0.939560  0.588280  1.0  -0.5774
  O  O127  1  0.929300  0.808170  0.708650  1.0  -0.5542
  O  O128  1  0.850000  0.659880  0.559820  1.0  -0.5657
  O  O129  1  0.689800  0.559600  0.807800  1.0  -0.5751
  O  O130  1  0.852000  0.588280  0.939560  1.0  -0.5758
  O  O131  1  0.929300  0.708650  0.808170  1.0  -0.5519
  O  O132  1  0.850000  0.559820  0.659880  1.0  -0.5706
  O  O133  1  0.310200  0.440400  0.192200  1.0  -0.5747
  O  O134  1  0.148000  0.411720  0.060440  1.0  -0.5756
  O  O135  1  0.070700  0.291350  0.191830  1.0  -0.552
  O  O136  1  0.150000  0.440180  0.340120  1.0  -0.5692
  O  O137  1  0.310200  0.192200  0.440400  1.0  -0.5745
  O  O138  1  0.148000  0.060440  0.411720  1.0  -0.5781
  O  O139  1  0.070700  0.191830  0.291350  1.0  -0.553
  O  O140  1  0.150000  0.340120  0.440180  1.0  -0.565
