# generated using pymatgen
data_Tb2H6(C6O5)3
_symmetry_space_group_name_H-M   'P 1'
_cell_length_a   8.58510000
_cell_length_b   15.41180000
_cell_length_c   28.04670000
_cell_angle_alpha   90.00000000
_cell_angle_beta   90.00000000
_cell_angle_gamma   90.00000000
_symmetry_Int_Tables_number   1
_chemical_formula_structural   Tb2H6(C6O5)3
_chemical_formula_sum   'Tb8 H24 C72 O60'
_cell_volume   3710.91060016
_cell_formula_units_Z   4
loop_
 _symmetry_equiv_pos_site_id
 _symmetry_equiv_pos_as_xyz
  1  'x, y, z'
loop_
 _atom_site_type_symbol
 _atom_site_label
 _atom_site_symmetry_multiplicity
 _atom_site_fract_x
 _atom_site_fract_y
 _atom_site_fract_z
 _atom_site_occupancy
 _atom_site_charge
  Tb  Tb1  1  0.051600  0.797580  0.413860  1.0  2.2911
  Tb  Tb2  1  0.448400  0.297580  0.586140  1.0  2.2911
  Tb  Tb3  1  0.948400  0.202420  0.913860  1.0  2.2918
  Tb  Tb4  1  0.551600  0.702420  0.086140  1.0  2.2918
  Tb  Tb5  1  0.948400  0.202420  0.586140  1.0  2.2922
  Tb  Tb6  1  0.551600  0.702420  0.413860  1.0  2.2916
  Tb  Tb7  1  0.051600  0.797580  0.086140  1.0  2.2913
  Tb  Tb8  1  0.448400  0.297580  0.913860  1.0  2.2909
  H  H9  1  0.913800  0.515200  0.403200  1.0  0.1219
  H  H10  1  0.884300  0.375700  0.448600  1.0  0.124
  H  H11  1  0.656600  0.593400  0.295100  1.0  0.1116
  H  H12  1  0.586200  0.015200  0.596800  1.0  0.1213
  H  H13  1  0.615700  0.875700  0.551400  1.0  0.1241
  H  H14  1  0.843400  0.093400  0.704900  1.0  0.1125
  H  H15  1  0.086200  0.484800  0.903200  1.0  0.1212
  H  H16  1  0.115700  0.624300  0.948600  1.0  0.1241
  H  H17  1  0.343400  0.406600  0.795100  1.0  0.1118
  H  H18  1  0.413800  0.984800  0.096800  1.0  0.1214
  H  H19  1  0.384300  0.124300  0.051400  1.0  0.1247
  H  H20  1  0.156600  0.906600  0.204900  1.0  0.1137
  H  H21  1  0.086200  0.484800  0.596800  1.0  0.1222
  H  H22  1  0.115700  0.624300  0.551400  1.0  0.1237
  H  H23  1  0.343400  0.406600  0.704900  1.0  0.1118
  H  H24  1  0.413800  0.984800  0.403200  1.0  0.1204
  H  H25  1  0.384300  0.124300  0.448600  1.0  0.1249
  H  H26  1  0.156600  0.906600  0.295100  1.0  0.1135
  H  H27  1  0.913800  0.515200  0.096800  1.0  0.1226
  H  H28  1  0.884300  0.375700  0.051400  1.0  0.1246
  H  H29  1  0.656600  0.593400  0.204900  1.0  0.1109
  H  H30  1  0.586200  0.015200  0.903200  1.0  0.1206
  H  H31  1  0.615700  0.875700  0.948600  1.0  0.1235
  H  H32  1  0.843400  0.093400  0.795100  1.0  0.113
  C  C33  1  0.147900  0.335200  0.510200  1.0  0.6991
  C  C34  1  0.203900  0.605800  0.422500  1.0  0.7227
  C  C35  1  0.102400  0.401100  0.474200  1.0  0.0355
  C  C36  1  0.986900  0.490300  0.423500  1.0  -0.1596
  C  C37  1  0.970200  0.412400  0.449000  1.0  -0.1531
  C  C38  1  0.852100  0.729900  0.335900  1.0  0.7056
  C  C39  1  0.806000  0.695600  0.288800  1.0  0.0233
  C  C40  1  0.711400  0.630900  0.275200  1.0  -0.1573
  C  C41  1  0.130100  0.522400  0.434200  1.0  0.0373
  C  C42  1  0.352100  0.835200  0.489800  1.0  0.6986
  C  C43  1  0.296100  0.105800  0.577500  1.0  0.7218
  C  C44  1  0.397600  0.901100  0.525800  1.0  0.0347
  C  C45  1  0.513100  0.990300  0.576500  1.0  -0.1599
  C  C46  1  0.529800  0.912400  0.551000  1.0  -0.1553
  C  C47  1  0.647900  0.229900  0.664100  1.0  0.7064
  C  C48  1  0.694000  0.195600  0.711200  1.0  0.0211
  C  C49  1  0.788600  0.130900  0.724800  1.0  -0.1565
  C  C50  1  0.369900  0.022400  0.565800  1.0  0.0375
  C  C51  1  0.852100  0.664800  0.010200  1.0  0.6985
  C  C52  1  0.796100  0.394200  0.922500  1.0  0.7228
  C  C53  1  0.897600  0.598900  0.974200  1.0  0.0344
  C  C54  1  0.013100  0.509700  0.923500  1.0  -0.1581
  C  C55  1  0.029800  0.587600  0.949000  1.0  -0.1529
  C  C56  1  0.147900  0.270100  0.835900  1.0  0.706
  C  C57  1  0.194000  0.304400  0.788800  1.0  0.023
  C  C58  1  0.288600  0.369100  0.775200  1.0  -0.1564
  C  C59  1  0.869900  0.477600  0.934200  1.0  0.0368
  C  C60  1  0.647900  0.164800  0.989800  1.0  0.6994
  C  C61  1  0.703900  0.894200  0.077500  1.0  0.7218
  C  C62  1  0.602400  0.098900  0.025800  1.0  0.0346
  C  C63  1  0.486900  0.009700  0.076500  1.0  -0.1594
  C  C64  1  0.470200  0.087600  0.051000  1.0  -0.155
  C  C65  1  0.352100  0.770100  0.164100  1.0  0.7056
  C  C66  1  0.306000  0.804400  0.211200  1.0  0.0236
  C  C67  1  0.211400  0.869100  0.224800  1.0  -0.1576
  C  C68  1  0.630100  0.977600  0.065800  1.0  0.0383
  C  C69  1  0.852100  0.664800  0.489800  1.0  0.6994
  C  C70  1  0.796100  0.394200  0.577500  1.0  0.7219
  C  C71  1  0.897600  0.598900  0.525800  1.0  0.0341
  C  C72  1  0.013100  0.509700  0.576500  1.0  -0.158
  C  C73  1  0.029800  0.587600  0.551000  1.0  -0.1529
  C  C74  1  0.147900  0.270100  0.664100  1.0  0.7063
  C  C75  1  0.194000  0.304400  0.711200  1.0  0.0228
  C  C76  1  0.288600  0.369100  0.724800  1.0  -0.1563
  C  C77  1  0.869900  0.477600  0.565800  1.0  0.0375
  C  C78  1  0.647900  0.164800  0.510200  1.0  0.6992
  C  C79  1  0.703900  0.894200  0.422500  1.0  0.7219
  C  C80  1  0.602400  0.098900  0.474200  1.0  0.0347
  C  C81  1  0.486900  0.009700  0.423500  1.0  -0.1581
  C  C82  1  0.470200  0.087600  0.449000  1.0  -0.153
  C  C83  1  0.352100  0.770100  0.335900  1.0  0.7054
  C  C84  1  0.306000  0.804400  0.288800  1.0  0.0254
  C  C85  1  0.211400  0.869100  0.275200  1.0  -0.1579
  C  C86  1  0.630100  0.977600  0.434200  1.0  0.037
  C  C87  1  0.147900  0.335200  0.989800  1.0  0.699
  C  C88  1  0.203900  0.605800  0.077500  1.0  0.7223
  C  C89  1  0.102400  0.401100  0.025800  1.0  0.0363
  C  C90  1  0.986900  0.490300  0.076500  1.0  -0.1613
  C  C91  1  0.970200  0.412400  0.051000  1.0  -0.1557
  C  C92  1  0.852100  0.729900  0.164100  1.0  0.7058
  C  C93  1  0.806000  0.695600  0.211200  1.0  0.0239
  C  C94  1  0.711400  0.630900  0.224800  1.0  -0.1575
  C  C95  1  0.130100  0.522400  0.065800  1.0  0.038
  C  C96  1  0.352100  0.835200  0.010200  1.0  0.6983
  C  C97  1  0.296100  0.105800  0.922500  1.0  0.7234
  C  C98  1  0.397600  0.901100  0.974200  1.0  0.0339
  C  C99  1  0.513100  0.990300  0.923500  1.0  -0.1606
  C  C100  1  0.529800  0.912400  0.949000  1.0  -0.1549
  C  C101  1  0.647900  0.229900  0.835900  1.0  0.706
  C  C102  1  0.694000  0.195600  0.788800  1.0  0.0226
  C  C103  1  0.788600  0.130900  0.775200  1.0  -0.1563
  C  C104  1  0.369900  0.022400  0.934200  1.0  0.0376
  O  O105  1  0.284600  0.338600  0.525800  1.0  -0.719
  O  O106  1  0.043700  0.283100  0.521970  1.0  -0.7226
  O  O107  1  0.204400  0.467100  0.465350  1.0  -0.169
  O  O108  1  0.124400  0.655600  0.396990  1.0  -0.6829
  O  O109  1  0.336800  0.620600  0.438940  1.0  -0.7266
  O  O110  1  0.950200  0.790400  0.337430  1.0  -0.5893
  O  O111  1  0.793200  0.696300  0.372640  1.0  -0.7358
  O  O112  1  0.215400  0.838600  0.474200  1.0  -0.7179
  O  O113  1  0.456300  0.783100  0.478030  1.0  -0.7214
  O  O114  1  0.295600  0.967100  0.534650  1.0  -0.1669
  O  O115  1  0.375600  0.155600  0.603010  1.0  -0.6824
  O  O116  1  0.163200  0.120600  0.561060  1.0  -0.7266
  O  O117  1  0.549800  0.290400  0.662570  1.0  -0.5895
  O  O118  1  0.706800  0.196300  0.627360  1.0  -0.734
  O  O119  1  0.715400  0.661400  0.025800  1.0  -0.7176
  O  O120  1  0.956300  0.716900  0.021970  1.0  -0.7208
  O  O121  1  0.795600  0.532900  0.965350  1.0  -0.1666
  O  O122  1  0.875600  0.344400  0.896990  1.0  -0.6832
  O  O123  1  0.663200  0.379400  0.938940  1.0  -0.7272
  O  O124  1  0.049800  0.209600  0.837430  1.0  -0.5888
  O  O125  1  0.206800  0.303700  0.872640  1.0  -0.7363
  O  O126  1  0.784600  0.161400  0.974200  1.0  -0.7178
  O  O127  1  0.543700  0.216900  0.978030  1.0  -0.7218
  O  O128  1  0.704400  0.032900  0.034650  1.0  -0.1678
  O  O129  1  0.624400  0.844400  0.103010  1.0  -0.6827
  O  O130  1  0.836800  0.879400  0.061060  1.0  -0.7265
  O  O131  1  0.450200  0.709600  0.162570  1.0  -0.5881
  O  O132  1  0.293200  0.803700  0.127360  1.0  -0.7355
  O  O133  1  0.715400  0.661400  0.474200  1.0  -0.7171
  O  O134  1  0.956300  0.716900  0.478030  1.0  -0.721
  O  O135  1  0.795600  0.532900  0.534650  1.0  -0.167
  O  O136  1  0.875600  0.344400  0.603010  1.0  -0.6834
  O  O137  1  0.663200  0.379400  0.561060  1.0  -0.7272
  O  O138  1  0.049800  0.209600  0.662570  1.0  -0.5892
  O  O139  1  0.206800  0.303700  0.627360  1.0  -0.7346
  O  O140  1  0.784600  0.161400  0.525800  1.0  -0.7188
  O  O141  1  0.543700  0.216900  0.521970  1.0  -0.7215
  O  O142  1  0.704400  0.032900  0.465350  1.0  -0.1694
  O  O143  1  0.624400  0.844400  0.396990  1.0  -0.6822
  O  O144  1  0.836800  0.879400  0.438940  1.0  -0.7268
  O  O145  1  0.450200  0.709600  0.337430  1.0  -0.5887
  O  O146  1  0.293200  0.803700  0.372640  1.0  -0.7371
  O  O147  1  0.284600  0.338600  0.974200  1.0  -0.7183
  O  O148  1  0.043700  0.283100  0.978030  1.0  -0.7221
  O  O149  1  0.204400  0.467100  0.034650  1.0  -0.1676
  O  O150  1  0.124400  0.655600  0.103010  1.0  -0.6817
  O  O151  1  0.336800  0.620600  0.061060  1.0  -0.7265
  O  O152  1  0.950200  0.790400  0.162570  1.0  -0.5898
  O  O153  1  0.793200  0.696300  0.127360  1.0  -0.7348
  O  O154  1  0.215400  0.838600  0.025800  1.0  -0.7179
  O  O155  1  0.456300  0.783100  0.021970  1.0  -0.7216
  O  O156  1  0.295600  0.967100  0.965350  1.0  -0.1665
  O  O157  1  0.375600  0.155600  0.896990  1.0  -0.6832
  O  O158  1  0.163200  0.120600  0.938940  1.0  -0.7259
  O  O159  1  0.549800  0.290400  0.837430  1.0  -0.5898
  O  O160  1  0.706800  0.196300  0.872640  1.0  -0.7351
  O  O161  1  0.865800  0.736900  0.250000  1.0  -0.1203
  O  O162  1  0.634200  0.236900  0.750000  1.0  -0.1209
  O  O163  1  0.134200  0.263100  0.750000  1.0  -0.1222
  O  O164  1  0.365800  0.763100  0.250000  1.0  -0.121
