# generated using pymatgen
data_CdC8(NO2)2
_symmetry_space_group_name_H-M   'P 1'
_cell_length_a   16.17800000
_cell_length_b   16.17800000
_cell_length_c   6.83770000
_cell_angle_alpha   90.00000000
_cell_angle_beta   90.00000000
_cell_angle_gamma   90.00000000
_symmetry_Int_Tables_number   1
_chemical_formula_structural   CdC8(NO2)2
_chemical_formula_sum   'Cd8 C64 N16 O32'
_cell_volume   1789.61538489
_cell_formula_units_Z   8
loop_
 _symmetry_equiv_pos_site_id
 _symmetry_equiv_pos_as_xyz
  1  'x, y, z'
loop_
 _atom_site_type_symbol
 _atom_site_label
 _atom_site_symmetry_multiplicity
 _atom_site_fract_x
 _atom_site_fract_y
 _atom_site_fract_z
 _atom_site_occupancy
 _atom_site_charge
  Cd  Cd1  1  0.457210  0.542790  0.250000  1.0  1.0298
  Cd  Cd2  1  0.042790  0.957210  0.250000  1.0  1.0303
  Cd  Cd3  1  0.957210  0.457210  0.750000  1.0  1.0299
  Cd  Cd4  1  0.542790  0.042790  0.750000  1.0  1.0302
  Cd  Cd5  1  0.542790  0.457210  0.750000  1.0  1.0303
  Cd  Cd6  1  0.957210  0.042790  0.750000  1.0  1.0298
  Cd  Cd7  1  0.042790  0.542790  0.250000  1.0  1.0302
  Cd  Cd8  1  0.457210  0.957210  0.250000  1.0  1.0299
  C  C9  1  0.353400  0.461500  0.903700  1.0  0.6878
  C  C10  1  0.293000  0.489300  0.048800  1.0  0.036
  C  C11  1  0.179100  0.619100  0.600000  1.0  -0.0522
  C  C12  1  0.146600  0.038500  0.903700  1.0  0.6886
  C  C13  1  0.207000  0.010700  0.048800  1.0  0.0362
  C  C14  1  0.320900  0.880900  0.600000  1.0  -0.051
  C  C15  1  0.038500  0.353400  0.403700  1.0  0.6915
  C  C16  1  0.010700  0.293000  0.548800  1.0  0.0367
  C  C17  1  0.880900  0.179100  0.100000  1.0  -0.0515
  C  C18  1  0.461500  0.146600  0.403700  1.0  0.6918
  C  C19  1  0.489300  0.207000  0.548800  1.0  0.0363
  C  C20  1  0.619100  0.320900  0.100000  1.0  -0.0503
  C  C21  1  0.646600  0.961500  0.096300  1.0  0.6889
  C  C22  1  0.707000  0.989300  0.951200  1.0  0.036
  C  C23  1  0.820900  0.119100  0.400000  1.0  -0.0505
  C  C24  1  0.853400  0.538500  0.096300  1.0  0.6883
  C  C25  1  0.793000  0.510700  0.951200  1.0  0.0362
  C  C26  1  0.679100  0.380900  0.400000  1.0  -0.0501
  C  C27  1  0.961500  0.853400  0.596300  1.0  0.6912
  C  C28  1  0.989300  0.793000  0.451200  1.0  0.0364
  C  C29  1  0.119100  0.679100  0.900000  1.0  -0.0505
  C  C30  1  0.538500  0.646600  0.596300  1.0  0.6919
  C  C31  1  0.510700  0.707000  0.451200  1.0  0.0367
  C  C32  1  0.380900  0.820900  0.900000  1.0  -0.0497
  C  C33  1  0.646600  0.538500  0.096300  1.0  0.6885
  C  C34  1  0.707000  0.510700  0.951200  1.0  0.0363
  C  C35  1  0.820900  0.380900  0.400000  1.0  -0.0496
  C  C36  1  0.853400  0.961500  0.096300  1.0  0.6884
  C  C37  1  0.793000  0.989300  0.951200  1.0  0.0361
  C  C38  1  0.679100  0.119100  0.400000  1.0  -0.0516
  C  C39  1  0.961500  0.646600  0.596300  1.0  0.6918
  C  C40  1  0.989300  0.707000  0.451200  1.0  0.0363
  C  C41  1  0.119100  0.820900  0.900000  1.0  -0.0496
  C  C42  1  0.538500  0.853400  0.596300  1.0  0.6916
  C  C43  1  0.510700  0.793000  0.451200  1.0  0.0367
  C  C44  1  0.380900  0.679100  0.900000  1.0  -0.05
  C  C45  1  0.353400  0.038500  0.903700  1.0  0.6884
  C  C46  1  0.293000  0.010700  0.048800  1.0  0.0361
  C  C47  1  0.179100  0.880900  0.600000  1.0  -0.0511
  C  C48  1  0.146600  0.461500  0.903700  1.0  0.6884
  C  C49  1  0.207000  0.489300  0.048800  1.0  0.0358
  C  C50  1  0.320900  0.619100  0.600000  1.0  -0.0519
  C  C51  1  0.038500  0.146600  0.403700  1.0  0.6917
  C  C52  1  0.010700  0.207000  0.548800  1.0  0.0366
  C  C53  1  0.880900  0.320900  0.100000  1.0  -0.0504
  C  C54  1  0.461500  0.353400  0.403700  1.0  0.6914
  C  C55  1  0.489300  0.293000  0.548800  1.0  0.0364
  C  C56  1  0.619100  0.179100  0.100000  1.0  -0.0521
  C  C57  1  0.250000  0.590800  0.504000  1.0  0.0172
  C  C58  1  0.250000  0.549200  0.312700  1.0  0.3912
  C  C59  1  0.250000  0.909200  0.504000  1.0  0.017
  C  C60  1  0.250000  0.950800  0.312700  1.0  0.3911
  C  C61  1  0.909200  0.250000  0.004000  1.0  0.0181
  C  C62  1  0.950800  0.250000  0.812700  1.0  0.3919
  C  C63  1  0.590800  0.250000  0.004000  1.0  0.0188
  C  C64  1  0.549200  0.250000  0.812700  1.0  0.392
  C  C65  1  0.750000  0.090800  0.496000  1.0  0.0173
  C  C66  1  0.750000  0.049200  0.687300  1.0  0.3928
  C  C67  1  0.750000  0.409200  0.496000  1.0  0.0167
  C  C68  1  0.750000  0.450800  0.687300  1.0  0.3919
  C  C69  1  0.090800  0.750000  0.996000  1.0  0.0182
  C  C70  1  0.049200  0.750000  0.187300  1.0  0.3936
  C  C71  1  0.409200  0.750000  0.996000  1.0  0.0176
  C  C72  1  0.450800  0.750000  0.187300  1.0  0.3934
  N  N73  1  0.318700  0.527700  0.216400  1.0  -0.3836
  N  N74  1  0.181300  0.972300  0.216400  1.0  -0.3839
  N  N75  1  0.972300  0.318700  0.716400  1.0  -0.3866
  N  N76  1  0.527700  0.181300  0.716400  1.0  -0.3847
  N  N77  1  0.681300  0.027700  0.783600  1.0  -0.3834
  N  N78  1  0.818700  0.472300  0.783600  1.0  -0.383
  N  N79  1  0.027700  0.818700  0.283600  1.0  -0.386
  N  N80  1  0.472300  0.681300  0.283600  1.0  -0.385
  N  N81  1  0.681300  0.472300  0.783600  1.0  -0.3843
  N  N82  1  0.818700  0.027700  0.783600  1.0  -0.384
  N  N83  1  0.027700  0.681300  0.283600  1.0  -0.3853
  N  N84  1  0.472300  0.818700  0.283600  1.0  -0.387
  N  N85  1  0.318700  0.972300  0.216400  1.0  -0.3838
  N  N86  1  0.181300  0.527700  0.216400  1.0  -0.3852
  N  N87  1  0.972300  0.181300  0.716400  1.0  -0.3857
  N  N88  1  0.527700  0.318700  0.716400  1.0  -0.3871
  O  O89  1  0.329400  0.419700  0.755300  1.0  -0.4284
  O  O90  1  0.426900  0.481400  0.931200  1.0  -0.5789
  O  O91  1  0.170600  0.080300  0.755300  1.0  -0.4268
  O  O92  1  0.073100  0.018600  0.931200  1.0  -0.5783
  O  O93  1  0.080300  0.329400  0.255300  1.0  -0.4291
  O  O94  1  0.018600  0.426900  0.431200  1.0  -0.5825
  O  O95  1  0.419700  0.170600  0.255300  1.0  -0.4292
  O  O96  1  0.481400  0.073100  0.431200  1.0  -0.582
  O  O97  1  0.670600  0.919700  0.244700  1.0  -0.4304
  O  O98  1  0.573100  0.981400  0.068800  1.0  -0.5781
  O  O99  1  0.829400  0.580300  0.244700  1.0  -0.4305
  O  O100  1  0.926900  0.518600  0.068800  1.0  -0.5786
  O  O101  1  0.919700  0.829400  0.744700  1.0  -0.4315
  O  O102  1  0.981400  0.926900  0.568800  1.0  -0.5832
  O  O103  1  0.580300  0.670600  0.744700  1.0  -0.4345
  O  O104  1  0.518600  0.573100  0.568800  1.0  -0.5815
  O  O105  1  0.670600  0.580300  0.244700  1.0  -0.43
  O  O106  1  0.573100  0.518600  0.068800  1.0  -0.5784
  O  O107  1  0.829400  0.919700  0.244700  1.0  -0.4314
  O  O108  1  0.926900  0.981400  0.068800  1.0  -0.5787
  O  O109  1  0.919700  0.670600  0.744700  1.0  -0.4316
  O  O110  1  0.981400  0.573100  0.568800  1.0  -0.5818
  O  O111  1  0.580300  0.829400  0.744700  1.0  -0.4351
  O  O112  1  0.518600  0.926900  0.568800  1.0  -0.5825
  O  O113  1  0.329400  0.080300  0.755300  1.0  -0.4285
  O  O114  1  0.426900  0.018600  0.931200  1.0  -0.5787
  O  O115  1  0.170600  0.419700  0.755300  1.0  -0.4276
  O  O116  1  0.073100  0.481400  0.931200  1.0  -0.5784
  O  O117  1  0.080300  0.170600  0.255300  1.0  -0.4287
  O  O118  1  0.018600  0.073100  0.431200  1.0  -0.5816
  O  O119  1  0.419700  0.329400  0.255300  1.0  -0.4296
  O  O120  1  0.481400  0.426900  0.431200  1.0  -0.5834
