# generated using pymatgen
data_CdH8(C7O2)2
_symmetry_space_group_name_H-M   'P 1'
_cell_length_a   9.03890000
_cell_length_b   24.49800000
_cell_length_c   45.85300000
_cell_angle_alpha   90.00000000
_cell_angle_beta   90.00000000
_cell_angle_gamma   90.00000000
_symmetry_Int_Tables_number   1
_chemical_formula_structural   CdH8(C7O2)2
_chemical_formula_sum   'Cd12 H96 C168 O48'
_cell_volume   10153.45778029
_cell_formula_units_Z   12
loop_
 _symmetry_equiv_pos_site_id
 _symmetry_equiv_pos_as_xyz
  1  'x, y, z'
loop_
 _atom_site_type_symbol
 _atom_site_label
 _atom_site_symmetry_multiplicity
 _atom_site_fract_x
 _atom_site_fract_y
 _atom_site_fract_z
 _atom_site_occupancy
 _atom_site_charge
  Cd  Cd1  1  0.914120  0.537130  0.850850  1.0  1.0515
  Cd  Cd2  1  0.414120  0.962870  0.649150  1.0  1.0506
  Cd  Cd3  1  0.585880  0.462870  0.850850  1.0  1.0514
  Cd  Cd4  1  0.085880  0.037130  0.649150  1.0  1.0504
  Cd  Cd5  1  0.085880  0.462870  0.149150  1.0  1.0503
  Cd  Cd6  1  0.585880  0.037130  0.350850  1.0  1.0512
  Cd  Cd7  1  0.414120  0.537130  0.149150  1.0  1.0508
  Cd  Cd8  1  0.914120  0.962870  0.350850  1.0  1.0516
  Cd  Cd9  1  0.250000  0.500000  0.813250  1.0  1.0847
  Cd  Cd10  1  0.750000  0.000000  0.686750  1.0  1.0849
  Cd  Cd11  1  0.750000  0.500000  0.186750  1.0  1.0849
  Cd  Cd12  1  0.250000  0.000000  0.313250  1.0  1.0847
  H  H13  1  0.980500  0.445400  0.754600  1.0  0.112
  H  H14  1  0.969900  0.374800  0.721600  1.0  0.1437
  H  H15  1  0.770700  0.283400  0.781900  1.0  0.1158
  H  H16  1  0.789500  0.352100  0.815300  1.0  0.1204
  H  H17  1  0.042100  0.290900  0.703400  1.0  0.1231
  H  H18  1  0.045100  0.213100  0.676700  1.0  0.1072
  H  H19  1  0.679900  0.161100  0.717400  1.0  0.1089
  H  H20  1  0.672200  0.239700  0.743500  1.0  0.1091
  H  H21  1  0.448600  0.534200  0.913200  1.0  0.1045
  H  H22  1  0.441100  0.540900  0.963300  1.0  0.1258
  H  H23  1  0.168400  0.425100  0.006900  1.0  0.1362
  H  H24  1  0.181300  0.428100  0.058700  1.0  0.1321
  H  H25  1  0.480500  0.054600  0.745400  1.0  0.1121
  H  H26  1  0.469900  0.125200  0.778400  1.0  0.1434
  H  H27  1  0.270700  0.216600  0.718100  1.0  0.1178
  H  H28  1  0.289500  0.147900  0.684700  1.0  0.1206
  H  H29  1  0.542100  0.209100  0.796600  1.0  0.1234
  H  H30  1  0.545100  0.286900  0.823300  1.0  0.1072
  H  H31  1  0.179900  0.338900  0.782600  1.0  0.1092
  H  H32  1  0.172200  0.260300  0.756500  1.0  0.1087
  H  H33  1  0.948600  0.965800  0.586800  1.0  0.1048
  H  H34  1  0.941100  0.959100  0.536700  1.0  0.1254
  H  H35  1  0.668400  0.074900  0.493100  1.0  0.1382
  H  H36  1  0.681300  0.071900  0.441300  1.0  0.1345
  H  H37  1  0.519500  0.554600  0.754600  1.0  0.1117
  H  H38  1  0.530100  0.625200  0.721600  1.0  0.1428
  H  H39  1  0.729300  0.716600  0.781900  1.0  0.1156
  H  H40  1  0.710500  0.647900  0.815300  1.0  0.1201
  H  H41  1  0.457900  0.709100  0.703400  1.0  0.1222
  H  H42  1  0.454900  0.786900  0.676700  1.0  0.1073
  H  H43  1  0.820100  0.838900  0.717400  1.0  0.1091
  H  H44  1  0.827800  0.760300  0.743500  1.0  0.1095
  H  H45  1  0.051400  0.465800  0.913200  1.0  0.1044
  H  H46  1  0.058900  0.459100  0.963300  1.0  0.1257
  H  H47  1  0.331600  0.574900  0.006900  1.0  0.1378
  H  H48  1  0.318700  0.571900  0.058700  1.0  0.1332
  H  H49  1  0.019500  0.945400  0.745400  1.0  0.1121
  H  H50  1  0.030100  0.874800  0.778400  1.0  0.1439
  H  H51  1  0.229300  0.783400  0.718100  1.0  0.1174
  H  H52  1  0.210500  0.852100  0.684700  1.0  0.12
  H  H53  1  0.957900  0.790900  0.796600  1.0  0.1236
  H  H54  1  0.954900  0.713100  0.823300  1.0  0.1072
  H  H55  1  0.320100  0.661100  0.782600  1.0  0.1094
  H  H56  1  0.327800  0.739700  0.756500  1.0  0.1093
  H  H57  1  0.551400  0.034200  0.586800  1.0  0.1049
  H  H58  1  0.558900  0.040900  0.536700  1.0  0.1261
  H  H59  1  0.831600  0.925100  0.493100  1.0  0.1374
  H  H60  1  0.818700  0.928100  0.441300  1.0  0.1326
  H  H61  1  0.019500  0.554600  0.245400  1.0  0.112
  H  H62  1  0.030100  0.625200  0.278400  1.0  0.1436
  H  H63  1  0.229300  0.716600  0.218100  1.0  0.1161
  H  H64  1  0.210500  0.647900  0.184700  1.0  0.1201
  H  H65  1  0.957900  0.709100  0.296600  1.0  0.1224
  H  H66  1  0.954900  0.786900  0.323300  1.0  0.1074
  H  H67  1  0.320100  0.838900  0.282600  1.0  0.1091
  H  H68  1  0.327800  0.760300  0.256500  1.0  0.1092
  H  H69  1  0.551400  0.465800  0.086800  1.0  0.1048
  H  H70  1  0.558900  0.459100  0.036700  1.0  0.1254
  H  H71  1  0.831600  0.574900  0.993100  1.0  0.1361
  H  H72  1  0.818700  0.571900  0.941300  1.0  0.1341
  H  H73  1  0.519500  0.945400  0.254600  1.0  0.1122
  H  H74  1  0.530100  0.874800  0.221600  1.0  0.1432
  H  H75  1  0.729300  0.783400  0.281900  1.0  0.1173
  H  H76  1  0.710500  0.852100  0.315300  1.0  0.1201
  H  H77  1  0.457900  0.790900  0.203400  1.0  0.1234
  H  H78  1  0.454900  0.713100  0.176700  1.0  0.1075
  H  H79  1  0.820100  0.661100  0.217400  1.0  0.1094
  H  H80  1  0.827800  0.739700  0.243500  1.0  0.1095
  H  H81  1  0.051400  0.034200  0.413200  1.0  0.1047
  H  H82  1  0.058900  0.040900  0.463300  1.0  0.1261
  H  H83  1  0.331600  0.925100  0.506900  1.0  0.1373
  H  H84  1  0.318700  0.928100  0.558700  1.0  0.1321
  H  H85  1  0.480500  0.445400  0.245400  1.0  0.1122
  H  H86  1  0.469900  0.374800  0.278400  1.0  0.1436
  H  H87  1  0.270700  0.283400  0.218100  1.0  0.1156
  H  H88  1  0.289500  0.352100  0.184700  1.0  0.1203
  H  H89  1  0.542100  0.290900  0.296600  1.0  0.1234
  H  H90  1  0.545100  0.213100  0.323300  1.0  0.1069
  H  H91  1  0.179900  0.161100  0.282600  1.0  0.1089
  H  H92  1  0.172200  0.239700  0.256500  1.0  0.109
  H  H93  1  0.948600  0.534200  0.086800  1.0  0.1048
  H  H94  1  0.941100  0.540900  0.036700  1.0  0.1258
  H  H95  1  0.668400  0.425100  0.993100  1.0  0.1364
  H  H96  1  0.681300  0.428100  0.941300  1.0  0.1325
  H  H97  1  0.980500  0.054600  0.254600  1.0  0.1116
  H  H98  1  0.969900  0.125200  0.221600  1.0  0.1427
  H  H99  1  0.770700  0.216600  0.281900  1.0  0.1175
  H  H100  1  0.789500  0.147900  0.315300  1.0  0.1204
  H  H101  1  0.042100  0.209100  0.203400  1.0  0.1231
  H  H102  1  0.045100  0.286900  0.176700  1.0  0.1072
  H  H103  1  0.679900  0.338900  0.217400  1.0  0.1092
  H  H104  1  0.672200  0.260300  0.243500  1.0  0.1089
  H  H105  1  0.448600  0.965800  0.413200  1.0  0.1042
  H  H106  1  0.441100  0.959100  0.463300  1.0  0.1258
  H  H107  1  0.168400  0.074900  0.506900  1.0  0.1386
  H  H108  1  0.181300  0.071900  0.558700  1.0  0.1335
  C  C109  1  0.900800  0.451030  0.810120  1.0  0.6921
  C  C110  1  0.886400  0.407750  0.788560  1.0  -0.1094
  C  C111  1  0.938700  0.412400  0.760360  1.0  -0.031
  C  C112  1  0.931900  0.370330  0.740280  1.0  -0.1443
  C  C113  1  0.867200  0.321380  0.748570  1.0  0.0311
  C  C114  1  0.814600  0.316170  0.776420  1.0  -0.1156
  C  C115  1  0.824300  0.357410  0.796390  1.0  -0.0875
  C  C116  1  0.862900  0.273850  0.727920  1.0  0.0954
  C  C117  1  0.970100  0.264500  0.706710  1.0  -0.0937
  C  C118  1  0.972100  0.217850  0.690770  1.0  -0.0509
  C  C119  1  0.868200  0.177350  0.695010  1.0  -0.1239
  C  C120  1  0.754000  0.187050  0.714930  1.0  -0.0265
  C  C121  1  0.750100  0.233720  0.730660  1.0  -0.1518
  C  C122  1  0.881800  0.121850  0.680890  1.0  0.7589
  C  C123  1  0.366700  0.521180  0.923260  1.0  -0.0117
  C  C124  1  0.364900  0.523500  0.953300  1.0  -0.1203
  C  C125  1  0.203300  0.456200  0.016280  1.0  -0.2029
  C  C126  1  0.210400  0.460000  0.049350  1.0  -0.1237
  C  C127  1  0.400800  0.048970  0.689880  1.0  0.6919
  C  C128  1  0.386400  0.092250  0.711440  1.0  -0.1124
  C  C129  1  0.438700  0.087600  0.739640  1.0  -0.0348
  C  C130  1  0.431900  0.129670  0.759720  1.0  -0.1431
  C  C131  1  0.367200  0.178620  0.751430  1.0  0.0311
  C  C132  1  0.314600  0.183830  0.723580  1.0  -0.1151
  C  C133  1  0.324300  0.142590  0.703610  1.0  -0.0878
  C  C134  1  0.362900  0.226150  0.772080  1.0  0.0962
  C  C135  1  0.470100  0.235500  0.793290  1.0  -0.0936
  C  C136  1  0.472100  0.282150  0.809230  1.0  -0.0529
  C  C137  1  0.368200  0.322650  0.804990  1.0  -0.1239
  C  C138  1  0.254000  0.312950  0.785070  1.0  -0.0262
  C  C139  1  0.250100  0.266280  0.769340  1.0  -0.1536
  C  C140  1  0.381800  0.378150  0.819110  1.0  0.759
  C  C141  1  0.866700  0.978820  0.576740  1.0  -0.0133
  C  C142  1  0.864900  0.976500  0.546700  1.0  -0.1201
  C  C143  1  0.703300  0.043800  0.483720  1.0  -0.2032
  C  C144  1  0.710400  0.040000  0.450650  1.0  -0.1277
  C  C145  1  0.599200  0.548970  0.810120  1.0  0.6925
  C  C146  1  0.613600  0.592250  0.788560  1.0  -0.1113
  C  C147  1  0.561300  0.587600  0.760360  1.0  -0.0331
  C  C148  1  0.568100  0.629670  0.740280  1.0  -0.1433
  C  C149  1  0.632800  0.678620  0.748570  1.0  0.0315
  C  C150  1  0.685400  0.683830  0.776420  1.0  -0.1146
  C  C151  1  0.675700  0.642590  0.796390  1.0  -0.0875
  C  C152  1  0.637100  0.726150  0.727920  1.0  0.0952
  C  C153  1  0.529900  0.735500  0.706710  1.0  -0.0958
  C  C154  1  0.527900  0.782150  0.690770  1.0  -0.051
  C  C155  1  0.631800  0.822650  0.695010  1.0  -0.122
  C  C156  1  0.746000  0.812950  0.714930  1.0  -0.0257
  C  C157  1  0.749900  0.766280  0.730660  1.0  -0.1505
  C  C158  1  0.618200  0.878150  0.680890  1.0  0.7597
  C  C159  1  0.133300  0.478820  0.923260  1.0  -0.0101
  C  C160  1  0.135100  0.476500  0.953300  1.0  -0.1195
  C  C161  1  0.296700  0.543800  0.016280  1.0  -0.2017
  C  C162  1  0.289600  0.540000  0.049350  1.0  -0.1287
  C  C163  1  0.099200  0.951030  0.689880  1.0  0.692
  C  C164  1  0.113600  0.907750  0.711440  1.0  -0.1093
  C  C165  1  0.061300  0.912400  0.739640  1.0  -0.0323
  C  C166  1  0.068100  0.870330  0.759720  1.0  -0.144
  C  C167  1  0.132800  0.821380  0.751430  1.0  0.0308
  C  C168  1  0.185400  0.816170  0.723580  1.0  -0.1136
  C  C169  1  0.175700  0.857410  0.703610  1.0  -0.0883
  C  C170  1  0.137100  0.773850  0.772080  1.0  0.096
  C  C171  1  0.029900  0.764500  0.793290  1.0  -0.0935
  C  C172  1  0.027900  0.717850  0.809230  1.0  -0.0534
  C  C173  1  0.131800  0.677350  0.804990  1.0  -0.1235
  C  C174  1  0.246000  0.687050  0.785070  1.0  -0.0262
  C  C175  1  0.249900  0.733720  0.769340  1.0  -0.1511
  C  C176  1  0.118200  0.621850  0.819110  1.0  0.7588
  C  C177  1  0.633300  0.021180  0.576740  1.0  -0.0119
  C  C178  1  0.635100  0.023500  0.546700  1.0  -0.1202
  C  C179  1  0.796700  0.956200  0.483720  1.0  -0.2017
  C  C180  1  0.789600  0.960000  0.450650  1.0  -0.1265
  C  C181  1  0.099200  0.548970  0.189880  1.0  0.6919
  C  C182  1  0.113600  0.592250  0.211440  1.0  -0.1119
  C  C183  1  0.061300  0.587600  0.239640  1.0  -0.0348
  C  C184  1  0.068100  0.629670  0.259720  1.0  -0.1428
  C  C185  1  0.132800  0.678620  0.251430  1.0  0.0312
  C  C186  1  0.185400  0.683830  0.223580  1.0  -0.1145
  C  C187  1  0.175700  0.642590  0.203610  1.0  -0.0883
  C  C188  1  0.137100  0.726150  0.272080  1.0  0.096
  C  C189  1  0.029900  0.735500  0.293290  1.0  -0.094
  C  C190  1  0.027900  0.782150  0.309230  1.0  -0.0532
  C  C191  1  0.131800  0.822650  0.304990  1.0  -0.1239
  C  C192  1  0.246000  0.812950  0.285070  1.0  -0.0254
  C  C193  1  0.249900  0.766280  0.269340  1.0  -0.1517
  C  C194  1  0.118200  0.878150  0.319110  1.0  0.7594
  C  C195  1  0.633300  0.478820  0.076740  1.0  -0.0125
  C  C196  1  0.635100  0.476500  0.046700  1.0  -0.1198
  C  C197  1  0.796700  0.543800  0.983720  1.0  -0.2016
  C  C198  1  0.789600  0.540000  0.950650  1.0  -0.1273
  C  C199  1  0.599200  0.951030  0.310120  1.0  0.6924
  C  C200  1  0.613600  0.907750  0.288560  1.0  -0.1093
  C  C201  1  0.561300  0.912400  0.260360  1.0  -0.0314
  C  C202  1  0.568100  0.870330  0.240280  1.0  -0.1437
  C  C203  1  0.632800  0.821380  0.248570  1.0  0.0309
  C  C204  1  0.685400  0.816170  0.276420  1.0  -0.1145
  C  C205  1  0.675700  0.857410  0.296390  1.0  -0.0874
  C  C206  1  0.637100  0.773850  0.227920  1.0  0.0953
  C  C207  1  0.529900  0.764500  0.206710  1.0  -0.0945
  C  C208  1  0.527900  0.717850  0.190770  1.0  -0.0511
  C  C209  1  0.631800  0.677350  0.195010  1.0  -0.1233
  C  C210  1  0.746000  0.687050  0.214930  1.0  -0.0261
  C  C211  1  0.749900  0.733720  0.230660  1.0  -0.1501
  C  C212  1  0.618200  0.621850  0.180890  1.0  0.7591
  C  C213  1  0.133300  0.021180  0.423260  1.0  -0.0113
  C  C214  1  0.135100  0.023500  0.453300  1.0  -0.1204
  C  C215  1  0.296700  0.956200  0.516280  1.0  -0.2018
  C  C216  1  0.289600  0.960000  0.549350  1.0  -0.1248
  C  C217  1  0.400800  0.451030  0.189880  1.0  0.6919
  C  C218  1  0.386400  0.407750  0.211440  1.0  -0.1095
  C  C219  1  0.438700  0.412400  0.239640  1.0  -0.0317
  C  C220  1  0.431900  0.370330  0.259720  1.0  -0.1442
  C  C221  1  0.367200  0.321380  0.251430  1.0  0.031
  C  C222  1  0.314600  0.316170  0.223580  1.0  -0.1147
  C  C223  1  0.324300  0.357410  0.203610  1.0  -0.088
  C  C224  1  0.362900  0.273850  0.272080  1.0  0.0963
  C  C225  1  0.470100  0.264500  0.293290  1.0  -0.0925
  C  C226  1  0.472100  0.217850  0.309230  1.0  -0.053
  C  C227  1  0.368200  0.177350  0.304990  1.0  -0.1236
  C  C228  1  0.254000  0.187050  0.285070  1.0  -0.0265
  C  C229  1  0.250100  0.233720  0.269340  1.0  -0.1529
  C  C230  1  0.381800  0.121850  0.319110  1.0  0.7585
  C  C231  1  0.866700  0.521180  0.076740  1.0  -0.012
  C  C232  1  0.864900  0.523500  0.046700  1.0  -0.1204
  C  C233  1  0.703300  0.456200  0.983720  1.0  -0.2027
  C  C234  1  0.710400  0.460000  0.950650  1.0  -0.1251
  C  C235  1  0.900800  0.048970  0.310120  1.0  0.6923
  C  C236  1  0.886400  0.092250  0.288560  1.0  -0.1116
  C  C237  1  0.938700  0.087600  0.260360  1.0  -0.0336
  C  C238  1  0.931900  0.129670  0.240280  1.0  -0.1438
  C  C239  1  0.867200  0.178620  0.248570  1.0  0.0319
  C  C240  1  0.814600  0.183830  0.276420  1.0  -0.1152
  C  C241  1  0.824300  0.142590  0.296390  1.0  -0.0877
  C  C242  1  0.862900  0.226150  0.227920  1.0  0.0952
  C  C243  1  0.970100  0.235500  0.206710  1.0  -0.0954
  C  C244  1  0.972100  0.282150  0.190770  1.0  -0.0508
  C  C245  1  0.868200  0.322650  0.195010  1.0  -0.1222
  C  C246  1  0.754000  0.312950  0.214930  1.0  -0.0266
  C  C247  1  0.750100  0.266280  0.230660  1.0  -0.1523
  C  C248  1  0.881800  0.378150  0.180890  1.0  0.7596
  C  C249  1  0.366700  0.978820  0.423260  1.0  -0.0112
  C  C250  1  0.364900  0.976500  0.453300  1.0  -0.1198
  C  C251  1  0.203300  0.043800  0.516280  1.0  -0.2034
  C  C252  1  0.210400  0.040000  0.549350  1.0  -0.1292
  C  C253  1  0.250000  0.500000  0.875110  1.0  0.7087
  C  C254  1  0.250000  0.500000  0.908060  1.0  -0.1091
  C  C255  1  0.250000  0.500000  0.968570  1.0  0.0677
  C  C256  1  0.250000  0.500000  0.001220  1.0  0.1046
  C  C257  1  0.250000  0.500000  0.067990  1.0  0.0676
  C  C258  1  0.250000  0.500000  0.102010  1.0  0.577
  C  C259  1  0.750000  0.000000  0.624890  1.0  0.7088
  C  C260  1  0.750000  0.000000  0.591940  1.0  -0.1103
  C  C261  1  0.750000  0.000000  0.531430  1.0  0.0678
  C  C262  1  0.750000  0.000000  0.498780  1.0  0.1054
  C  C263  1  0.750000  0.000000  0.432010  1.0  0.0688
  C  C264  1  0.750000  0.000000  0.397990  1.0  0.5801
  C  C265  1  0.750000  0.500000  0.124890  1.0  0.7088
  C  C266  1  0.750000  0.500000  0.091940  1.0  -0.1103
  C  C267  1  0.750000  0.500000  0.031430  1.0  0.0678
  C  C268  1  0.750000  0.500000  0.998780  1.0  0.1054
  C  C269  1  0.750000  0.500000  0.932010  1.0  0.0688
  C  C270  1  0.750000  0.500000  0.897990  1.0  0.5801
  C  C271  1  0.250000  0.000000  0.375110  1.0  0.7087
  C  C272  1  0.250000  0.000000  0.408060  1.0  -0.1091
  C  C273  1  0.250000  0.000000  0.468570  1.0  0.0677
  C  C274  1  0.250000  0.000000  0.501220  1.0  0.1046
  C  C275  1  0.250000  0.000000  0.567990  1.0  0.0676
  C  C276  1  0.250000  0.000000  0.602010  1.0  0.577
  O  O277  1  0.982800  0.492690  0.804540  1.0  -0.7409
  O  O278  1  0.829600  0.448560  0.833930  1.0  -0.684
  O  O279  1  0.996100  0.113710  0.666040  1.0  -0.6123
  O  O280  1  0.781500  0.089480  0.685090  1.0  -0.6203
  O  O281  1  0.131400  0.491310  0.861620  1.0  -0.6734
  O  O282  1  0.176100  0.460000  0.105200  1.0  -0.5945
  O  O283  1  0.482800  0.007310  0.695460  1.0  -0.7396
  O  O284  1  0.329600  0.051440  0.666070  1.0  -0.6848
  O  O285  1  0.496100  0.386290  0.833960  1.0  -0.612
  O  O286  1  0.281500  0.410520  0.814910  1.0  -0.62
  O  O287  1  0.631400  0.008690  0.638380  1.0  -0.6726
  O  O288  1  0.676100  0.040000  0.394800  1.0  -0.5947
  O  O289  1  0.517200  0.507310  0.804540  1.0  -0.7405
  O  O290  1  0.670400  0.551440  0.833930  1.0  -0.6846
  O  O291  1  0.503900  0.886290  0.666040  1.0  -0.6114
  O  O292  1  0.718500  0.910520  0.685090  1.0  -0.6203
  O  O293  1  0.368600  0.508690  0.861620  1.0  -0.6724
  O  O294  1  0.323900  0.540000  0.105200  1.0  -0.5957
  O  O295  1  0.017200  0.992690  0.695460  1.0  -0.7415
  O  O296  1  0.170400  0.948560  0.666070  1.0  -0.6847
  O  O297  1  0.003900  0.613710  0.833960  1.0  -0.612
  O  O298  1  0.218500  0.589480  0.814910  1.0  -0.6199
  O  O299  1  0.868600  0.991310  0.638380  1.0  -0.6717
  O  O300  1  0.823900  0.960000  0.394800  1.0  -0.5944
  O  O301  1  0.017200  0.507310  0.195460  1.0  -0.7394
  O  O302  1  0.170400  0.551440  0.166070  1.0  -0.6844
  O  O303  1  0.003900  0.886290  0.333960  1.0  -0.6113
  O  O304  1  0.218500  0.910520  0.314910  1.0  -0.6202
  O  O305  1  0.868600  0.508690  0.138380  1.0  -0.6723
  O  O306  1  0.823900  0.540000  0.894800  1.0  -0.596
  O  O307  1  0.517200  0.992690  0.304540  1.0  -0.7412
  O  O308  1  0.670400  0.948560  0.333930  1.0  -0.6837
  O  O309  1  0.503900  0.613710  0.166040  1.0  -0.6118
  O  O310  1  0.718500  0.589480  0.185090  1.0  -0.62
  O  O311  1  0.368600  0.991310  0.361620  1.0  -0.673
  O  O312  1  0.323900  0.960000  0.605200  1.0  -0.5947
  O  O313  1  0.482800  0.492690  0.195460  1.0  -0.7409
  O  O314  1  0.329600  0.448560  0.166070  1.0  -0.6851
  O  O315  1  0.496100  0.113710  0.333960  1.0  -0.6122
  O  O316  1  0.281500  0.089480  0.314910  1.0  -0.6202
  O  O317  1  0.631400  0.491310  0.138380  1.0  -0.672
  O  O318  1  0.676100  0.460000  0.894800  1.0  -0.5944
  O  O319  1  0.982800  0.007310  0.304540  1.0  -0.7406
  O  O320  1  0.829600  0.051440  0.333930  1.0  -0.6851
  O  O321  1  0.996100  0.386290  0.166040  1.0  -0.6124
  O  O322  1  0.781500  0.410520  0.185090  1.0  -0.6201
  O  O323  1  0.131400  0.008690  0.361620  1.0  -0.6724
  O  O324  1  0.176100  0.040000  0.605200  1.0  -0.5948
