# generated using pymatgen
data_ZnH8C12(IN2)2
_symmetry_space_group_name_H-M   'P 1'
_cell_length_a   35.91000000
_cell_length_b   14.83300000
_cell_length_c   32.04000000
_cell_angle_alpha   90.00000000
_cell_angle_beta   102.97700000
_cell_angle_gamma   90.00000000
_symmetry_Int_Tables_number   1
_chemical_formula_structural   ZnH8C12(IN2)2
_chemical_formula_sum   'Zn24 H192 C288 I48 N96'
_cell_volume   16630.33715963
_cell_formula_units_Z   24
loop_
 _symmetry_equiv_pos_site_id
 _symmetry_equiv_pos_as_xyz
  1  'x, y, z'
loop_
 _atom_site_type_symbol
 _atom_site_label
 _atom_site_symmetry_multiplicity
 _atom_site_fract_x
 _atom_site_fract_y
 _atom_site_fract_z
 _atom_site_occupancy
 _atom_site_charge
  Zn  Zn1  1  0.664650  0.131700  0.766840  1.0  0.8568
  Zn  Zn2  1  0.375530  0.906450  0.938620  1.0  0.8499
  Zn  Zn3  1  0.590000  0.628880  0.081420  1.0  0.8562
  Zn  Zn4  1  0.164650  0.631700  0.766840  1.0  0.8568
  Zn  Zn5  1  0.875530  0.406450  0.938620  1.0  0.8499
  Zn  Zn6  1  0.090000  0.128880  0.081420  1.0  0.8562
  Zn  Zn7  1  0.664650  0.868300  0.266840  1.0  0.8566
  Zn  Zn8  1  0.375530  0.093550  0.438620  1.0  0.8477
  Zn  Zn9  1  0.590000  0.371120  0.581420  1.0  0.8581
  Zn  Zn10  1  0.164650  0.368300  0.266840  1.0  0.8566
  Zn  Zn11  1  0.875530  0.593550  0.438620  1.0  0.8477
  Zn  Zn12  1  0.090000  0.871120  0.581420  1.0  0.8581
  Zn  Zn13  1  0.335350  0.131700  0.733160  1.0  0.8569
  Zn  Zn14  1  0.624470  0.906450  0.561380  1.0  0.85
  Zn  Zn15  1  0.410000  0.628880  0.418580  1.0  0.8566
  Zn  Zn16  1  0.835350  0.631700  0.733160  1.0  0.8569
  Zn  Zn17  1  0.124470  0.406450  0.561380  1.0  0.85
  Zn  Zn18  1  0.910000  0.128880  0.418580  1.0  0.8566
  Zn  Zn19  1  0.335350  0.868300  0.233160  1.0  0.8566
  Zn  Zn20  1  0.624470  0.093550  0.061380  1.0  0.849
  Zn  Zn21  1  0.410000  0.371120  0.918580  1.0  0.8584
  Zn  Zn22  1  0.835350  0.368300  0.233160  1.0  0.8566
  Zn  Zn23  1  0.124470  0.593550  0.061380  1.0  0.849
  Zn  Zn24  1  0.910000  0.871120  0.918580  1.0  0.8584
  H  H25  1  0.664600  0.248900  0.844700  1.0  0.0768
  H  H26  1  0.629600  0.278200  0.893800  1.0  0.1223
  H  H27  1  0.513800  0.359100  0.011900  1.0  0.122
  H  H28  1  0.525700  0.491500  0.052300  1.0  0.099
  H  H29  1  0.615400  0.395000  0.976700  1.0  0.1225
  H  H30  1  0.623900  0.525200  0.019400  1.0  0.079
  H  H31  1  0.599400  0.044000  0.797400  1.0  0.0977
  H  H32  1  0.561600  0.068100  0.847700  1.0  0.1156
  H  H33  1  0.838100  0.585600  0.918900  1.0  0.0876
  H  H34  1  0.817100  0.356600  0.856100  1.0  0.0709
  H  H35  1  0.660600  0.329300  0.655900  1.0  0.0828
  H  H36  1  0.632900  0.958200  0.728200  1.0  0.0888
  H  H37  1  0.769400  0.423500  0.804000  1.0  0.1111
  H  H38  1  0.742500  0.852100  0.821300  1.0  0.1184
  H  H39  1  0.727200  0.003800  0.817200  1.0  0.0863
  H  H40  1  0.641900  0.634800  0.671700  1.0  0.1192
  H  H41  1  0.789600  0.658000  0.870700  1.0  0.1209
  H  H42  1  0.606600  0.554500  0.614600  1.0  0.0868
  H  H43  1  0.697200  0.402900  0.715500  1.0  0.1073
  H  H44  1  0.646400  0.804000  0.728900  1.0  0.1226
  H  H45  1  0.423900  0.968500  0.880800  1.0  0.079
  H  H46  1  0.427500  0.037800  0.000500  1.0  0.0877
  H  H47  1  0.480500  0.129000  0.002300  1.0  0.1147
  H  H48  1  0.477900  0.053100  0.879100  1.0  0.1242
  H  H49  1  0.164600  0.748900  0.844700  1.0  0.0768
  H  H50  1  0.129600  0.778200  0.893800  1.0  0.1223
  H  H51  1  0.013800  0.859100  0.011900  1.0  0.122
  H  H52  1  0.025700  0.991500  0.052300  1.0  0.099
  H  H53  1  0.115400  0.895000  0.976700  1.0  0.1225
  H  H54  1  0.123900  0.025200  0.019400  1.0  0.079
  H  H55  1  0.099400  0.544000  0.797400  1.0  0.0977
  H  H56  1  0.061600  0.568100  0.847700  1.0  0.1156
  H  H57  1  0.338100  0.085600  0.918900  1.0  0.0876
  H  H58  1  0.317100  0.856600  0.856100  1.0  0.0709
  H  H59  1  0.160600  0.829300  0.655900  1.0  0.0828
  H  H60  1  0.132900  0.458200  0.728200  1.0  0.0888
  H  H61  1  0.269400  0.923500  0.804000  1.0  0.1112
  H  H62  1  0.242500  0.352100  0.821300  1.0  0.1184
  H  H63  1  0.227200  0.503800  0.817200  1.0  0.0863
  H  H64  1  0.141900  0.134800  0.671700  1.0  0.1192
  H  H65  1  0.289600  0.158000  0.870700  1.0  0.1209
  H  H66  1  0.106600  0.054500  0.614600  1.0  0.0868
  H  H67  1  0.197200  0.902900  0.715500  1.0  0.1073
  H  H68  1  0.146400  0.304000  0.728900  1.0  0.1226
  H  H69  1  0.923900  0.468500  0.880800  1.0  0.079
  H  H70  1  0.927500  0.537800  0.000500  1.0  0.0877
  H  H71  1  0.980500  0.629000  0.002300  1.0  0.1147
  H  H72  1  0.977900  0.553100  0.879100  1.0  0.1242
  H  H73  1  0.664600  0.751100  0.344700  1.0  0.0764
  H  H74  1  0.629600  0.721800  0.393800  1.0  0.1228
  H  H75  1  0.513800  0.640900  0.511900  1.0  0.1219
  H  H76  1  0.525700  0.508500  0.552300  1.0  0.099
  H  H77  1  0.615400  0.605000  0.476700  1.0  0.1225
  H  H78  1  0.623900  0.474800  0.519400  1.0  0.0779
  H  H79  1  0.599400  0.956000  0.297400  1.0  0.0979
  H  H80  1  0.561600  0.931900  0.347700  1.0  0.1161
  H  H81  1  0.838100  0.414400  0.418900  1.0  0.0878
  H  H82  1  0.817100  0.643400  0.356100  1.0  0.0707
  H  H83  1  0.660600  0.670700  0.155900  1.0  0.0821
  H  H84  1  0.632900  0.041800  0.228200  1.0  0.0884
  H  H85  1  0.769400  0.576500  0.304000  1.0  0.1111
  H  H86  1  0.742500  0.147900  0.321300  1.0  0.1182
  H  H87  1  0.727200  0.996200  0.317200  1.0  0.0865
  H  H88  1  0.641900  0.365200  0.171700  1.0  0.1191
  H  H89  1  0.789600  0.342000  0.370700  1.0  0.1209
  H  H90  1  0.606600  0.445500  0.114600  1.0  0.0865
  H  H91  1  0.697200  0.597100  0.215500  1.0  0.107
  H  H92  1  0.646400  0.196000  0.228900  1.0  0.1229
  H  H93  1  0.423900  0.031500  0.380800  1.0  0.079
  H  H94  1  0.427500  0.962200  0.500500  1.0  0.0877
  H  H95  1  0.480500  0.871000  0.502300  1.0  0.1149
  H  H96  1  0.477900  0.946900  0.379100  1.0  0.1242
  H  H97  1  0.164600  0.251100  0.344700  1.0  0.0764
  H  H98  1  0.129600  0.221800  0.393800  1.0  0.1228
  H  H99  1  0.013800  0.140900  0.511900  1.0  0.1219
  H  H100  1  0.025700  0.008500  0.552300  1.0  0.099
  H  H101  1  0.115400  0.105000  0.476700  1.0  0.1225
  H  H102  1  0.123900  0.974800  0.519400  1.0  0.0779
  H  H103  1  0.099400  0.456000  0.297400  1.0  0.0979
  H  H104  1  0.061600  0.431900  0.347700  1.0  0.1161
  H  H105  1  0.338100  0.914400  0.418900  1.0  0.0878
  H  H106  1  0.317100  0.143400  0.356100  1.0  0.0707
  H  H107  1  0.160600  0.170700  0.155900  1.0  0.0821
  H  H108  1  0.132900  0.541800  0.228200  1.0  0.0884
  H  H109  1  0.269400  0.076500  0.304000  1.0  0.1112
  H  H110  1  0.242500  0.647900  0.321300  1.0  0.1182
  H  H111  1  0.227200  0.496200  0.317200  1.0  0.0865
  H  H112  1  0.141900  0.865200  0.171700  1.0  0.1191
  H  H113  1  0.289600  0.842000  0.370700  1.0  0.1209
  H  H114  1  0.106600  0.945500  0.114600  1.0  0.0865
  H  H115  1  0.197200  0.097100  0.215500  1.0  0.107
  H  H116  1  0.146400  0.696000  0.228900  1.0  0.1229
  H  H117  1  0.923900  0.531500  0.380800  1.0  0.079
  H  H118  1  0.927500  0.462200  0.500500  1.0  0.0877
  H  H119  1  0.980500  0.371000  0.502300  1.0  0.1149
  H  H120  1  0.977900  0.446900  0.379100  1.0  0.1242
  H  H121  1  0.335400  0.248900  0.655300  1.0  0.0767
  H  H122  1  0.370400  0.278200  0.606200  1.0  0.1234
  H  H123  1  0.486200  0.359100  0.488100  1.0  0.1217
  H  H124  1  0.474300  0.491500  0.447700  1.0  0.0989
  H  H125  1  0.384600  0.395000  0.523300  1.0  0.1225
  H  H126  1  0.376100  0.525200  0.480600  1.0  0.0781
  H  H127  1  0.400600  0.044000  0.702600  1.0  0.0974
  H  H128  1  0.438400  0.068100  0.652300  1.0  0.1161
  H  H129  1  0.161900  0.585600  0.581100  1.0  0.0877
  H  H130  1  0.182900  0.356600  0.643900  1.0  0.0715
  H  H131  1  0.339400  0.329300  0.844100  1.0  0.0832
  H  H132  1  0.367100  0.958200  0.771800  1.0  0.0884
  H  H133  1  0.230600  0.423500  0.696000  1.0  0.1099
  H  H134  1  0.257500  0.852100  0.678700  1.0  0.1178
  H  H135  1  0.272800  0.003800  0.682800  1.0  0.0857
  H  H136  1  0.358100  0.634800  0.828300  1.0  0.1193
  H  H137  1  0.210400  0.658000  0.629300  1.0  0.1206
  H  H138  1  0.393400  0.554500  0.885400  1.0  0.0869
  H  H139  1  0.302800  0.402900  0.784500  1.0  0.1073
  H  H140  1  0.353600  0.804000  0.771100  1.0  0.1226
  H  H141  1  0.576100  0.968500  0.619200  1.0  0.0796
  H  H142  1  0.572500  0.037800  0.499500  1.0  0.0881
  H  H143  1  0.519500  0.129000  0.497700  1.0  0.1146
  H  H144  1  0.522100  0.053100  0.620900  1.0  0.1241
  H  H145  1  0.835400  0.748900  0.655300  1.0  0.0767
  H  H146  1  0.870400  0.778200  0.606200  1.0  0.1234
  H  H147  1  0.986200  0.859100  0.488100  1.0  0.1217
  H  H148  1  0.974300  0.991500  0.447700  1.0  0.0989
  H  H149  1  0.884600  0.895000  0.523300  1.0  0.1225
  H  H150  1  0.876100  0.025200  0.480600  1.0  0.0781
  H  H151  1  0.900600  0.544000  0.702600  1.0  0.0974
  H  H152  1  0.938400  0.568100  0.652300  1.0  0.1161
  H  H153  1  0.661900  0.085600  0.581100  1.0  0.0877
  H  H154  1  0.682900  0.856600  0.643900  1.0  0.0715
  H  H155  1  0.839400  0.829300  0.844100  1.0  0.0832
  H  H156  1  0.867100  0.458200  0.771800  1.0  0.0884
  H  H157  1  0.730600  0.923500  0.696000  1.0  0.11
  H  H158  1  0.757500  0.352100  0.678700  1.0  0.1178
  H  H159  1  0.772800  0.503800  0.682800  1.0  0.0857
  H  H160  1  0.858100  0.134800  0.828300  1.0  0.1193
  H  H161  1  0.710400  0.158000  0.629300  1.0  0.1206
  H  H162  1  0.893400  0.054500  0.885400  1.0  0.0869
  H  H163  1  0.802800  0.902900  0.784500  1.0  0.1073
  H  H164  1  0.853600  0.304000  0.771100  1.0  0.1226
  H  H165  1  0.076100  0.468500  0.619200  1.0  0.0796
  H  H166  1  0.072500  0.537800  0.499500  1.0  0.0881
  H  H167  1  0.019500  0.629000  0.497700  1.0  0.1146
  H  H168  1  0.022100  0.553100  0.620900  1.0  0.1241
  H  H169  1  0.335400  0.751100  0.155300  1.0  0.0771
  H  H170  1  0.370400  0.721800  0.106200  1.0  0.123
  H  H171  1  0.486200  0.640900  0.988100  1.0  0.1218
  H  H172  1  0.474300  0.508500  0.947700  1.0  0.0989
  H  H173  1  0.384600  0.605000  0.023300  1.0  0.1227
  H  H174  1  0.376100  0.474800  0.980600  1.0  0.0783
  H  H175  1  0.400600  0.956000  0.202600  1.0  0.097
  H  H176  1  0.438400  0.931900  0.152300  1.0  0.1164
  H  H177  1  0.161900  0.414400  0.081100  1.0  0.0873
  H  H178  1  0.182900  0.643400  0.143900  1.0  0.0712
  H  H179  1  0.339400  0.670700  0.344100  1.0  0.082
  H  H180  1  0.367100  0.041800  0.271800  1.0  0.0886
  H  H181  1  0.230600  0.576500  0.196000  1.0  0.1097
  H  H182  1  0.257500  0.147900  0.178700  1.0  0.118
  H  H183  1  0.272800  0.996200  0.182800  1.0  0.0854
  H  H184  1  0.358100  0.365200  0.328300  1.0  0.1194
  H  H185  1  0.210400  0.342000  0.129300  1.0  0.1207
  H  H186  1  0.393400  0.445500  0.385400  1.0  0.0867
  H  H187  1  0.302800  0.597100  0.284500  1.0  0.1076
  H  H188  1  0.353600  0.196000  0.271100  1.0  0.1224
  H  H189  1  0.576100  0.031500  0.119200  1.0  0.079
  H  H190  1  0.572500  0.962200  0.999500  1.0  0.0882
  H  H191  1  0.519500  0.871000  0.997700  1.0  0.1144
  H  H192  1  0.522100  0.946900  0.120900  1.0  0.1241
  H  H193  1  0.835400  0.251100  0.155300  1.0  0.0771
  H  H194  1  0.870400  0.221800  0.106200  1.0  0.123
  H  H195  1  0.986200  0.140900  0.988100  1.0  0.1218
  H  H196  1  0.974300  0.008500  0.947700  1.0  0.0989
  H  H197  1  0.884600  0.105000  0.023300  1.0  0.1227
  H  H198  1  0.876100  0.974800  0.980600  1.0  0.0783
  H  H199  1  0.900600  0.456000  0.202600  1.0  0.097
  H  H200  1  0.938400  0.431900  0.152300  1.0  0.1164
  H  H201  1  0.661900  0.914400  0.081100  1.0  0.0873
  H  H202  1  0.682900  0.143400  0.143900  1.0  0.0711
  H  H203  1  0.839400  0.170700  0.344100  1.0  0.082
  H  H204  1  0.867100  0.541800  0.271800  1.0  0.0886
  H  H205  1  0.730600  0.076500  0.196000  1.0  0.1098
  H  H206  1  0.757500  0.647900  0.178700  1.0  0.118
  H  H207  1  0.772800  0.496200  0.182800  1.0  0.0854
  H  H208  1  0.858100  0.865200  0.328300  1.0  0.1194
  H  H209  1  0.710400  0.842000  0.129300  1.0  0.1207
  H  H210  1  0.893400  0.945500  0.385400  1.0  0.0867
  H  H211  1  0.802800  0.097100  0.284500  1.0  0.1076
  H  H212  1  0.853600  0.696000  0.271100  1.0  0.1224
  H  H213  1  0.076100  0.531500  0.119200  1.0  0.079
  H  H214  1  0.072500  0.462200  0.999500  1.0  0.0882
  H  H215  1  0.019500  0.371000  0.997700  1.0  0.1144
  H  H216  1  0.022100  0.446900  0.120900  1.0  0.1241
  C  C217  1  0.643000  0.211900  0.844700  1.0  0.1334
  C  C218  1  0.622700  0.229300  0.874400  1.0  -0.1224
  C  C219  1  0.592000  0.176400  0.876500  1.0  -0.0992
  C  C220  1  0.568300  0.195500  0.908800  1.0  0.3848
  C  C221  1  0.536600  0.392200  0.012900  1.0  -0.1243
  C  C222  1  0.563400  0.362400  0.989900  1.0  -0.0949
  C  C223  1  0.544000  0.471100  0.037000  1.0  0.1441
  C  C224  1  0.596700  0.412700  0.991900  1.0  -0.1318
  C  C225  1  0.520400  0.155000  0.940800  1.0  0.3751
  C  C226  1  0.601300  0.490700  0.017600  1.0  0.1502
  C  C227  1  0.556100  0.278200  0.963000  1.0  0.3853
  C  C228  1  0.485800  0.098600  0.942100  1.0  -0.0463
  C  C229  1  0.605400  0.092700  0.817000  1.0  0.1215
  C  C230  1  0.582800  0.106200  0.847300  1.0  -0.1016
  C  C231  1  0.695740  0.580500  0.738000  1.0  0.351
  C  C232  1  0.823500  0.552100  0.895600  1.0  0.1474
  C  C233  1  0.811600  0.418700  0.858700  1.0  0.1399
  C  C234  1  0.673800  0.527500  0.700900  1.0  -0.0635
  C  C235  1  0.656600  0.391900  0.659600  1.0  0.146
  C  C236  1  0.655500  0.936400  0.746800  1.0  0.1309
  C  C237  1  0.782700  0.457800  0.827800  1.0  -0.1367
  C  C238  1  0.773450  0.547400  0.832100  1.0  -0.0389
  C  C239  1  0.705660  0.713900  0.773600  1.0  0.1925
  C  C240  1  0.742590  0.590900  0.799400  1.0  0.3623
  C  C241  1  0.696300  0.811000  0.774600  1.0  -0.1161
  C  C242  1  0.720200  0.872500  0.801600  1.0  -0.1132
  C  C243  1  0.710700  0.962700  0.799100  1.0  0.1402
  C  C244  1  0.646100  0.572000  0.669400  1.0  -0.1075
  C  C245  1  0.794800  0.596100  0.866900  1.0  -0.1534
  C  C246  1  0.625200  0.523500  0.635500  1.0  0.1566
  C  C247  1  0.678800  0.435700  0.695300  1.0  -0.1269
  C  C248  1  0.663300  0.843900  0.747100  1.0  -0.0996
  C  C249  1  0.436200  0.000200  0.905900  1.0  0.1395
  C  C250  1  0.438000  0.041200  0.975900  1.0  0.1185
  C  C251  1  0.469800  0.095000  0.977300  1.0  -0.115
  C  C252  1  0.468100  0.050600  0.904300  1.0  -0.1328
  C  C253  1  0.143000  0.711900  0.844700  1.0  0.1334
  C  C254  1  0.122700  0.729300  0.874400  1.0  -0.1224
  C  C255  1  0.092000  0.676400  0.876500  1.0  -0.0992
  C  C256  1  0.068300  0.695500  0.908800  1.0  0.3848
  C  C257  1  0.036600  0.892200  0.012900  1.0  -0.1243
  C  C258  1  0.063400  0.862400  0.989900  1.0  -0.0949
  C  C259  1  0.044000  0.971100  0.037000  1.0  0.1441
  C  C260  1  0.096700  0.912700  0.991900  1.0  -0.1318
  C  C261  1  0.020400  0.655000  0.940800  1.0  0.3751
  C  C262  1  0.101300  0.990700  0.017600  1.0  0.1502
  C  C263  1  0.056100  0.778200  0.963000  1.0  0.3853
  C  C264  1  0.985800  0.598600  0.942100  1.0  -0.0463
  C  C265  1  0.105400  0.592700  0.817000  1.0  0.1215
  C  C266  1  0.082800  0.606200  0.847300  1.0  -0.1016
  C  C267  1  0.195740  0.080500  0.738000  1.0  0.3509
  C  C268  1  0.323500  0.052100  0.895600  1.0  0.1474
  C  C269  1  0.311600  0.918700  0.858700  1.0  0.1399
  C  C270  1  0.173800  0.027500  0.700900  1.0  -0.0634
  C  C271  1  0.156600  0.891900  0.659600  1.0  0.146
  C  C272  1  0.155500  0.436400  0.746800  1.0  0.1309
  C  C273  1  0.282700  0.957800  0.827800  1.0  -0.1367
  C  C274  1  0.273450  0.047400  0.832100  1.0  -0.0389
  C  C275  1  0.205660  0.213900  0.773600  1.0  0.1893
  C  C276  1  0.242590  0.090900  0.799400  1.0  0.3624
  C  C277  1  0.196300  0.311000  0.774600  1.0  -0.1162
  C  C278  1  0.220200  0.372500  0.801600  1.0  -0.1132
  C  C279  1  0.210700  0.462700  0.799100  1.0  0.1402
  C  C280  1  0.146100  0.072000  0.669400  1.0  -0.1075
  C  C281  1  0.294800  0.096100  0.866900  1.0  -0.1534
  C  C282  1  0.125200  0.023500  0.635500  1.0  0.1566
  C  C283  1  0.178800  0.935700  0.695300  1.0  -0.1269
  C  C284  1  0.163300  0.343900  0.747100  1.0  -0.0996
  C  C285  1  0.936200  0.500200  0.905900  1.0  0.1395
  C  C286  1  0.938000  0.541200  0.975900  1.0  0.1185
  C  C287  1  0.969800  0.595000  0.977300  1.0  -0.115
  C  C288  1  0.968100  0.550600  0.904300  1.0  -0.1328
  C  C289  1  0.643000  0.788100  0.344700  1.0  0.1327
  C  C290  1  0.622700  0.770700  0.374400  1.0  -0.1222
  C  C291  1  0.592000  0.823600  0.376500  1.0  -0.0993
  C  C292  1  0.568300  0.804500  0.408800  1.0  0.3849
  C  C293  1  0.536600  0.607800  0.512900  1.0  -0.1246
  C  C294  1  0.563400  0.637600  0.489900  1.0  -0.0946
  C  C295  1  0.544000  0.528900  0.537000  1.0  0.1447
  C  C296  1  0.596700  0.587300  0.491900  1.0  -0.132
  C  C297  1  0.520400  0.845000  0.440800  1.0  0.3749
  C  C298  1  0.601300  0.509300  0.517600  1.0  0.1503
  C  C299  1  0.556100  0.721800  0.463000  1.0  0.3861
  C  C300  1  0.485800  0.901400  0.442100  1.0  -0.046
  C  C301  1  0.605400  0.907300  0.317000  1.0  0.1228
  C  C302  1  0.582800  0.893800  0.347300  1.0  -0.1036
  C  C303  1  0.695740  0.419500  0.238000  1.0  0.3512
  C  C304  1  0.823500  0.447900  0.395600  1.0  0.1482
  C  C305  1  0.811600  0.581300  0.358700  1.0  0.1399
  C  C306  1  0.673800  0.472500  0.200900  1.0  -0.064
  C  C307  1  0.656600  0.608100  0.159600  1.0  0.1466
  C  C308  1  0.655500  0.063600  0.246800  1.0  0.1311
  C  C309  1  0.782700  0.542200  0.327800  1.0  -0.1368
  C  C310  1  0.773450  0.452600  0.332100  1.0  -0.0392
  C  C311  1  0.705660  0.286100  0.273600  1.0  0.1928
  C  C312  1  0.742590  0.409100  0.299400  1.0  0.3623
  C  C313  1  0.696300  0.189000  0.274600  1.0  -0.1149
  C  C314  1  0.720200  0.127500  0.301600  1.0  -0.1128
  C  C315  1  0.710700  0.037300  0.299100  1.0  0.1407
  C  C316  1  0.646100  0.428000  0.169400  1.0  -0.1076
  C  C317  1  0.794800  0.403900  0.366900  1.0  -0.1519
  C  C318  1  0.625200  0.476500  0.135500  1.0  0.1569
  C  C319  1  0.678800  0.564300  0.195300  1.0  -0.1277
  C  C320  1  0.663300  0.156100  0.247100  1.0  -0.1006
  C  C321  1  0.436200  0.999800  0.405900  1.0  0.14
  C  C322  1  0.438000  0.958800  0.475900  1.0  0.1188
  C  C323  1  0.469800  0.905000  0.477300  1.0  -0.114
  C  C324  1  0.468100  0.949400  0.404300  1.0  -0.1329
  C  C325  1  0.143000  0.288100  0.344700  1.0  0.1327
  C  C326  1  0.122700  0.270700  0.374400  1.0  -0.1222
  C  C327  1  0.092000  0.323600  0.376500  1.0  -0.0993
  C  C328  1  0.068300  0.304500  0.408800  1.0  0.3849
  C  C329  1  0.036600  0.107800  0.512900  1.0  -0.1246
  C  C330  1  0.063400  0.137600  0.489900  1.0  -0.0946
  C  C331  1  0.044000  0.028900  0.537000  1.0  0.1447
  C  C332  1  0.096700  0.087300  0.491900  1.0  -0.132
  C  C333  1  0.020400  0.345000  0.440800  1.0  0.3749
  C  C334  1  0.101300  0.009300  0.517600  1.0  0.1503
  C  C335  1  0.056100  0.221800  0.463000  1.0  0.3861
  C  C336  1  0.985800  0.401400  0.442100  1.0  -0.046
  C  C337  1  0.105400  0.407300  0.317000  1.0  0.1228
  C  C338  1  0.082800  0.393800  0.347300  1.0  -0.1036
  C  C339  1  0.195740  0.919500  0.238000  1.0  0.351
  C  C340  1  0.323500  0.947900  0.395600  1.0  0.1482
  C  C341  1  0.311600  0.081300  0.358700  1.0  0.1399
  C  C342  1  0.173800  0.972500  0.200900  1.0  -0.0639
  C  C343  1  0.156600  0.108100  0.159600  1.0  0.1466
  C  C344  1  0.155500  0.563600  0.246800  1.0  0.1311
  C  C345  1  0.282700  0.042200  0.327800  1.0  -0.1368
  C  C346  1  0.273450  0.952600  0.332100  1.0  -0.0392
  C  C347  1  0.205660  0.786100  0.273600  1.0  0.1896
  C  C348  1  0.242590  0.909100  0.299400  1.0  0.3624
  C  C349  1  0.196300  0.689000  0.274600  1.0  -0.1148
  C  C350  1  0.220200  0.627500  0.301600  1.0  -0.1128
  C  C351  1  0.210700  0.537300  0.299100  1.0  0.1407
  C  C352  1  0.146100  0.928000  0.169400  1.0  -0.1075
  C  C353  1  0.294800  0.903900  0.366900  1.0  -0.1519
  C  C354  1  0.125200  0.976500  0.135500  1.0  0.1569
  C  C355  1  0.178800  0.064300  0.195300  1.0  -0.1277
  C  C356  1  0.163300  0.656100  0.247100  1.0  -0.1006
  C  C357  1  0.936200  0.499800  0.405900  1.0  0.14
  C  C358  1  0.938000  0.458800  0.475900  1.0  0.1188
  C  C359  1  0.969800  0.405000  0.477300  1.0  -0.114
  C  C360  1  0.968100  0.449400  0.404300  1.0  -0.1329
  C  C361  1  0.357000  0.211900  0.655300  1.0  0.1335
  C  C362  1  0.377300  0.229300  0.625600  1.0  -0.1221
  C  C363  1  0.408000  0.176400  0.623500  1.0  -0.0995
  C  C364  1  0.431700  0.195500  0.591200  1.0  0.3845
  C  C365  1  0.463400  0.392200  0.487100  1.0  -0.1255
  C  C366  1  0.436600  0.362400  0.510100  1.0  -0.0951
  C  C367  1  0.456000  0.471100  0.463000  1.0  0.1441
  C  C368  1  0.403300  0.412700  0.508100  1.0  -0.1322
  C  C369  1  0.479600  0.155000  0.559200  1.0  0.3752
  C  C370  1  0.398700  0.490700  0.482400  1.0  0.1484
  C  C371  1  0.443900  0.278200  0.537000  1.0  0.3859
  C  C372  1  0.514200  0.098600  0.557900  1.0  -0.0464
  C  C373  1  0.394600  0.092700  0.683000  1.0  0.1221
  C  C374  1  0.417200  0.106200  0.652700  1.0  -0.1011
  C  C375  1  0.304260  0.580500  0.762000  1.0  0.3517
  C  C376  1  0.176500  0.552100  0.604400  1.0  0.1478
  C  C377  1  0.188400  0.418700  0.641300  1.0  0.1391
  C  C378  1  0.326200  0.527500  0.799100  1.0  -0.0624
  C  C379  1  0.343400  0.391900  0.840400  1.0  0.1457
  C  C380  1  0.344500  0.936400  0.753200  1.0  0.1328
  C  C381  1  0.217300  0.457800  0.672200  1.0  -0.1361
  C  C382  1  0.226550  0.547400  0.667900  1.0  -0.041
  C  C383  1  0.294340  0.713900  0.726400  1.0  0.1922
  C  C384  1  0.257410  0.590900  0.700600  1.0  0.3619
  C  C385  1  0.303700  0.811000  0.725400  1.0  -0.1157
  C  C386  1  0.279800  0.872500  0.698400  1.0  -0.1147
  C  C387  1  0.289300  0.962700  0.700900  1.0  0.1401
  C  C388  1  0.353900  0.572000  0.830600  1.0  -0.108
  C  C389  1  0.205200  0.596100  0.633100  1.0  -0.1539
  C  C390  1  0.374800  0.523500  0.864500  1.0  0.1565
  C  C391  1  0.321200  0.435700  0.804700  1.0  -0.1272
  C  C392  1  0.336700  0.843900  0.752900  1.0  -0.0983
  C  C393  1  0.563800  0.000200  0.594100  1.0  0.1415
  C  C394  1  0.562000  0.041200  0.524100  1.0  0.1185
  C  C395  1  0.530200  0.095000  0.522700  1.0  -0.1152
  C  C396  1  0.531900  0.050600  0.595700  1.0  -0.1361
  C  C397  1  0.857000  0.711900  0.655300  1.0  0.1335
  C  C398  1  0.877300  0.729300  0.625600  1.0  -0.1221
  C  C399  1  0.908000  0.676400  0.623500  1.0  -0.0995
  C  C400  1  0.931700  0.695500  0.591200  1.0  0.3845
  C  C401  1  0.963400  0.892200  0.487100  1.0  -0.1255
  C  C402  1  0.936600  0.862400  0.510100  1.0  -0.0951
  C  C403  1  0.956000  0.971100  0.463000  1.0  0.1441
  C  C404  1  0.903300  0.912700  0.508100  1.0  -0.1322
  C  C405  1  0.979600  0.655000  0.559200  1.0  0.3752
  C  C406  1  0.898700  0.990700  0.482400  1.0  0.1484
  C  C407  1  0.943900  0.778200  0.537000  1.0  0.3859
  C  C408  1  0.014200  0.598600  0.557900  1.0  -0.0464
  C  C409  1  0.894600  0.592700  0.683000  1.0  0.1221
  C  C410  1  0.917200  0.606200  0.652700  1.0  -0.1011
  C  C411  1  0.804260  0.080500  0.762000  1.0  0.3515
  C  C412  1  0.676500  0.052100  0.604400  1.0  0.1478
  C  C413  1  0.688400  0.918700  0.641300  1.0  0.1391
  C  C414  1  0.826200  0.027500  0.799100  1.0  -0.0623
  C  C415  1  0.843400  0.891900  0.840400  1.0  0.1457
  C  C416  1  0.844500  0.436400  0.753200  1.0  0.1328
  C  C417  1  0.717300  0.957800  0.672200  1.0  -0.1361
  C  C418  1  0.726550  0.047400  0.667900  1.0  -0.041
  C  C419  1  0.794340  0.213900  0.726400  1.0  0.1891
  C  C420  1  0.757410  0.090900  0.700600  1.0  0.3619
  C  C421  1  0.803700  0.311000  0.725400  1.0  -0.1158
  C  C422  1  0.779800  0.372500  0.698400  1.0  -0.1147
  C  C423  1  0.789300  0.462700  0.700900  1.0  0.1401
  C  C424  1  0.853900  0.072000  0.830600  1.0  -0.108
  C  C425  1  0.705200  0.096100  0.633100  1.0  -0.1539
  C  C426  1  0.874800  0.023500  0.864500  1.0  0.1565
  C  C427  1  0.821200  0.935700  0.804700  1.0  -0.1272
  C  C428  1  0.836700  0.343900  0.752900  1.0  -0.0983
  C  C429  1  0.063800  0.500200  0.594100  1.0  0.1415
  C  C430  1  0.062000  0.541200  0.524100  1.0  0.1185
  C  C431  1  0.030200  0.595000  0.522700  1.0  -0.1152
  C  C432  1  0.031900  0.550600  0.595700  1.0  -0.1361
  C  C433  1  0.357000  0.788100  0.155300  1.0  0.1343
  C  C434  1  0.377300  0.770700  0.125600  1.0  -0.1221
  C  C435  1  0.408000  0.823600  0.123500  1.0  -0.0995
  C  C436  1  0.431700  0.804500  0.091200  1.0  0.3845
  C  C437  1  0.463400  0.607800  0.987100  1.0  -0.1259
  C  C438  1  0.436600  0.637600  0.010100  1.0  -0.0952
  C  C439  1  0.456000  0.528900  0.963000  1.0  0.1439
  C  C440  1  0.403300  0.587300  0.008100  1.0  -0.1316
  C  C441  1  0.479600  0.845000  0.059200  1.0  0.3751
  C  C442  1  0.398700  0.509300  0.982400  1.0  0.1503
  C  C443  1  0.443900  0.721800  0.037000  1.0  0.3864
  C  C444  1  0.514200  0.901400  0.057900  1.0  -0.0463
  C  C445  1  0.394600  0.907300  0.183000  1.0  0.122
  C  C446  1  0.417200  0.893800  0.152700  1.0  -0.1027
  C  C447  1  0.304260  0.419500  0.262000  1.0  0.3519
  C  C448  1  0.176500  0.447900  0.104400  1.0  0.1475
  C  C449  1  0.188400  0.581300  0.141300  1.0  0.1394
  C  C450  1  0.326200  0.472500  0.299100  1.0  -0.063
  C  C451  1  0.343400  0.608100  0.340400  1.0  0.1454
  C  C452  1  0.344500  0.063600  0.253200  1.0  0.1328
  C  C453  1  0.217300  0.542200  0.172200  1.0  -0.1371
  C  C454  1  0.226550  0.452600  0.167900  1.0  -0.0414
  C  C455  1  0.294340  0.286100  0.226400  1.0  0.1923
  C  C456  1  0.257410  0.409100  0.200600  1.0  0.3619
  C  C457  1  0.303700  0.189000  0.225400  1.0  -0.1141
  C  C458  1  0.279800  0.127500  0.198400  1.0  -0.1147
  C  C459  1  0.289300  0.037300  0.200900  1.0  0.14
  C  C460  1  0.353900  0.428000  0.330600  1.0  -0.1068
  C  C461  1  0.205200  0.403900  0.133100  1.0  -0.1525
  C  C462  1  0.374800  0.476500  0.364500  1.0  0.1569
  C  C463  1  0.321200  0.564300  0.304700  1.0  -0.1269
  C  C464  1  0.336700  0.156100  0.252900  1.0  -0.0979
  C  C465  1  0.563800  0.999800  0.094100  1.0  0.1405
  C  C466  1  0.562000  0.958800  0.024100  1.0  0.1188
  C  C467  1  0.530200  0.905000  0.022700  1.0  -0.1154
  C  C468  1  0.531900  0.949400  0.095700  1.0  -0.1362
  C  C469  1  0.857000  0.288100  0.155300  1.0  0.1343
  C  C470  1  0.877300  0.270700  0.125600  1.0  -0.1221
  C  C471  1  0.908000  0.323600  0.123500  1.0  -0.0995
  C  C472  1  0.931700  0.304500  0.091200  1.0  0.3845
  C  C473  1  0.963400  0.107800  0.987100  1.0  -0.1259
  C  C474  1  0.936600  0.137600  0.010100  1.0  -0.0952
  C  C475  1  0.956000  0.028900  0.963000  1.0  0.1439
  C  C476  1  0.903300  0.087300  0.008100  1.0  -0.1316
  C  C477  1  0.979600  0.345000  0.059200  1.0  0.3751
  C  C478  1  0.898700  0.009300  0.982400  1.0  0.1503
  C  C479  1  0.943900  0.221800  0.037000  1.0  0.3864
  C  C480  1  0.014200  0.401400  0.057900  1.0  -0.0463
  C  C481  1  0.894600  0.407300  0.183000  1.0  0.122
  C  C482  1  0.917200  0.393800  0.152700  1.0  -0.1027
  C  C483  1  0.804260  0.919500  0.262000  1.0  0.3516
  C  C484  1  0.676500  0.947900  0.104400  1.0  0.1475
  C  C485  1  0.688400  0.081300  0.141300  1.0  0.1394
  C  C486  1  0.826200  0.972500  0.299100  1.0  -0.0629
  C  C487  1  0.843400  0.108100  0.340400  1.0  0.1454
  C  C488  1  0.844500  0.563600  0.253200  1.0  0.1328
  C  C489  1  0.717300  0.042200  0.172200  1.0  -0.1371
  C  C490  1  0.726550  0.952600  0.167900  1.0  -0.0414
  C  C491  1  0.794340  0.786100  0.226400  1.0  0.1892
  C  C492  1  0.757410  0.909100  0.200600  1.0  0.3619
  C  C493  1  0.803700  0.689000  0.225400  1.0  -0.1141
  C  C494  1  0.779800  0.627500  0.198400  1.0  -0.1147
  C  C495  1  0.789300  0.537300  0.200900  1.0  0.14
  C  C496  1  0.853900  0.928000  0.330600  1.0  -0.1068
  C  C497  1  0.705200  0.903900  0.133100  1.0  -0.1525
  C  C498  1  0.874800  0.976500  0.364500  1.0  0.1569
  C  C499  1  0.821200  0.064300  0.304700  1.0  -0.1269
  C  C500  1  0.836700  0.656100  0.252900  1.0  -0.0979
  C  C501  1  0.063800  0.499800  0.094100  1.0  0.1405
  C  C502  1  0.062000  0.458800  0.024100  1.0  0.1188
  C  C503  1  0.030200  0.405000  0.022700  1.0  -0.1154
  C  C504  1  0.031900  0.449400  0.095700  1.0  -0.1362
  I  I505  1  0.395480  0.762370  0.904720  1.0  -0.4226
  I  I506  1  0.724750  0.230840  0.789160  1.0  -0.4399
  I  I507  1  0.619280  0.155150  0.693250  1.0  -0.4293
  I  I508  1  0.356550  0.916760  0.010910  1.0  -0.3141
  I  I509  1  0.624820  0.742690  0.043690  1.0  -0.3635
  I  I510  1  0.532430  0.653710  0.115540  1.0  -0.3449
  I  I511  1  0.895480  0.262370  0.904720  1.0  -0.4226
  I  I512  1  0.224750  0.730840  0.789160  1.0  -0.4399
  I  I513  1  0.119280  0.655150  0.693250  1.0  -0.4293
  I  I514  1  0.856550  0.416760  0.010910  1.0  -0.3141
  I  I515  1  0.124820  0.242690  0.043690  1.0  -0.3635
  I  I516  1  0.032430  0.153710  0.115540  1.0  -0.3443
  I  I517  1  0.395480  0.237630  0.404720  1.0  -0.4223
  I  I518  1  0.724750  0.769160  0.289160  1.0  -0.4402
  I  I519  1  0.619280  0.844850  0.193250  1.0  -0.43
  I  I520  1  0.356550  0.083240  0.510910  1.0  -0.3144
  I  I521  1  0.624820  0.257310  0.543690  1.0  -0.3878
  I  I522  1  0.532430  0.346290  0.615540  1.0  -0.3448
  I  I523  1  0.895480  0.737630  0.404720  1.0  -0.4223
  I  I524  1  0.224750  0.269160  0.289160  1.0  -0.4402
  I  I525  1  0.119280  0.344850  0.193250  1.0  -0.43
  I  I526  1  0.856550  0.583240  0.510910  1.0  -0.3144
  I  I527  1  0.124820  0.757310  0.543690  1.0  -0.3878
  I  I528  1  0.032430  0.846290  0.615540  1.0  -0.3448
  I  I529  1  0.604520  0.762370  0.595280  1.0  -0.422
  I  I530  1  0.275250  0.230840  0.710840  1.0  -0.4389
  I  I531  1  0.380720  0.155150  0.806750  1.0  -0.4298
  I  I532  1  0.643450  0.916760  0.489090  1.0  -0.3128
  I  I533  1  0.375180  0.742690  0.456310  1.0  -0.3867
  I  I534  1  0.467570  0.653710  0.384460  1.0  -0.3439
  I  I535  1  0.104520  0.262370  0.595280  1.0  -0.422
  I  I536  1  0.775250  0.730840  0.710840  1.0  -0.4389
  I  I537  1  0.880720  0.655150  0.806750  1.0  -0.4298
  I  I538  1  0.143450  0.416760  0.489090  1.0  -0.3128
  I  I539  1  0.875180  0.242690  0.456310  1.0  -0.3867
  I  I540  1  0.967570  0.153710  0.384460  1.0  -0.3446
  I  I541  1  0.604520  0.237630  0.095280  1.0  -0.4217
  I  I542  1  0.275250  0.769160  0.210840  1.0  -0.4386
  I  I543  1  0.380720  0.844850  0.306750  1.0  -0.4302
  I  I544  1  0.643450  0.083240  0.989090  1.0  -0.3135
  I  I545  1  0.375180  0.257310  0.956310  1.0  -0.3639
  I  I546  1  0.467570  0.346290  0.884460  1.0  -0.3437
  I  I547  1  0.104520  0.737630  0.095280  1.0  -0.4217
  I  I548  1  0.775250  0.269160  0.210840  1.0  -0.4386
  I  I549  1  0.880720  0.344850  0.306750  1.0  -0.4302
  I  I550  1  0.143450  0.583240  0.989090  1.0  -0.3135
  I  I551  1  0.875180  0.757310  0.956310  1.0  -0.3639
  I  I552  1  0.967570  0.846290  0.884460  1.0  -0.3453
  N  N553  1  0.421380  0.993300  0.940600  1.0  -0.3181
  N  N554  1  0.539440  0.137100  0.909900  1.0  -0.4321
  N  N555  1  0.577240  0.268700  0.933300  1.0  -0.4576
  N  N556  1  0.528200  0.222200  0.970500  1.0  -0.3686
  N  N557  1  0.635200  0.146400  0.815000  1.0  -0.3656
  N  N558  1  0.576340  0.519300  0.039300  1.0  -0.3075
  N  N559  1  0.629820  0.434600  0.630400  1.0  -0.3276
  N  N560  1  0.684760  0.666667  0.740500  1.0  -0.4343
  N  N561  1  0.724050  0.539500  0.766100  1.0  -0.4722
  N  N562  1  0.734450  0.679600  0.804700  1.0  -0.3284
  N  N563  1  0.832040  0.464700  0.892200  1.0  -0.3373
  N  N564  1  0.678930  0.996100  0.772000  1.0  -0.3229
  N  N565  1  0.921380  0.493300  0.940600  1.0  -0.3182
  N  N566  1  0.039440  0.637100  0.909900  1.0  -0.4321
  N  N567  1  0.077240  0.768700  0.933300  1.0  -0.4576
  N  N568  1  0.028200  0.722200  0.970500  1.0  -0.3686
  N  N569  1  0.135200  0.646400  0.815000  1.0  -0.3656
  N  N570  1  0.076340  0.019300  0.039300  1.0  -0.3075
  N  N571  1  0.129820  0.934600  0.630400  1.0  -0.3276
  N  N572  1  0.184760  0.166700  0.740500  1.0  -0.4363
  N  N573  1  0.224050  0.039500  0.766100  1.0  -0.4722
  N  N574  1  0.234450  0.179600  0.804700  1.0  -0.3284
  N  N575  1  0.332040  0.964700  0.892200  1.0  -0.3373
  N  N576  1  0.178930  0.496100  0.772000  1.0  -0.3229
  N  N577  1  0.421380  0.006700  0.440600  1.0  -0.3174
  N  N578  1  0.539440  0.862900  0.409900  1.0  -0.4313
  N  N579  1  0.577240  0.731300  0.433300  1.0  -0.4585
  N  N580  1  0.528200  0.777800  0.470500  1.0  -0.3689
  N  N581  1  0.635200  0.853600  0.315000  1.0  -0.3651
  N  N582  1  0.576340  0.480700  0.539300  1.0  -0.3083
  N  N583  1  0.629820  0.565400  0.130400  1.0  -0.3275
  N  N584  1  0.684760  0.333333  0.240500  1.0  -0.4345
  N  N585  1  0.724050  0.460500  0.266100  1.0  -0.4726
  N  N586  1  0.734450  0.320400  0.304700  1.0  -0.3282
  N  N587  1  0.832040  0.535300  0.392200  1.0  -0.3386
  N  N588  1  0.678930  0.003900  0.272000  1.0  -0.3227
  N  N589  1  0.921380  0.506700  0.440600  1.0  -0.3175
  N  N590  1  0.039440  0.362900  0.409900  1.0  -0.4313
  N  N591  1  0.077240  0.231300  0.433300  1.0  -0.4585
  N  N592  1  0.028200  0.277800  0.470500  1.0  -0.3689
  N  N593  1  0.135200  0.353600  0.315000  1.0  -0.3651
  N  N594  1  0.076340  0.980700  0.539300  1.0  -0.3083
  N  N595  1  0.129820  0.065400  0.130400  1.0  -0.3275
  N  N596  1  0.184760  0.833300  0.240500  1.0  -0.4364
  N  N597  1  0.224050  0.960500  0.266100  1.0  -0.4726
  N  N598  1  0.234450  0.820400  0.304700  1.0  -0.3282
  N  N599  1  0.332040  0.035300  0.392200  1.0  -0.3386
  N  N600  1  0.178930  0.503900  0.272000  1.0  -0.3227
  N  N601  1  0.578620  0.993300  0.559400  1.0  -0.3171
  N  N602  1  0.460560  0.137100  0.590100  1.0  -0.4298
  N  N603  1  0.422760  0.268700  0.566700  1.0  -0.4586
  N  N604  1  0.471800  0.222200  0.529500  1.0  -0.3668
  N  N605  1  0.364800  0.146400  0.685000  1.0  -0.3636
  N  N606  1  0.423660  0.519300  0.460700  1.0  -0.3072
  N  N607  1  0.370180  0.434600  0.869600  1.0  -0.3264
  N  N608  1  0.315240  0.666667  0.759500  1.0  -0.4361
  N  N609  1  0.275950  0.539500  0.733900  1.0  -0.4726
  N  N610  1  0.265550  0.679600  0.695300  1.0  -0.3301
  N  N611  1  0.167960  0.464700  0.607800  1.0  -0.3387
  N  N612  1  0.321070  0.996100  0.728000  1.0  -0.3236
  N  N613  1  0.078620  0.493300  0.559400  1.0  -0.3172
  N  N614  1  0.960560  0.637100  0.590100  1.0  -0.4298
  N  N615  1  0.922760  0.768700  0.566700  1.0  -0.4586
  N  N616  1  0.971800  0.722200  0.529500  1.0  -0.3668
  N  N617  1  0.864800  0.646400  0.685000  1.0  -0.3636
  N  N618  1  0.923660  0.019300  0.460700  1.0  -0.3072
  N  N619  1  0.870180  0.934600  0.869600  1.0  -0.3264
  N  N620  1  0.815240  0.166700  0.759500  1.0  -0.4381
  N  N621  1  0.775950  0.039500  0.733900  1.0  -0.4726
  N  N622  1  0.765550  0.179600  0.695300  1.0  -0.3301
  N  N623  1  0.667960  0.964700  0.607800  1.0  -0.3387
  N  N624  1  0.821070  0.496100  0.728000  1.0  -0.3236
  N  N625  1  0.578620  0.006700  0.059400  1.0  -0.3181
  N  N626  1  0.460560  0.862900  0.090100  1.0  -0.4298
  N  N627  1  0.422760  0.731300  0.066700  1.0  -0.4591
  N  N628  1  0.471800  0.777800  0.029500  1.0  -0.367
  N  N629  1  0.364800  0.853600  0.185000  1.0  -0.3638
  N  N630  1  0.423660  0.480700  0.960700  1.0  -0.3088
  N  N631  1  0.370180  0.565400  0.369600  1.0  -0.3281
  N  N632  1  0.315240  0.333333  0.259500  1.0  -0.4358
  N  N633  1  0.275950  0.460500  0.233900  1.0  -0.4726
  N  N634  1  0.265550  0.320400  0.195300  1.0  -0.3304
  N  N635  1  0.167960  0.535300  0.107800  1.0  -0.3384
  N  N636  1  0.321070  0.003900  0.228000  1.0  -0.321
  N  N637  1  0.078620  0.506700  0.059400  1.0  -0.3182
  N  N638  1  0.960560  0.362900  0.090100  1.0  -0.4298
  N  N639  1  0.922760  0.231300  0.066700  1.0  -0.4591
  N  N640  1  0.971800  0.277800  0.029500  1.0  -0.367
  N  N641  1  0.864800  0.353600  0.185000  1.0  -0.3638
  N  N642  1  0.923660  0.980700  0.960700  1.0  -0.3088
  N  N643  1  0.870180  0.065400  0.369600  1.0  -0.3281
  N  N644  1  0.815240  0.833300  0.259500  1.0  -0.4378
  N  N645  1  0.775950  0.960500  0.233900  1.0  -0.4726
  N  N646  1  0.765550  0.820400  0.195300  1.0  -0.3304
  N  N647  1  0.667960  0.035300  0.107800  1.0  -0.3384
  N  N648  1  0.821070  0.503900  0.228000  1.0  -0.321
