# generated using pymatgen
data_ZnH8C12(IN2)2
_symmetry_space_group_name_H-M   'P 1'
_cell_length_a   14.84500000
_cell_length_b   19.45180000
_cell_length_c   30.80000000
_cell_angle_alpha   101.94600000
_cell_angle_beta   90.00000000
_cell_angle_gamma   112.43200000
_symmetry_Int_Tables_number   1
_chemical_formula_structural   ZnH8C12(IN2)2
_chemical_formula_sum   'Zn12 H96 C144 I24 N48'
_cell_volume   8012.12129679
_cell_formula_units_Z   12
loop_
 _symmetry_equiv_pos_site_id
 _symmetry_equiv_pos_as_xyz
  1  'x, y, z'
loop_
 _atom_site_type_symbol
 _atom_site_label
 _atom_site_symmetry_multiplicity
 _atom_site_fract_x
 _atom_site_fract_y
 _atom_site_fract_z
 _atom_site_occupancy
 _atom_site_charge
  Zn  Zn1  1  0.960930  0.170560  0.592920  1.0  0.9189
  Zn  Zn2  1  0.814610  0.346300  0.773620  1.0  0.8494
  Zn  Zn3  1  0.288130  0.760020  0.934280  1.0  0.8609
  Zn  Zn4  1  0.209630  0.170560  0.092920  1.0  0.9203
  Zn  Zn5  1  0.531690  0.346300  0.273620  1.0  0.8472
  Zn  Zn6  1  0.471890  0.760020  0.434280  1.0  0.8623
  Zn  Zn7  1  0.790370  0.829440  0.907080  1.0  0.9183
  Zn  Zn8  1  0.468310  0.653700  0.726380  1.0  0.8493
  Zn  Zn9  1  0.528110  0.239980  0.565720  1.0  0.8606
  Zn  Zn10  1  0.039070  0.829440  0.407080  1.0  0.9203
  Zn  Zn11  1  0.185390  0.653700  0.226380  1.0  0.8475
  Zn  Zn12  1  0.711870  0.239980  0.065720  1.0  0.8623
  H  H13  1  0.439900  0.696400  0.916000  1.0  0.08
  H  H14  1  0.465100  0.594800  0.872000  1.0  0.1193
  H  H15  1  0.200000  0.531800  0.807500  1.0  0.1124
  H  H16  1  0.183300  0.635800  0.853500  1.0  0.0785
  H  H17  1  0.468000  0.300200  0.734800  1.0  0.1221
  H  H18  1  0.612500  0.280200  0.732900  1.0  0.0772
  H  H19  1  0.747300  0.469600  0.822100  1.0  0.08
  H  H20  1  0.607200  0.495000  0.827600  1.0  0.1161
  H  H21  1  0.116200  0.395000  0.723100  1.0  0.1144
  H  H22  1  0.999300  0.316400  0.664600  1.0  0.0767
  H  H23  1  0.147400  0.186600  0.633000  1.0  0.0867
  H  H24  1  0.269700  0.263200  0.687600  1.0  0.1159
  H  H25  1  0.030700  0.041600  0.557800  1.0  0.0836
  H  H26  1  0.150000  0.021000  0.514600  1.0  0.1163
  H  H27  1  0.220800  0.230400  0.488600  1.0  0.1149
  H  H28  1  0.104100  0.246600  0.534400  1.0  0.0863
  H  H29  1  0.339400  0.956600  0.501200  1.0  0.1207
  H  H30  1  0.378800  0.851600  0.496300  1.0  0.0762
  H  H31  1  0.486000  0.872800  0.382400  1.0  0.079
  H  H32  1  0.445600  0.976800  0.382400  1.0  0.1168
  H  H33  1  0.343600  0.264800  0.400600  1.0  0.1122
  H  H34  1  0.409100  0.341000  0.352600  1.0  0.0853
  H  H35  1  0.557800  0.220400  0.306400  1.0  0.0774
  H  H36  1  0.491900  0.137400  0.351700  1.0  0.1165
  H  H37  1  0.256500  0.696400  0.416000  1.0  0.081
  H  H38  1  0.129700  0.594800  0.372000  1.0  0.1208
  H  H39  1  0.331800  0.531800  0.307500  1.0  0.1127
  H  H40  1  0.452500  0.635800  0.353500  1.0  0.0784
  H  H41  1  0.832200  0.300200  0.234800  1.0  0.1223
  H  H42  1  0.667700  0.280200  0.232900  1.0  0.0772
  H  H43  1  0.722300  0.469600  0.322100  1.0  0.0802
  H  H44  1  0.887800  0.495000  0.327600  1.0  0.1159
  H  H45  1  0.278800  0.395000  0.223100  1.0  0.1141
  H  H46  1  0.317100  0.316400  0.164600  1.0  0.076
  H  H47  1  0.039200  0.186600  0.133000  1.0  0.086
  H  H48  1  0.993500  0.263200  0.187600  1.0  0.1166
  H  H49  1  0.010900  0.041600  0.057800  1.0  0.0841
  H  H50  1  0.871000  0.021000  0.014600  1.0  0.1162
  H  H51  1  0.009600  0.230400  0.988600  1.0  0.115
  H  H52  1  0.142500  0.246600  0.034400  1.0  0.086
  H  H53  1  0.617200  0.956600  0.001200  1.0  0.1204
  H  H54  1  0.472800  0.851600  0.996300  1.0  0.0761
  H  H55  1  0.386800  0.872800  0.882400  1.0  0.0787
  H  H56  1  0.531200  0.976800  0.882400  1.0  0.1166
  H  H57  1  0.921200  0.264800  0.900600  1.0  0.1123
  H  H58  1  0.931900  0.341000  0.852600  1.0  0.0853
  H  H59  1  0.662600  0.220400  0.806400  1.0  0.078
  H  H60  1  0.645500  0.137400  0.851700  1.0  0.1161
  H  H61  1  0.743500  0.303600  0.584000  1.0  0.0803
  H  H62  1  0.870300  0.405200  0.628000  1.0  0.1195
  H  H63  1  0.668200  0.468200  0.692500  1.0  0.1124
  H  H64  1  0.547500  0.364200  0.646500  1.0  0.0772
  H  H65  1  0.167800  0.699800  0.765200  1.0  0.1228
  H  H66  1  0.332300  0.719800  0.767100  1.0  0.0772
  H  H67  1  0.277700  0.530400  0.677900  1.0  0.0794
  H  H68  1  0.112200  0.505000  0.672400  1.0  0.1148
  H  H69  1  0.721200  0.605000  0.776900  1.0  0.114
  H  H70  1  0.682900  0.683600  0.835400  1.0  0.0767
  H  H71  1  0.960800  0.813400  0.867000  1.0  0.0865
  H  H72  1  0.006500  0.736800  0.812400  1.0  0.1164
  H  H73  1  0.989100  0.958400  0.942200  1.0  0.0839
  H  H74  1  0.129000  0.979000  0.985400  1.0  0.1162
  H  H75  1  0.990400  0.769600  0.011400  1.0  0.1145
  H  H76  1  0.857500  0.753400  0.965600  1.0  0.0858
  H  H77  1  0.382800  0.043400  0.998800  1.0  0.1206
  H  H78  1  0.527200  0.148400  0.003700  1.0  0.0753
  H  H79  1  0.613200  0.127200  0.117600  1.0  0.0792
  H  H80  1  0.468800  0.023200  0.117600  1.0  0.1166
  H  H81  1  0.078800  0.735200  0.099400  1.0  0.1124
  H  H82  1  0.068100  0.659000  0.147400  1.0  0.0851
  H  H83  1  0.337400  0.779600  0.193600  1.0  0.0771
  H  H84  1  0.354500  0.862600  0.148300  1.0  0.1161
  H  H85  1  0.560100  0.303600  0.084000  1.0  0.0806
  H  H86  1  0.534900  0.405200  0.128000  1.0  0.1208
  H  H87  1  0.800000  0.468200  0.192500  1.0  0.1123
  H  H88  1  0.816700  0.364200  0.146500  1.0  0.0774
  H  H89  1  0.532000  0.699800  0.265200  1.0  0.1225
  H  H90  1  0.387500  0.719800  0.267100  1.0  0.0776
  H  H91  1  0.252700  0.530400  0.177900  1.0  0.0794
  H  H92  1  0.392800  0.505000  0.172400  1.0  0.115
  H  H93  1  0.883800  0.605000  0.276900  1.0  0.1142
  H  H94  1  0.000700  0.683600  0.335400  1.0  0.0757
  H  H95  1  0.852600  0.813400  0.367000  1.0  0.0868
  H  H96  1  0.730300  0.736800  0.312400  1.0  0.1166
  H  H97  1  0.969300  0.958400  0.442200  1.0  0.0836
  H  H98  1  0.850000  0.979000  0.485400  1.0  0.1168
  H  H99  1  0.779200  0.769600  0.511400  1.0  0.1148
  H  H100  1  0.895900  0.753400  0.465600  1.0  0.086
  H  H101  1  0.660600  0.043400  0.498800  1.0  0.1206
  H  H102  1  0.621200  0.148400  0.503700  1.0  0.076
  H  H103  1  0.514000  0.127200  0.617600  1.0  0.0794
  H  H104  1  0.554400  0.023200  0.617600  1.0  0.1169
  H  H105  1  0.656400  0.735200  0.599400  1.0  0.1123
  H  H106  1  0.590900  0.659000  0.647400  1.0  0.0856
  H  H107  1  0.442200  0.779600  0.693600  1.0  0.0775
  H  H108  1  0.508100  0.862600  0.648300  1.0  0.116
  C  C109  1  0.389890  0.661780  0.893800  1.0  0.1597
  C  C110  1  0.406020  0.601640  0.867600  1.0  -0.1611
  C  C111  1  0.334710  0.552020  0.835050  1.0  -0.1124
  C  C112  1  0.250590  0.564980  0.829900  1.0  -0.1619
  C  C113  1  0.240880  0.626760  0.857600  1.0  0.1385
  C  C114  1  0.346820  0.487440  0.804440  1.0  0.3836
  C  C115  1  0.431680  0.415760  0.780910  1.0  0.3146
  C  C116  1  0.284720  0.386440  0.747150  1.0  0.4012
  C  C117  1  0.522070  0.400540  0.781500  1.0  -0.1144
  C  C118  1  0.524590  0.335980  0.753300  1.0  -0.1614
  C  C119  1  0.611110  0.324420  0.752500  1.0  0.1449
  C  C120  1  0.689260  0.434520  0.804400  1.0  0.1397
  C  C121  1  0.606380  0.450360  0.807700  1.0  -0.1357
  C  C122  1  0.206200  0.337600  0.710900  1.0  -0.1334
  C  C123  1  0.124690  0.352980  0.704300  1.0  -0.1463
  C  C124  1  0.055240  0.305680  0.669600  1.0  0.142
  C  C125  1  0.142130  0.230660  0.651100  1.0  0.153
  C  C126  1  0.214200  0.275000  0.683700  1.0  -0.1447
  C  C127  1  0.070900  0.080600  0.544000  1.0  0.1445
  C  C128  1  0.140990  0.067580  0.517840  1.0  -0.1467
  C  C129  1  0.197780  0.123360  0.496350  1.0  -0.0943
  C  C130  1  0.183110  0.191020  0.502800  1.0  -0.1359
  C  C131  1  0.113360  0.200120  0.529900  1.0  0.148
  C  C132  1  0.271680  0.111160  0.467400  1.0  0.3751
  C  C133  1  0.362010  0.044220  0.442470  1.0  0.362
  C  C134  1  0.366780  0.140560  0.412100  1.0  0.401
  C  C135  1  0.388320  0.978240  0.442120  1.0  -0.0701
  C  C136  1  0.368990  0.940180  0.476000  1.0  -0.1917
  C  C137  1  0.393140  0.877880  0.472700  1.0  0.1536
  C  C138  1  0.454500  0.889600  0.406800  1.0  0.1262
  C  C139  1  0.431600  0.952200  0.406700  1.0  -0.1631
  C  C140  1  0.407690  0.190980  0.380500  1.0  -0.0702
  C  C141  1  0.386500  0.253000  0.380300  1.0  -0.1016
  C  C142  1  0.425600  0.298200  0.351700  1.0  0.1352
  C  C143  1  0.510100  0.228200  0.325100  1.0  0.1719
  C  C144  1  0.472700  0.179000  0.352400  1.0  -0.1505
  C  C145  1  0.271890  0.661780  0.393800  1.0  0.1591
  C  C146  1  0.195620  0.601640  0.367600  1.0  -0.1629
  C  C147  1  0.217310  0.552020  0.335050  1.0  -0.1128
  C  C148  1  0.314390  0.564980  0.329900  1.0  -0.1621
  C  C149  1  0.385880  0.626760  0.357600  1.0  0.1375
  C  C150  1  0.140620  0.487440  0.304440  1.0  0.3835
  C  C151  1  0.984080  0.415760  0.280910  1.0  0.3146
  C  C152  1  0.101720  0.386440  0.247150  1.0  0.4007
  C  C153  1  0.878470  0.400540  0.281500  1.0  -0.1147
  C  C154  1  0.811390  0.335980  0.253300  1.0  -0.1618
  C  C155  1  0.713310  0.324420  0.252500  1.0  0.1432
  C  C156  1  0.745260  0.434520  0.304400  1.0  0.1393
  C  C157  1  0.843980  0.450360  0.307700  1.0  -0.134
  C  C158  1  0.131400  0.337600  0.210900  1.0  -0.1339
  C  C159  1  0.228290  0.352980  0.204300  1.0  -0.1459
  C  C160  1  0.250440  0.305680  0.169600  1.0  0.1414
  C  C161  1  0.088530  0.230660  0.151100  1.0  0.1535
  C  C162  1  0.060800  0.275000  0.183700  1.0  -0.1435
  C  C163  1  0.009700  0.080600  0.044000  1.0  0.1456
  C  C164  1  0.926590  0.067580  0.017840  1.0  -0.1469
  C  C165  1  0.925580  0.123360  0.996350  1.0  -0.0959
  C  C166  1  0.007910  0.191020  0.002800  1.0  -0.1364
  C  C167  1  0.086760  0.200120  0.029900  1.0  0.148
  C  C168  1  0.839480  0.111160  0.967400  1.0  0.3748
  C  C169  1  0.682210  0.044220  0.942470  1.0  0.3623
  C  C170  1  0.773780  0.140560  0.912100  1.0  0.4013
  C  C171  1  0.589920  0.978240  0.942120  1.0  -0.0681
  C  C172  1  0.571190  0.940180  0.976000  1.0  -0.1907
  C  C173  1  0.484740  0.877880  0.972700  1.0  0.1534
  C  C174  1  0.435100  0.889600  0.906800  1.0  0.127
  C  C175  1  0.520600  0.952200  0.906700  1.0  -0.1626
  C  C176  1  0.783290  0.190980  0.880500  1.0  -0.0709
  C  C177  1  0.866500  0.253000  0.880300  1.0  -0.1027
  C  C178  1  0.872600  0.298200  0.851700  1.0  0.1348
  C  C179  1  0.718100  0.228200  0.825100  1.0  0.172
  C  C180  1  0.706300  0.179000  0.852400  1.0  -0.1499
  C  C181  1  0.728110  0.338220  0.606200  1.0  0.1571
  C  C182  1  0.804380  0.398360  0.632400  1.0  -0.1605
  C  C183  1  0.782690  0.447980  0.664950  1.0  -0.1115
  C  C184  1  0.685610  0.435020  0.670100  1.0  -0.1604
  C  C185  1  0.614120  0.373240  0.642400  1.0  0.1387
  C  C186  1  0.859380  0.512560  0.695560  1.0  0.3825
  C  C187  1  0.015920  0.584240  0.719090  1.0  0.3144
  C  C188  1  0.898280  0.613560  0.752850  1.0  0.4008
  C  C189  1  0.121530  0.599460  0.718500  1.0  -0.115
  C  C190  1  0.188610  0.664020  0.746700  1.0  -0.1615
  C  C191  1  0.286690  0.675580  0.747500  1.0  0.145
  C  C192  1  0.254740  0.565480  0.695600  1.0  0.1403
  C  C193  1  0.156020  0.549640  0.692300  1.0  -0.1325
  C  C194  1  0.868600  0.662400  0.789100  1.0  -0.1327
  C  C195  1  0.771710  0.647020  0.795700  1.0  -0.1459
  C  C196  1  0.749560  0.694320  0.830400  1.0  0.1414
  C  C197  1  0.911470  0.769340  0.848900  1.0  0.1512
  C  C198  1  0.939200  0.725000  0.816300  1.0  -0.1433
  C  C199  1  0.990300  0.919400  0.956000  1.0  0.1448
  C  C200  1  0.073410  0.932420  0.982160  1.0  -0.1469
  C  C201  1  0.074420  0.876640  0.003650  1.0  -0.0945
  C  C202  1  0.992090  0.808980  0.997200  1.0  -0.1363
  C  C203  1  0.913240  0.799880  0.970100  1.0  0.1475
  C  C204  1  0.160520  0.888840  0.032600  1.0  0.3754
  C  C205  1  0.317790  0.955780  0.057530  1.0  0.362
  C  C206  1  0.226220  0.859440  0.087900  1.0  0.4011
  C  C207  1  0.410080  0.021760  0.057880  1.0  -0.0691
  C  C208  1  0.428810  0.059820  0.024000  1.0  -0.1918
  C  C209  1  0.515260  0.122120  0.027300  1.0  0.152
  C  C210  1  0.564900  0.110400  0.093200  1.0  0.1253
  C  C211  1  0.479400  0.047800  0.093300  1.0  -0.1635
  C  C212  1  0.216710  0.809020  0.119500  1.0  -0.0722
  C  C213  1  0.133500  0.747000  0.119700  1.0  -0.101
  C  C214  1  0.127400  0.701800  0.148300  1.0  0.1361
  C  C215  1  0.281900  0.771800  0.174900  1.0  0.1715
  C  C216  1  0.293700  0.821000  0.147600  1.0  -0.1515
  C  C217  1  0.610110  0.338220  0.106200  1.0  0.1584
  C  C218  1  0.593980  0.398360  0.132400  1.0  -0.1617
  C  C219  1  0.665290  0.447980  0.164950  1.0  -0.1122
  C  C220  1  0.749410  0.435020  0.170100  1.0  -0.1609
  C  C221  1  0.759120  0.373240  0.142400  1.0  0.138
  C  C222  1  0.653180  0.512560  0.195560  1.0  0.3822
  C  C223  1  0.568320  0.584240  0.219090  1.0  0.3141
  C  C224  1  0.715280  0.613560  0.252850  1.0  0.4002
  C  C225  1  0.477930  0.599460  0.218500  1.0  -0.1151
  C  C226  1  0.475410  0.664020  0.246700  1.0  -0.1605
  C  C227  1  0.388890  0.675580  0.247500  1.0  0.1438
  C  C228  1  0.310740  0.565480  0.195600  1.0  0.1409
  C  C229  1  0.393620  0.549640  0.192300  1.0  -0.1322
  C  C230  1  0.793800  0.662400  0.289100  1.0  -0.1331
  C  C231  1  0.875310  0.647020  0.295700  1.0  -0.146
  C  C232  1  0.944760  0.694320  0.330400  1.0  0.1409
  C  C233  1  0.857870  0.769340  0.348900  1.0  0.1516
  C  C234  1  0.785800  0.725000  0.316300  1.0  -0.1429
  C  C235  1  0.929100  0.919400  0.456000  1.0  0.1453
  C  C236  1  0.859010  0.932420  0.482160  1.0  -0.1476
  C  C237  1  0.802220  0.876640  0.503650  1.0  -0.0963
  C  C238  1  0.816890  0.808980  0.497200  1.0  -0.1366
  C  C239  1  0.886640  0.799880  0.470100  1.0  0.1469
  C  C240  1  0.728320  0.888840  0.532600  1.0  0.3752
  C  C241  1  0.637990  0.955780  0.557530  1.0  0.3625
  C  C242  1  0.633220  0.859440  0.587900  1.0  0.4014
  C  C243  1  0.611680  0.021760  0.557880  1.0  -0.0672
  C  C244  1  0.631010  0.059820  0.524000  1.0  -0.1916
  C  C245  1  0.606860  0.122120  0.527300  1.0  0.1519
  C  C246  1  0.545500  0.110400  0.593200  1.0  0.1249
  C  C247  1  0.568400  0.047800  0.593300  1.0  -0.1635
  C  C248  1  0.592310  0.809020  0.619500  1.0  -0.0721
  C  C249  1  0.613500  0.747000  0.619700  1.0  -0.103
  C  C250  1  0.574400  0.701800  0.648300  1.0  0.1352
  C  C251  1  0.489900  0.771800  0.674900  1.0  0.172
  C  C252  1  0.527300  0.821000  0.647600  1.0  -0.1515
  I  I253  1  0.158270  0.788480  0.897180  1.0  -0.4353
  I  I254  1  0.967640  0.466640  0.797640  1.0  -0.4363
  I  I255  1  0.790060  0.249510  0.700450  1.0  -0.4375
  I  I256  1  0.273070  0.719380  0.007870  1.0  -0.3403
  I  I257  1  0.888520  0.241540  0.552910  1.0  -0.3846
  I  I258  1  0.868090  0.055200  0.624100  1.0  -0.3599
  I  I259  1  0.630210  0.788480  0.397180  1.0  -0.4342
  I  I260  1  0.499000  0.466640  0.297640  1.0  -0.4352
  I  I261  1  0.459450  0.249510  0.200450  1.0  -0.4372
  I  I262  1  0.446310  0.719380  0.507870  1.0  -0.3401
  I  I263  1  0.353020  0.241540  0.052910  1.0  -0.3849
  I  I264  1  0.187110  0.055200  0.124100  1.0  -0.3598
  I  I265  1  0.369790  0.211520  0.602820  1.0  -0.4348
  I  I266  1  0.501000  0.533360  0.702360  1.0  -0.4343
  I  I267  1  0.540550  0.750490  0.799550  1.0  -0.4366
  I  I268  1  0.553690  0.280620  0.492130  1.0  -0.3412
  I  I269  1  0.646980  0.758460  0.947090  1.0  -0.3836
  I  I270  1  0.812890  0.944800  0.875900  1.0  -0.3602
  I  I271  1  0.841730  0.211520  0.102820  1.0  -0.4351
  I  I272  1  0.032360  0.533360  0.202360  1.0  -0.4328
  I  I273  1  0.209940  0.750490  0.299550  1.0  -0.4364
  I  I274  1  0.726930  0.280620  0.992130  1.0  -0.3411
  I  I275  1  0.111480  0.758460  0.447090  1.0  -0.3836
  I  I276  1  0.131910  0.944800  0.375900  1.0  -0.3599
  N  N277  1  0.309180  0.674160  0.889820  1.0  -0.2954
  N  N278  1  0.274290  0.445980  0.772570  1.0  -0.4183
  N  N279  1  0.361160  0.368520  0.749720  1.0  -0.3147
  N  N280  1  0.428130  0.475060  0.810270  1.0  -0.297
  N  N281  1  0.064490  0.245780  0.643060  1.0  -0.3054
  N  N282  1  0.691650  0.371900  0.777460  1.0  -0.2941
  N  N283  1  0.485670  0.285340  0.322500  1.0  -0.3091
  N  N284  1  0.302140  0.056480  0.472320  1.0  -0.4433
  N  N285  1  0.397800  0.085200  0.411920  1.0  -0.4631
  N  N286  1  0.302080  0.155160  0.437830  1.0  -0.4584
  N  N287  1  0.057610  0.146020  0.550550  1.0  -0.2963
  N  N288  1  0.435010  0.852220  0.439020  1.0  -0.3005
  N  N289  1  0.364980  0.674160  0.389820  1.0  -0.2938
  N  N290  1  0.171690  0.445980  0.272570  1.0  -0.4182
  N  N291  1  0.007360  0.368520  0.249720  1.0  -0.3157
  N  N292  1  0.046930  0.475060  0.310270  1.0  -0.2964
  N  N293  1  0.181290  0.245780  0.143060  1.0  -0.304
  N  N294  1  0.680250  0.371900  0.277460  1.0  -0.2946
  N  N295  1  0.799670  0.285340  0.822500  1.0  -0.3094
  N  N296  1  0.754340  0.056480  0.972320  1.0  -0.4437
  N  N297  1  0.687400  0.085200  0.911920  1.0  -0.4641
  N  N298  1  0.853080  0.155160  0.937830  1.0  -0.4583
  N  N299  1  0.088410  0.146020  0.050550  1.0  -0.2976
  N  N300  1  0.417210  0.852220  0.939020  1.0  -0.301
  N  N301  1  0.635020  0.325840  0.610180  1.0  -0.2963
  N  N302  1  0.828310  0.554020  0.727430  1.0  -0.4185
  N  N303  1  0.992640  0.631480  0.750280  1.0  -0.3153
  N  N304  1  0.953070  0.524940  0.689730  1.0  -0.2992
  N  N305  1  0.818710  0.754220  0.856940  1.0  -0.3065
  N  N306  1  0.319750  0.628100  0.722540  1.0  -0.2948
  N  N307  1  0.200330  0.714660  0.177500  1.0  -0.3099
  N  N308  1  0.245660  0.943520  0.027680  1.0  -0.44
  N  N309  1  0.312600  0.914800  0.088080  1.0  -0.4637
  N  N310  1  0.146920  0.844840  0.062170  1.0  -0.4596
  N  N311  1  0.911590  0.853980  0.949450  1.0  -0.297
  N  N312  1  0.582790  0.147780  0.060980  1.0  -0.3011
  N  N313  1  0.690820  0.325840  0.110180  1.0  -0.2944
  N  N314  1  0.725710  0.554020  0.227430  1.0  -0.4184
  N  N315  1  0.638840  0.631480  0.250280  1.0  -0.3153
  N  N316  1  0.571870  0.524940  0.189730  1.0  -0.2982
  N  N317  1  0.935510  0.754220  0.356940  1.0  -0.3053
  N  N318  1  0.308350  0.628100  0.222540  1.0  -0.2943
  N  N319  1  0.514330  0.714660  0.677500  1.0  -0.3097
  N  N320  1  0.697860  0.943520  0.527680  1.0  -0.4409
  N  N321  1  0.602200  0.914800  0.588080  1.0  -0.4646
  N  N322  1  0.697920  0.844840  0.562170  1.0  -0.4592
  N  N323  1  0.942390  0.853980  0.449450  1.0  -0.2977
  N  N324  1  0.564990  0.147780  0.560980  1.0  -0.2991
