# generated using pymatgen
data_ZnH8C12(IN2)2
_symmetry_space_group_name_H-M   'P 1'
_cell_length_a   14.80900000
_cell_length_b   19.30080000
_cell_length_c   31.84200000
_cell_angle_alpha   101.76000000
_cell_angle_beta   90.00000000
_cell_angle_gamma   112.55900000
_symmetry_Int_Tables_number   1
_chemical_formula_structural   ZnH8C12(IN2)2
_chemical_formula_sum   'Zn12 H96 C144 I24 N48'
_cell_volume   8197.62565658
_cell_formula_units_Z   12
loop_
 _symmetry_equiv_pos_site_id
 _symmetry_equiv_pos_as_xyz
  1  'x, y, z'
loop_
 _atom_site_type_symbol
 _atom_site_label
 _atom_site_symmetry_multiplicity
 _atom_site_fract_x
 _atom_site_fract_y
 _atom_site_fract_z
 _atom_site_occupancy
 _atom_site_charge
  Zn  Zn1  1  0.215900  0.252000  0.562840  1.0  0.8929
  Zn  Zn2  1  0.707450  0.672940  0.731890  1.0  0.8747
  Zn  Zn3  1  0.282500  0.820840  0.419340  1.0  0.866
  Zn  Zn4  1  0.036100  0.252000  0.062840  1.0  0.8925
  Zn  Zn5  1  0.965490  0.672940  0.231890  1.0  0.876
  Zn  Zn6  1  0.538340  0.820840  0.919340  1.0  0.8693
  Zn  Zn7  1  0.963900  0.748000  0.937160  1.0  0.8929
  Zn  Zn8  1  0.034510  0.327060  0.768110  1.0  0.875
  Zn  Zn9  1  0.461660  0.179160  0.080660  1.0  0.8664
  Zn  Zn10  1  0.784100  0.748000  0.437160  1.0  0.8924
  Zn  Zn11  1  0.292550  0.327060  0.268110  1.0  0.8754
  Zn  Zn12  1  0.717500  0.179160  0.580660  1.0  0.8691
  H  H13  1  0.631900  0.971600  0.483600  1.0  0.1215
  H  H14  1  0.593600  0.741000  0.603400  1.0  0.1136
  H  H15  1  0.585800  0.671800  0.655700  1.0  0.0882
  H  H16  1  0.348800  0.759600  0.486200  1.0  0.0876
  H  H17  1  0.489200  0.779000  0.527900  1.0  0.1176
  H  H18  1  0.876300  0.870400  0.646500  1.0  0.1122
  H  H19  1  0.487300  0.947400  0.444500  1.0  0.0839
  H  H20  1  0.511600  0.682800  0.844600  1.0  0.0772
  H  H21  1  0.400200  0.607000  0.785600  1.0  0.1134
  H  H22  1  0.333700  0.782000  0.888600  1.0  0.0758
  H  H23  1  0.911500  0.735000  0.772800  1.0  0.0784
  H  H24  1  0.314900  0.470400  0.694300  1.0  0.1155
  H  H25  1  0.328900  0.370800  0.644000  1.0  0.0793
  H  H26  1  0.072800  0.324800  0.584400  1.0  0.0785
  H  H27  1  0.050200  0.707400  0.773100  1.0  0.119
  H  H28  1  0.773000  0.547800  0.683700  1.0  0.0744
  H  H29  1  0.048900  0.420000  0.634700  1.0  0.1201
  H  H30  1  0.218200  0.709400  0.831300  1.0  0.112
  H  H31  1  0.908400  0.517000  0.680500  1.0  0.1124
  H  H32  1  0.894500  0.038000  0.496900  1.0  0.1118
  H  H33  1  0.963000  0.048800  0.620700  1.0  0.116
  H  H34  1  0.101100  0.157400  0.620900  1.0  0.0796
  H  H35  1  0.036700  0.147200  0.499800  1.0  0.0705
  H  H36  1  0.859600  0.797200  0.697600  1.0  0.0797
  H  H37  1  0.339700  0.971600  0.983600  1.0  0.1218
  H  H38  1  0.147400  0.741000  0.103400  1.0  0.1137
  H  H39  1  0.086000  0.671800  0.155700  1.0  0.0882
  H  H40  1  0.410800  0.759600  0.986200  1.0  0.088
  H  H41  1  0.289800  0.779000  0.027900  1.0  0.118
  H  H42  1  0.994100  0.870400  0.146500  1.0  0.1123
  H  H43  1  0.460100  0.947400  0.944500  1.0  0.0829
  H  H44  1  0.171200  0.682800  0.344600  1.0  0.0781
  H  H45  1  0.206800  0.607000  0.285600  1.0  0.1131
  H  H46  1  0.448300  0.782000  0.388600  1.0  0.0759
  H  H47  1  0.823500  0.735000  0.272800  1.0  0.0784
  H  H48  1  0.155500  0.470400  0.194300  1.0  0.1158
  H  H49  1  0.041900  0.370800  0.144000  1.0  0.0799
  H  H50  1  0.252000  0.324800  0.084400  1.0  0.0786
  H  H51  1  0.657200  0.707400  0.273100  1.0  0.1195
  H  H52  1  0.774800  0.547800  0.183700  1.0  0.0742
  H  H53  1  0.371100  0.420000  0.134700  1.0  0.1192
  H  H54  1  0.491200  0.709400  0.331300  1.0  0.1113
  H  H55  1  0.608600  0.517000  0.180500  1.0  0.1121
  H  H56  1  0.143500  0.038000  0.996900  1.0  0.1117
  H  H57  1  0.085800  0.048800  0.120700  1.0  0.1165
  H  H58  1  0.056300  0.157400  0.120900  1.0  0.0799
  H  H59  1  0.110500  0.147200  0.999800  1.0  0.0708
  H  H60  1  0.937600  0.797200  0.197600  1.0  0.08
  H  H61  1  0.660300  0.028400  0.016400  1.0  0.1215
  H  H62  1  0.852600  0.259000  0.896600  1.0  0.1132
  H  H63  1  0.914000  0.328200  0.844300  1.0  0.0887
  H  H64  1  0.589200  0.240400  0.013800  1.0  0.0876
  H  H65  1  0.710200  0.221000  0.972100  1.0  0.1176
  H  H66  1  0.005900  0.129600  0.853500  1.0  0.1118
  H  H67  1  0.539900  0.052600  0.055500  1.0  0.0846
  H  H68  1  0.828800  0.317200  0.655400  1.0  0.0771
  H  H69  1  0.793200  0.393000  0.714400  1.0  0.1131
  H  H70  1  0.551700  0.218000  0.611400  1.0  0.0762
  H  H71  1  0.176500  0.265000  0.727200  1.0  0.08
  H  H72  1  0.844500  0.529600  0.805700  1.0  0.1161
  H  H73  1  0.958100  0.629200  0.856000  1.0  0.0789
  H  H74  1  0.748000  0.675200  0.915600  1.0  0.0785
  H  H75  1  0.342800  0.292600  0.726900  1.0  0.1187
  H  H76  1  0.225200  0.452200  0.816300  1.0  0.0754
  H  H77  1  0.628900  0.580000  0.865300  1.0  0.1199
  H  H78  1  0.508800  0.290600  0.668700  1.0  0.1121
  H  H79  1  0.391400  0.483000  0.819500  1.0  0.1127
  H  H80  1  0.856500  0.962000  0.003100  1.0  0.1118
  H  H81  1  0.914200  0.951200  0.879300  1.0  0.1163
  H  H82  1  0.943700  0.842600  0.879100  1.0  0.0795
  H  H83  1  0.889500  0.852800  0.000200  1.0  0.0717
  H  H84  1  0.062400  0.202800  0.802400  1.0  0.081
  H  H85  1  0.368100  0.028400  0.516400  1.0  0.1213
  H  H86  1  0.406400  0.259000  0.396600  1.0  0.113
  H  H87  1  0.414200  0.328200  0.344300  1.0  0.0891
  H  H88  1  0.651200  0.240400  0.513800  1.0  0.0876
  H  H89  1  0.510800  0.221000  0.472100  1.0  0.1179
  H  H90  1  0.123700  0.129600  0.353500  1.0  0.1121
  H  H91  1  0.512700  0.052600  0.555500  1.0  0.0837
  H  H92  1  0.488400  0.317200  0.155400  1.0  0.0781
  H  H93  1  0.599800  0.393000  0.214400  1.0  0.1136
  H  H94  1  0.666300  0.218000  0.111400  1.0  0.0767
  H  H95  1  0.088500  0.265000  0.227200  1.0  0.0802
  H  H96  1  0.685100  0.529600  0.305700  1.0  0.1162
  H  H97  1  0.671100  0.629200  0.356000  1.0  0.08
  H  H98  1  0.927200  0.675200  0.415600  1.0  0.0784
  H  H99  1  0.949800  0.292600  0.226900  1.0  0.1186
  H  H100  1  0.227000  0.452200  0.316300  1.0  0.075
  H  H101  1  0.951100  0.580000  0.365300  1.0  0.1188
  H  H102  1  0.781800  0.290600  0.168700  1.0  0.1112
  H  H103  1  0.091600  0.483000  0.319500  1.0  0.1124
  H  H104  1  0.105500  0.962000  0.503100  1.0  0.1114
  H  H105  1  0.037000  0.951200  0.379300  1.0  0.1165
  H  H106  1  0.898900  0.842600  0.379100  1.0  0.0797
  H  H107  1  0.963300  0.852800  0.500200  1.0  0.0714
  H  H108  1  0.140400  0.202800  0.302400  1.0  0.0815
  C  C109  1  0.915210  0.030420  0.558010  1.0  0.0232
  C  C110  1  0.667000  0.889800  0.536040  1.0  0.3998
  C  C111  1  0.576350  0.876700  0.509850  1.0  -0.0802
  C  C112  1  0.739210  0.864020  0.589060  1.0  0.3946
  C  C113  1  0.825290  0.961580  0.558100  1.0  0.3812
  C  C114  1  0.734090  0.815580  0.620530  1.0  -0.0938
  C  C115  1  0.574600  0.927400  0.484680  1.0  -0.1649
  C  C116  1  0.649260  0.754720  0.622910  1.0  -0.1387
  C  C117  1  0.645550  0.713500  0.654110  1.0  0.1337
  C  C118  1  0.407320  0.803040  0.485700  1.0  0.1312
  C  C119  1  0.490960  0.814120  0.510590  1.0  -0.1307
  C  C120  1  0.814930  0.830460  0.648300  1.0  -0.1518
  C  C121  1  0.488380  0.912360  0.461350  1.0  0.1398
  C  C122  1  0.451200  0.688600  0.841540  1.0  0.1399
  C  C123  1  0.385060  0.643120  0.806320  1.0  -0.1337
  C  C124  1  0.347850  0.746300  0.867150  1.0  0.1529
  C  C125  1  0.910800  0.689600  0.754060  1.0  0.1393
  C  C126  1  0.263600  0.440600  0.672250  1.0  -0.1347
  C  C127  1  0.224980  0.608560  0.764290  1.0  0.4174
  C  C128  1  0.167190  0.517380  0.703100  1.0  0.3881
  C  C129  1  0.271830  0.381460  0.641920  1.0  0.1465
  C  C130  1  0.179720  0.456040  0.670210  1.0  -0.1013
  C  C131  1  0.122120  0.354240  0.607370  1.0  0.1454
  C  C132  1  0.993840  0.607880  0.727230  1.0  -0.1024
  C  C133  1  0.993610  0.673620  0.754410  1.0  -0.138
  C  C134  1  0.081640  0.589080  0.728340  1.0  0.2629
  C  C135  1  0.830410  0.580820  0.702050  1.0  0.1459
  C  C136  1  0.297280  0.651160  0.801760  1.0  -0.0979
  C  C137  1  0.107480  0.411360  0.637010  1.0  -0.1506
  C  C138  1  0.278600  0.703200  0.833120  1.0  -0.1365
  C  C139  1  0.910380  0.561760  0.700250  1.0  -0.1279
  C  C140  1  0.936810  0.061020  0.522630  1.0  -0.1608
  C  C141  1  0.977300  0.067800  0.595180  1.0  -0.157
  C  C142  1  0.059320  0.132240  0.595010  1.0  0.1455
  C  C143  1  0.021690  0.126380  0.524710  1.0  0.1211
  C  C144  1  0.804400  0.786200  0.678500  1.0  0.1468
  C  C145  1  0.115210  0.030420  0.058010  1.0  0.0216
  C  C146  1  0.222800  0.889800  0.036040  1.0  0.3994
  C  C147  1  0.300350  0.876700  0.009850  1.0  -0.0808
  C  C148  1  0.124810  0.864020  0.089060  1.0  0.3944
  C  C149  1  0.136290  0.961580  0.058100  1.0  0.3819
  C  C150  1  0.081490  0.815580  0.120530  1.0  -0.0933
  C  C151  1  0.352800  0.927400  0.984680  1.0  -0.1648
  C  C152  1  0.105460  0.754720  0.122910  1.0  -0.1383
  C  C153  1  0.067950  0.713500  0.154110  1.0  0.1339
  C  C154  1  0.395720  0.803040  0.985700  1.0  0.1313
  C  C155  1  0.323160  0.814120  0.010590  1.0  -0.1307
  C  C156  1  0.015530  0.830460  0.148300  1.0  -0.1528
  C  C157  1  0.423980  0.912360  0.961350  1.0  0.1413
  C  C158  1  0.237400  0.688600  0.341540  1.0  0.1409
  C  C159  1  0.258060  0.643120  0.306320  1.0  -0.1337
  C  C160  1  0.398450  0.746300  0.367150  1.0  0.1525
  C  C161  1  0.778800  0.689600  0.254060  1.0  0.1406
  C  C162  1  0.177000  0.440600  0.172250  1.0  -0.1356
  C  C163  1  0.383580  0.608560  0.264290  1.0  0.4178
  C  C164  1  0.350190  0.517380  0.203100  1.0  0.3881
  C  C165  1  0.109630  0.381460  0.141920  1.0  0.1465
  C  C166  1  0.276320  0.456040  0.170210  1.0  -0.101
  C  C167  1  0.232120  0.354240  0.107370  1.0  0.1442
  C  C168  1  0.614040  0.607880  0.227230  1.0  -0.1023
  C  C169  1  0.680010  0.673620  0.254410  1.0  -0.139
  C  C170  1  0.507440  0.589080  0.228340  1.0  0.2631
  C  C171  1  0.750410  0.580820  0.202050  1.0  0.1451
  C  C172  1  0.353880  0.651160  0.301760  1.0  -0.0977
  C  C173  1  0.303880  0.411360  0.137010  1.0  -0.1467
  C  C174  1  0.424600  0.703200  0.333120  1.0  -0.1366
  C  C175  1  0.651380  0.561760  0.200250  1.0  -0.1273
  C  C176  1  0.124210  0.061020  0.022630  1.0  -0.1609
  C  C177  1  0.090500  0.067800  0.095180  1.0  -0.1573
  C  C178  1  0.072920  0.132240  0.095010  1.0  0.1457
  C  C179  1  0.104690  0.126380  0.024710  1.0  0.1207
  C  C180  1  0.981800  0.786200  0.178500  1.0  0.1464
  C  C181  1  0.884790  0.969580  0.941990  1.0  0.0237
  C  C182  1  0.777200  0.110200  0.963960  1.0  0.3996
  C  C183  1  0.699650  0.123300  0.990150  1.0  -0.0803
  C  C184  1  0.875190  0.135980  0.910940  1.0  0.3939
  C  C185  1  0.863710  0.038420  0.941900  1.0  0.3806
  C  C186  1  0.918510  0.184420  0.879470  1.0  -0.0935
  C  C187  1  0.647200  0.072600  0.015320  1.0  -0.1656
  C  C188  1  0.894540  0.245280  0.877090  1.0  -0.1388
  C  C189  1  0.932050  0.286500  0.845890  1.0  0.1338
  C  C190  1  0.604280  0.196960  0.014300  1.0  0.1327
  C  C191  1  0.676840  0.185880  0.989410  1.0  -0.1317
  C  C192  1  0.984470  0.169540  0.851700  1.0  -0.1524
  C  C193  1  0.576020  0.087640  0.038650  1.0  0.1395
  C  C194  1  0.762600  0.311400  0.658460  1.0  0.1403
  C  C195  1  0.741940  0.356880  0.693680  1.0  -0.1333
  C  C196  1  0.601550  0.253700  0.632850  1.0  0.1527
  C  C197  1  0.221200  0.310400  0.745940  1.0  0.1395
  C  C198  1  0.823000  0.559400  0.827750  1.0  -0.1365
  C  C199  1  0.616420  0.391440  0.735710  1.0  0.4174
  C  C200  1  0.649810  0.482620  0.796900  1.0  0.3887
  C  C201  1  0.890370  0.618540  0.858080  1.0  0.1447
  C  C202  1  0.723680  0.543960  0.829790  1.0  -0.1028
  C  C203  1  0.767880  0.645760  0.892630  1.0  0.1454
  C  C204  1  0.385960  0.392120  0.772770  1.0  -0.1028
  C  C205  1  0.319990  0.326380  0.745590  1.0  -0.1375
  C  C206  1  0.492560  0.410920  0.771660  1.0  0.2633
  C  C207  1  0.249590  0.419180  0.797950  1.0  0.1452
  C  C208  1  0.646120  0.348840  0.698240  1.0  -0.0971
  C  C209  1  0.696120  0.588640  0.862990  1.0  -0.1512
  C  C210  1  0.575400  0.296800  0.666880  1.0  -0.1359
  C  C211  1  0.348620  0.438240  0.799750  1.0  -0.1283
  C  C212  1  0.875790  0.938980  0.977370  1.0  -0.1615
  C  C213  1  0.909500  0.932200  0.904820  1.0  -0.1568
  C  C214  1  0.927080  0.867760  0.904990  1.0  0.1448
  C  C215  1  0.895310  0.873620  0.975290  1.0  0.1227
  C  C216  1  0.018200  0.213800  0.821500  1.0  0.147
  C  C217  1  0.084790  0.969580  0.441990  1.0  0.022
  C  C218  1  0.333000  0.110200  0.463960  1.0  0.3991
  C  C219  1  0.423650  0.123300  0.490150  1.0  -0.0804
  C  C220  1  0.260790  0.135980  0.410940  1.0  0.3937
  C  C221  1  0.174710  0.038420  0.441900  1.0  0.3811
  C  C222  1  0.265910  0.184420  0.379470  1.0  -0.0934
  C  C223  1  0.425400  0.072600  0.515320  1.0  -0.1659
  C  C224  1  0.350740  0.245280  0.377090  1.0  -0.1387
  C  C225  1  0.354450  0.286500  0.345890  1.0  0.1336
  C  C226  1  0.592680  0.196960  0.514300  1.0  0.1334
  C  C227  1  0.509040  0.185880  0.489410  1.0  -0.1322
  C  C228  1  0.185070  0.169540  0.351700  1.0  -0.153
  C  C229  1  0.511620  0.087640  0.538650  1.0  0.1415
  C  C230  1  0.548800  0.311400  0.158460  1.0  0.1413
  C  C231  1  0.614940  0.356880  0.193680  1.0  -0.1333
  C  C232  1  0.652150  0.253700  0.132850  1.0  0.152
  C  C233  1  0.089200  0.310400  0.245940  1.0  0.1404
  C  C234  1  0.736400  0.559400  0.327750  1.0  -0.1367
  C  C235  1  0.775020  0.391440  0.235710  1.0  0.4175
  C  C236  1  0.832810  0.482620  0.296900  1.0  0.3888
  C  C237  1  0.728170  0.618540  0.358080  1.0  0.145
  C  C238  1  0.820280  0.543960  0.329790  1.0  -0.1027
  C  C239  1  0.877880  0.645760  0.392630  1.0  0.1453
  C  C240  1  0.006160  0.392120  0.272770  1.0  -0.1027
  C  C241  1  0.006390  0.326380  0.245590  1.0  -0.1369
  C  C242  1  0.918360  0.410920  0.271660  1.0  0.2637
  C  C243  1  0.169590  0.419180  0.297950  1.0  0.1456
  C  C244  1  0.702720  0.348840  0.198240  1.0  -0.0969
  C  C245  1  0.892520  0.588640  0.362990  1.0  -0.1473
  C  C246  1  0.721400  0.296800  0.166880  1.0  -0.1362
  C  C247  1  0.089620  0.438240  0.299750  1.0  -0.1288
  C  C248  1  0.063190  0.938980  0.477370  1.0  -0.1609
  C  C249  1  0.022700  0.932200  0.404820  1.0  -0.1567
  C  C250  1  0.940680  0.867760  0.404990  1.0  0.1463
  C  C251  1  0.978310  0.873620  0.475290  1.0  0.1225
  C  C252  1  0.195600  0.213800  0.321500  1.0  0.146
  I  I253  1  0.548220  0.553660  0.711150  1.0  -0.4408
  I  I254  1  0.336440  0.209960  0.597010  1.0  -0.4365
  I  I255  1  0.230510  0.291260  0.491030  1.0  -0.3196
  I  I256  1  0.134160  0.749720  0.456380  1.0  -0.3987
  I  I257  1  0.730880  0.768780  0.802850  1.0  -0.4048
  I  I258  1  0.311540  0.934320  0.384630  1.0  -0.3554
  I  I259  1  0.005440  0.553660  0.211150  1.0  -0.441
  I  I260  1  0.873520  0.209960  0.097010  1.0  -0.4357
  I  I261  1  0.060750  0.291260  0.991030  1.0  -0.3199
  I  I262  1  0.615560  0.749720  0.956380  1.0  -0.3985
  I  I263  1  0.037900  0.768780  0.302850  1.0  -0.405
  I  I264  1  0.622780  0.934320  0.884630  1.0  -0.3548
  I  I265  1  0.994560  0.446340  0.788850  1.0  -0.4426
  I  I266  1  0.126480  0.790040  0.903000  1.0  -0.4333
  I  I267  1  0.939250  0.708740  0.008970  1.0  -0.3188
  I  I268  1  0.384440  0.250280  0.043620  1.0  -0.3986
  I  I269  1  0.962100  0.231220  0.697150  1.0  -0.4049
  I  I270  1  0.377220  0.065680  0.115370  1.0  -0.3549
  I  I271  1  0.451780  0.446340  0.288850  1.0  -0.4424
  I  I272  1  0.663560  0.790040  0.403000  1.0  -0.4318
  I  I273  1  0.769490  0.708740  0.508970  1.0  -0.3192
  I  I274  1  0.865840  0.250280  0.543620  1.0  -0.3989
  I  I275  1  0.269120  0.231220  0.197150  1.0  -0.4048
  I  I276  1  0.688460  0.065680  0.615370  1.0  -0.3542
  N  N277  1  0.406330  0.851060  0.461220  1.0  -0.3056
  N  N278  1  0.750240  0.945880  0.529850  1.0  -0.4177
  N  N279  1  0.657170  0.847740  0.565210  1.0  -0.4767
  N  N280  1  0.824670  0.921740  0.588220  1.0  -0.4307
  N  N281  1  0.083180  0.161160  0.560330  1.0  -0.2997
  N  N282  1  0.721300  0.729200  0.681980  1.0  -0.3217
  N  N283  1  0.829330  0.643860  0.728450  1.0  -0.3132
  N  N284  1  0.088310  0.533420  0.697540  1.0  -0.3275
  N  N285  1  0.237330  0.552060  0.735830  1.0  -0.4638
  N  N286  1  0.201740  0.338280  0.609420  1.0  -0.3315
  N  N287  1  0.433410  0.740220  0.871320  1.0  -0.3115
  N  N288  1  0.148190  0.628780  0.761870  1.0  -0.3776
  N  N289  1  0.444730  0.851060  0.961220  1.0  -0.306
  N  N290  1  0.195640  0.945880  0.029850  1.0  -0.4177
  N  N291  1  0.190570  0.847740  0.065210  1.0  -0.4768
  N  N292  1  0.097070  0.921740  0.088220  1.0  -0.4313
  N  N293  1  0.077980  0.161160  0.060330  1.0  -0.2985
  N  N294  1  0.007900  0.729200  0.181980  1.0  -0.3216
  N  N295  1  0.814530  0.643860  0.228450  1.0  -0.3123
  N  N296  1  0.445110  0.533420  0.197540  1.0  -0.3279
  N  N297  1  0.314730  0.552060  0.235830  1.0  -0.463
  N  N298  1  0.136540  0.338280  0.109420  1.0  -0.3316
  N  N299  1  0.306810  0.740220  0.371320  1.0  -0.3128
  N  N300  1  0.480590  0.628780  0.261870  1.0  -0.3779
  N  N301  1  0.555270  0.148940  0.038780  1.0  -0.3052
  N  N302  1  0.804360  0.054120  0.970150  1.0  -0.4177
  N  N303  1  0.809430  0.152260  0.934790  1.0  -0.4768
  N  N304  1  0.902930  0.078260  0.911780  1.0  -0.4322
  N  N305  1  0.922020  0.838840  0.939670  1.0  -0.299
  N  N306  1  0.992100  0.270800  0.818020  1.0  -0.3243
  N  N307  1  0.185470  0.356140  0.771550  1.0  -0.3134
  N  N308  1  0.554890  0.466580  0.802460  1.0  -0.3266
  N  N309  1  0.685270  0.447940  0.764170  1.0  -0.4627
  N  N310  1  0.863460  0.661720  0.890580  1.0  -0.3307
  N  N311  1  0.693190  0.259780  0.628680  1.0  -0.3099
  N  N312  1  0.519410  0.371220  0.738130  1.0  -0.3793
  N  N313  1  0.593670  0.148940  0.538780  1.0  -0.3058
  N  N314  1  0.249760  0.054120  0.470150  1.0  -0.4172
  N  N315  1  0.342830  0.152260  0.434790  1.0  -0.477
  N  N316  1  0.175330  0.078260  0.411780  1.0  -0.4324
  N  N317  1  0.916820  0.838840  0.439670  1.0  -0.2997
  N  N318  1  0.278700  0.270800  0.318020  1.0  -0.3248
  N  N319  1  0.170670  0.356140  0.271550  1.0  -0.3118
  N  N320  1  0.911690  0.466580  0.302460  1.0  -0.326
  N  N321  1  0.762670  0.447940  0.264170  1.0  -0.4627
  N  N322  1  0.798260  0.661720  0.390580  1.0  -0.3309
  N  N323  1  0.566590  0.259780  0.128680  1.0  -0.3119
  N  N324  1  0.851810  0.371220  0.238130  1.0  -0.3787
