# generated using pymatgen
data_Li3Mo(CN)6
_symmetry_space_group_name_H-M   'P 1'
_cell_length_a   13.52850000
_cell_length_b   13.52850000
_cell_length_c   14.27700000
_cell_angle_alpha   61.71970000
_cell_angle_beta   61.71970000
_cell_angle_gamma   60.00000000
_symmetry_Int_Tables_number   1
_chemical_formula_structural   Li3Mo(CN)6
_chemical_formula_sum   'Li6 Mo2 C12 N12'
_cell_volume   1894.23524564
_cell_formula_units_Z   2
loop_
 _symmetry_equiv_pos_site_id
 _symmetry_equiv_pos_as_xyz
  1  'x, y, z'
loop_
 _atom_site_type_symbol
 _atom_site_label
 _atom_site_symmetry_multiplicity
 _atom_site_fract_x
 _atom_site_fract_y
 _atom_site_fract_z
 _atom_site_occupancy
 _atom_site_charge
  Li  Li1  1  0.407250  0.092750  0.750000  1.0  0.7982
  Li  Li2  1  0.092750  0.750000  0.750000  1.0  0.7935
  Li  Li3  1  0.750000  0.407250  0.750000  1.0  0.7974
  Li  Li4  1  0.592750  0.907250  0.250000  1.0  0.805
  Li  Li5  1  0.907250  0.250000  0.250000  1.0  0.7868
  Li  Li6  1  0.250000  0.592750  0.250000  1.0  0.7914
  Mo  Mo7  1  0.000000  0.000000  0.000000  1.0  0.3458
  Mo  Mo8  1  0.500000  0.500000  0.500000  1.0  0.3458
  C  C9  1  0.157970  0.050770  0.892390  1.0  0.1043
  C  C10  1  0.050770  0.898870  0.892390  1.0  0.1056
  C  C11  1  0.898870  0.157970  0.892390  1.0  0.1044
  C  C12  1  0.342030  0.601130  0.607610  1.0  0.1049
  C  C13  1  0.449230  0.342030  0.607610  1.0  0.1038
  C  C14  1  0.601130  0.449230  0.607610  1.0  0.1055
  C  C15  1  0.842030  0.949230  0.107610  1.0  0.1048
  C  C16  1  0.949230  0.101130  0.107610  1.0  0.1046
  C  C17  1  0.101130  0.842030  0.107610  1.0  0.1041
  C  C18  1  0.657970  0.398870  0.392390  1.0  0.1053
  C  C19  1  0.550770  0.657970  0.392390  1.0  0.1035
  C  C20  1  0.398870  0.550770  0.392390  1.0  0.1061
  N  N21  1  0.242430  0.076930  0.834910  1.0  -0.5497
  N  N22  1  0.076930  0.845730  0.834910  1.0  -0.5526
  N  N23  1  0.845730  0.242430  0.834910  1.0  -0.5771
  N  N24  1  0.257570  0.654270  0.665090  1.0  -0.5735
  N  N25  1  0.423070  0.257570  0.665090  1.0  -0.5509
  N  N26  1  0.654270  0.423070  0.665090  1.0  -0.5527
  N  N27  1  0.757570  0.923070  0.165090  1.0  -0.5502
  N  N28  1  0.923070  0.154270  0.165090  1.0  -0.5535
  N  N29  1  0.154270  0.757570  0.165090  1.0  -0.5755
  N  N30  1  0.742430  0.345730  0.334910  1.0  -0.5762
  N  N31  1  0.576930  0.742430  0.334910  1.0  -0.5552
  N  N32  1  0.345730  0.576930  0.334910  1.0  -0.5535
