# generated using pymatgen
data_CoH24C36(NO)4
_symmetry_space_group_name_H-M   'P 1'
_cell_length_a   10.72500000
_cell_length_b   13.33100000
_cell_length_c   15.26140000
_cell_angle_alpha   65.64100000
_cell_angle_beta   86.00400000
_cell_angle_gamma   74.00700000
_symmetry_Int_Tables_number   1
_chemical_formula_structural   CoH24C36(NO)4
_chemical_formula_sum   'Co2 H48 C72 N8 O8'
_cell_volume   1908.41118083
_cell_formula_units_Z   2
loop_
 _symmetry_equiv_pos_site_id
 _symmetry_equiv_pos_as_xyz
  1  'x, y, z'
loop_
 _atom_site_type_symbol
 _atom_site_label
 _atom_site_symmetry_multiplicity
 _atom_site_fract_x
 _atom_site_fract_y
 _atom_site_fract_z
 _atom_site_occupancy
 _atom_site_charge
  Co  Co1  1  0.128620  0.013400  0.588570  1.0  0.9454
  Co  Co2  1  0.871380  0.986600  0.411430  1.0  0.9445
  H  H3  1  0.211700  0.752100  0.697800  1.0  0.0737
  H  H4  1  0.141500  0.599800  0.802000  1.0  0.1281
  H  H5  1  0.802100  0.816100  0.801800  1.0  0.0928
  H  H6  1  0.877900  0.966400  0.696000  1.0  0.0959
  H  H7  1  0.970400  0.517700  0.903300  1.0  0.0923
  H  H8  1  0.849400  0.396400  0.925800  1.0  0.1189
  H  H9  1  0.754500  0.250700  0.031300  1.0  0.107
  H  H10  1  0.613500  0.283800  0.141300  1.0  0.0946
  H  H11  1  0.436500  0.587700  0.223000  1.0  0.1122
  H  H12  1  0.512800  0.735500  0.111000  1.0  0.0987
  H  H13  1  0.658100  0.704000  0.004600  1.0  0.0994
  H  H14  1  0.307300  0.470300  0.231100  1.0  0.074
  H  H15  1  0.460500  0.169000  0.353700  1.0  0.1241
  H  H16  1  0.373700  0.038600  0.475500  1.0  0.0743
  H  H17  1  0.062000  0.276900  0.465300  1.0  0.0774
  H  H18  1  0.140700  0.413500  0.347500  1.0  0.1285
  H  H19  1  0.509600  0.923500  0.781600  1.0  0.0768
  H  H20  1  0.618800  0.923300  0.906000  1.0  0.1049
  H  H21  1  0.286500  0.081900  0.982200  1.0  0.1181
  H  H22  1  0.178100  0.080300  0.854100  1.0  0.1019
  H  H23  1  0.447800  0.396000  0.433300  1.0  0.0818
  H  H24  1  0.600400  0.235000  0.441200  1.0  0.0981
  H  H25  1  0.844700  0.294000  0.585500  1.0  0.1097
  H  H26  1  0.689400  0.457300  0.578100  1.0  0.1049
  H  H27  1  0.788300  0.247900  0.302200  1.0  0.0738
  H  H28  1  0.858500  0.400200  0.198000  1.0  0.1268
  H  H29  1  0.197900  0.183900  0.198200  1.0  0.0925
  H  H30  1  0.122100  0.033600  0.304000  1.0  0.0964
  H  H31  1  0.029600  0.482300  0.096700  1.0  0.0938
  H  H32  1  0.150600  0.603600  0.074200  1.0  0.1194
  H  H33  1  0.245500  0.749300  0.968700  1.0  0.1068
  H  H34  1  0.386500  0.716200  0.858700  1.0  0.0949
  H  H35  1  0.563500  0.412300  0.777000  1.0  0.1123
  H  H36  1  0.487200  0.264500  0.889000  1.0  0.0986
  H  H37  1  0.341900  0.296000  0.995400  1.0  0.0989
  H  H38  1  0.692700  0.529700  0.768900  1.0  0.0733
  H  H39  1  0.539500  0.831000  0.646300  1.0  0.1239
  H  H40  1  0.626300  0.961400  0.524500  1.0  0.0739
  H  H41  1  0.938000  0.723100  0.534700  1.0  0.0773
  H  H42  1  0.859300  0.586500  0.652500  1.0  0.1285
  H  H43  1  0.490400  0.076500  0.218400  1.0  0.0765
  H  H44  1  0.381200  0.076700  0.094000  1.0  0.1051
  H  H45  1  0.713500  0.918100  0.017800  1.0  0.1185
  H  H46  1  0.821900  0.919700  0.145900  1.0  0.102
  H  H47  1  0.552200  0.604000  0.566700  1.0  0.0816
  H  H48  1  0.399600  0.765000  0.558800  1.0  0.0989
  H  H49  1  0.155300  0.706000  0.414500  1.0  0.1095
  H  H50  1  0.310600  0.542700  0.421900  1.0  0.1057
  C  C51  1  0.127800  0.765600  0.719000  1.0  0.1717
  C  C52  1  0.086200  0.673400  0.781600  1.0  -0.2137
  C  C53  1  0.962100  0.690700  0.813800  1.0  0.0432
  C  C54  1  0.886100  0.801300  0.781100  1.0  -0.1034
  C  C55  1  0.931900  0.892100  0.717600  1.0  0.1544
  C  C56  1  0.915700  0.591600  0.881900  1.0  0.1412
  C  C57  1  0.755000  0.516700  0.973600  1.0  0.169
  C  C58  1  0.790000  0.410400  0.969500  1.0  -0.1976
  C  C59  1  0.732800  0.321700  0.034200  1.0  -0.0827
  C  C60  1  0.647800  0.342000  0.098900  1.0  -0.0908
  C  C61  1  0.611100  0.447900  0.103000  1.0  -0.0133
  C  C62  1  0.521800  0.472000  0.170700  1.0  0.1606
  C  C63  1  0.490400  0.575500  0.175800  1.0  -0.1517
  C  C64  1  0.539300  0.663300  0.110100  1.0  -0.0652
  C  C65  1  0.623900  0.645100  0.045800  1.0  -0.0854
  C  C66  1  0.662300  0.537500  0.039500  1.0  -0.027
  C  C67  1  0.361900  0.396800  0.261700  1.0  0.1559
  C  C68  1  0.310200  0.307300  0.337600  1.0  0.046
  C  C69  1  0.379700  0.193000  0.375900  1.0  -0.1661
  C  C70  1  0.325600  0.114900  0.448300  1.0  0.1655
  C  C71  1  0.143200  0.254900  0.442700  1.0  0.1752
  C  C72  1  0.189900  0.337500  0.372000  1.0  -0.1924
  C  C73  1  0.334400  0.996900  0.805300  1.0  -0.0978
  C  C74  1  0.462200  0.954700  0.822100  1.0  -0.0248
  C  C75  1  0.529300  0.954800  0.897600  1.0  -0.1502
  C  C76  1  0.465600  0.000400  0.959100  1.0  0.0382
  C  C77  1  0.333000  0.048600  0.942700  1.0  -0.1525
  C  C78  1  0.267200  0.047100  0.865000  1.0  -0.0409
  C  C79  1  0.549600  0.448600  0.502400  1.0  0.0405
  C  C80  1  0.528100  0.377100  0.464000  1.0  -0.118
  C  C81  1  0.619400  0.279900  0.468900  1.0  -0.0636
  C  C82  1  0.738200  0.248500  0.514400  1.0  -0.124
  C  C83  1  0.764200  0.314500  0.554400  1.0  -0.0477
  C  C84  1  0.670400  0.413600  0.549300  1.0  -0.1382
  C  C85  1  0.264600  0.999700  0.723400  1.0  0.6565
  C  C86  1  0.839300  0.143000  0.517800  1.0  0.6589
  C  C87  1  0.872200  0.234400  0.281000  1.0  0.1727
  C  C88  1  0.913800  0.326600  0.218400  1.0  -0.2186
  C  C89  1  0.037900  0.309300  0.186200  1.0  0.0436
  C  C90  1  0.113900  0.198700  0.218900  1.0  -0.1058
  C  C91  1  0.068100  0.107900  0.282400  1.0  0.1544
  C  C92  1  0.084300  0.408400  0.118100  1.0  0.1412
  C  C93  1  0.245000  0.483300  0.026400  1.0  0.1677
  C  C94  1  0.210000  0.589600  0.030500  1.0  -0.1997
  C  C95  1  0.267200  0.678300  0.965800  1.0  -0.0833
  C  C96  1  0.352200  0.658000  0.901100  1.0  -0.0933
  C  C97  1  0.388900  0.552100  0.897000  1.0  -0.0131
  C  C98  1  0.478200  0.528000  0.829300  1.0  0.1598
  C  C99  1  0.509600  0.424500  0.824200  1.0  -0.1602
  C  C100  1  0.460700  0.336700  0.889900  1.0  -0.0714
  C  C101  1  0.376100  0.354900  0.954200  1.0  -0.0869
  C  C102  1  0.337700  0.462500  0.960500  1.0  -0.0282
  C  C103  1  0.638100  0.603200  0.738300  1.0  0.1555
  C  C104  1  0.689800  0.692700  0.662400  1.0  0.0465
  C  C105  1  0.620300  0.807000  0.624100  1.0  -0.1658
  C  C106  1  0.674400  0.885100  0.551700  1.0  0.1636
  C  C107  1  0.856800  0.745100  0.557300  1.0  0.1744
  C  C108  1  0.810100  0.662500  0.628000  1.0  -0.1868
  C  C109  1  0.665600  0.003100  0.194700  1.0  -0.0976
  C  C110  1  0.537800  0.045300  0.177900  1.0  -0.0233
  C  C111  1  0.470700  0.045200  0.102400  1.0  -0.1493
  C  C112  1  0.534400  0.999600  0.040900  1.0  0.0383
  C  C113  1  0.667000  0.951400  0.057300  1.0  -0.1508
  C  C114  1  0.732800  0.952900  0.135000  1.0  -0.0395
  C  C115  1  0.450400  0.551400  0.497600  1.0  0.041
  C  C116  1  0.471900  0.622900  0.536000  1.0  -0.114
  C  C117  1  0.380600  0.720100  0.531100  1.0  -0.063
  C  C118  1  0.261800  0.751500  0.485600  1.0  -0.123
  C  C119  1  0.235800  0.685500  0.445600  1.0  -0.048
  C  C120  1  0.329600  0.586400  0.450700  1.0  -0.1345
  C  C121  1  0.735400  0.000300  0.276600  1.0  0.6575
  C  C122  1  0.160700  0.857000  0.482200  1.0  0.6598
  N  N123  1  0.053600  0.873600  0.687100  1.0  -0.3436
  N  N124  1  0.799400  0.609600  0.910400  1.0  -0.3782
  N  N125  1  0.478100  0.375500  0.237800  1.0  -0.3414
  N  N126  1  0.208800  0.143700  0.480800  1.0  -0.3312
  N  N127  1  0.946400  0.126400  0.312900  1.0  -0.3444
  N  N128  1  0.200600  0.390400  0.089600  1.0  -0.3823
  N  N129  1  0.521900  0.624500  0.762200  1.0  -0.3434
  N  N130  1  0.791200  0.856300  0.519200  1.0  -0.3338
  O  O131  1  0.315400  0.946100  0.676800  1.0  -0.552
  O  O132  1  0.146500  0.059600  0.704100  1.0  -0.5923
  O  O133  1  0.951400  0.127400  0.549100  1.0  -0.6074
  O  O134  1  0.804900  0.079400  0.488200  1.0  -0.6106
  O  O135  1  0.684600  0.053900  0.323200  1.0  -0.5516
  O  O136  1  0.853500  0.940400  0.295900  1.0  -0.5931
  O  O137  1  0.048600  0.872600  0.450900  1.0  -0.6003
  O  O138  1  0.195100  0.920600  0.511800  1.0  -0.611
