# generated using pymatgen
data_CoH6(C3O)4
_symmetry_space_group_name_H-M   'P 1'
_cell_length_a   11.23630000
_cell_length_b   11.23630000
_cell_length_c   20.93200000
_cell_angle_alpha   95.52650000
_cell_angle_beta   95.52650000
_cell_angle_gamma   106.97700000
_symmetry_Int_Tables_number   1
_chemical_formula_structural   CoH6(C3O)4
_chemical_formula_sum   'Co6 H36 C72 O24'
_cell_volume   2494.26100740
_cell_formula_units_Z   6
loop_
 _symmetry_equiv_pos_site_id
 _symmetry_equiv_pos_as_xyz
  1  'x, y, z'
loop_
 _atom_site_type_symbol
 _atom_site_label
 _atom_site_symmetry_multiplicity
 _atom_site_fract_x
 _atom_site_fract_y
 _atom_site_fract_z
 _atom_site_occupancy
 _atom_site_charge
  Co  Co1  1  0.510290  0.023730  0.808390  1.0  0.9751
  Co  Co2  1  0.976270  0.489710  0.691610  1.0  0.9751
  Co  Co3  1  0.489710  0.976270  0.191610  1.0  0.9754
  Co  Co4  1  0.023730  0.510290  0.308390  1.0  0.976
  Co  Co5  1  0.751940  0.248060  0.750000  1.0  1.2063
  Co  Co6  1  0.248060  0.751940  0.250000  1.0  1.2058
  H  H7  1  0.733600  0.519400  0.904100  1.0  0.0821
  H  H8  1  0.723000  0.655600  0.990500  1.0  0.1075
  H  H9  1  0.397800  0.287800  0.922400  1.0  0.1036
  H  H10  1  0.653600  0.048000  0.609200  1.0  0.1064
  H  H11  1  0.742100  0.027300  0.505500  1.0  0.0861
  H  H12  1  0.284200  0.996600  0.605700  1.0  0.111
  H  H13  1  0.012300  0.237700  0.530400  1.0  0.1132
  H  H14  1  0.072200  0.172400  0.423400  1.0  0.1167
  H  H15  1  0.892000  0.978800  0.646800  1.0  0.109
  H  H16  1  0.480600  0.266400  0.595900  1.0  0.0838
  H  H17  1  0.344400  0.277000  0.509500  1.0  0.107
  H  H18  1  0.712200  0.602200  0.577600  1.0  0.1028
  H  H19  1  0.952000  0.346400  0.890800  1.0  0.1062
  H  H20  1  0.972700  0.257900  0.994500  1.0  0.0865
  H  H21  1  0.003400  0.715800  0.894300  1.0  0.111
  H  H22  1  0.762300  0.987700  0.969600  1.0  0.1111
  H  H23  1  0.827600  0.927800  0.076600  1.0  0.1179
  H  H24  1  0.021200  0.108000  0.853200  1.0  0.1104
  H  H25  1  0.266400  0.480600  0.095900  1.0  0.0826
  H  H26  1  0.277000  0.344400  0.009500  1.0  0.1079
  H  H27  1  0.602200  0.712200  0.077600  1.0  0.1039
  H  H28  1  0.346400  0.952000  0.390800  1.0  0.1061
  H  H29  1  0.257900  0.972700  0.494500  1.0  0.087
  H  H30  1  0.715800  0.003400  0.394300  1.0  0.1115
  H  H31  1  0.987700  0.762300  0.469600  1.0  0.1129
  H  H32  1  0.927800  0.827600  0.576600  1.0  0.1164
  H  H33  1  0.108000  0.021200  0.353200  1.0  0.1094
  H  H34  1  0.519400  0.733600  0.404100  1.0  0.0833
  H  H35  1  0.655600  0.723000  0.490500  1.0  0.1069
  H  H36  1  0.287800  0.397800  0.422400  1.0  0.1027
  H  H37  1  0.048000  0.653600  0.109200  1.0  0.1066
  H  H38  1  0.027300  0.742100  0.005500  1.0  0.0865
  H  H39  1  0.996600  0.284200  0.105700  1.0  0.1106
  H  H40  1  0.237700  0.012300  0.030400  1.0  0.1108
  H  H41  1  0.172400  0.072200  0.923400  1.0  0.1171
  H  H42  1  0.978800  0.892000  0.146800  1.0  0.1096
  C  C43  1  0.578500  0.296100  0.850700  1.0  0.7352
  C  C44  1  0.566400  0.389600  0.905100  1.0  -0.142
  C  C45  1  0.663300  0.500500  0.925800  1.0  -0.0299
  C  C46  1  0.656900  0.582300  0.977300  1.0  -0.133
  C  C47  1  0.549500  0.555500  0.010700  1.0  0.041
  C  C48  1  0.462200  0.362000  0.936200  1.0  -0.08
  C  C49  1  0.487200  0.036200  0.690100  1.0  0.6932
  C  C50  1  0.473500  0.026500  0.618200  1.0  -0.1265
  C  C51  1  0.574400  0.031400  0.585900  1.0  -0.0522
  C  C52  1  0.560000  0.011400  0.517500  1.0  0.0368
  C  C53  1  0.662900  0.014300  0.482900  1.0  -0.1021
  C  C54  1  0.353000  0.001800  0.583500  1.0  -0.045
  C  C55  1  0.914800  0.221200  0.640100  1.0  0.7103
  C  C56  1  0.946000  0.123200  0.594400  1.0  -0.1337
  C  C57  1  0.992600  0.154800  0.538700  1.0  -0.0746
  C  C58  1  0.011700  0.061900  0.492600  1.0  0.0435
  C  C59  1  0.056600  0.091000  0.433700  1.0  -0.1381
  C  C60  1  0.922500  0.999700  0.608300  1.0  -0.0402
  C  C61  1  0.703900  0.421500  0.649300  1.0  0.7331
  C  C62  1  0.610400  0.433600  0.594900  1.0  -0.1407
  C  C63  1  0.499500  0.336700  0.574200  1.0  -0.0318
  C  C64  1  0.417700  0.343100  0.522700  1.0  -0.1346
  C  C65  1  0.444500  0.450500  0.489300  1.0  0.0411
  C  C66  1  0.638000  0.537800  0.563800  1.0  -0.0785
  C  C67  1  0.963800  0.512800  0.809900  1.0  0.6947
  C  C68  1  0.973500  0.526500  0.881800  1.0  -0.1279
  C  C69  1  0.968600  0.425600  0.914100  1.0  -0.0519
  C  C70  1  0.988600  0.440000  0.982500  1.0  0.0368
  C  C71  1  0.985700  0.337100  0.017100  1.0  -0.1014
  C  C72  1  0.998200  0.647000  0.916500  1.0  -0.0464
  C  C73  1  0.778800  0.085200  0.859900  1.0  0.7074
  C  C74  1  0.876800  0.054000  0.905600  1.0  -0.1333
  C  C75  1  0.845200  0.007400  0.961300  1.0  -0.0757
  C  C76  1  0.938100  0.988300  0.007400  1.0  0.0429
  C  C77  1  0.909000  0.943400  0.066300  1.0  -0.1386
  C  C78  1  0.000300  0.077500  0.891700  1.0  -0.04
  C  C79  1  0.421500  0.703900  0.149300  1.0  0.7358
  C  C80  1  0.433600  0.610400  0.094900  1.0  -0.1429
  C  C81  1  0.336700  0.499500  0.074200  1.0  -0.0297
  C  C82  1  0.343100  0.417700  0.022700  1.0  -0.1308
  C  C83  1  0.450500  0.444500  0.989300  1.0  0.0407
  C  C84  1  0.537800  0.638000  0.063800  1.0  -0.0787
  C  C85  1  0.512800  0.963800  0.309900  1.0  0.6938
  C  C86  1  0.526500  0.973500  0.381800  1.0  -0.1273
  C  C87  1  0.425600  0.968600  0.414100  1.0  -0.0518
  C  C88  1  0.440000  0.988600  0.482500  1.0  0.0371
  C  C89  1  0.337100  0.985700  0.517100  1.0  -0.1122
  C  C90  1  0.647000  0.998200  0.416500  1.0  -0.0455
  C  C91  1  0.085200  0.778800  0.359900  1.0  0.7081
  C  C92  1  0.054000  0.876800  0.405600  1.0  -0.1324
  C  C93  1  0.007400  0.845200  0.461300  1.0  -0.0723
  C  C94  1  0.988300  0.938100  0.507400  1.0  0.0432
  C  C95  1  0.943400  0.909000  0.566300  1.0  -0.1388
  C  C96  1  0.077500  0.000300  0.391700  1.0  -0.038
  C  C97  1  0.296100  0.578500  0.350700  1.0  0.7291
  C  C98  1  0.389600  0.566400  0.405100  1.0  -0.1409
  C  C99  1  0.500500  0.663300  0.425800  1.0  -0.0324
  C  C100  1  0.582300  0.656900  0.477300  1.0  -0.1332
  C  C101  1  0.555500  0.549500  0.510700  1.0  0.0407
  C  C102  1  0.362000  0.462200  0.436200  1.0  -0.0788
  C  C103  1  0.036200  0.487200  0.190100  1.0  0.6944
  C  C104  1  0.026500  0.473500  0.118200  1.0  -0.1278
  C  C105  1  0.031400  0.574400  0.085900  1.0  -0.0519
  C  C106  1  0.011400  0.560000  0.017500  1.0  0.037
  C  C107  1  0.014300  0.662900  0.982900  1.0  -0.1115
  C  C108  1  0.001800  0.353000  0.083500  1.0  -0.046
  C  C109  1  0.221200  0.914800  0.140100  1.0  0.707
  C  C110  1  0.123200  0.946000  0.094400  1.0  -0.1339
  C  C111  1  0.154800  0.992600  0.038700  1.0  -0.0749
  C  C112  1  0.061900  0.011700  0.992600  1.0  0.0423
  C  C113  1  0.091000  0.056600  0.933700  1.0  -0.138
  C  C114  1  0.999700  0.922500  0.108300  1.0  -0.0408
  O  O115  1  0.494200  0.193200  0.840560  1.0  -0.6148
  O  O116  1  0.672540  0.329860  0.821520  1.0  -0.6073
  O  O117  1  0.595620  0.081780  0.723380  1.0  -0.6536
  O  O118  1  0.392070  0.995130  0.717670  1.0  -0.5773
  O  O119  1  0.852050  0.177350  0.684240  1.0  -0.5966
  O  O120  1  0.952700  0.332300  0.629860  1.0  -0.6243
  O  O121  1  0.806800  0.505800  0.659440  1.0  -0.6122
  O  O122  1  0.670140  0.327460  0.678480  1.0  -0.6091
  O  O123  1  0.918220  0.404380  0.776620  1.0  -0.655
  O  O124  1  0.004870  0.607930  0.782330  1.0  -0.568
  O  O125  1  0.822650  0.147950  0.815760  1.0  -0.594
  O  O126  1  0.667700  0.047300  0.870140  1.0  -0.6245
  O  O127  1  0.505800  0.806800  0.159440  1.0  -0.6155
  O  O128  1  0.327460  0.670140  0.178480  1.0  -0.6081
  O  O129  1  0.404380  0.918220  0.276620  1.0  -0.6541
  O  O130  1  0.607930  0.004870  0.282330  1.0  -0.5708
  O  O131  1  0.147950  0.822650  0.315760  1.0  -0.5983
  O  O132  1  0.047300  0.667700  0.370140  1.0  -0.6236
  O  O133  1  0.193200  0.494200  0.340560  1.0  -0.6137
  O  O134  1  0.329860  0.672540  0.321520  1.0  -0.6088
  O  O135  1  0.081780  0.595620  0.223380  1.0  -0.6545
  O  O136  1  0.995130  0.392070  0.217670  1.0  -0.5712
  O  O137  1  0.177350  0.852050  0.184240  1.0  -0.5943
  O  O138  1  0.332300  0.952700  0.129860  1.0  -0.6248
