# generated using pymatgen
data_CoH6(C3O)4
_symmetry_space_group_name_H-M   'P 1'
_cell_length_a   14.12390000
_cell_length_b   18.32430000
_cell_length_c   20.66570000
_cell_angle_alpha   90.00000000
_cell_angle_beta   99.12180000
_cell_angle_gamma   90.00000000
_symmetry_Int_Tables_number   1
_chemical_formula_structural   CoH6(C3O)4
_chemical_formula_sum   'Co12 H72 C144 O48'
_cell_volume   5280.86230642
_cell_formula_units_Z   12
loop_
 _symmetry_equiv_pos_site_id
 _symmetry_equiv_pos_as_xyz
  1  'x, y, z'
loop_
 _atom_site_type_symbol
 _atom_site_label
 _atom_site_symmetry_multiplicity
 _atom_site_fract_x
 _atom_site_fract_y
 _atom_site_fract_z
 _atom_site_occupancy
 _atom_site_charge
  Co  Co1  1  0.720190  0.244780  0.187620  1.0  1.0292
  Co  Co2  1  0.220190  0.744780  0.187620  1.0  1.0292
  Co  Co3  1  0.279810  0.244780  0.312380  1.0  1.03
  Co  Co4  1  0.779810  0.744780  0.312380  1.0  1.03
  Co  Co5  1  0.279810  0.755220  0.812380  1.0  1.0303
  Co  Co6  1  0.779810  0.255220  0.812380  1.0  1.0303
  Co  Co7  1  0.720190  0.755220  0.687620  1.0  1.0298
  Co  Co8  1  0.220190  0.255220  0.687620  1.0  1.0298
  Co  Co9  1  0.500000  0.251670  0.250000  1.0  1.1644
  Co  Co10  1  0.000000  0.751670  0.250000  1.0  1.1644
  Co  Co11  1  0.500000  0.748330  0.750000  1.0  1.1645
  Co  Co12  1  0.000000  0.248330  0.750000  1.0  1.1645
  H  H13  1  0.376900  0.117200  0.087100  1.0  0.0884
  H  H14  1  0.320500  0.043800  0.999100  1.0  0.1146
  H  H15  1  0.648100  0.050600  0.083400  1.0  0.1158
  H  H16  1  0.431200  0.453400  0.147400  1.0  0.1135
  H  H17  1  0.378900  0.547700  0.077100  1.0  0.1206
  H  H18  1  0.613700  0.385100  0.027300  1.0  0.1205
  H  H19  1  0.832600  0.133500  0.390600  1.0  0.1167
  H  H20  1  0.861800  0.133100  0.503700  1.0  0.1021
  H  H21  1  0.654800  0.306000  0.389900  1.0  0.107
  H  H22  1  0.876900  0.617200  0.087100  1.0  0.0884
  H  H23  1  0.820500  0.543800  0.999100  1.0  0.1146
  H  H24  1  0.148100  0.550600  0.083400  1.0  0.1158
  H  H25  1  0.931200  0.953400  0.147400  1.0  0.1135
  H  H26  1  0.878900  0.047700  0.077100  1.0  0.1206
  H  H27  1  0.113700  0.885100  0.027300  1.0  0.1205
  H  H28  1  0.332600  0.633500  0.390600  1.0  0.1167
  H  H29  1  0.361800  0.633100  0.503700  1.0  0.1021
  H  H30  1  0.154800  0.806000  0.389900  1.0  0.107
  H  H31  1  0.623100  0.117200  0.412900  1.0  0.0882
  H  H32  1  0.679500  0.043800  0.500900  1.0  0.1157
  H  H33  1  0.351900  0.050600  0.416600  1.0  0.116
  H  H34  1  0.568800  0.453400  0.352600  1.0  0.1129
  H  H35  1  0.621100  0.547700  0.422900  1.0  0.1198
  H  H36  1  0.386300  0.385100  0.472700  1.0  0.12
  H  H37  1  0.167400  0.133500  0.109400  1.0  0.1169
  H  H38  1  0.138200  0.133100  0.996300  1.0  0.1023
  H  H39  1  0.345200  0.306000  0.110100  1.0  0.1068
  H  H40  1  0.123100  0.617200  0.412900  1.0  0.0882
  H  H41  1  0.179500  0.543800  0.500900  1.0  0.1157
  H  H42  1  0.851900  0.550600  0.416600  1.0  0.116
  H  H43  1  0.068800  0.953400  0.352600  1.0  0.1129
  H  H44  1  0.121100  0.047700  0.422900  1.0  0.1198
  H  H45  1  0.886300  0.885100  0.472700  1.0  0.12
  H  H46  1  0.667400  0.633500  0.109400  1.0  0.1169
  H  H47  1  0.638200  0.633100  0.996300  1.0  0.1023
  H  H48  1  0.845200  0.806000  0.110100  1.0  0.1068
  H  H49  1  0.623100  0.882800  0.912900  1.0  0.0884
  H  H50  1  0.679500  0.956200  0.000900  1.0  0.1148
  H  H51  1  0.351900  0.949400  0.916600  1.0  0.1162
  H  H52  1  0.568800  0.546600  0.852600  1.0  0.1127
  H  H53  1  0.621100  0.452300  0.922900  1.0  0.1197
  H  H54  1  0.386300  0.614900  0.972700  1.0  0.1202
  H  H55  1  0.167400  0.866500  0.609400  1.0  0.1168
  H  H56  1  0.138200  0.866900  0.496300  1.0  0.1023
  H  H57  1  0.345200  0.694000  0.610100  1.0  0.1073
  H  H58  1  0.123100  0.382800  0.912900  1.0  0.0884
  H  H59  1  0.179500  0.456200  0.000900  1.0  0.1148
  H  H60  1  0.851900  0.449400  0.916600  1.0  0.1162
  H  H61  1  0.068800  0.046600  0.852600  1.0  0.1127
  H  H62  1  0.121100  0.952300  0.922900  1.0  0.1197
  H  H63  1  0.886300  0.114900  0.972700  1.0  0.1202
  H  H64  1  0.667400  0.366500  0.609400  1.0  0.1168
  H  H65  1  0.638200  0.366900  0.496300  1.0  0.1023
  H  H66  1  0.845200  0.194000  0.610100  1.0  0.1073
  H  H67  1  0.376900  0.882800  0.587100  1.0  0.0881
  H  H68  1  0.320500  0.956200  0.499100  1.0  0.1157
  H  H69  1  0.648100  0.949400  0.583400  1.0  0.1161
  H  H70  1  0.431200  0.546600  0.647400  1.0  0.1136
  H  H71  1  0.378900  0.452300  0.577100  1.0  0.1202
  H  H72  1  0.613700  0.614900  0.527300  1.0  0.1209
  H  H73  1  0.832600  0.866500  0.890600  1.0  0.1168
  H  H74  1  0.861800  0.866900  0.003700  1.0  0.1019
  H  H75  1  0.654800  0.694000  0.889900  1.0  0.1073
  H  H76  1  0.876900  0.382800  0.587100  1.0  0.0881
  H  H77  1  0.820500  0.456200  0.499100  1.0  0.1157
  H  H78  1  0.148100  0.449400  0.583400  1.0  0.1161
  H  H79  1  0.931200  0.046600  0.647400  1.0  0.1136
  H  H80  1  0.878900  0.952300  0.577100  1.0  0.1202
  H  H81  1  0.113700  0.114900  0.527300  1.0  0.1209
  H  H82  1  0.332600  0.366500  0.890600  1.0  0.1168
  H  H83  1  0.361800  0.366900  0.003700  1.0  0.1019
  H  H84  1  0.154800  0.194000  0.889900  1.0  0.1073
  C  C85  1  0.556000  0.143990  0.147510  1.0  0.7359
  C  C86  1  0.518800  0.091020  0.092910  1.0  -0.1314
  C  C87  1  0.420600  0.088160  0.067750  1.0  -0.0222
  C  C88  1  0.387100  0.044270  0.015990  1.0  -0.1186
  C  C89  1  0.581700  0.048420  0.066180  1.0  -0.1085
  C  C90  1  0.549300  0.000890  0.012970  1.0  0.0588
  C  C91  1  0.558500  0.347030  0.139390  1.0  0.722
  C  C92  1  0.527700  0.409500  0.093230  1.0  -0.0934
  C  C93  1  0.457200  0.459090  0.107990  1.0  -0.0239
  C  C94  1  0.426200  0.514920  0.066410  1.0  -0.1322
  C  C95  1  0.566000  0.418200  0.036880  1.0  -0.1054
  C  C96  1  0.535800  0.475370  0.992840  1.0  0.0395
  C  C97  1  0.725900  0.222040  0.306570  1.0  0.6921
  C  C98  1  0.740500  0.220780  0.379830  1.0  -0.1214
  C  C99  1  0.803000  0.169020  0.414180  1.0  -0.0681
  C  C100  1  0.821300  0.169430  0.481170  1.0  -0.1093
  C  C101  1  0.698600  0.272350  0.413360  1.0  -0.0856
  C  C102  1  0.719100  0.276810  0.482870  1.0  0.0487
  C  C103  1  0.056000  0.643990  0.147510  1.0  0.7359
  C  C104  1  0.018800  0.591020  0.092910  1.0  -0.1314
  C  C105  1  0.920600  0.588160  0.067750  1.0  -0.0222
  C  C106  1  0.887100  0.544270  0.015990  1.0  -0.1186
  C  C107  1  0.081700  0.548420  0.066180  1.0  -0.1085
  C  C108  1  0.049300  0.500890  0.012970  1.0  0.0588
  C  C109  1  0.058500  0.847030  0.139390  1.0  0.722
  C  C110  1  0.027700  0.909500  0.093230  1.0  -0.0934
  C  C111  1  0.957200  0.959090  0.107990  1.0  -0.0239
  C  C112  1  0.926200  0.014920  0.066410  1.0  -0.1322
  C  C113  1  0.066000  0.918200  0.036880  1.0  -0.1054
  C  C114  1  0.035800  0.975370  0.992840  1.0  0.0395
  C  C115  1  0.225900  0.722040  0.306570  1.0  0.6921
  C  C116  1  0.240500  0.720780  0.379830  1.0  -0.1214
  C  C117  1  0.303000  0.669020  0.414180  1.0  -0.0681
  C  C118  1  0.321300  0.669430  0.481170  1.0  -0.1093
  C  C119  1  0.198600  0.772350  0.413360  1.0  -0.0856
  C  C120  1  0.219100  0.776810  0.482870  1.0  0.0487
  C  C121  1  0.444000  0.143990  0.352490  1.0  0.7358
  C  C122  1  0.481200  0.091020  0.407090  1.0  -0.1329
  C  C123  1  0.579400  0.088160  0.432250  1.0  -0.0226
  C  C124  1  0.612900  0.044270  0.484010  1.0  -0.1188
  C  C125  1  0.418300  0.048420  0.433820  1.0  -0.1111
  C  C126  1  0.450700  0.000890  0.487030  1.0  0.0592
  C  C127  1  0.441500  0.347030  0.360610  1.0  0.7224
  C  C128  1  0.472300  0.409500  0.406770  1.0  -0.0959
  C  C129  1  0.542800  0.459090  0.392010  1.0  -0.0249
  C  C130  1  0.573800  0.514920  0.433590  1.0  -0.1324
  C  C131  1  0.434000  0.418200  0.463120  1.0  -0.1054
  C  C132  1  0.464200  0.475370  0.507160  1.0  0.0397
  C  C133  1  0.274100  0.222040  0.193430  1.0  0.6917
  C  C134  1  0.259500  0.220780  0.120170  1.0  -0.1188
  C  C135  1  0.197000  0.169020  0.085820  1.0  -0.0686
  C  C136  1  0.178700  0.169430  0.018830  1.0  -0.1097
  C  C137  1  0.301400  0.272350  0.086640  1.0  -0.0848
  C  C138  1  0.280900  0.276810  0.017130  1.0  0.0485
  C  C139  1  0.944000  0.643990  0.352490  1.0  0.7358
  C  C140  1  0.981200  0.591020  0.407090  1.0  -0.1329
  C  C141  1  0.079400  0.588160  0.432250  1.0  -0.0226
  C  C142  1  0.112900  0.544270  0.484010  1.0  -0.1188
  C  C143  1  0.918300  0.548420  0.433820  1.0  -0.1111
  C  C144  1  0.950700  0.500890  0.487030  1.0  0.0592
  C  C145  1  0.941500  0.847030  0.360610  1.0  0.7224
  C  C146  1  0.972300  0.909500  0.406770  1.0  -0.0959
  C  C147  1  0.042800  0.959090  0.392010  1.0  -0.0249
  C  C148  1  0.073800  0.014920  0.433590  1.0  -0.1324
  C  C149  1  0.934000  0.918200  0.463120  1.0  -0.1054
  C  C150  1  0.964200  0.975370  0.507160  1.0  0.0397
  C  C151  1  0.774100  0.722040  0.193430  1.0  0.6917
  C  C152  1  0.759500  0.720780  0.120170  1.0  -0.1188
  C  C153  1  0.697000  0.669020  0.085820  1.0  -0.0686
  C  C154  1  0.678700  0.669430  0.018830  1.0  -0.1097
  C  C155  1  0.801400  0.772350  0.086640  1.0  -0.0848
  C  C156  1  0.780900  0.776810  0.017130  1.0  0.0485
  C  C157  1  0.444000  0.856010  0.852490  1.0  0.7357
  C  C158  1  0.481200  0.908980  0.907090  1.0  -0.1331
  C  C159  1  0.579400  0.911840  0.932250  1.0  -0.0227
  C  C160  1  0.612900  0.955730  0.984010  1.0  -0.1087
  C  C161  1  0.418300  0.951580  0.933820  1.0  -0.1113
  C  C162  1  0.450700  0.999110  0.987030  1.0  0.0591
  C  C163  1  0.441500  0.652970  0.860610  1.0  0.7233
  C  C164  1  0.472300  0.590500  0.906770  1.0  -0.0953
  C  C165  1  0.542800  0.540910  0.892010  1.0  -0.0252
  C  C166  1  0.573800  0.485080  0.933590  1.0  -0.1293
  C  C167  1  0.434000  0.581800  0.963120  1.0  -0.1044
  C  C168  1  0.464200  0.524630  0.007160  1.0  0.0404
  C  C169  1  0.274100  0.777960  0.693430  1.0  0.6915
  C  C170  1  0.259500  0.779220  0.620170  1.0  -0.1195
  C  C171  1  0.197000  0.830980  0.585820  1.0  -0.0699
  C  C172  1  0.178700  0.830570  0.518830  1.0  -0.1028
  C  C173  1  0.301400  0.727650  0.586640  1.0  -0.0831
  C  C174  1  0.280900  0.723190  0.517130  1.0  0.0484
  C  C175  1  0.944000  0.356010  0.852490  1.0  0.7357
  C  C176  1  0.981200  0.408980  0.907090  1.0  -0.1331
  C  C177  1  0.079400  0.411840  0.932250  1.0  -0.0227
  C  C178  1  0.112900  0.455730  0.984010  1.0  -0.1087
  C  C179  1  0.918300  0.451580  0.933820  1.0  -0.1113
  C  C180  1  0.950700  0.499110  0.987030  1.0  0.0591
  C  C181  1  0.941500  0.152970  0.860610  1.0  0.7233
  C  C182  1  0.972300  0.090500  0.906770  1.0  -0.0953
  C  C183  1  0.042800  0.040910  0.892010  1.0  -0.0252
  C  C184  1  0.073800  0.985080  0.933590  1.0  -0.1293
  C  C185  1  0.934000  0.081800  0.963120  1.0  -0.1044
  C  C186  1  0.964200  0.024630  0.007160  1.0  0.0404
  C  C187  1  0.774100  0.277960  0.693430  1.0  0.6915
  C  C188  1  0.759500  0.279220  0.620170  1.0  -0.1195
  C  C189  1  0.697000  0.330980  0.585820  1.0  -0.0699
  C  C190  1  0.678700  0.330570  0.518830  1.0  -0.1028
  C  C191  1  0.801400  0.227650  0.586640  1.0  -0.0831
  C  C192  1  0.780900  0.223190  0.517130  1.0  0.0484
  C  C193  1  0.556000  0.856010  0.647510  1.0  0.736
  C  C194  1  0.518800  0.908980  0.592910  1.0  -0.1311
  C  C195  1  0.420600  0.911840  0.567750  1.0  -0.023
  C  C196  1  0.387100  0.955730  0.515990  1.0  -0.1089
  C  C197  1  0.581700  0.951580  0.566180  1.0  -0.1084
  C  C198  1  0.549300  0.999110  0.512970  1.0  0.0588
  C  C199  1  0.558500  0.652970  0.639390  1.0  0.7227
  C  C200  1  0.527700  0.590500  0.593230  1.0  -0.0936
  C  C201  1  0.457200  0.540910  0.607990  1.0  -0.0248
  C  C202  1  0.426200  0.485080  0.566410  1.0  -0.1271
  C  C203  1  0.566000  0.581800  0.536880  1.0  -0.1046
  C  C204  1  0.535800  0.524630  0.492840  1.0  0.04
  C  C205  1  0.725900  0.777960  0.806570  1.0  0.6921
  C  C206  1  0.740500  0.779220  0.879830  1.0  -0.1214
  C  C207  1  0.803000  0.830980  0.914180  1.0  -0.0668
  C  C208  1  0.821300  0.830570  0.981170  1.0  -0.1026
  C  C209  1  0.698600  0.727650  0.913360  1.0  -0.0837
  C  C210  1  0.719100  0.723190  0.982870  1.0  0.0486
  C  C211  1  0.056000  0.356010  0.647510  1.0  0.736
  C  C212  1  0.018800  0.408980  0.592910  1.0  -0.1311
  C  C213  1  0.920600  0.411840  0.567750  1.0  -0.023
  C  C214  1  0.887100  0.455730  0.515990  1.0  -0.1089
  C  C215  1  0.081700  0.451580  0.566180  1.0  -0.1084
  C  C216  1  0.049300  0.499110  0.512970  1.0  0.0588
  C  C217  1  0.058500  0.152970  0.639390  1.0  0.7227
  C  C218  1  0.027700  0.090500  0.593230  1.0  -0.0936
  C  C219  1  0.957200  0.040910  0.607990  1.0  -0.0248
  C  C220  1  0.926200  0.985080  0.566410  1.0  -0.1271
  C  C221  1  0.066000  0.081800  0.536880  1.0  -0.1046
  C  C222  1  0.035800  0.024630  0.492840  1.0  0.04
  C  C223  1  0.225900  0.277960  0.806570  1.0  0.6921
  C  C224  1  0.240500  0.279220  0.879830  1.0  -0.1214
  C  C225  1  0.303000  0.330980  0.914180  1.0  -0.0668
  C  C226  1  0.321300  0.330570  0.981170  1.0  -0.1026
  C  C227  1  0.198600  0.227650  0.913360  1.0  -0.0837
  C  C228  1  0.219100  0.223190  0.982870  1.0  0.0486
  O  O229  1  0.644820  0.153940  0.156930  1.0  -0.6481
  O  O230  1  0.495670  0.173100  0.177390  1.0  -0.6082
  O  O231  1  0.632550  0.312510  0.129350  1.0  -0.6668
  O  O232  1  0.508640  0.334480  0.182600  1.0  -0.6187
  O  O233  1  0.788470  0.193290  0.277250  1.0  -0.5855
  O  O234  1  0.654840  0.256120  0.274480  1.0  -0.6688
  O  O235  1  0.144820  0.653940  0.156930  1.0  -0.6481
  O  O236  1  0.995670  0.673100  0.177390  1.0  -0.6082
  O  O237  1  0.132550  0.812510  0.129350  1.0  -0.6668
  O  O238  1  0.008640  0.834480  0.182600  1.0  -0.6187
  O  O239  1  0.288470  0.693290  0.277250  1.0  -0.5855
  O  O240  1  0.154840  0.756120  0.274480  1.0  -0.6688
  O  O241  1  0.355180  0.153940  0.343070  1.0  -0.6482
  O  O242  1  0.504330  0.173100  0.322610  1.0  -0.6106
  O  O243  1  0.367450  0.312510  0.370650  1.0  -0.669
  O  O244  1  0.491360  0.334480  0.317400  1.0  -0.6178
  O  O245  1  0.211530  0.193290  0.222750  1.0  -0.5848
  O  O246  1  0.345160  0.256120  0.225520  1.0  -0.6687
  O  O247  1  0.855180  0.653940  0.343070  1.0  -0.6482
  O  O248  1  0.004330  0.673100  0.322610  1.0  -0.6106
  O  O249  1  0.867450  0.812510  0.370650  1.0  -0.669
  O  O250  1  0.991360  0.834480  0.317400  1.0  -0.6178
  O  O251  1  0.711530  0.693290  0.222750  1.0  -0.5848
  O  O252  1  0.845160  0.756120  0.225520  1.0  -0.6687
  O  O253  1  0.355180  0.846060  0.843070  1.0  -0.6486
  O  O254  1  0.504330  0.826900  0.822610  1.0  -0.6108
  O  O255  1  0.367450  0.687490  0.870650  1.0  -0.6691
  O  O256  1  0.491360  0.665520  0.817400  1.0  -0.6192
  O  O257  1  0.211530  0.806710  0.722750  1.0  -0.5833
  O  O258  1  0.345160  0.743880  0.725520  1.0  -0.6671
  O  O259  1  0.855180  0.346060  0.843070  1.0  -0.6486
  O  O260  1  0.004330  0.326900  0.822610  1.0  -0.6108
  O  O261  1  0.867450  0.187490  0.870650  1.0  -0.6691
  O  O262  1  0.991360  0.165520  0.817400  1.0  -0.6192
  O  O263  1  0.711530  0.306710  0.722750  1.0  -0.5833
  O  O264  1  0.845160  0.243880  0.725520  1.0  -0.6671
  O  O265  1  0.644820  0.846060  0.656930  1.0  -0.6481
  O  O266  1  0.495670  0.826900  0.677390  1.0  -0.6089
  O  O267  1  0.632550  0.687490  0.629350  1.0  -0.667
  O  O268  1  0.508640  0.665520  0.682600  1.0  -0.618
  O  O269  1  0.788470  0.806710  0.777250  1.0  -0.585
  O  O270  1  0.654840  0.743880  0.774480  1.0  -0.668
  O  O271  1  0.144820  0.346060  0.656930  1.0  -0.6481
  O  O272  1  0.995670  0.326900  0.677390  1.0  -0.6089
  O  O273  1  0.132550  0.187490  0.629350  1.0  -0.667
  O  O274  1  0.008640  0.165520  0.682600  1.0  -0.618
  O  O275  1  0.288470  0.306710  0.777250  1.0  -0.585
  O  O276  1  0.154840  0.243880  0.774480  1.0  -0.668
