# generated using pymatgen
data_CoH6(C3O)4
_symmetry_space_group_name_H-M   'P 1'
_cell_length_a   11.66360000
_cell_length_b   11.66360000
_cell_length_c   20.63000000
_cell_angle_alpha   95.45010000
_cell_angle_beta   95.45010000
_cell_angle_gamma   104.59900000
_symmetry_Int_Tables_number   1
_chemical_formula_structural   CoH6(C3O)4
_chemical_formula_sum   'Co6 H36 C72 O24'
_cell_volume   2682.92832105
_cell_formula_units_Z   6
loop_
 _symmetry_equiv_pos_site_id
 _symmetry_equiv_pos_as_xyz
  1  'x, y, z'
loop_
 _atom_site_type_symbol
 _atom_site_label
 _atom_site_symmetry_multiplicity
 _atom_site_fract_x
 _atom_site_fract_y
 _atom_site_fract_z
 _atom_site_occupancy
 _atom_site_charge
  Co  Co1  1  0.027630  0.536150  0.313310  1.0  0.9825
  Co  Co2  1  0.463850  0.972370  0.186690  1.0  0.9816
  Co  Co3  1  0.972370  0.463850  0.686690  1.0  0.9828
  Co  Co4  1  0.536150  0.027630  0.813310  1.0  0.9814
  Co  Co5  1  0.251530  0.748470  0.250000  1.0  1.2212
  Co  Co6  1  0.748470  0.251530  0.750000  1.0  1.2221
  H  H7  1  0.903400  0.804200  0.417300  1.0  0.1062
  H  H8  1  0.220300  0.133500  0.500600  1.0  0.1049
  H  H9  1  0.238400  0.003200  0.414400  1.0  0.0799
  H  H10  1  0.521800  0.615800  0.353600  1.0  0.1089
  H  H11  1  0.664700  0.570300  0.421800  1.0  0.1134
  H  H12  1  0.274400  0.499800  0.472100  1.0  0.1096
  H  H13  1  0.462000  0.194400  0.390200  1.0  0.1127
  H  H14  1  0.494600  0.224200  0.502600  1.0  0.0871
  H  H15  1  0.462800  0.851000  0.390600  1.0  0.1052
  H  H16  1  0.195800  0.096600  0.082700  1.0  0.1068
  H  H17  1  0.866500  0.779700  0.999400  1.0  0.1049
  H  H18  1  0.996800  0.761600  0.085600  1.0  0.0815
  H  H19  1  0.384200  0.478200  0.146400  1.0  0.1082
  H  H20  1  0.429700  0.335300  0.078200  1.0  0.1138
  H  H21  1  0.500200  0.725600  0.027900  1.0  0.1109
  H  H22  1  0.805600  0.538000  0.109800  1.0  0.1121
  H  H23  1  0.775800  0.505400  0.997400  1.0  0.0879
  H  H24  1  0.149000  0.537200  0.109400  1.0  0.1042
  H  H25  1  0.096600  0.195800  0.582700  1.0  0.1071
  H  H26  1  0.779700  0.866500  0.499400  1.0  0.1052
  H  H27  1  0.761600  0.996800  0.585600  1.0  0.0807
  H  H28  1  0.478200  0.384200  0.646400  1.0  0.1086
  H  H29  1  0.335300  0.429700  0.578200  1.0  0.1147
  H  H30  1  0.725600  0.500200  0.527900  1.0  0.1093
  H  H31  1  0.538000  0.805600  0.609800  1.0  0.1126
  H  H32  1  0.505400  0.775800  0.497400  1.0  0.0874
  H  H33  1  0.537200  0.149000  0.609400  1.0  0.1048
  H  H34  1  0.804200  0.903400  0.917300  1.0  0.106
  H  H35  1  0.133500  0.220300  0.000600  1.0  0.1051
  H  H36  1  0.003200  0.238400  0.914400  1.0  0.0807
  H  H37  1  0.615800  0.521800  0.853600  1.0  0.1085
  H  H38  1  0.570300  0.664700  0.921800  1.0  0.1137
  H  H39  1  0.499800  0.274400  0.972100  1.0  0.1108
  H  H40  1  0.194400  0.462000  0.890200  1.0  0.1121
  H  H41  1  0.224200  0.494600  0.002600  1.0  0.0874
  H  H42  1  0.851000  0.462800  0.890600  1.0  0.1042
  C  C43  1  0.088300  0.799500  0.353700  1.0  0.7195
  C  C44  1  0.071600  0.889200  0.407300  1.0  -0.139
  C  C45  1  0.966100  0.870100  0.434100  1.0  -0.056
  C  C46  1  0.156400  0.068200  0.484300  1.0  -0.1388
  C  C47  1  0.167200  0.990000  0.432900  1.0  -0.0548
  C  C48  1  0.951300  0.949500  0.487000  1.0  0.048
  C  C49  1  0.288300  0.594100  0.360400  1.0  0.7199
  C  C50  1  0.382000  0.563600  0.406600  1.0  -0.1247
  C  C51  1  0.501700  0.583900  0.391900  1.0  -0.0445
  C  C52  1  0.587400  0.557400  0.432700  1.0  -0.1366
  C  C53  1  0.559100  0.509900  0.492300  1.0  0.037
  C  C54  1  0.353000  0.515800  0.462900  1.0  -0.0667
  C  C55  1  0.445900  0.001700  0.306500  1.0  0.6833
  C  C56  1  0.459800  0.017600  0.379600  1.0  -0.1267
  C  C57  1  0.469600  0.131600  0.413500  1.0  -0.0589
  C  C58  1  0.490100  0.149500  0.480600  1.0  -0.1106
  C  C59  1  0.471100  0.925900  0.413300  1.0  -0.0575
  C  C60  1  0.504500  0.057300  0.516500  1.0  0.0312
  C  C61  1  0.200500  0.911700  0.146300  1.0  0.7178
  C  C62  1  0.110800  0.928400  0.092700  1.0  -0.1368
  C  C63  1  0.129900  0.033900  0.065900  1.0  -0.0562
  C  C64  1  0.931800  0.843600  0.015700  1.0  -0.1388
  C  C65  1  0.010000  0.832800  0.067100  1.0  -0.0532
  C  C66  1  0.050500  0.048700  0.013000  1.0  0.0472
  C  C67  1  0.405900  0.711700  0.139600  1.0  0.7194
  C  C68  1  0.436400  0.618000  0.093400  1.0  -0.1186
  C  C69  1  0.416100  0.498300  0.108100  1.0  -0.0451
  C  C70  1  0.442600  0.412600  0.067300  1.0  -0.1335
  C  C71  1  0.490100  0.440900  0.007700  1.0  0.0388
  C  C72  1  0.484200  0.647000  0.037100  1.0  -0.0596
  C  C73  1  0.998300  0.554100  0.193500  1.0  0.6831
  C  C74  1  0.982400  0.540200  0.120400  1.0  -0.126
  C  C75  1  0.868400  0.530400  0.086500  1.0  -0.0576
  C  C76  1  0.850500  0.509900  0.019400  1.0  -0.1098
  C  C77  1  0.074100  0.528900  0.086700  1.0  -0.0577
  C  C78  1  0.942700  0.495500  0.983500  1.0  0.0311
  C  C79  1  0.911700  0.200500  0.646300  1.0  0.7201
  C  C80  1  0.928400  0.110800  0.592700  1.0  -0.1391
  C  C81  1  0.033900  0.129900  0.565900  1.0  -0.0558
  C  C82  1  0.843600  0.931800  0.515700  1.0  -0.1289
  C  C83  1  0.832800  0.010000  0.567100  1.0  -0.0523
  C  C84  1  0.048700  0.050500  0.513000  1.0  0.0478
  C  C85  1  0.711700  0.405900  0.639600  1.0  0.7183
  C  C86  1  0.618000  0.436400  0.593400  1.0  -0.1203
  C  C87  1  0.498300  0.416100  0.608100  1.0  -0.0455
  C  C88  1  0.412600  0.442600  0.567300  1.0  -0.1342
  C  C89  1  0.440900  0.490100  0.507700  1.0  0.0378
  C  C90  1  0.647000  0.484200  0.537100  1.0  -0.0669
  C  C91  1  0.554100  0.998300  0.693500  1.0  0.6829
  C  C92  1  0.540200  0.982400  0.620400  1.0  -0.1265
  C  C93  1  0.530400  0.868400  0.586500  1.0  -0.059
  C  C94  1  0.509900  0.850500  0.519400  1.0  -0.1101
  C  C95  1  0.528900  0.074100  0.586700  1.0  -0.06
  C  C96  1  0.495500  0.942700  0.483500  1.0  0.0308
  C  C97  1  0.799500  0.088300  0.853700  1.0  0.7178
  C  C98  1  0.889200  0.071600  0.907300  1.0  -0.1379
  C  C99  1  0.870100  0.966100  0.934100  1.0  -0.0555
  C  C100  1  0.068200  0.156400  0.984300  1.0  -0.1318
  C  C101  1  0.990000  0.167200  0.932900  1.0  -0.0556
  C  C102  1  0.949500  0.951300  0.987000  1.0  0.0474
  C  C103  1  0.594100  0.288300  0.860400  1.0  0.7201
  C  C104  1  0.563600  0.382000  0.906600  1.0  -0.1232
  C  C105  1  0.583900  0.501700  0.891900  1.0  -0.0437
  C  C106  1  0.557400  0.587400  0.932700  1.0  -0.1262
  C  C107  1  0.509900  0.559100  0.992300  1.0  0.0392
  C  C108  1  0.515800  0.353000  0.962900  1.0  -0.0642
  C  C109  1  0.001700  0.445900  0.806500  1.0  0.6841
  C  C110  1  0.017600  0.459800  0.879600  1.0  -0.1264
  C  C111  1  0.131600  0.469600  0.913500  1.0  -0.0577
  C  C112  1  0.149500  0.490100  0.980600  1.0  -0.1105
  C  C113  1  0.925900  0.471100  0.913300  1.0  -0.0599
  C  C114  1  0.057300  0.504500  0.016500  1.0  0.031
  O  O115  1  0.177200  0.830800  0.322500  1.0  -0.6092
  O  O116  1  0.011600  0.700600  0.345000  1.0  -0.6119
  O  O117  1  0.324800  0.656600  0.317400  1.0  -0.5879
  O  O118  1  0.182100  0.554500  0.371000  1.0  -0.6336
  O  O119  1  0.410000  0.897000  0.274650  1.0  -0.6511
  O  O120  1  0.479800  0.091400  0.276700  1.0  -0.5691
  O  O121  1  0.169200  0.822800  0.177500  1.0  -0.6091
  O  O122  1  0.299400  0.988400  0.155000  1.0  -0.6083
  O  O123  1  0.343400  0.675200  0.182600  1.0  -0.5876
  O  O124  1  0.445500  0.817900  0.129000  1.0  -0.6311
  O  O125  1  0.103000  0.590000  0.225350  1.0  -0.6506
  O  O126  1  0.908600  0.520200  0.223300  1.0  -0.571
  O  O127  1  0.822800  0.169200  0.677500  1.0  -0.6077
  O  O128  1  0.988400  0.299400  0.655000  1.0  -0.6121
  O  O129  1  0.675200  0.343400  0.682600  1.0  -0.5897
  O  O130  1  0.817900  0.445500  0.629000  1.0  -0.6327
  O  O131  1  0.590000  0.103000  0.725350  1.0  -0.6502
  O  O132  1  0.520200  0.908600  0.723300  1.0  -0.5695
  O  O133  1  0.830800  0.177200  0.822500  1.0  -0.61
  O  O134  1  0.700600  0.011600  0.845000  1.0  -0.6088
  O  O135  1  0.656600  0.324800  0.817400  1.0  -0.5886
  O  O136  1  0.554500  0.182100  0.871000  1.0  -0.6317
  O  O137  1  0.897000  0.410000  0.774650  1.0  -0.6501
  O  O138  1  0.091400  0.479800  0.776700  1.0  -0.5721
