# generated using pymatgen
data_CoH6(C3O)4
_symmetry_space_group_name_H-M   'P 1'
_cell_length_a   11.22000000
_cell_length_b   11.22000000
_cell_length_c   21.14900000
_cell_angle_alpha   95.73290000
_cell_angle_beta   95.73290000
_cell_angle_gamma   107.10700000
_symmetry_Int_Tables_number   1
_chemical_formula_structural   CoH6(C3O)4
_chemical_formula_sum   'Co6 H36 C72 O24'
_cell_volume   2508.39056032
_cell_formula_units_Z   6
loop_
 _symmetry_equiv_pos_site_id
 _symmetry_equiv_pos_as_xyz
  1  'x, y, z'
loop_
 _atom_site_type_symbol
 _atom_site_label
 _atom_site_symmetry_multiplicity
 _atom_site_fract_x
 _atom_site_fract_y
 _atom_site_fract_z
 _atom_site_occupancy
 _atom_site_charge
  Co  Co1  1  0.019880  0.505260  0.807070  1.0  0.9666
  Co  Co2  1  0.494740  0.980120  0.692930  1.0  0.9666
  Co  Co3  1  0.980120  0.494740  0.192930  1.0  0.9659
  Co  Co4  1  0.505260  0.019880  0.307070  1.0  0.9665
  Co  Co5  1  0.247160  0.752840  0.750000  1.0  1.0512
  Co  Co6  1  0.752840  0.247160  0.250000  1.0  1.0502
  H  H7  1  0.048400  0.652000  0.609100  1.0  0.1043
  H  H8  1  0.030600  0.743200  0.506400  1.0  0.0818
  H  H9  1  0.006200  0.719200  0.396900  1.0  0.1102
  H  H10  1  0.238300  0.010100  0.529500  1.0  0.1053
  H  H11  1  0.170200  0.064800  0.422800  1.0  0.1175
  H  H12  1  0.518700  0.733500  0.905400  1.0  0.0887
  H  H13  1  0.285700  0.395100  0.923000  1.0  0.104
  H  H14  1  0.343000  0.277800  0.009700  1.0  0.1068
  H  H15  1  0.982000  0.900600  0.647000  1.0  0.1105
  H  H16  1  0.348000  0.951600  0.890900  1.0  0.1034
  H  H17  1  0.256800  0.969400  0.993600  1.0  0.0822
  H  H18  1  0.280800  0.993800  0.103100  1.0  0.1105
  H  H19  1  0.989900  0.761700  0.970500  1.0  0.1073
  H  H20  1  0.935200  0.829800  0.077200  1.0  0.1173
  H  H21  1  0.266500  0.481300  0.594600  1.0  0.088
  H  H22  1  0.604900  0.714300  0.577000  1.0  0.1049
  H  H23  1  0.722200  0.657000  0.490300  1.0  0.1074
  H  H24  1  0.099400  0.018000  0.853000  1.0  0.1101
  H  H25  1  0.951600  0.348000  0.390900  1.0  0.1042
  H  H26  1  0.969400  0.256800  0.493600  1.0  0.082
  H  H27  1  0.993800  0.280800  0.603100  1.0  0.1104
  H  H28  1  0.761700  0.989900  0.470500  1.0  0.1061
  H  H29  1  0.829800  0.935200  0.577200  1.0  0.1182
  H  H30  1  0.481300  0.266500  0.094600  1.0  0.0891
  H  H31  1  0.714300  0.604900  0.077000  1.0  0.104
  H  H32  1  0.657000  0.722200  0.990300  1.0  0.1065
  H  H33  1  0.018000  0.099400  0.353000  1.0  0.1109
  H  H34  1  0.652000  0.048400  0.109100  1.0  0.1037
  H  H35  1  0.743200  0.030600  0.006400  1.0  0.0817
  H  H36  1  0.719200  0.006200  0.896900  1.0  0.1102
  H  H37  1  0.010100  0.238300  0.029500  1.0  0.1074
  H  H38  1  0.064800  0.170200  0.922800  1.0  0.1172
  H  H39  1  0.733500  0.518700  0.405400  1.0  0.0875
  H  H40  1  0.395100  0.285700  0.423000  1.0  0.1049
  H  H41  1  0.277800  0.343000  0.509700  1.0  0.1079
  H  H42  1  0.900600  0.982000  0.147000  1.0  0.1098
  C  C43  1  0.011400  0.560400  0.517730  1.0  0.0369
  C  C44  1  0.030700  0.572900  0.585490  1.0  -0.0559
  C  C45  1  0.033900  0.483500  0.688200  1.0  0.6924
  C  C46  1  0.016300  0.663900  0.483700  1.0  -0.0984
  C  C47  1  0.023700  0.471300  0.616750  1.0  -0.1239
  C  C48  1  0.000800  0.649800  0.418350  1.0  -0.0551
  C  C49  1  0.061700  0.012500  0.492000  1.0  0.0389
  C  C50  1  0.222600  0.920800  0.640030  1.0  0.7036
  C  C51  1  0.155900  0.993100  0.538300  1.0  -0.0749
  C  C52  1  0.126400  0.951000  0.593900  1.0  -0.1325
  C  C53  1  0.089500  0.051700  0.433500  1.0  -0.1321
  C  C54  1  0.444100  0.450700  0.989870  1.0  0.0406
  C  C55  1  0.500200  0.663000  0.926700  1.0  -0.0327
  C  C56  1  0.387500  0.564900  0.906340  1.0  -0.1371
  C  C57  1  0.359800  0.460400  0.936890  1.0  -0.0752
  C  C58  1  0.294400  0.576800  0.851600  1.0  0.7173
  C  C59  1  0.417200  0.343600  0.022700  1.0  -0.1332
  C  C60  1  0.002000  0.928800  0.608400  1.0  -0.0458
  C  C61  1  0.439600  0.988600  0.982270  1.0  0.0373
  C  C62  1  0.427100  0.969300  0.914510  1.0  -0.0561
  C  C63  1  0.516500  0.966100  0.811800  1.0  0.6915
  C  C64  1  0.336100  0.983700  0.016300  1.0  -0.0967
  C  C65  1  0.528700  0.976300  0.883250  1.0  -0.1218
  C  C66  1  0.350200  0.999200  0.081650  1.0  -0.0538
  C  C67  1  0.987500  0.938300  0.008000  1.0  0.0394
  C  C68  1  0.079200  0.777400  0.859970  1.0  0.7036
  C  C69  1  0.006900  0.844100  0.961700  1.0  -0.0723
  C  C70  1  0.049000  0.873600  0.906100  1.0  -0.1312
  C  C71  1  0.948300  0.910500  0.066500  1.0  -0.1311
  C  C72  1  0.549300  0.555900  0.510130  1.0  0.041
  C  C73  1  0.337000  0.499800  0.573300  1.0  -0.0306
  C  C74  1  0.435100  0.612500  0.593660  1.0  -0.1375
  C  C75  1  0.539600  0.640200  0.563110  1.0  -0.0758
  C  C76  1  0.423200  0.705600  0.648400  1.0  0.7239
  C  C77  1  0.656400  0.582800  0.477300  1.0  -0.1305
  C  C78  1  0.071200  0.998000  0.891600  1.0  -0.0434
  C  C79  1  0.988600  0.439600  0.482270  1.0  0.0371
  C  C80  1  0.969300  0.427100  0.414510  1.0  -0.0525
  C  C81  1  0.966100  0.516500  0.311800  1.0  0.6912
  C  C82  1  0.983700  0.336100  0.516300  1.0  -0.1086
  C  C83  1  0.976300  0.528700  0.383250  1.0  -0.1227
  C  C84  1  0.999200  0.350200  0.581650  1.0  -0.0555
  C  C85  1  0.938300  0.987500  0.508000  1.0  0.0376
  C  C86  1  0.777400  0.079200  0.359970  1.0  0.7038
  C  C87  1  0.844100  0.006900  0.461700  1.0  -0.0747
  C  C88  1  0.873600  0.049000  0.406100  1.0  -0.1327
  C  C89  1  0.910500  0.948300  0.566500  1.0  -0.136
  C  C90  1  0.555900  0.549300  0.010130  1.0  0.0405
  C  C91  1  0.499800  0.337000  0.073300  1.0  -0.0326
  C  C92  1  0.612500  0.435100  0.093660  1.0  -0.1359
  C  C93  1  0.640200  0.539600  0.063110  1.0  -0.0736
  C  C94  1  0.705600  0.423200  0.148400  1.0  0.719
  C  C95  1  0.582800  0.656400  0.977300  1.0  -0.133
  C  C96  1  0.998000  0.071200  0.391600  1.0  -0.0448
  C  C97  1  0.560400  0.011400  0.017730  1.0  0.037
  C  C98  1  0.572900  0.030700  0.085490  1.0  -0.0511
  C  C99  1  0.483500  0.033900  0.188200  1.0  0.6902
  C  C100  1  0.663900  0.016300  0.983700  1.0  -0.1109
  C  C101  1  0.471300  0.023700  0.116750  1.0  -0.1227
  C  C102  1  0.649800  0.000800  0.918350  1.0  -0.0554
  C  C103  1  0.012500  0.061700  0.992000  1.0  0.0403
  C  C104  1  0.920800  0.222600  0.140030  1.0  0.7038
  C  C105  1  0.993100  0.155900  0.038300  1.0  -0.0703
  C  C106  1  0.951000  0.126400  0.093900  1.0  -0.1303
  C  C107  1  0.051700  0.089500  0.933500  1.0  -0.1362
  C  C108  1  0.450700  0.444100  0.489870  1.0  0.0403
  C  C109  1  0.663000  0.500200  0.426700  1.0  -0.0305
  C  C110  1  0.564900  0.387500  0.406340  1.0  -0.1385
  C  C111  1  0.460400  0.359800  0.436890  1.0  -0.0744
  C  C112  1  0.576800  0.294400  0.351600  1.0  0.7187
  C  C113  1  0.343600  0.417200  0.522700  1.0  -0.1303
  C  C114  1  0.928800  0.002000  0.108400  1.0  -0.0452
  O  O115  1  0.077600  0.592200  0.721110  1.0  -0.6323
  O  O116  1  0.181570  0.860630  0.683660  1.0  -0.5516
  O  O117  1  0.994210  0.388190  0.714900  1.0  -0.5597
  O  O118  1  0.190650  0.491150  0.841020  1.0  -0.6219
  O  O119  1  0.328250  0.668550  0.822470  1.0  -0.5608
  O  O120  1  0.337000  0.959600  0.630340  1.0  -0.6342
  O  O121  1  0.407800  0.922400  0.778890  1.0  -0.6313
  O  O122  1  0.139370  0.818430  0.816340  1.0  -0.5546
  O  O123  1  0.611810  0.005790  0.785100  1.0  -0.5614
  O  O124  1  0.508850  0.809350  0.658980  1.0  -0.6231
  O  O125  1  0.331450  0.671750  0.677530  1.0  -0.5608
  O  O126  1  0.040400  0.663000  0.869660  1.0  -0.6309
  O  O127  1  0.922400  0.407800  0.278890  1.0  -0.6315
  O  O128  1  0.818430  0.139370  0.316340  1.0  -0.5514
  O  O129  1  0.005790  0.611810  0.285100  1.0  -0.5596
  O  O130  1  0.809350  0.508850  0.158980  1.0  -0.6202
  O  O131  1  0.671750  0.331450  0.177530  1.0  -0.5614
  O  O132  1  0.663000  0.040400  0.369660  1.0  -0.6329
  O  O133  1  0.592200  0.077600  0.221110  1.0  -0.6309
  O  O134  1  0.860630  0.181570  0.183660  1.0  -0.5513
  O  O135  1  0.388190  0.994210  0.214900  1.0  -0.5617
  O  O136  1  0.491150  0.190650  0.341020  1.0  -0.6228
  O  O137  1  0.668550  0.328250  0.322470  1.0  -0.5602
  O  O138  1  0.959600  0.337000  0.130340  1.0  -0.6319
