# generated using pymatgen
data_MnH5C11O4
_symmetry_space_group_name_H-M   'P 1'
_cell_length_a   7.45740000
_cell_length_b   12.46300000
_cell_length_c   29.45100000
_cell_angle_alpha   96.32400000
_cell_angle_beta   90.00000000
_cell_angle_gamma   90.00000000
_symmetry_Int_Tables_number   1
_chemical_formula_structural   MnH5C11O4
_chemical_formula_sum   'Mn8 H40 C88 O32'
_cell_volume   2720.56609670
_cell_formula_units_Z   8
loop_
 _symmetry_equiv_pos_site_id
 _symmetry_equiv_pos_as_xyz
  1  'x, y, z'
loop_
 _atom_site_type_symbol
 _atom_site_label
 _atom_site_symmetry_multiplicity
 _atom_site_fract_x
 _atom_site_fract_y
 _atom_site_fract_z
 _atom_site_occupancy
 _atom_site_charge
  Mn  Mn1  1  0.431860  0.484110  0.767290  1.0  1.1764
  Mn  Mn2  1  0.931860  0.515890  0.732710  1.0  1.1766
  Mn  Mn3  1  0.568140  0.515890  0.232710  1.0  1.1758
  Mn  Mn4  1  0.068140  0.484110  0.267290  1.0  1.1759
  Mn  Mn5  1  0.500000  0.000000  0.500000  1.0  1.1404
  Mn  Mn6  1  0.000000  0.000000  0.000000  1.0  1.1404
  Mn  Mn7  1  0.000000  0.000000  0.500000  1.0  1.1433
  Mn  Mn8  1  0.500000  0.000000  0.000000  1.0  1.1433
  H  H9  1  0.462000  0.359200  0.512800  1.0  0.0986
  H  H10  1  0.464600  0.535100  0.545800  1.0  0.1036
  H  H11  1  0.129300  0.454900  0.642600  1.0  0.091
  H  H12  1  0.104400  0.284700  0.605300  1.0  0.0928
  H  H13  1  0.270900  0.693100  0.557400  1.0  0.1061
  H  H14  1  0.241000  0.788800  0.712500  1.0  0.1114
  H  H15  1  0.999300  0.998700  0.631900  1.0  0.1102
  H  H16  1  0.964700  0.177600  0.660800  1.0  0.1059
  H  H17  1  0.373500  0.148300  0.746900  1.0  0.1033
  H  H18  1  0.395500  0.967000  0.720700  1.0  0.1055
  H  H19  1  0.962000  0.640800  0.987200  1.0  0.098
  H  H20  1  0.964600  0.464900  0.954200  1.0  0.1039
  H  H21  1  0.629300  0.545100  0.857400  1.0  0.0917
  H  H22  1  0.604400  0.715300  0.894700  1.0  0.0932
  H  H23  1  0.770900  0.306900  0.942600  1.0  0.1063
  H  H24  1  0.741000  0.211200  0.787500  1.0  0.1109
  H  H25  1  0.499300  0.001300  0.868100  1.0  0.1102
  H  H26  1  0.464700  0.822400  0.839200  1.0  0.1062
  H  H27  1  0.873500  0.851700  0.753100  1.0  0.103
  H  H28  1  0.895500  0.033000  0.779300  1.0  0.1057
  H  H29  1  0.538000  0.640800  0.487200  1.0  0.0978
  H  H30  1  0.535400  0.464900  0.454200  1.0  0.1035
  H  H31  1  0.870700  0.545100  0.357400  1.0  0.0913
  H  H32  1  0.895600  0.715300  0.394700  1.0  0.0931
  H  H33  1  0.729100  0.306900  0.442600  1.0  0.1063
  H  H34  1  0.759000  0.211200  0.287500  1.0  0.1106
  H  H35  1  0.000700  0.001300  0.368100  1.0  0.1103
  H  H36  1  0.035300  0.822400  0.339200  1.0  0.1065
  H  H37  1  0.626500  0.851700  0.253100  1.0  0.1028
  H  H38  1  0.604500  0.033000  0.279300  1.0  0.1059
  H  H39  1  0.038000  0.359200  0.012800  1.0  0.0982
  H  H40  1  0.035400  0.535100  0.045800  1.0  0.1036
  H  H41  1  0.370700  0.454900  0.142600  1.0  0.0906
  H  H42  1  0.395600  0.284700  0.105300  1.0  0.0932
  H  H43  1  0.229100  0.693100  0.057400  1.0  0.106
  H  H44  1  0.259000  0.788800  0.212500  1.0  0.1113
  H  H45  1  0.500700  0.998700  0.131900  1.0  0.1105
  H  H46  1  0.535300  0.177600  0.160800  1.0  0.1063
  H  H47  1  0.126500  0.148300  0.246900  1.0  0.1033
  H  H48  1  0.104500  0.967000  0.220700  1.0  0.1052
  C  C49  1  0.266400  0.190800  0.531530  1.0  0.7482
  C  C50  1  0.278300  0.303300  0.554540  1.0  -0.1423
  C  C51  1  0.389500  0.379300  0.538030  1.0  -0.0454
  C  C52  1  0.394100  0.484500  0.558450  1.0  -0.1318
  C  C53  1  0.296100  0.515600  0.597190  1.0  0.0629
  C  C54  1  0.191300  0.437000  0.615460  1.0  -0.114
  C  C55  1  0.179800  0.334400  0.593660  1.0  -0.0254
  C  C56  1  0.285500  0.630500  0.617740  1.0  0.0397
  C  C57  1  0.267100  0.712200  0.588820  1.0  -0.1161
  C  C58  1  0.243700  0.819900  0.604950  1.0  -0.092
  C  C59  1  0.230800  0.897500  0.568930  1.0  0.7301
  C  C60  1  0.232800  0.850700  0.652100  1.0  0.0241
  C  C61  1  0.249100  0.770000  0.681090  1.0  -0.0907
  C  C62  1  0.277100  0.662200  0.664710  1.0  -0.1284
  C  C63  1  0.311100  0.585100  0.699580  1.0  0.6777
  C  C64  1  0.205300  0.966100  0.671720  1.0  0.059
  C  C65  1  0.075100  0.028700  0.654950  1.0  -0.1243
  C  C66  1  0.055200  0.136400  0.672010  1.0  -0.0418
  C  C67  1  0.169900  0.182900  0.705750  1.0  -0.1564
  C  C68  1  0.297600  0.118600  0.723780  1.0  -0.0338
  C  C69  1  0.313000  0.010300  0.707550  1.0  -0.139
  C  C70  1  0.162900  0.304200  0.720230  1.0  0.7241
  C  C71  1  0.766400  0.809200  0.968470  1.0  0.7474
  C  C72  1  0.778300  0.696700  0.945460  1.0  -0.143
  C  C73  1  0.889500  0.620700  0.961970  1.0  -0.0464
  C  C74  1  0.894100  0.515500  0.941550  1.0  -0.1321
  C  C75  1  0.796100  0.484400  0.902810  1.0  0.0627
  C  C76  1  0.691300  0.563000  0.884540  1.0  -0.114
  C  C77  1  0.679800  0.665600  0.906340  1.0  -0.0257
  C  C78  1  0.785500  0.369500  0.882260  1.0  0.039
  C  C79  1  0.767100  0.287800  0.911180  1.0  -0.1136
  C  C80  1  0.743700  0.180100  0.895050  1.0  -0.0931
  C  C81  1  0.730800  0.102500  0.931070  1.0  0.7301
  C  C82  1  0.732800  0.149300  0.847900  1.0  0.0244
  C  C83  1  0.749100  0.230000  0.818910  1.0  -0.0913
  C  C84  1  0.777100  0.337800  0.835290  1.0  -0.1284
  C  C85  1  0.811100  0.414900  0.800420  1.0  0.6776
  C  C86  1  0.705300  0.033900  0.828280  1.0  0.0589
  C  C87  1  0.575100  0.971300  0.845050  1.0  -0.1248
  C  C88  1  0.555200  0.863600  0.827990  1.0  -0.0425
  C  C89  1  0.669900  0.817100  0.794250  1.0  -0.1561
  C  C90  1  0.797600  0.881400  0.776220  1.0  -0.0327
  C  C91  1  0.813000  0.989700  0.792450  1.0  -0.1383
  C  C92  1  0.662900  0.695800  0.779770  1.0  0.7246
  C  C93  1  0.733600  0.809200  0.468470  1.0  0.7472
  C  C94  1  0.721700  0.696700  0.445460  1.0  -0.1431
  C  C95  1  0.610500  0.620700  0.461970  1.0  -0.0449
  C  C96  1  0.605900  0.515500  0.441550  1.0  -0.1316
  C  C97  1  0.703900  0.484400  0.402810  1.0  0.0624
  C  C98  1  0.808700  0.563000  0.384540  1.0  -0.1143
  C  C99  1  0.820200  0.665600  0.406340  1.0  -0.026
  C  C100  1  0.714500  0.369500  0.382260  1.0  0.039
  C  C101  1  0.732900  0.287800  0.411180  1.0  -0.1133
  C  C102  1  0.756300  0.180100  0.395050  1.0  -0.0931
  C  C103  1  0.769200  0.102500  0.431070  1.0  0.7299
  C  C104  1  0.767200  0.149300  0.347900  1.0  0.0244
  C  C105  1  0.750900  0.230000  0.318910  1.0  -0.0911
  C  C106  1  0.722900  0.337800  0.335290  1.0  -0.1284
  C  C107  1  0.688900  0.414900  0.300420  1.0  0.6772
  C  C108  1  0.794700  0.033900  0.328280  1.0  0.0588
  C  C109  1  0.924900  0.971300  0.345050  1.0  -0.1262
  C  C110  1  0.944800  0.863600  0.327990  1.0  -0.0427
  C  C111  1  0.830100  0.817100  0.294250  1.0  -0.1567
  C  C112  1  0.702400  0.881400  0.276220  1.0  -0.0327
  C  C113  1  0.687000  0.989700  0.292450  1.0  -0.138
  C  C114  1  0.837100  0.695800  0.279770  1.0  0.7243
  C  C115  1  0.233600  0.190800  0.031530  1.0  0.748
  C  C116  1  0.221700  0.303300  0.054540  1.0  -0.1424
  C  C117  1  0.110500  0.379300  0.038030  1.0  -0.0438
  C  C118  1  0.105900  0.484500  0.058450  1.0  -0.1314
  C  C119  1  0.203900  0.515600  0.097190  1.0  0.0627
  C  C120  1  0.308700  0.437000  0.115460  1.0  -0.1144
  C  C121  1  0.320200  0.334400  0.093660  1.0  -0.0257
  C  C122  1  0.214500  0.630500  0.117740  1.0  0.0396
  C  C123  1  0.232900  0.712200  0.088820  1.0  -0.116
  C  C124  1  0.256300  0.819900  0.104950  1.0  -0.092
  C  C125  1  0.269200  0.897500  0.068930  1.0  0.73
  C  C126  1  0.267200  0.850700  0.152100  1.0  0.0241
  C  C127  1  0.250900  0.770000  0.181090  1.0  -0.0903
  C  C128  1  0.222900  0.662200  0.164710  1.0  -0.1284
  C  C129  1  0.188900  0.585100  0.199580  1.0  0.6769
  C  C130  1  0.294700  0.966100  0.171720  1.0  0.0588
  C  C131  1  0.424900  0.028700  0.154950  1.0  -0.1251
  C  C132  1  0.444800  0.136400  0.172010  1.0  -0.0422
  C  C133  1  0.330100  0.182900  0.205750  1.0  -0.1568
  C  C134  1  0.202400  0.118600  0.223780  1.0  -0.0334
  C  C135  1  0.187000  0.010300  0.207550  1.0  -0.1387
  C  C136  1  0.337100  0.304200  0.220230  1.0  0.7239
  O  O137  1  0.400700  0.156200  0.508500  1.0  -0.6343
  O  O138  1  0.124800  0.139500  0.535980  1.0  -0.631
  O  O139  1  0.369600  0.948400  0.560810  1.0  -0.6416
  O  O140  1  0.082300  0.899200  0.548960  1.0  -0.6202
  O  O141  1  0.200500  0.582040  0.732410  1.0  -0.6814
  O  O142  1  0.453400  0.533500  0.697560  1.0  -0.5566
  O  O143  1  0.029300  0.355100  0.708250  1.0  -0.621
  O  O144  1  0.294600  0.342200  0.743040  1.0  -0.6443
  O  O145  1  0.900700  0.843800  0.991500  1.0  -0.6347
  O  O146  1  0.624800  0.860500  0.964020  1.0  -0.6306
  O  O147  1  0.869600  0.051600  0.939190  1.0  -0.6428
  O  O148  1  0.582300  0.100800  0.951040  1.0  -0.6201
  O  O149  1  0.700500  0.417960  0.767590  1.0  -0.6806
  O  O150  1  0.953400  0.466500  0.802440  1.0  -0.5568
  O  O151  1  0.529300  0.644900  0.791750  1.0  -0.6209
  O  O152  1  0.794600  0.657800  0.756960  1.0  -0.6446
  O  O153  1  0.599300  0.843800  0.491500  1.0  -0.6355
  O  O154  1  0.875200  0.860500  0.464020  1.0  -0.6302
  O  O155  1  0.630400  0.051600  0.439190  1.0  -0.6409
  O  O156  1  0.917700  0.100800  0.451040  1.0  -0.6198
  O  O157  1  0.799500  0.417960  0.267590  1.0  -0.68
  O  O158  1  0.546600  0.466500  0.302440  1.0  -0.5564
  O  O159  1  0.970700  0.644900  0.291750  1.0  -0.6211
  O  O160  1  0.705400  0.657800  0.256960  1.0  -0.6446
  O  O161  1  0.099300  0.156200  0.008500  1.0  -0.6346
  O  O162  1  0.375200  0.139500  0.035980  1.0  -0.6306
  O  O163  1  0.130400  0.948400  0.060810  1.0  -0.6399
  O  O164  1  0.417700  0.899200  0.048960  1.0  -0.6202
  O  O165  1  0.299500  0.582040  0.232410  1.0  -0.6804
  O  O166  1  0.046600  0.533500  0.197560  1.0  -0.5563
  O  O167  1  0.470700  0.355100  0.208250  1.0  -0.6212
  O  O168  1  0.205400  0.342200  0.243040  1.0  -0.6442
