# generated using pymatgen
data_Mn2H13C24NO9
_symmetry_space_group_name_H-M   'P 1'
_cell_length_a   12.64600000
_cell_length_b   14.83400000
_cell_length_c   16.05210000
_cell_angle_alpha   90.00000000
_cell_angle_beta   98.12630000
_cell_angle_gamma   90.00000000
_symmetry_Int_Tables_number   1
_chemical_formula_structural   Mn2H13C24NO9
_chemical_formula_sum   'Mn8 H52 C96 N4 O36'
_cell_volume   2980.98961427
_cell_formula_units_Z   4
loop_
 _symmetry_equiv_pos_site_id
 _symmetry_equiv_pos_as_xyz
  1  'x, y, z'
loop_
 _atom_site_type_symbol
 _atom_site_label
 _atom_site_symmetry_multiplicity
 _atom_site_fract_x
 _atom_site_fract_y
 _atom_site_fract_z
 _atom_site_occupancy
 _atom_site_charge
  Mn  Mn1  1  0.022490  0.248710  0.015300  1.0  1.0996
  Mn  Mn2  1  0.477510  0.748710  0.484700  1.0  1.1003
  Mn  Mn3  1  0.977510  0.751290  0.984700  1.0  1.1
  Mn  Mn4  1  0.522490  0.251290  0.515300  1.0  1.0989
  Mn  Mn5  1  0.000000  0.000000  0.000000  1.0  0.9759
  Mn  Mn6  1  0.500000  0.500000  0.500000  1.0  0.9759
  Mn  Mn7  1  0.000000  0.500000  0.000000  1.0  1.1145
  Mn  Mn8  1  0.500000  0.000000  0.500000  1.0  1.1145
  H  H9  1  0.718700  0.054700  0.808700  1.0  0.0752
  H  H10  1  0.544700  0.052900  0.746100  1.0  0.1079
  H  H11  1  0.472300  0.245900  0.904900  1.0  0.1198
  H  H12  1  0.652600  0.254200  0.961300  1.0  0.1028
  H  H13  1  0.207500  0.111100  0.614600  1.0  0.1032
  H  H14  1  0.320900  0.140100  0.897500  1.0  0.105
  H  H15  1  0.050900  0.016900  0.602800  1.0  0.1064
  H  H16  1  0.875800  0.010500  0.543800  1.0  0.1047
  H  H17  1  0.807400  0.203800  0.704600  1.0  0.0878
  H  H18  1  0.980900  0.201300  0.767400  1.0  0.0969
  H  H19  1  0.265900  0.066100  0.298200  1.0  0.118
  H  H20  1  0.260700  0.171700  0.297600  1.0  0.1178
  H  H21  1  0.338900  0.121600  0.245700  1.0  0.1272
  H  H22  1  0.781300  0.554700  0.691300  1.0  0.0744
  H  H23  1  0.955300  0.552900  0.753900  1.0  0.1071
  H  H24  1  0.027700  0.745900  0.595100  1.0  0.1194
  H  H25  1  0.847400  0.754200  0.538700  1.0  0.1026
  H  H26  1  0.292500  0.611100  0.885400  1.0  0.1034
  H  H27  1  0.179100  0.640100  0.602500  1.0  0.1059
  H  H28  1  0.449100  0.516900  0.897200  1.0  0.1063
  H  H29  1  0.624200  0.510500  0.956200  1.0  0.1049
  H  H30  1  0.692600  0.703800  0.795400  1.0  0.0879
  H  H31  1  0.519100  0.701300  0.732600  1.0  0.0972
  H  H32  1  0.234100  0.566100  0.201800  1.0  0.1182
  H  H33  1  0.239300  0.671700  0.202400  1.0  0.1184
  H  H34  1  0.161100  0.621600  0.254300  1.0  0.1268
  H  H35  1  0.281300  0.945300  0.191300  1.0  0.0748
  H  H36  1  0.455300  0.947100  0.253900  1.0  0.107
  H  H37  1  0.527700  0.754100  0.095100  1.0  0.1192
  H  H38  1  0.347400  0.745800  0.038700  1.0  0.1031
  H  H39  1  0.792500  0.888900  0.385400  1.0  0.1033
  H  H40  1  0.679100  0.859900  0.102500  1.0  0.1058
  H  H41  1  0.949100  0.983100  0.397200  1.0  0.1066
  H  H42  1  0.124200  0.989500  0.456200  1.0  0.1045
  H  H43  1  0.192600  0.796200  0.295400  1.0  0.088
  H  H44  1  0.019100  0.798700  0.232600  1.0  0.0963
  H  H45  1  0.734100  0.933900  0.701800  1.0  0.1188
  H  H46  1  0.739300  0.828300  0.702400  1.0  0.118
  H  H47  1  0.661100  0.878400  0.754300  1.0  0.1268
  H  H48  1  0.218700  0.445300  0.308700  1.0  0.0753
  H  H49  1  0.044700  0.447100  0.246100  1.0  0.1083
  H  H50  1  0.972300  0.254100  0.404900  1.0  0.1195
  H  H51  1  0.152600  0.245800  0.461300  1.0  0.1034
  H  H52  1  0.707500  0.388900  0.114600  1.0  0.1031
  H  H53  1  0.820900  0.359900  0.397500  1.0  0.105
  H  H54  1  0.550900  0.483100  0.102800  1.0  0.1066
  H  H55  1  0.375800  0.489500  0.043800  1.0  0.1046
  H  H56  1  0.307400  0.296200  0.204600  1.0  0.0878
  H  H57  1  0.480900  0.298700  0.267400  1.0  0.0965
  H  H58  1  0.765900  0.433900  0.798200  1.0  0.1178
  H  H59  1  0.760700  0.328300  0.797600  1.0  0.118
  H  H60  1  0.838900  0.378400  0.745700  1.0  0.127
  C  C61  1  0.820000  0.150100  0.935600  1.0  0.7287
  C  C62  1  0.705100  0.153700  0.892600  1.0  -0.1461
  C  C63  1  0.670000  0.093900  0.827800  1.0  -0.0525
  C  C64  1  0.565400  0.091300  0.791200  1.0  -0.128
  C  C65  1  0.489500  0.146600  0.821600  1.0  0.0511
  C  C66  1  0.521800  0.207900  0.885200  1.0  -0.1329
  C  C67  1  0.630300  0.212000  0.919700  1.0  -0.0493
  C  C68  1  0.371900  0.138700  0.786000  1.0  0.0301
  C  C69  1  0.336300  0.129300  0.699500  1.0  -0.1072
  C  C70  1  0.409300  0.133700  0.632600  1.0  0.7201
  C  C71  1  0.229800  0.118300  0.672000  1.0  -0.0947
  C  C72  1  0.152500  0.117600  0.727100  1.0  0.021
  C  C73  1  0.188300  0.126600  0.813900  1.0  -0.1002
  C  C74  1  0.113900  0.122700  0.880400  1.0  0.7112
  C  C75  1  0.297300  0.135800  0.840100  1.0  -0.1004
  C  C76  1  0.034600  0.112400  0.691000  1.0  0.0527
  C  C77  1  0.001100  0.053600  0.623600  1.0  -0.1342
  C  C78  1  0.896800  0.049800  0.588300  1.0  -0.0589
  C  C79  1  0.820600  0.105100  0.619000  1.0  -0.1357
  C  C80  1  0.855500  0.164400  0.685100  1.0  -0.0582
  C  C81  1  0.960100  0.164500  0.721000  1.0  -0.1254
  C  C82  1  0.703800  0.107800  0.578200  1.0  0.7279
  C  C83  1  0.150100  0.116300  0.134700  1.0  0.6433
  C  C84  1  0.270300  0.119200  0.264600  1.0  -0.1169
  C  C85  1  0.680000  0.650100  0.564400  1.0  0.73
  C  C86  1  0.794900  0.653700  0.607400  1.0  -0.1448
  C  C87  1  0.830000  0.593900  0.672200  1.0  -0.0512
  C  C88  1  0.934600  0.591300  0.708800  1.0  -0.1285
  C  C89  1  0.010500  0.646600  0.678400  1.0  0.0507
  C  C90  1  0.978200  0.707900  0.614800  1.0  -0.1354
  C  C91  1  0.869700  0.712000  0.580300  1.0  -0.0499
  C  C92  1  0.128100  0.638700  0.714000  1.0  0.0303
  C  C93  1  0.163700  0.629300  0.800500  1.0  -0.1074
  C  C94  1  0.090700  0.633700  0.867400  1.0  0.7211
  C  C95  1  0.270200  0.618300  0.828000  1.0  -0.0944
  C  C96  1  0.347500  0.617600  0.772900  1.0  0.0202
  C  C97  1  0.311700  0.626600  0.686100  1.0  -0.0997
  C  C98  1  0.386100  0.622700  0.619600  1.0  0.7109
  C  C99  1  0.202700  0.635800  0.659900  1.0  -0.1002
  C  C100  1  0.465400  0.612400  0.809000  1.0  0.0519
  C  C101  1  0.498900  0.553600  0.876400  1.0  -0.1341
  C  C102  1  0.603200  0.549800  0.911700  1.0  -0.0582
  C  C103  1  0.679400  0.605100  0.881000  1.0  -0.1368
  C  C104  1  0.644500  0.664400  0.814900  1.0  -0.0599
  C  C105  1  0.539900  0.664500  0.779000  1.0  -0.1254
  C  C106  1  0.796200  0.607800  0.921800  1.0  0.7264
  C  C107  1  0.349900  0.616300  0.365300  1.0  0.6477
  C  C108  1  0.229700  0.619200  0.235400  1.0  -0.1176
  C  C109  1  0.180000  0.849900  0.064400  1.0  0.7299
  C  C110  1  0.294900  0.846300  0.107400  1.0  -0.1445
  C  C111  1  0.330000  0.906100  0.172200  1.0  -0.0519
  C  C112  1  0.434600  0.908700  0.208800  1.0  -0.1297
  C  C113  1  0.510500  0.853400  0.178400  1.0  0.0505
  C  C114  1  0.478200  0.792100  0.114800  1.0  -0.1351
  C  C115  1  0.369700  0.788000  0.080300  1.0  -0.0495
  C  C116  1  0.628100  0.861300  0.214000  1.0  0.0302
  C  C117  1  0.663700  0.870700  0.300500  1.0  -0.1074
  C  C118  1  0.590700  0.866300  0.367400  1.0  0.721
  C  C119  1  0.770200  0.881700  0.328000  1.0  -0.0945
  C  C120  1  0.847500  0.882400  0.272900  1.0  0.0205
  C  C121  1  0.811700  0.873400  0.186100  1.0  -0.0997
  C  C122  1  0.886100  0.877300  0.119600  1.0  0.7112
  C  C123  1  0.702700  0.864200  0.159900  1.0  -0.1003
  C  C124  1  0.965400  0.887600  0.309000  1.0  0.0519
  C  C125  1  0.998900  0.946400  0.376400  1.0  -0.1354
  C  C126  1  0.103200  0.950200  0.411700  1.0  -0.0589
  C  C127  1  0.179400  0.894900  0.381000  1.0  -0.1371
  C  C128  1  0.144500  0.835600  0.314900  1.0  -0.0598
  C  C129  1  0.039900  0.835500  0.279000  1.0  -0.1245
  C  C130  1  0.296200  0.892200  0.421800  1.0  0.7266
  C  C131  1  0.849900  0.883700  0.865300  1.0  0.6479
  C  C132  1  0.729700  0.880800  0.735400  1.0  -0.1157
  C  C133  1  0.320000  0.349900  0.435600  1.0  0.7286
  C  C134  1  0.205100  0.346300  0.392600  1.0  -0.1458
  C  C135  1  0.170000  0.406100  0.327800  1.0  -0.0528
  C  C136  1  0.065400  0.408700  0.291200  1.0  -0.129
  C  C137  1  0.989500  0.353400  0.321600  1.0  0.051
  C  C138  1  0.021800  0.292100  0.385200  1.0  -0.1311
  C  C139  1  0.130300  0.288000  0.419700  1.0  -0.0491
  C  C140  1  0.871900  0.361300  0.286000  1.0  0.0299
  C  C141  1  0.836300  0.370700  0.199500  1.0  -0.1072
  C  C142  1  0.909300  0.366300  0.132600  1.0  0.7198
  C  C143  1  0.729800  0.381700  0.172000  1.0  -0.0948
  C  C144  1  0.652500  0.382400  0.227100  1.0  0.0211
  C  C145  1  0.688300  0.373400  0.313900  1.0  -0.1003
  C  C146  1  0.613900  0.377300  0.380400  1.0  0.7111
  C  C147  1  0.797300  0.364200  0.340100  1.0  -0.1002
  C  C148  1  0.534600  0.387600  0.191000  1.0  0.0527
  C  C149  1  0.501100  0.446400  0.123600  1.0  -0.135
  C  C150  1  0.396800  0.450200  0.088300  1.0  -0.0599
  C  C151  1  0.320600  0.394900  0.119000  1.0  -0.1357
  C  C152  1  0.355500  0.335600  0.185100  1.0  -0.0579
  C  C153  1  0.460100  0.335500  0.221000  1.0  -0.1242
  C  C154  1  0.203800  0.392200  0.078200  1.0  0.7281
  C  C155  1  0.650100  0.383700  0.634700  1.0  0.6434
  C  C156  1  0.770300  0.380800  0.764600  1.0  -0.1178
  N  N157  1  0.187900  0.116200  0.192800  1.0  -0.1747
  N  N158  1  0.312100  0.616200  0.307200  1.0  -0.1754
  N  N159  1  0.812100  0.883800  0.807200  1.0  -0.1756
  N  N160  1  0.687900  0.383800  0.692800  1.0  -0.175
  O  O161  1  0.860700  0.224300  0.958800  1.0  -0.6212
  O  O162  1  0.860500  0.075300  0.945500  1.0  -0.5836
  O  O163  1  0.454400  0.208100  0.623400  1.0  -0.6086
  O  O164  1  0.418700  0.064500  0.590100  1.0  -0.661
  O  O165  1  0.096200  0.195900  0.913900  1.0  -0.6415
  O  O166  1  0.080900  0.046800  0.898700  1.0  -0.5779
  O  O167  1  0.660000  0.035100  0.559300  1.0  -0.6211
  O  O168  1  0.665000  0.185200  0.566700  1.0  -0.6392
  O  O169  1  0.072000  0.117800  0.079500  1.0  -0.5333
  O  O170  1  0.639300  0.724300  0.541200  1.0  -0.6202
  O  O171  1  0.639500  0.575300  0.554500  1.0  -0.583
  O  O172  1  0.045600  0.708100  0.876600  1.0  -0.6077
  O  O173  1  0.081300  0.564500  0.909900  1.0  -0.6606
  O  O174  1  0.403800  0.695900  0.586100  1.0  -0.6417
  O  O175  1  0.419100  0.546800  0.601300  1.0  -0.5784
  O  O176  1  0.840000  0.535100  0.940700  1.0  -0.6214
  O  O177  1  0.835000  0.685200  0.933300  1.0  -0.6391
  O  O178  1  0.428000  0.617800  0.420500  1.0  -0.5338
  O  O179  1  0.139300  0.775700  0.041200  1.0  -0.6227
  O  O180  1  0.139500  0.924700  0.054500  1.0  -0.5834
  O  O181  1  0.545600  0.791900  0.376600  1.0  -0.6068
  O  O182  1  0.581300  0.935500  0.409900  1.0  -0.6613
  O  O183  1  0.903800  0.804100  0.086100  1.0  -0.6399
  O  O184  1  0.919100  0.953200  0.101300  1.0  -0.579
  O  O185  1  0.340000  0.964900  0.440700  1.0  -0.6229
  O  O186  1  0.335000  0.814800  0.433300  1.0  -0.6398
  O  O187  1  0.928000  0.882200  0.920500  1.0  -0.5339
  O  O188  1  0.360700  0.275700  0.458800  1.0  -0.6223
  O  O189  1  0.360500  0.424700  0.445500  1.0  -0.5839
  O  O190  1  0.954400  0.291900  0.123400  1.0  -0.607
  O  O191  1  0.918700  0.435500  0.090100  1.0  -0.6607
  O  O192  1  0.596200  0.304100  0.413900  1.0  -0.6404
  O  O193  1  0.580900  0.453200  0.398700  1.0  -0.5779
  O  O194  1  0.160000  0.464900  0.059300  1.0  -0.622
  O  O195  1  0.165000  0.314800  0.066700  1.0  -0.6399
  O  O196  1  0.572000  0.382200  0.579500  1.0  -0.5334
