# generated using pymatgen
data_Zn2H36(C5N2)9
_symmetry_space_group_name_H-M   'P 1'
_cell_length_a   21.70300000
_cell_length_b   20.06200000
_cell_length_c   22.12100000
_cell_angle_alpha   90.00000000
_cell_angle_beta   108.79900000
_cell_angle_gamma   90.00000000
_symmetry_Int_Tables_number   1
_chemical_formula_structural   Zn2H36(C5N2)9
_chemical_formula_sum   'Zn8 H144 C180 N72'
_cell_volume   9117.80778242
_cell_formula_units_Z   4
loop_
 _symmetry_equiv_pos_site_id
 _symmetry_equiv_pos_as_xyz
  1  'x, y, z'
loop_
 _atom_site_type_symbol
 _atom_site_label
 _atom_site_symmetry_multiplicity
 _atom_site_fract_x
 _atom_site_fract_y
 _atom_site_fract_z
 _atom_site_occupancy
 _atom_site_charge
  Zn  Zn1  1  0.139370  0.662550  0.944140  1.0  0.7887
  Zn  Zn2  1  0.602020  0.862190  0.740170  1.0  0.703
  Zn  Zn3  1  0.860630  0.162550  0.555860  1.0  0.7886
  Zn  Zn4  1  0.397980  0.362190  0.759820  1.0  0.7033
  Zn  Zn5  1  0.860630  0.337450  0.055860  1.0  0.7881
  Zn  Zn6  1  0.397980  0.137810  0.259820  1.0  0.7031
  Zn  Zn7  1  0.139370  0.837450  0.444140  1.0  0.7878
  Zn  Zn8  1  0.602020  0.637810  0.240170  1.0  0.7029
  H  H9  1  0.300700  0.438700  0.942000  1.0  0.0989
  H  H10  1  0.338200  0.250300  0.015200  1.0  0.0969
  H  H11  1  0.260700  0.389600  0.103600  1.0  0.0991
  H  H12  1  0.198700  0.510800  0.936500  1.0  0.0729
  H  H13  1  0.235300  0.619600  0.093800  1.0  0.0746
  H  H14  1  0.295500  0.514200  0.124600  1.0  0.0968
  H  H15  1  0.375300  0.409100  0.890700  1.0  0.0782
  H  H16  1  0.368900  0.226900  0.817800  1.0  0.0793
  H  H17  1  0.328400  0.218500  0.909700  1.0  0.0908
  H  H18  1  0.389300  0.222700  0.135100  1.0  0.0776
  H  H19  1  0.253200  0.196500  0.217500  1.0  0.071
  H  H20  1  0.210000  0.279800  0.131600  1.0  0.0935
  H  H21  1  0.010200  0.557700  0.096400  1.0  0.0958
  H  H22  1  0.983800  0.571800  0.269800  1.0  0.0962
  H  H23  1  0.073700  0.722000  0.207000  1.0  0.0929
  H  H24  1  0.096600  0.594900  0.054000  1.0  0.0708
  H  H25  1  0.093900  0.788800  0.015400  1.0  0.0797
  H  H26  1  0.048600  0.775100  0.103300  1.0  0.0924
  H  H27  1  0.929900  0.478800  0.075600  1.0  0.0676
  H  H28  1  0.908300  0.360000  0.210700  1.0  0.0767
  H  H29  1  0.970500  0.457700  0.264900  1.0  0.0897
  H  H30  1  0.129400  0.725900  0.328900  1.0  0.0744
  H  H31  1  0.993700  0.754800  0.410100  1.0  0.0804
  H  H32  1  0.946900  0.679400  0.318200  1.0  0.0934
  H  H33  1  0.359100  0.798900  0.836200  1.0  0.0989
  H  H34  1  0.418200  0.673600  0.719900  1.0  0.0992
  H  H35  1  0.306300  0.602700  0.822300  1.0  0.0975
  H  H36  1  0.220800  0.642600  0.852800  1.0  0.0709
  H  H37  1  0.257400  0.778200  0.990500  1.0  0.0782
  H  H38  1  0.340600  0.792100  0.938500  1.0  0.0953
  H  H39  1  0.513500  0.747100  0.760500  1.0  0.0757
  H  H40  1  0.466000  0.939000  0.729600  1.0  0.081
  H  H41  1  0.373500  0.882200  0.749100  1.0  0.0949
  H  H42  1  0.376600  0.504100  0.818700  1.0  0.0842
  H  H43  1  0.378600  0.459200  0.644200  1.0  0.0804
  H  H44  1  0.359000  0.580700  0.647200  1.0  0.0926
  H  H45  1  0.699300  0.938700  0.558000  1.0  0.0994
  H  H46  1  0.661800  0.750300  0.484800  1.0  0.0974
  H  H47  1  0.739300  0.889600  0.396400  1.0  0.0997
  H  H48  1  0.801300  0.010800  0.563500  1.0  0.0722
  H  H49  1  0.764700  0.119600  0.406200  1.0  0.0759
  H  H50  1  0.704500  0.014200  0.375400  1.0  0.097
  H  H51  1  0.624700  0.909100  0.609300  1.0  0.0781
  H  H52  1  0.631100  0.726900  0.682200  1.0  0.0794
  H  H53  1  0.671600  0.718500  0.590300  1.0  0.0901
  H  H54  1  0.610700  0.722700  0.364900  1.0  0.0784
  H  H55  1  0.746800  0.696500  0.282500  1.0  0.0703
  H  H56  1  0.790000  0.779800  0.368400  1.0  0.0944
  H  H57  1  0.989800  0.057700  0.403600  1.0  0.096
  H  H58  1  0.016200  0.071800  0.230200  1.0  0.0959
  H  H59  1  0.926300  0.222000  0.293000  1.0  0.0933
  H  H60  1  0.903400  0.094900  0.446000  1.0  0.071
  H  H61  1  0.906100  0.288800  0.484600  1.0  0.0798
  H  H62  1  0.951400  0.275100  0.396700  1.0  0.092
  H  H63  1  0.070100  0.978800  0.424400  1.0  0.0669
  H  H64  1  0.091700  0.860000  0.289300  1.0  0.0782
  H  H65  1  0.029500  0.957700  0.235100  1.0  0.089
  H  H66  1  0.870600  0.225900  0.171100  1.0  0.0742
  H  H67  1  0.006300  0.254800  0.089900  1.0  0.0808
  H  H68  1  0.053100  0.179400  0.181800  1.0  0.0922
  H  H69  1  0.640900  0.298900  0.663800  1.0  0.0991
  H  H70  1  0.581800  0.173600  0.780100  1.0  0.0993
  H  H71  1  0.693700  0.102700  0.677700  1.0  0.0981
  H  H72  1  0.779200  0.142600  0.647200  1.0  0.0708
  H  H73  1  0.742600  0.278200  0.509500  1.0  0.0783
  H  H74  1  0.659400  0.292100  0.561500  1.0  0.0958
  H  H75  1  0.486500  0.247100  0.739500  1.0  0.0751
  H  H76  1  0.534000  0.439000  0.770400  1.0  0.0812
  H  H77  1  0.626500  0.382200  0.750900  1.0  0.0948
  H  H78  1  0.623400  0.004100  0.681300  1.0  0.0842
  H  H79  1  0.621400  0.959200  0.855800  1.0  0.0811
  H  H80  1  0.641000  0.080700  0.852800  1.0  0.0918
  H  H81  1  0.699300  0.561300  0.058000  1.0  0.0998
  H  H82  1  0.661800  0.749700  0.984800  1.0  0.0973
  H  H83  1  0.739300  0.610400  0.896400  1.0  0.0998
  H  H84  1  0.801300  0.489200  0.063500  1.0  0.072
  H  H85  1  0.764700  0.380400  0.906200  1.0  0.0753
  H  H86  1  0.704500  0.485800  0.875400  1.0  0.0971
  H  H87  1  0.624700  0.590900  0.109300  1.0  0.0779
  H  H88  1  0.631100  0.773100  0.182200  1.0  0.0796
  H  H89  1  0.671600  0.781500  0.090300  1.0  0.0902
  H  H90  1  0.610700  0.777300  0.864900  1.0  0.0784
  H  H91  1  0.746800  0.803500  0.782500  1.0  0.0697
  H  H92  1  0.790000  0.720200  0.868400  1.0  0.0939
  H  H93  1  0.989800  0.442300  0.903600  1.0  0.0961
  H  H94  1  0.016200  0.428200  0.730200  1.0  0.0961
  H  H95  1  0.926300  0.278000  0.793000  1.0  0.0928
  H  H96  1  0.903400  0.405100  0.946000  1.0  0.071
  H  H97  1  0.906100  0.211200  0.984600  1.0  0.0797
  H  H98  1  0.951400  0.224900  0.896700  1.0  0.0915
  H  H99  1  0.070100  0.521200  0.924400  1.0  0.0687
  H  H100  1  0.091700  0.640000  0.789300  1.0  0.0781
  H  H101  1  0.029500  0.542300  0.735100  1.0  0.0889
  H  H102  1  0.870600  0.274100  0.671100  1.0  0.0746
  H  H103  1  0.006300  0.245200  0.589900  1.0  0.0809
  H  H104  1  0.053100  0.320600  0.681800  1.0  0.0923
  H  H105  1  0.640900  0.201100  0.163800  1.0  0.0987
  H  H106  1  0.581800  0.326400  0.280100  1.0  0.0992
  H  H107  1  0.693700  0.397300  0.177700  1.0  0.0983
  H  H108  1  0.779200  0.357400  0.147200  1.0  0.0706
  H  H109  1  0.742600  0.221800  0.009500  1.0  0.0783
  H  H110  1  0.659400  0.207900  0.061500  1.0  0.0951
  H  H111  1  0.486500  0.252900  0.239500  1.0  0.0757
  H  H112  1  0.534000  0.061000  0.270400  1.0  0.0808
  H  H113  1  0.626500  0.117800  0.250900  1.0  0.0948
  H  H114  1  0.623400  0.495900  0.181300  1.0  0.0841
  H  H115  1  0.621400  0.540800  0.355800  1.0  0.0806
  H  H116  1  0.641000  0.419300  0.352800  1.0  0.0916
  H  H117  1  0.300700  0.061300  0.442000  1.0  0.0992
  H  H118  1  0.338200  0.249700  0.515200  1.0  0.0969
  H  H119  1  0.260700  0.110400  0.603600  1.0  0.0993
  H  H120  1  0.198700  0.989200  0.436500  1.0  0.0728
  H  H121  1  0.235300  0.880400  0.593800  1.0  0.0749
  H  H122  1  0.295500  0.985800  0.624600  1.0  0.0967
  H  H123  1  0.375300  0.090900  0.390700  1.0  0.0781
  H  H124  1  0.368900  0.273100  0.317800  1.0  0.0794
  H  H125  1  0.328400  0.281500  0.409700  1.0  0.0904
  H  H126  1  0.389300  0.277300  0.635100  1.0  0.0777
  H  H127  1  0.253200  0.303500  0.717500  1.0  0.0704
  H  H128  1  0.210000  0.220200  0.631600  1.0  0.0939
  H  H129  1  0.010200  0.942300  0.596400  1.0  0.096
  H  H130  1  0.983800  0.928200  0.769800  1.0  0.0962
  H  H131  1  0.073700  0.778000  0.707000  1.0  0.0921
  H  H132  1  0.096600  0.905100  0.554000  1.0  0.0707
  H  H133  1  0.093900  0.711200  0.515400  1.0  0.0796
  H  H134  1  0.048600  0.724900  0.603300  1.0  0.0917
  H  H135  1  0.929900  0.021200  0.575600  1.0  0.069
  H  H136  1  0.908300  0.140000  0.710700  1.0  0.0763
  H  H137  1  0.970500  0.042300  0.764900  1.0  0.0895
  H  H138  1  0.129400  0.774100  0.828900  1.0  0.0742
  H  H139  1  0.993700  0.745200  0.910100  1.0  0.0805
  H  H140  1  0.946900  0.820600  0.818200  1.0  0.093
  H  H141  1  0.359100  0.701100  0.336200  1.0  0.0989
  H  H142  1  0.418200  0.826400  0.219900  1.0  0.0993
  H  H143  1  0.306300  0.897300  0.322300  1.0  0.0975
  H  H144  1  0.220800  0.857400  0.352800  1.0  0.0705
  H  H145  1  0.257400  0.721800  0.490500  1.0  0.078
  H  H146  1  0.340600  0.707900  0.438500  1.0  0.0954
  H  H147  1  0.513500  0.752900  0.260500  1.0  0.076
  H  H148  1  0.466000  0.561000  0.229600  1.0  0.0804
  H  H149  1  0.373500  0.617800  0.249100  1.0  0.0952
  H  H150  1  0.376600  0.995900  0.318700  1.0  0.0841
  H  H151  1  0.378600  0.040800  0.144200  1.0  0.0797
  H  H152  1  0.359000  0.919300  0.147200  1.0  0.0923
  C  C153  1  0.278050  0.422940  0.022730  1.0  0.1479
  C  C154  1  0.299950  0.406630  0.973310  1.0  -0.2248
  C  C155  1  0.321330  0.340900  0.970010  1.0  0.1173
  C  C156  1  0.322190  0.294110  0.016740  1.0  -0.2305
  C  C157  1  0.299030  0.313180  0.065450  1.0  0.14
  C  C158  1  0.276520  0.377320  0.069810  1.0  -0.2549
  C  C159  1  0.214870  0.525100  0.979680  1.0  0.0989
  C  C160  1  0.235130  0.583770  0.065620  1.0  -0.0243
  C  C161  1  0.268610  0.526360  0.082930  1.0  -0.108
  C  C162  1  0.368520  0.362600  0.883400  1.0  0.0751
  C  C163  1  0.364910  0.262810  0.844240  1.0  -0.0235
  C  C164  1  0.342630  0.257920  0.894320  1.0  -0.1149
  C  C165  1  0.349990  0.226360  0.145000  1.0  0.1034
  C  C166  1  0.275180  0.212560  0.189580  1.0  -0.0306
  C  C167  1  0.251060  0.258170  0.142740  1.0  -0.0876
  C  C168  1  0.045560  0.643680  0.144920  1.0  0.161
  C  C169  1  0.015550  0.581540  0.134850  1.0  -0.2194
  C  C170  1  0.993520  0.554910  0.182160  1.0  0.1301
  C  C171  1  0.000120  0.589710  0.238230  1.0  -0.1561
  C  C172  1  0.030690  0.650490  0.246950  1.0  0.153
  C  C173  1  0.053500  0.679410  0.200560  1.0  -0.2212
  C  C174  1  0.091050  0.641760  0.055340  1.0  0.0925
  C  C175  1  0.089130  0.747610  0.034640  1.0  -0.0371
  C  C176  1  0.064300  0.740560  0.082720  1.0  -0.1262
  C  C177  1  0.932250  0.460920  0.116020  1.0  0.0887
  C  C178  1  0.920890  0.396750  0.190210  1.0  -0.0315
  C  C179  1  0.954810  0.449960  0.220190  1.0  -0.1186
  C  C180  1  0.089480  0.723790  0.337970  1.0  0.0916
  C  C181  1  0.015520  0.739480  0.381780  1.0  -0.0262
  C  C182  1  0.989510  0.697810  0.331650  1.0  -0.1059
  C  C183  1  0.327860  0.702160  0.835170  1.0  0.1135
  C  C184  1  0.360300  0.755710  0.819050  1.0  -0.2272
  C  C185  1  0.394680  0.743370  0.776540  1.0  0.1102
  C  C186  1  0.395610  0.680860  0.749710  1.0  -0.2438
  C  C187  1  0.362410  0.629180  0.767870  1.0  0.1553
  C  C188  1  0.328490  0.638550  0.810350  1.0  -0.2174
  C  C189  1  0.239970  0.678270  0.880720  1.0  0.0745
  C  C190  1  0.260620  0.752520  0.955570  1.0  -0.0149
  C  C191  1  0.306300  0.760370  0.927630  1.0  -0.0993
  C  C192  1  0.490420  0.788100  0.755070  1.0  0.0925
  C  C193  1  0.463760  0.892820  0.738210  1.0  -0.0248
  C  C194  1  0.413120  0.862150  0.748980  1.0  -0.0983
  C  C195  1  0.374420  0.507650  0.775180  1.0  0.096
  C  C196  1  0.375370  0.483460  0.679920  1.0  -0.0423
  C  C197  1  0.365000  0.550090  0.681380  1.0  -0.1162
  C  C198  1  0.721950  0.922940  0.477270  1.0  0.1478
  C  C199  1  0.700050  0.906630  0.526690  1.0  -0.2253
  C  C200  1  0.678670  0.840900  0.529990  1.0  0.1169
  C  C201  1  0.677810  0.794110  0.483260  1.0  -0.2331
  C  C202  1  0.700970  0.813180  0.434550  1.0  0.1409
  C  C203  1  0.723480  0.877320  0.430190  1.0  -0.253
  C  C204  1  0.785130  0.025100  0.520320  1.0  0.0999
  C  C205  1  0.764870  0.083770  0.434380  1.0  -0.024
  C  C206  1  0.731390  0.026360  0.417070  1.0  -0.107
  C  C207  1  0.631480  0.862600  0.616600  1.0  0.0742
  C  C208  1  0.635090  0.762810  0.655760  1.0  -0.022
  C  C209  1  0.657370  0.757920  0.605680  1.0  -0.1159
  C  C210  1  0.650010  0.726360  0.355000  1.0  0.1039
  C  C211  1  0.724820  0.712560  0.310420  1.0  -0.0289
  C  C212  1  0.748940  0.758170  0.357260  1.0  -0.0883
  C  C213  1  0.954440  0.143680  0.355080  1.0  0.161
  C  C214  1  0.984450  0.081540  0.365150  1.0  -0.2198
  C  C215  1  0.006480  0.054910  0.317840  1.0  0.1303
  C  C216  1  0.999880  0.089710  0.261770  1.0  -0.1548
  C  C217  1  0.969310  0.150490  0.253050  1.0  0.1525
  C  C218  1  0.946500  0.179410  0.299440  1.0  -0.2216
  C  C219  1  0.908950  0.141760  0.444660  1.0  0.0932
  C  C220  1  0.910870  0.247610  0.465360  1.0  -0.0378
  C  C221  1  0.935700  0.240560  0.417280  1.0  -0.1248
  C  C222  1  0.067750  0.960920  0.383980  1.0  0.0901
  C  C223  1  0.079110  0.896750  0.309790  1.0  -0.0301
  C  C224  1  0.045190  0.949960  0.279810  1.0  -0.1179
  C  C225  1  0.910520  0.223790  0.162030  1.0  0.0922
  C  C226  1  0.984480  0.239480  0.118220  1.0  -0.0248
  C  C227  1  0.010490  0.197810  0.168350  1.0  -0.1069
  C  C228  1  0.672140  0.202160  0.664830  1.0  0.113
  C  C229  1  0.639700  0.255710  0.680950  1.0  -0.2273
  C  C230  1  0.605320  0.243370  0.723460  1.0  0.1102
  C  C231  1  0.604390  0.180860  0.750290  1.0  -0.245
  C  C232  1  0.637590  0.129180  0.732130  1.0  0.1552
  C  C233  1  0.671510  0.138550  0.689650  1.0  -0.2161
  C  C234  1  0.760030  0.178270  0.619280  1.0  0.0752
  C  C235  1  0.739380  0.252520  0.544430  1.0  -0.0143
  C  C236  1  0.693700  0.260370  0.572370  1.0  -0.1032
  C  C237  1  0.509580  0.288100  0.744930  1.0  0.0919
  C  C238  1  0.536240  0.392820  0.761790  1.0  -0.0249
  C  C239  1  0.586880  0.362150  0.751020  1.0  -0.0973
  C  C240  1  0.625580  0.007650  0.724820  1.0  0.0977
  C  C241  1  0.624630  0.983460  0.820080  1.0  -0.0417
  C  C242  1  0.635000  0.050090  0.818620  1.0  -0.1162
  C  C243  1  0.721950  0.577060  0.977270  1.0  0.1479
  C  C244  1  0.700050  0.593370  0.026690  1.0  -0.2242
  C  C245  1  0.678670  0.659100  0.029990  1.0  0.117
  C  C246  1  0.677810  0.705890  0.983260  1.0  -0.2337
  C  C247  1  0.700970  0.686820  0.934550  1.0  0.1406
  C  C248  1  0.723480  0.622680  0.930190  1.0  -0.2532
  C  C249  1  0.785130  0.474900  0.020320  1.0  0.0994
  C  C250  1  0.764870  0.416230  0.934380  1.0  -0.0236
  C  C251  1  0.731390  0.473640  0.917070  1.0  -0.1067
  C  C252  1  0.631480  0.637400  0.116600  1.0  0.0748
  C  C253  1  0.635090  0.737190  0.155760  1.0  -0.0238
  C  C254  1  0.657370  0.742080  0.105680  1.0  -0.1146
  C  C255  1  0.650010  0.773640  0.855000  1.0  0.1031
  C  C256  1  0.724820  0.787440  0.810420  1.0  -0.0283
  C  C257  1  0.748940  0.741830  0.857260  1.0  -0.0889
  C  C258  1  0.954440  0.356320  0.855080  1.0  0.1609
  C  C259  1  0.984450  0.418460  0.865150  1.0  -0.2199
  C  C260  1  0.006480  0.445090  0.817840  1.0  0.1306
  C  C261  1  0.999880  0.410290  0.761770  1.0  -0.1552
  C  C262  1  0.969310  0.349510  0.753050  1.0  0.1521
  C  C263  1  0.946500  0.320590  0.799440  1.0  -0.2208
  C  C264  1  0.908950  0.358240  0.944660  1.0  0.0908
  C  C265  1  0.910870  0.252390  0.965360  1.0  -0.0366
  C  C266  1  0.935700  0.259440  0.917280  1.0  -0.1256
  C  C267  1  0.067750  0.539080  0.883980  1.0  0.09
  C  C268  1  0.079110  0.603250  0.809790  1.0  -0.0299
  C  C269  1  0.045190  0.550040  0.779810  1.0  -0.118
  C  C270  1  0.910520  0.276210  0.662030  1.0  0.0916
  C  C271  1  0.984480  0.260520  0.618220  1.0  -0.0244
  C  C272  1  0.010490  0.302190  0.668350  1.0  -0.1062
  C  C273  1  0.672140  0.297840  0.164830  1.0  0.1128
  C  C274  1  0.639700  0.244290  0.180950  1.0  -0.2277
  C  C275  1  0.605320  0.256630  0.223460  1.0  0.1103
  C  C276  1  0.604390  0.319140  0.250290  1.0  -0.2449
  C  C277  1  0.637590  0.370820  0.232130  1.0  0.155
  C  C278  1  0.671510  0.361450  0.189650  1.0  -0.2169
  C  C279  1  0.760030  0.321730  0.119280  1.0  0.0753
  C  C280  1  0.739380  0.247480  0.044430  1.0  -0.014
  C  C281  1  0.693700  0.239630  0.072370  1.0  -0.1038
  C  C282  1  0.509580  0.211900  0.244930  1.0  0.0906
  C  C283  1  0.536240  0.107180  0.261790  1.0  -0.0264
  C  C284  1  0.586880  0.137850  0.251020  1.0  -0.0979
  C  C285  1  0.625580  0.492350  0.224820  1.0  0.0977
  C  C286  1  0.624630  0.516540  0.320080  1.0  -0.0423
  C  C287  1  0.635000  0.449910  0.318620  1.0  -0.1154
  C  C288  1  0.278050  0.077060  0.522730  1.0  0.1481
  C  C289  1  0.299950  0.093370  0.473310  1.0  -0.2239
  C  C290  1  0.321330  0.159100  0.470010  1.0  0.1177
  C  C291  1  0.322190  0.205890  0.516740  1.0  -0.2317
  C  C292  1  0.299030  0.186820  0.565450  1.0  0.1399
  C  C293  1  0.276520  0.122680  0.569810  1.0  -0.2555
  C  C294  1  0.214870  0.974900  0.479680  1.0  0.0986
  C  C295  1  0.235130  0.916230  0.565620  1.0  -0.0237
  C  C296  1  0.268610  0.973640  0.582930  1.0  -0.108
  C  C297  1  0.368520  0.137400  0.383400  1.0  0.076
  C  C298  1  0.364910  0.237190  0.344240  1.0  -0.0231
  C  C299  1  0.342630  0.242080  0.394320  1.0  -0.1137
  C  C300  1  0.349990  0.273640  0.645000  1.0  0.1037
  C  C301  1  0.275180  0.287440  0.689580  1.0  -0.0304
  C  C302  1  0.251060  0.241830  0.642740  1.0  -0.0877
  C  C303  1  0.045560  0.856320  0.644920  1.0  0.1609
  C  C304  1  0.015550  0.918460  0.634850  1.0  -0.2196
  C  C305  1  0.993520  0.945090  0.682160  1.0  0.1303
  C  C306  1  0.000120  0.910290  0.738230  1.0  -0.1565
  C  C307  1  0.030690  0.849510  0.746950  1.0  0.1527
  C  C308  1  0.053500  0.820590  0.700560  1.0  -0.2201
  C  C309  1  0.091050  0.858240  0.555340  1.0  0.0904
  C  C310  1  0.089130  0.752390  0.534640  1.0  -0.0369
  C  C311  1  0.064300  0.759440  0.582720  1.0  -0.1256
  C  C312  1  0.932250  0.039080  0.616020  1.0  0.0886
  C  C313  1  0.920890  0.103250  0.690210  1.0  -0.0312
  C  C314  1  0.954810  0.050040  0.720190  1.0  -0.1187
  C  C315  1  0.089480  0.776210  0.837970  1.0  0.0913
  C  C316  1  0.015520  0.760520  0.881780  1.0  -0.0261
  C  C317  1  0.989510  0.802190  0.831650  1.0  -0.1066
  C  C318  1  0.327860  0.797840  0.335170  1.0  0.1135
  C  C319  1  0.360300  0.744290  0.319050  1.0  -0.2283
  C  C320  1  0.394680  0.756630  0.276540  1.0  0.1102
  C  C321  1  0.395610  0.819140  0.249710  1.0  -0.2439
  C  C322  1  0.362410  0.870820  0.267870  1.0  0.155
  C  C323  1  0.328490  0.861450  0.310350  1.0  -0.2184
  C  C324  1  0.239970  0.821730  0.380720  1.0  0.0746
  C  C325  1  0.260620  0.747480  0.455570  1.0  -0.0155
  C  C326  1  0.306300  0.739630  0.427630  1.0  -0.1019
  C  C327  1  0.490420  0.711900  0.255070  1.0  0.0917
  C  C328  1  0.463760  0.607180  0.238210  1.0  -0.0264
  C  C329  1  0.413120  0.637850  0.248980  1.0  -0.0982
  C  C330  1  0.374420  0.992350  0.275180  1.0  0.0959
  C  C331  1  0.375370  0.016540  0.179920  1.0  -0.0428
  C  C332  1  0.365000  0.949910  0.181380  1.0  -0.1165
  N  N333  1  0.200570  0.583020  0.001010  1.0  -0.4287
  N  N334  1  0.255780  0.489040  0.027990  1.0  0.0252
  N  N335  1  0.381210  0.329400  0.837370  1.0  -0.3843
  N  N336  1  0.344490  0.321680  0.918880  1.0  0.0116
  N  N337  1  0.336730  0.192800  0.190650  1.0  -0.3551
  N  N338  1  0.299610  0.266770  0.114150  1.0  -0.0271
  N  N339  1  0.106750  0.685390  0.017420  1.0  -0.3992
  N  N340  1  0.066030  0.673720  0.096280  1.0  0.0265
  N  N341  1  0.907010  0.403860  0.124640  1.0  -0.3936
  N  N342  1  0.962340  0.491080  0.173150  1.0  0.0017
  N  N343  1  0.077610  0.756130  0.385610  1.0  -0.4087
  N  N344  1  0.037340  0.687740  0.304260  1.0  0.0182
  N  N345  1  0.218580  0.701270  0.926160  1.0  -0.403
  N  N346  1  0.293600  0.713010  0.879510  1.0  -0.0056
  N  N347  1  0.512430  0.846100  0.741730  1.0  -0.3846
  N  N348  1  0.430120  0.796050  0.759740  1.0  0.0301
  N  N349  1  0.380420  0.456860  0.738630  1.0  -0.3584
  N  N350  1  0.364830  0.564300  0.741720  1.0  0.0358
  N  N351  1  0.799430  0.083020  0.498990  1.0  -0.4299
  N  N352  1  0.744220  0.989040  0.472010  1.0  0.0259
  N  N353  1  0.618790  0.829400  0.662630  1.0  -0.3843
  N  N354  1  0.655510  0.821680  0.581120  1.0  0.0119
  N  N355  1  0.663270  0.692800  0.309350  1.0  -0.3549
  N  N356  1  0.700390  0.766770  0.385850  1.0  -0.0275
  N  N357  1  0.893250  0.185390  0.482580  1.0  -0.3977
  N  N358  1  0.933970  0.173720  0.403720  1.0  0.0266
  N  N359  1  0.092990  0.903860  0.375360  1.0  -0.3922
  N  N360  1  0.037660  0.991080  0.326850  1.0  0.0021
  N  N361  1  0.922390  0.256130  0.114390  1.0  -0.4088
  N  N362  1  0.962660  0.187740  0.195740  1.0  0.0182
  N  N363  1  0.781420  0.201270  0.573840  1.0  -0.4022
  N  N364  1  0.706400  0.213010  0.620490  1.0  -0.0044
  N  N365  1  0.487570  0.346100  0.758270  1.0  -0.386
  N  N366  1  0.569880  0.296050  0.740260  1.0  0.0321
  N  N367  1  0.619580  0.956860  0.761370  1.0  -0.3584
  N  N368  1  0.635170  0.064300  0.758280  1.0  0.0355
  N  N369  1  0.799430  0.416980  0.998990  1.0  -0.4297
  N  N370  1  0.744220  0.510960  0.972010  1.0  0.0257
  N  N371  1  0.618790  0.670600  0.162630  1.0  -0.3846
  N  N372  1  0.655510  0.678320  0.081120  1.0  0.0116
  N  N373  1  0.663270  0.807200  0.809350  1.0  -0.3555
  N  N374  1  0.700390  0.733230  0.885850  1.0  -0.0274
  N  N375  1  0.893250  0.314610  0.982580  1.0  -0.3977
  N  N376  1  0.933970  0.326280  0.903720  1.0  0.0265
  N  N377  1  0.092990  0.596140  0.875360  1.0  -0.3928
  N  N378  1  0.037660  0.508920  0.826850  1.0  0.0024
  N  N379  1  0.922390  0.243870  0.614390  1.0  -0.4087
  N  N380  1  0.962660  0.312260  0.695740  1.0  0.0183
  N  N381  1  0.781420  0.298730  0.073840  1.0  -0.4022
  N  N382  1  0.706400  0.286990  0.120490  1.0  -0.0044
  N  N383  1  0.487570  0.153900  0.258270  1.0  -0.3855
  N  N384  1  0.569880  0.203950  0.240260  1.0  0.0327
  N  N385  1  0.619580  0.543140  0.261370  1.0  -0.3586
  N  N386  1  0.635170  0.435700  0.258280  1.0  0.0356
  N  N387  1  0.200570  0.916980  0.501010  1.0  -0.4283
  N  N388  1  0.255780  0.010960  0.527990  1.0  0.0248
  N  N389  1  0.381210  0.170600  0.337370  1.0  -0.3847
  N  N390  1  0.344490  0.178320  0.418880  1.0  0.0114
  N  N391  1  0.336730  0.307200  0.690650  1.0  -0.3557
  N  N392  1  0.299610  0.233230  0.614150  1.0  -0.027
  N  N393  1  0.106750  0.814610  0.517420  1.0  -0.3991
  N  N394  1  0.066030  0.826280  0.596280  1.0  0.0263
  N  N395  1  0.907010  0.096140  0.624640  1.0  -0.3935
  N  N396  1  0.962340  0.008920  0.673150  1.0  0.0021
  N  N397  1  0.077610  0.743870  0.885610  1.0  -0.4085
  N  N398  1  0.037340  0.812260  0.804260  1.0  0.0189
  N  N399  1  0.218580  0.798730  0.426160  1.0  -0.403
  N  N400  1  0.293600  0.786990  0.379510  1.0  -0.0052
  N  N401  1  0.512430  0.653900  0.241730  1.0  -0.3849
  N  N402  1  0.430120  0.703950  0.259740  1.0  0.0304
  N  N403  1  0.380420  0.043140  0.238630  1.0  -0.3589
  N  N404  1  0.364830  0.935700  0.241720  1.0  0.0357
