# generated using pymatgen
data_MnZn2H36C72(N2O3)4
_symmetry_space_group_name_H-M   'P 1'
_cell_length_a   22.13600000
_cell_length_b   16.64700000
_cell_length_c   16.55100000
_cell_angle_alpha   90.00000000
_cell_angle_beta   114.63000000
_cell_angle_gamma   90.00000000
_symmetry_Int_Tables_number   1
_chemical_formula_structural   MnZn2H36C72(N2O3)4
_chemical_formula_sum   'Mn2 Zn4 H72 C144 N16 O24'
_cell_volume   5544.11023747
_cell_formula_units_Z   2
loop_
 _symmetry_equiv_pos_site_id
 _symmetry_equiv_pos_as_xyz
  1  'x, y, z'
loop_
 _atom_site_type_symbol
 _atom_site_label
 _atom_site_symmetry_multiplicity
 _atom_site_fract_x
 _atom_site_fract_y
 _atom_site_fract_z
 _atom_site_occupancy
 _atom_site_charge
  Mn  Mn1  1  0.000000  0.500000  0.000000  1.0  0.9365
  Mn  Mn2  1  0.500000  0.000000  0.000000  1.0  0.9365
  Zn  Zn3  1  0.073320  0.000000  0.536240  1.0  0.9544
  Zn  Zn4  1  0.926680  0.000000  0.463760  1.0  0.9546
  Zn  Zn5  1  0.573320  0.500000  0.536240  1.0  0.9544
  Zn  Zn6  1  0.426680  0.500000  0.463760  1.0  0.9546
  H  H7  1  0.004000  0.203400  0.928100  1.0  0.1243
  H  H8  1  0.022400  0.426100  0.715500  1.0  0.1162
  H  H9  1  0.920200  0.290400  0.730100  1.0  0.0909
  H  H10  1  0.916300  0.187700  0.626700  1.0  0.1216
  H  H11  1  0.113000  0.170100  0.753000  1.0  0.1203
  H  H12  1  0.115000  0.275000  0.852900  1.0  0.1258
  H  H13  1  0.451300  0.194000  0.512300  1.0  0.106
  H  H14  1  0.996000  0.203400  0.071900  1.0  0.1243
  H  H15  1  0.977600  0.426100  0.284500  1.0  0.1161
  H  H16  1  0.079800  0.290400  0.269900  1.0  0.0908
  H  H17  1  0.083700  0.187700  0.373300  1.0  0.1222
  H  H18  1  0.887000  0.170100  0.247000  1.0  0.1199
  H  H19  1  0.885000  0.275000  0.147100  1.0  0.1318
  H  H20  1  0.548700  0.194000  0.487700  1.0  0.1058
  H  H21  1  0.996000  0.796600  0.071900  1.0  0.1242
  H  H22  1  0.977600  0.573900  0.284500  1.0  0.1159
  H  H23  1  0.079800  0.709600  0.269900  1.0  0.0908
  H  H24  1  0.083700  0.812300  0.373300  1.0  0.1221
  H  H25  1  0.887000  0.829900  0.247000  1.0  0.1192
  H  H26  1  0.885000  0.725000  0.147100  1.0  0.1314
  H  H27  1  0.548700  0.806000  0.487700  1.0  0.1057
  H  H28  1  0.004000  0.796600  0.928100  1.0  0.1244
  H  H29  1  0.022400  0.573900  0.715500  1.0  0.1162
  H  H30  1  0.920200  0.709600  0.730100  1.0  0.0909
  H  H31  1  0.916300  0.812300  0.626700  1.0  0.1216
  H  H32  1  0.113000  0.829900  0.753000  1.0  0.1204
  H  H33  1  0.115000  0.725000  0.852900  1.0  0.1259
  H  H34  1  0.451300  0.806000  0.512300  1.0  0.1053
  H  H35  1  0.214500  0.000000  0.662600  1.0  0.1003
  H  H36  1  0.322700  0.000000  0.672100  1.0  0.1082
  H  H37  1  0.242500  0.000000  0.414100  1.0  0.1049
  H  H38  1  0.134500  0.000000  0.412100  1.0  0.1112
  H  H39  1  0.785500  0.000000  0.337400  1.0  0.1033
  H  H40  1  0.677300  0.000000  0.327900  1.0  0.1077
  H  H41  1  0.757500  0.000000  0.585900  1.0  0.1054
  H  H42  1  0.865500  0.000000  0.587900  1.0  0.1112
  H  H43  1  0.504000  0.703400  0.928100  1.0  0.1243
  H  H44  1  0.522400  0.926100  0.715500  1.0  0.1165
  H  H45  1  0.420200  0.790400  0.730100  1.0  0.0909
  H  H46  1  0.416300  0.687700  0.626700  1.0  0.1216
  H  H47  1  0.613000  0.670100  0.753000  1.0  0.1203
  H  H48  1  0.615000  0.775000  0.852900  1.0  0.1258
  H  H49  1  0.951300  0.694000  0.512300  1.0  0.1064
  H  H50  1  0.496000  0.703400  0.071900  1.0  0.1243
  H  H51  1  0.477600  0.926100  0.284500  1.0  0.1163
  H  H52  1  0.579800  0.790400  0.269900  1.0  0.0908
  H  H53  1  0.583700  0.687700  0.373300  1.0  0.1222
  H  H54  1  0.387000  0.670100  0.247000  1.0  0.1199
  H  H55  1  0.385000  0.775000  0.147100  1.0  0.1318
  H  H56  1  0.048700  0.694000  0.487700  1.0  0.1062
  H  H57  1  0.496000  0.296600  0.071900  1.0  0.1242
  H  H58  1  0.477600  0.073900  0.284500  1.0  0.1159
  H  H59  1  0.579800  0.209600  0.269900  1.0  0.0908
  H  H60  1  0.583700  0.312300  0.373300  1.0  0.1221
  H  H61  1  0.387000  0.329900  0.247000  1.0  0.1192
  H  H62  1  0.385000  0.225000  0.147100  1.0  0.1314
  H  H63  1  0.048700  0.306000  0.487700  1.0  0.1061
  H  H64  1  0.504000  0.296600  0.928100  1.0  0.1244
  H  H65  1  0.522400  0.073900  0.715500  1.0  0.1162
  H  H66  1  0.420200  0.209600  0.730100  1.0  0.0909
  H  H67  1  0.416300  0.312300  0.626700  1.0  0.1216
  H  H68  1  0.613000  0.329900  0.753000  1.0  0.1204
  H  H69  1  0.615000  0.225000  0.852900  1.0  0.1259
  H  H70  1  0.951300  0.306000  0.512300  1.0  0.1058
  H  H71  1  0.714500  0.500000  0.662600  1.0  0.1003
  H  H72  1  0.822700  0.500000  0.672100  1.0  0.1082
  H  H73  1  0.742500  0.500000  0.414100  1.0  0.1049
  H  H74  1  0.634500  0.500000  0.412100  1.0  0.1112
  H  H75  1  0.285500  0.500000  0.337400  1.0  0.1033
  H  H76  1  0.177300  0.500000  0.327900  1.0  0.1077
  H  H77  1  0.257500  0.500000  0.585900  1.0  0.1054
  H  H78  1  0.365500  0.500000  0.587900  1.0  0.1112
  C  C79  1  0.002500  0.248200  0.960800  1.0  -0.1514
  C  C80  1  0.005100  0.330700  0.937400  1.0  0.0953
  C  C81  1  0.013300  0.354900  0.860900  1.0  -0.1043
  C  C82  1  0.014300  0.434700  0.838100  1.0  0.1895
  C  C83  1  0.019500  0.459400  0.758800  1.0  -0.1541
  C  C84  1  0.015500  0.291500  0.798400  1.0  0.0813
  C  C85  1  0.959700  0.266900  0.734800  1.0  -0.1275
  C  C86  1  0.956300  0.204900  0.671100  1.0  -0.1019
  C  C87  1  0.016000  0.174000  0.681400  1.0  -0.136
  C  C88  1  0.073800  0.195300  0.746900  1.0  -0.0372
  C  C89  1  0.075100  0.257900  0.808100  1.0  -0.15
  C  C90  1  0.016000  0.106100  0.615300  1.0  0.6525
  C  C91  1  0.381000  0.073200  0.532000  1.0  0.6054
  C  C92  1  0.470800  0.145700  0.507900  1.0  -0.0047
  C  C93  1  0.443400  0.074800  0.516500  1.0  -0.1399
  C  C94  1  0.997500  0.248200  0.039200  1.0  -0.1513
  C  C95  1  0.994900  0.330700  0.062600  1.0  0.0963
  C  C96  1  0.986700  0.354900  0.139100  1.0  -0.1034
  C  C97  1  0.985700  0.434700  0.161900  1.0  0.1918
  C  C98  1  0.980500  0.459400  0.241200  1.0  -0.1537
  C  C99  1  0.984500  0.291500  0.201600  1.0  0.0801
  C  C100  1  0.040300  0.266900  0.265200  1.0  -0.1265
  C  C101  1  0.043700  0.204900  0.328900  1.0  -0.1006
  C  C102  1  0.984000  0.174000  0.318600  1.0  -0.1357
  C  C103  1  0.926200  0.195300  0.253100  1.0  -0.0367
  C  C104  1  0.924900  0.257900  0.191900  1.0  -0.1535
  C  C105  1  0.984000  0.106100  0.384700  1.0  0.652
  C  C106  1  0.619000  0.073200  0.468000  1.0  0.6046
  C  C107  1  0.529200  0.145700  0.492100  1.0  -0.005
  C  C108  1  0.556600  0.074800  0.483500  1.0  -0.1395
  C  C109  1  0.997500  0.751800  0.039200  1.0  -0.1517
  C  C110  1  0.994900  0.669300  0.062600  1.0  0.0958
  C  C111  1  0.986700  0.645100  0.139100  1.0  -0.1039
  C  C112  1  0.985700  0.565300  0.161900  1.0  0.1915
  C  C113  1  0.980500  0.540600  0.241200  1.0  -0.1537
  C  C114  1  0.984500  0.708500  0.201600  1.0  0.0794
  C  C115  1  0.040300  0.733100  0.265200  1.0  -0.127
  C  C116  1  0.043700  0.795100  0.328900  1.0  -0.1018
  C  C117  1  0.984000  0.826000  0.318600  1.0  -0.1353
  C  C118  1  0.926200  0.804700  0.253100  1.0  -0.0373
  C  C119  1  0.924900  0.742100  0.191900  1.0  -0.1535
  C  C120  1  0.984000  0.893900  0.384700  1.0  0.6518
  C  C121  1  0.619000  0.926800  0.468000  1.0  0.605
  C  C122  1  0.529200  0.854300  0.492100  1.0  -0.005
  C  C123  1  0.556600  0.925200  0.483500  1.0  -0.1403
  C  C124  1  0.002500  0.751800  0.960800  1.0  -0.1517
  C  C125  1  0.005100  0.669300  0.937400  1.0  0.0945
  C  C126  1  0.013300  0.645100  0.860900  1.0  -0.1039
  C  C127  1  0.014300  0.565300  0.838100  1.0  0.1887
  C  C128  1  0.019500  0.540600  0.758800  1.0  -0.1539
  C  C129  1  0.015500  0.708500  0.798400  1.0  0.0807
  C  C130  1  0.959700  0.733100  0.734800  1.0  -0.128
  C  C131  1  0.956300  0.795100  0.671100  1.0  -0.1029
  C  C132  1  0.016000  0.826000  0.681400  1.0  -0.1354
  C  C133  1  0.073800  0.804700  0.746900  1.0  -0.0358
  C  C134  1  0.075100  0.742100  0.808100  1.0  -0.1504
  C  C135  1  0.016000  0.893900  0.615300  1.0  0.6524
  C  C136  1  0.381000  0.926800  0.532000  1.0  0.6048
  C  C137  1  0.470800  0.854300  0.507900  1.0  -0.0046
  C  C138  1  0.443400  0.925200  0.516500  1.0  -0.1408
  C  C139  1  0.218400  0.000000  0.608800  1.0  0.0822
  C  C140  1  0.286000  0.000000  0.617500  1.0  -0.1581
  C  C141  1  0.290800  0.000000  0.541100  1.0  0.295
  C  C142  1  0.238100  0.000000  0.467500  1.0  -0.2072
  C  C143  1  0.172000  0.000000  0.465900  1.0  0.1111
  C  C144  1  0.468900  0.000000  0.507200  1.0  -0.0398
  C  C145  1  0.781600  0.000000  0.391200  1.0  0.086
  C  C146  1  0.714000  0.000000  0.382500  1.0  -0.1568
  C  C147  1  0.709200  0.000000  0.458900  1.0  0.2929
  C  C148  1  0.761900  0.000000  0.532500  1.0  -0.2071
  C  C149  1  0.828000  0.000000  0.534100  1.0  0.1088
  C  C150  1  0.531100  0.000000  0.492800  1.0  -0.0406
  C  C151  1  0.502500  0.748200  0.960800  1.0  -0.1514
  C  C152  1  0.505100  0.830700  0.937400  1.0  0.0953
  C  C153  1  0.513300  0.854900  0.860900  1.0  -0.1043
  C  C154  1  0.514300  0.934700  0.838100  1.0  0.1895
  C  C155  1  0.519500  0.959400  0.758800  1.0  -0.1541
  C  C156  1  0.515500  0.791500  0.798400  1.0  0.0813
  C  C157  1  0.459700  0.766900  0.734800  1.0  -0.1275
  C  C158  1  0.456300  0.704900  0.671100  1.0  -0.1019
  C  C159  1  0.516000  0.674000  0.681400  1.0  -0.136
  C  C160  1  0.573800  0.695300  0.746900  1.0  -0.0372
  C  C161  1  0.575100  0.757900  0.808100  1.0  -0.15
  C  C162  1  0.516000  0.606100  0.615300  1.0  0.6525
  C  C163  1  0.881000  0.573200  0.532000  1.0  0.6054
  C  C164  1  0.970800  0.645700  0.507900  1.0  -0.0047
  C  C165  1  0.943400  0.574800  0.516500  1.0  -0.1399
  C  C166  1  0.497500  0.748200  0.039200  1.0  -0.1513
  C  C167  1  0.494900  0.830700  0.062600  1.0  0.0963
  C  C168  1  0.486700  0.854900  0.139100  1.0  -0.1034
  C  C169  1  0.485700  0.934700  0.161900  1.0  0.1918
  C  C170  1  0.480500  0.959400  0.241200  1.0  -0.1537
  C  C171  1  0.484500  0.791500  0.201600  1.0  0.0801
  C  C172  1  0.540300  0.766900  0.265200  1.0  -0.1265
  C  C173  1  0.543700  0.704900  0.328900  1.0  -0.1006
  C  C174  1  0.484000  0.674000  0.318600  1.0  -0.1357
  C  C175  1  0.426200  0.695300  0.253100  1.0  -0.0367
  C  C176  1  0.424900  0.757900  0.191900  1.0  -0.1535
  C  C177  1  0.484000  0.606100  0.384700  1.0  0.652
  C  C178  1  0.119000  0.573200  0.468000  1.0  0.6046
  C  C179  1  0.029200  0.645700  0.492100  1.0  -0.005
  C  C180  1  0.056600  0.574800  0.483500  1.0  -0.1395
  C  C181  1  0.497500  0.251800  0.039200  1.0  -0.1517
  C  C182  1  0.494900  0.169300  0.062600  1.0  0.0958
  C  C183  1  0.486700  0.145100  0.139100  1.0  -0.1039
  C  C184  1  0.485700  0.065300  0.161900  1.0  0.1915
  C  C185  1  0.480500  0.040600  0.241200  1.0  -0.1537
  C  C186  1  0.484500  0.208500  0.201600  1.0  0.0794
  C  C187  1  0.540300  0.233100  0.265200  1.0  -0.127
  C  C188  1  0.543700  0.295100  0.328900  1.0  -0.1018
  C  C189  1  0.484000  0.326000  0.318600  1.0  -0.1353
  C  C190  1  0.426200  0.304700  0.253100  1.0  -0.0373
  C  C191  1  0.424900  0.242100  0.191900  1.0  -0.1535
  C  C192  1  0.484000  0.393900  0.384700  1.0  0.6518
  C  C193  1  0.119000  0.426800  0.468000  1.0  0.605
  C  C194  1  0.029200  0.354300  0.492100  1.0  -0.005
  C  C195  1  0.056600  0.425200  0.483500  1.0  -0.1403
  C  C196  1  0.502500  0.251800  0.960800  1.0  -0.1517
  C  C197  1  0.505100  0.169300  0.937400  1.0  0.0945
  C  C198  1  0.513300  0.145100  0.860900  1.0  -0.1039
  C  C199  1  0.514300  0.065300  0.838100  1.0  0.1887
  C  C200  1  0.519500  0.040600  0.758800  1.0  -0.1539
  C  C201  1  0.515500  0.208500  0.798400  1.0  0.0807
  C  C202  1  0.459700  0.233100  0.734800  1.0  -0.128
  C  C203  1  0.456300  0.295100  0.671100  1.0  -0.1029
  C  C204  1  0.516000  0.326000  0.681400  1.0  -0.1354
  C  C205  1  0.573800  0.304700  0.746900  1.0  -0.0358
  C  C206  1  0.575100  0.242100  0.808100  1.0  -0.1504
  C  C207  1  0.516000  0.393900  0.615300  1.0  0.6524
  C  C208  1  0.881000  0.426800  0.532000  1.0  0.6048
  C  C209  1  0.970800  0.354300  0.507900  1.0  -0.0046
  C  C210  1  0.943400  0.425200  0.516500  1.0  -0.1408
  C  C211  1  0.718400  0.500000  0.608800  1.0  0.0822
  C  C212  1  0.786000  0.500000  0.617500  1.0  -0.1581
  C  C213  1  0.790800  0.500000  0.541100  1.0  0.295
  C  C214  1  0.738100  0.500000  0.467500  1.0  -0.2072
  C  C215  1  0.672000  0.500000  0.465900  1.0  0.1111
  C  C216  1  0.968900  0.500000  0.507200  1.0  -0.0398
  C  C217  1  0.281600  0.500000  0.391200  1.0  0.086
  C  C218  1  0.214000  0.500000  0.382500  1.0  -0.1568
  C  C219  1  0.209200  0.500000  0.458900  1.0  0.2929
  C  C220  1  0.261900  0.500000  0.532500  1.0  -0.2071
  C  C221  1  0.328000  0.500000  0.534100  1.0  0.1088
  C  C222  1  0.031100  0.500000  0.492800  1.0  -0.0406
  N  N223  1  0.165900  0.000000  0.544100  1.0  -0.2603
  N  N224  1  0.355800  0.000000  0.539200  1.0  -0.1749
  N  N225  1  0.834100  0.000000  0.455900  1.0  -0.2632
  N  N226  1  0.644200  0.000000  0.460800  1.0  -0.1751
  N  N227  1  0.000000  0.381700  0.000000  1.0  -0.403
  N  N228  1  0.000000  0.618300  0.000000  1.0  -0.404
  N  N229  1  0.012100  0.500000  0.889300  1.0  -0.4389
  N  N230  1  0.987900  0.500000  0.110700  1.0  -0.4385
  N  N231  1  0.665900  0.500000  0.544100  1.0  -0.2603
  N  N232  1  0.855800  0.500000  0.539200  1.0  -0.1749
  N  N233  1  0.334100  0.500000  0.455900  1.0  -0.2632
  N  N234  1  0.144200  0.500000  0.460800  1.0  -0.1751
  N  N235  1  0.500000  0.881700  0.000000  1.0  -0.403
  N  N236  1  0.500000  0.118300  0.000000  1.0  -0.404
  N  N237  1  0.512100  0.000000  0.889300  1.0  -0.4389
  N  N238  1  0.487900  0.000000  0.110700  1.0  -0.4385
  O  O239  1  0.073900  0.084600  0.622500  1.0  -0.5746
  O  O240  1  0.960000  0.085300  0.561000  1.0  -0.6041
  O  O241  1  0.358300  0.135600  0.545400  1.0  -0.47
  O  O242  1  0.926100  0.084600  0.377500  1.0  -0.5746
  O  O243  1  0.040000  0.085300  0.439000  1.0  -0.605
  O  O244  1  0.641700  0.135600  0.454600  1.0  -0.4701
  O  O245  1  0.926100  0.915400  0.377500  1.0  -0.5755
  O  O246  1  0.040000  0.914700  0.439000  1.0  -0.605
  O  O247  1  0.641700  0.864400  0.454600  1.0  -0.4715
  O  O248  1  0.073900  0.915400  0.622500  1.0  -0.5751
  O  O249  1  0.960000  0.914700  0.561000  1.0  -0.6045
  O  O250  1  0.358300  0.864400  0.545400  1.0  -0.4707
  O  O251  1  0.573900  0.584600  0.622500  1.0  -0.5746
  O  O252  1  0.460000  0.585300  0.561000  1.0  -0.6041
  O  O253  1  0.858300  0.635600  0.545400  1.0  -0.47
  O  O254  1  0.426100  0.584600  0.377500  1.0  -0.5746
  O  O255  1  0.540000  0.585300  0.439000  1.0  -0.605
  O  O256  1  0.141700  0.635600  0.454600  1.0  -0.4701
  O  O257  1  0.426100  0.415400  0.377500  1.0  -0.5755
  O  O258  1  0.540000  0.414700  0.439000  1.0  -0.605
  O  O259  1  0.141700  0.364400  0.454600  1.0  -0.4715
  O  O260  1  0.573900  0.415400  0.622500  1.0  -0.5751
  O  O261  1  0.460000  0.414700  0.561000  1.0  -0.6045
  O  O262  1  0.858300  0.364400  0.545400  1.0  -0.4707
