# generated using pymatgen
data_MnZn2H36C72(N2O3)4
_symmetry_space_group_name_H-M   'P 1'
_cell_length_a   22.05800000
_cell_length_b   16.90680000
_cell_length_c   16.24000000
_cell_angle_alpha   90.00000000
_cell_angle_beta   121.36000000
_cell_angle_gamma   90.00000000
_symmetry_Int_Tables_number   1
_chemical_formula_structural   MnZn2H36C72(N2O3)4
_chemical_formula_sum   'Mn2 Zn4 H72 C144 N16 O24'
_cell_volume   5171.63505337
_cell_formula_units_Z   2
loop_
 _symmetry_equiv_pos_site_id
 _symmetry_equiv_pos_as_xyz
  1  'x, y, z'
loop_
 _atom_site_type_symbol
 _atom_site_label
 _atom_site_symmetry_multiplicity
 _atom_site_fract_x
 _atom_site_fract_y
 _atom_site_fract_z
 _atom_site_occupancy
 _atom_site_charge
  Mn  Mn1  1  0.000000  0.500000  0.000000  1.0  0.9557
  Mn  Mn2  1  0.500000  0.000000  0.000000  1.0  0.9557
  Zn  Zn3  1  0.078200  0.000000  0.547940  1.0  0.9129
  Zn  Zn4  1  0.921800  0.000000  0.452060  1.0  0.9137
  Zn  Zn5  1  0.578200  0.500000  0.547940  1.0  0.9129
  Zn  Zn6  1  0.421800  0.500000  0.452060  1.0  0.9137
  H  H7  1  0.006100  0.209800  0.930700  1.0  0.1036
  H  H8  1  0.046400  0.430500  0.731400  1.0  0.1053
  H  H9  1  0.919400  0.283100  0.714600  1.0  0.0831
  H  H10  1  0.919900  0.183700  0.620900  1.0  0.1194
  H  H11  1  0.125300  0.179500  0.772300  1.0  0.0821
  H  H12  1  0.127000  0.283800  0.865700  1.0  0.121
  H  H13  1  0.446900  0.187700  0.507800  1.0  0.1051
  H  H14  1  0.993900  0.209800  0.069300  1.0  0.1039
  H  H15  1  0.953600  0.430500  0.268600  1.0  0.1057
  H  H16  1  0.080600  0.283100  0.285400  1.0  0.0838
  H  H17  1  0.080100  0.183700  0.379100  1.0  0.119
  H  H18  1  0.874700  0.179500  0.227700  1.0  0.0824
  H  H19  1  0.873000  0.283800  0.134300  1.0  0.1221
  H  H20  1  0.553100  0.187700  0.492200  1.0  0.1059
  H  H21  1  0.993900  0.790200  0.069300  1.0  0.1038
  H  H22  1  0.953600  0.569500  0.268600  1.0  0.1055
  H  H23  1  0.080600  0.716900  0.285400  1.0  0.0834
  H  H24  1  0.080100  0.816300  0.379100  1.0  0.119
  H  H25  1  0.874700  0.820500  0.227700  1.0  0.0819
  H  H26  1  0.873000  0.716200  0.134300  1.0  0.122
  H  H27  1  0.553100  0.812300  0.492200  1.0  0.1054
  H  H28  1  0.006100  0.790200  0.930700  1.0  0.1038
  H  H29  1  0.046400  0.569500  0.731400  1.0  0.1056
  H  H30  1  0.919400  0.716900  0.714600  1.0  0.0828
  H  H31  1  0.919900  0.816300  0.620900  1.0  0.1194
  H  H32  1  0.125300  0.820500  0.772300  1.0  0.0822
  H  H33  1  0.127000  0.716200  0.865700  1.0  0.1213
  H  H34  1  0.446900  0.812300  0.507800  1.0  0.1049
  H  H35  1  0.235900  0.000000  0.686900  1.0  0.0708
  H  H36  1  0.344500  0.000000  0.686500  1.0  0.0991
  H  H37  1  0.227700  0.000000  0.403800  1.0  0.1088
  H  H38  1  0.119600  0.000000  0.407500  1.0  0.1198
  H  H39  1  0.764100  0.000000  0.313100  1.0  0.0717
  H  H40  1  0.655500  0.000000  0.313500  1.0  0.1
  H  H41  1  0.772300  0.000000  0.596200  1.0  0.109
  H  H42  1  0.880400  0.000000  0.592500  1.0  0.1192
  H  H43  1  0.506100  0.709800  0.930700  1.0  0.1036
  H  H44  1  0.546400  0.930500  0.731400  1.0  0.1053
  H  H45  1  0.419400  0.783100  0.714600  1.0  0.0831
  H  H46  1  0.419900  0.683700  0.620900  1.0  0.1194
  H  H47  1  0.625300  0.679500  0.772300  1.0  0.0821
  H  H48  1  0.627000  0.783800  0.865700  1.0  0.121
  H  H49  1  0.946900  0.687700  0.507800  1.0  0.1057
  H  H50  1  0.493900  0.709800  0.069300  1.0  0.1039
  H  H51  1  0.453600  0.930500  0.268600  1.0  0.1057
  H  H52  1  0.580600  0.783100  0.285400  1.0  0.0838
  H  H53  1  0.580100  0.683700  0.379100  1.0  0.119
  H  H54  1  0.374700  0.679500  0.227700  1.0  0.0824
  H  H55  1  0.373000  0.783800  0.134300  1.0  0.1221
  H  H56  1  0.053100  0.687700  0.492200  1.0  0.1061
  H  H57  1  0.493900  0.290200  0.069300  1.0  0.1038
  H  H58  1  0.453600  0.069500  0.268600  1.0  0.1055
  H  H59  1  0.580600  0.216900  0.285400  1.0  0.0834
  H  H60  1  0.580100  0.316300  0.379100  1.0  0.119
  H  H61  1  0.374700  0.320500  0.227700  1.0  0.0819
  H  H62  1  0.373000  0.216200  0.134300  1.0  0.122
  H  H63  1  0.053100  0.312300  0.492200  1.0  0.1061
  H  H64  1  0.506100  0.290200  0.930700  1.0  0.1038
  H  H65  1  0.546400  0.069500  0.731400  1.0  0.1056
  H  H66  1  0.419400  0.216900  0.714600  1.0  0.0828
  H  H67  1  0.419900  0.316300  0.620900  1.0  0.1194
  H  H68  1  0.625300  0.320500  0.772300  1.0  0.0822
  H  H69  1  0.627000  0.216200  0.865700  1.0  0.1213
  H  H70  1  0.946900  0.312300  0.507800  1.0  0.1051
  H  H71  1  0.735900  0.500000  0.686900  1.0  0.0708
  H  H72  1  0.844500  0.500000  0.686500  1.0  0.0991
  H  H73  1  0.727700  0.500000  0.403800  1.0  0.1088
  H  H74  1  0.619600  0.500000  0.407500  1.0  0.1198
  H  H75  1  0.264100  0.500000  0.313100  1.0  0.0717
  H  H76  1  0.155500  0.500000  0.313500  1.0  0.1
  H  H77  1  0.272300  0.500000  0.596200  1.0  0.109
  H  H78  1  0.380400  0.500000  0.592500  1.0  0.1192
  C  C79  1  0.003300  0.254700  0.961700  1.0  -0.0829
  C  C80  1  0.005200  0.331000  0.935300  1.0  0.2423
  C  C81  1  0.019900  0.355200  0.866600  1.0  -0.0948
  C  C82  1  0.025100  0.433700  0.843200  1.0  0.0964
  C  C83  1  0.038600  0.462100  0.772000  1.0  -0.1176
  C  C84  1  0.020500  0.293600  0.801800  1.0  0.1352
  C  C85  1  0.963000  0.263000  0.728500  1.0  -0.1287
  C  C86  1  0.962700  0.203500  0.670800  1.0  -0.2025
  C  C87  1  0.025300  0.173500  0.686700  1.0  -0.0452
  C  C88  1  0.082300  0.201500  0.758300  1.0  -0.0626
  C  C89  1  0.083900  0.263400  0.817100  1.0  -0.2201
  C  C90  1  0.022800  0.107500  0.622500  1.0  0.708
  C  C91  1  0.379600  0.074900  0.526500  1.0  0.5025
  C  C92  1  0.468100  0.140800  0.505800  1.0  -0.0973
  C  C93  1  0.443600  0.071400  0.512900  1.0  -0.1097
  C  C94  1  0.996700  0.254700  0.038300  1.0  -0.0819
  C  C95  1  0.994800  0.331000  0.064700  1.0  0.2418
  C  C96  1  0.980100  0.355200  0.133400  1.0  -0.0946
  C  C97  1  0.974900  0.433700  0.156800  1.0  0.0946
  C  C98  1  0.961400  0.462100  0.228000  1.0  -0.1185
  C  C99  1  0.979500  0.293600  0.198200  1.0  0.1366
  C  C100  1  0.037000  0.263000  0.271500  1.0  -0.1281
  C  C101  1  0.037300  0.203500  0.329200  1.0  -0.2014
  C  C102  1  0.974700  0.173500  0.313300  1.0  -0.0444
  C  C103  1  0.917700  0.201500  0.241700  1.0  -0.0633
  C  C104  1  0.916100  0.263400  0.182900  1.0  -0.2235
  C  C105  1  0.977200  0.107500  0.377500  1.0  0.7078
  C  C106  1  0.620400  0.074900  0.473500  1.0  0.5048
  C  C107  1  0.531900  0.140800  0.494200  1.0  -0.0994
  C  C108  1  0.556400  0.071400  0.487100  1.0  -0.1075
  C  C109  1  0.996700  0.745300  0.038300  1.0  -0.0823
  C  C110  1  0.994800  0.669000  0.064700  1.0  0.2428
  C  C111  1  0.980100  0.644800  0.133400  1.0  -0.0947
  C  C112  1  0.974900  0.566300  0.156800  1.0  0.0942
  C  C113  1  0.961400  0.537900  0.228000  1.0  -0.1181
  C  C114  1  0.979500  0.706400  0.198200  1.0  0.1369
  C  C115  1  0.037000  0.737000  0.271500  1.0  -0.1283
  C  C116  1  0.037300  0.796500  0.329200  1.0  -0.2017
  C  C117  1  0.974700  0.826500  0.313300  1.0  -0.0436
  C  C118  1  0.917700  0.798500  0.241700  1.0  -0.0634
  C  C119  1  0.916100  0.736600  0.182900  1.0  -0.2221
  C  C120  1  0.977200  0.892500  0.377500  1.0  0.7079
  C  C121  1  0.620400  0.925100  0.473500  1.0  0.5036
  C  C122  1  0.531900  0.859200  0.494200  1.0  -0.0966
  C  C123  1  0.556400  0.928600  0.487100  1.0  -0.1085
  C  C124  1  0.003300  0.745300  0.961700  1.0  -0.0817
  C  C125  1  0.005200  0.669000  0.935300  1.0  0.2415
  C  C126  1  0.019900  0.644800  0.866600  1.0  -0.0943
  C  C127  1  0.025100  0.566300  0.843200  1.0  0.0953
  C  C128  1  0.038600  0.537900  0.772000  1.0  -0.1171
  C  C129  1  0.020500  0.706400  0.801800  1.0  0.1356
  C  C130  1  0.963000  0.737000  0.728500  1.0  -0.1283
  C  C131  1  0.962700  0.796500  0.670800  1.0  -0.2027
  C  C132  1  0.025300  0.826500  0.686700  1.0  -0.0459
  C  C133  1  0.082300  0.798500  0.758300  1.0  -0.0623
  C  C134  1  0.083900  0.736600  0.817100  1.0  -0.2203
  C  C135  1  0.022800  0.892500  0.622500  1.0  0.7079
  C  C136  1  0.379600  0.925100  0.526500  1.0  0.5009
  C  C137  1  0.468100  0.859200  0.505800  1.0  -0.0978
  C  C138  1  0.443600  0.928600  0.512900  1.0  -0.1105
  C  C139  1  0.233200  0.000000  0.627800  1.0  0.1708
  C  C140  1  0.300800  0.000000  0.629000  1.0  -0.1456
  C  C141  1  0.296100  0.000000  0.546800  1.0  0.3212
  C  C142  1  0.230200  0.000000  0.462700  1.0  -0.1385
  C  C143  1  0.164100  0.000000  0.463800  1.0  0.1037
  C  C144  1  0.467700  0.000000  0.503800  1.0  -0.0477
  C  C145  1  0.766800  0.000000  0.372200  1.0  0.1688
  C  C146  1  0.699200  0.000000  0.371000  1.0  -0.1397
  C  C147  1  0.703900  0.000000  0.453200  1.0  0.3202
  C  C148  1  0.769800  0.000000  0.537300  1.0  -0.1414
  C  C149  1  0.835900  0.000000  0.536200  1.0  0.1028
  C  C150  1  0.532300  0.000000  0.496200  1.0  -0.0482
  C  C151  1  0.503300  0.754700  0.961700  1.0  -0.0829
  C  C152  1  0.505200  0.831000  0.935300  1.0  0.2423
  C  C153  1  0.519900  0.855200  0.866600  1.0  -0.0948
  C  C154  1  0.525100  0.933700  0.843200  1.0  0.0964
  C  C155  1  0.538600  0.962100  0.772000  1.0  -0.1176
  C  C156  1  0.520500  0.793600  0.801800  1.0  0.1352
  C  C157  1  0.463000  0.763000  0.728500  1.0  -0.1287
  C  C158  1  0.462700  0.703500  0.670800  1.0  -0.2025
  C  C159  1  0.525300  0.673500  0.686700  1.0  -0.0452
  C  C160  1  0.582300  0.701500  0.758300  1.0  -0.0626
  C  C161  1  0.583900  0.763400  0.817100  1.0  -0.2201
  C  C162  1  0.522800  0.607500  0.622500  1.0  0.708
  C  C163  1  0.879600  0.574900  0.526500  1.0  0.5025
  C  C164  1  0.968100  0.640800  0.505800  1.0  -0.0973
  C  C165  1  0.943600  0.571400  0.512900  1.0  -0.1097
  C  C166  1  0.496700  0.754700  0.038300  1.0  -0.0819
  C  C167  1  0.494800  0.831000  0.064700  1.0  0.2418
  C  C168  1  0.480100  0.855200  0.133400  1.0  -0.0946
  C  C169  1  0.474900  0.933700  0.156800  1.0  0.0946
  C  C170  1  0.461400  0.962100  0.228000  1.0  -0.1185
  C  C171  1  0.479500  0.793600  0.198200  1.0  0.1366
  C  C172  1  0.537000  0.763000  0.271500  1.0  -0.1281
  C  C173  1  0.537300  0.703500  0.329200  1.0  -0.2014
  C  C174  1  0.474700  0.673500  0.313300  1.0  -0.0444
  C  C175  1  0.417700  0.701500  0.241700  1.0  -0.0633
  C  C176  1  0.416100  0.763400  0.182900  1.0  -0.2235
  C  C177  1  0.477200  0.607500  0.377500  1.0  0.7078
  C  C178  1  0.120400  0.574900  0.473500  1.0  0.5048
  C  C179  1  0.031900  0.640800  0.494200  1.0  -0.0994
  C  C180  1  0.056400  0.571400  0.487100  1.0  -0.1075
  C  C181  1  0.496700  0.245300  0.038300  1.0  -0.0823
  C  C182  1  0.494800  0.169000  0.064700  1.0  0.2428
  C  C183  1  0.480100  0.144800  0.133400  1.0  -0.0947
  C  C184  1  0.474900  0.066300  0.156800  1.0  0.0942
  C  C185  1  0.461400  0.037900  0.228000  1.0  -0.1181
  C  C186  1  0.479500  0.206400  0.198200  1.0  0.1369
  C  C187  1  0.537000  0.237000  0.271500  1.0  -0.1283
  C  C188  1  0.537300  0.296500  0.329200  1.0  -0.2017
  C  C189  1  0.474700  0.326500  0.313300  1.0  -0.0436
  C  C190  1  0.417700  0.298500  0.241700  1.0  -0.0634
  C  C191  1  0.416100  0.236600  0.182900  1.0  -0.2221
  C  C192  1  0.477200  0.392500  0.377500  1.0  0.7079
  C  C193  1  0.120400  0.425100  0.473500  1.0  0.5036
  C  C194  1  0.031900  0.359200  0.494200  1.0  -0.0966
  C  C195  1  0.056400  0.428600  0.487100  1.0  -0.1085
  C  C196  1  0.503300  0.245300  0.961700  1.0  -0.0817
  C  C197  1  0.505200  0.169000  0.935300  1.0  0.2415
  C  C198  1  0.519900  0.144800  0.866600  1.0  -0.0943
  C  C199  1  0.525100  0.066300  0.843200  1.0  0.0953
  C  C200  1  0.538600  0.037900  0.772000  1.0  -0.1171
  C  C201  1  0.520500  0.206400  0.801800  1.0  0.1356
  C  C202  1  0.463000  0.237000  0.728500  1.0  -0.1283
  C  C203  1  0.462700  0.296500  0.670800  1.0  -0.2027
  C  C204  1  0.525300  0.326500  0.686700  1.0  -0.0459
  C  C205  1  0.582300  0.298500  0.758300  1.0  -0.0623
  C  C206  1  0.583900  0.236600  0.817100  1.0  -0.2203
  C  C207  1  0.522800  0.392500  0.622500  1.0  0.7079
  C  C208  1  0.879600  0.425100  0.526500  1.0  0.5009
  C  C209  1  0.968100  0.359200  0.505800  1.0  -0.0978
  C  C210  1  0.943600  0.428600  0.512900  1.0  -0.1105
  C  C211  1  0.733200  0.500000  0.627800  1.0  0.1708
  C  C212  1  0.800800  0.500000  0.629000  1.0  -0.1456
  C  C213  1  0.796100  0.500000  0.546800  1.0  0.3212
  C  C214  1  0.730200  0.500000  0.462700  1.0  -0.1385
  C  C215  1  0.664100  0.500000  0.463800  1.0  0.1037
  C  C216  1  0.967700  0.500000  0.503800  1.0  -0.0477
  C  C217  1  0.266800  0.500000  0.372200  1.0  0.1688
  C  C218  1  0.199200  0.500000  0.371000  1.0  -0.1397
  C  C219  1  0.203900  0.500000  0.453200  1.0  0.3202
  C  C220  1  0.269800  0.500000  0.537300  1.0  -0.1414
  C  C221  1  0.335900  0.500000  0.536200  1.0  0.1028
  C  C222  1  0.032300  0.500000  0.496200  1.0  -0.0482
  N  N223  1  0.172200  0.000000  0.552400  1.0  -0.2846
  N  N224  1  0.356300  0.000000  0.536200  1.0  -0.2016
  N  N225  1  0.827800  0.000000  0.447600  1.0  -0.2839
  N  N226  1  0.643700  0.000000  0.463800  1.0  -0.2022
  N  N227  1  0.017900  0.500000  0.891400  1.0  -0.4412
  N  N228  1  0.982100  0.500000  0.108600  1.0  -0.4421
  N  N229  1  0.000000  0.380700  0.000000  1.0  -0.375
  N  N230  1  0.000000  0.619300  0.000000  1.0  -0.3764
  N  N231  1  0.672200  0.500000  0.552400  1.0  -0.2846
  N  N232  1  0.856300  0.500000  0.536200  1.0  -0.2016
  N  N233  1  0.327800  0.500000  0.447600  1.0  -0.2839
  N  N234  1  0.143700  0.500000  0.463800  1.0  -0.2022
  N  N235  1  0.517900  0.000000  0.891400  1.0  -0.4412
  N  N236  1  0.482100  0.000000  0.108600  1.0  -0.4421
  N  N237  1  0.500000  0.880700  0.000000  1.0  -0.375
  N  N238  1  0.500000  0.119300  0.000000  1.0  -0.3764
  O  O239  1  0.964200  0.082700  0.558900  1.0  -0.6088
  O  O240  1  0.081300  0.084400  0.635100  1.0  -0.5774
  O  O241  1  0.351800  0.134500  0.529300  1.0  -0.4328
  O  O242  1  0.035800  0.082700  0.441100  1.0  -0.6092
  O  O243  1  0.918700  0.084400  0.364900  1.0  -0.5774
  O  O244  1  0.648200  0.134500  0.470700  1.0  -0.432
  O  O245  1  0.035800  0.917300  0.441100  1.0  -0.6092
  O  O246  1  0.918700  0.915600  0.364900  1.0  -0.5774
  O  O247  1  0.648200  0.865500  0.470700  1.0  -0.4335
  O  O248  1  0.964200  0.917300  0.558900  1.0  -0.6086
  O  O249  1  0.081300  0.915600  0.635100  1.0  -0.5762
  O  O250  1  0.351800  0.865500  0.529300  1.0  -0.434
  O  O251  1  0.464200  0.582700  0.558900  1.0  -0.6088
  O  O252  1  0.581300  0.584400  0.635100  1.0  -0.5774
  O  O253  1  0.851800  0.634500  0.529300  1.0  -0.4328
  O  O254  1  0.535800  0.582700  0.441100  1.0  -0.6092
  O  O255  1  0.418700  0.584400  0.364900  1.0  -0.5774
  O  O256  1  0.148200  0.634500  0.470700  1.0  -0.432
  O  O257  1  0.535800  0.417300  0.441100  1.0  -0.6092
  O  O258  1  0.418700  0.415600  0.364900  1.0  -0.5774
  O  O259  1  0.148200  0.365500  0.470700  1.0  -0.4335
  O  O260  1  0.464200  0.417300  0.558900  1.0  -0.6086
  O  O261  1  0.581300  0.415600  0.635100  1.0  -0.5762
  O  O262  1  0.851800  0.365500  0.529300  1.0  -0.434
