# generated using pymatgen
data_MnZn2H36C72(N2O3)4
_symmetry_space_group_name_H-M   'P 1'
_cell_length_a   13.37200000
_cell_length_b   14.16400000
_cell_length_c   16.71300000
_cell_angle_alpha   69.62600000
_cell_angle_beta   68.78600000
_cell_angle_gamma   73.54400000
_symmetry_Int_Tables_number   1
_chemical_formula_structural   MnZn2H36C72(N2O3)4
_chemical_formula_sum   'Mn1 Zn2 H36 C72 N8 O12'
_cell_volume   2721.15985599
_cell_formula_units_Z   1
loop_
 _symmetry_equiv_pos_site_id
 _symmetry_equiv_pos_as_xyz
  1  'x, y, z'
loop_
 _atom_site_type_symbol
 _atom_site_label
 _atom_site_symmetry_multiplicity
 _atom_site_fract_x
 _atom_site_fract_y
 _atom_site_fract_z
 _atom_site_occupancy
 _atom_site_charge
  Mn  Mn1  1  0.500000  0.000000  0.500000  1.0  0.9558
  Zn  Zn2  1  0.082230  0.567100  0.959320  1.0  0.8958
  Zn  Zn3  1  0.917770  0.432900  0.040680  1.0  0.896
  H  H4  1  0.958500  0.774100  0.743000  1.0  0.1278
  H  H5  1  0.854000  0.873400  0.632000  1.0  0.1346
  H  H6  1  0.615500  0.721900  0.787900  1.0  0.1155
  H  H7  1  0.715400  0.623900  0.881500  1.0  0.1036
  H  H8  1  0.594400  0.950900  0.781200  1.0  0.1135
  H  H9  1  0.443500  0.097100  0.781800  1.0  0.1324
  H  H10  1  0.188000  0.293000  0.573100  1.0  0.1209
  H  H11  1  0.180500  0.283100  0.434600  1.0  0.1353
  H  H12  1  0.396400  0.326500  0.641300  1.0  0.112
  H  H13  1  0.310100  0.423800  0.752600  1.0  0.1273
  H  H14  1  0.083700  0.234600  0.874100  1.0  0.1288
  H  H15  1  0.184200  0.145500  0.762100  1.0  0.1049
  H  H16  1  0.176900  0.598800  0.081400  1.0  0.1202
  H  H17  1  0.290800  0.696700  0.075700  1.0  0.1314
  H  H18  1  0.311200  0.830300  0.812600  1.0  0.1495
  H  H19  1  0.213200  0.724900  0.831600  1.0  0.0784
  H  H20  1  0.263300  0.133100  0.954100  1.0  0.0833
  H  H21  1  0.655200  0.759800  0.027800  1.0  0.1121
  H  H22  1  0.041500  0.225900  0.257000  1.0  0.1275
  H  H23  1  0.146000  0.126600  0.368000  1.0  0.1338
  H  H24  1  0.384500  0.278100  0.212100  1.0  0.1148
  H  H25  1  0.284600  0.376100  0.118500  1.0  0.1044
  H  H26  1  0.405600  0.049100  0.218800  1.0  0.1141
  H  H27  1  0.556500  0.902900  0.218200  1.0  0.1328
  H  H28  1  0.812000  0.707000  0.426900  1.0  0.1208
  H  H29  1  0.819500  0.716900  0.565400  1.0  0.135
  H  H30  1  0.603600  0.673500  0.358700  1.0  0.1125
  H  H31  1  0.689900  0.576200  0.247400  1.0  0.1259
  H  H32  1  0.916300  0.765400  0.125900  1.0  0.1293
  H  H33  1  0.815800  0.854500  0.237900  1.0  0.105
  H  H34  1  0.823100  0.401200  0.918600  1.0  0.1192
  H  H35  1  0.709200  0.303300  0.924300  1.0  0.1314
  H  H36  1  0.688800  0.169700  0.187400  1.0  0.1485
  H  H37  1  0.786800  0.275100  0.168400  1.0  0.0738
  H  H38  1  0.736700  0.866900  0.045900  1.0  0.0845
  H  H39  1  0.344800  0.240200  0.972200  1.0  0.1118
  C  C40  1  0.914100  0.632800  0.884000  1.0  0.6418
  C  C41  1  0.841800  0.690500  0.820500  1.0  -0.1211
  C  C42  1  0.890100  0.762900  0.750300  1.0  -0.0683
  C  C43  1  0.826000  0.824700  0.684000  1.0  -0.1708
  C  C44  1  0.722900  0.803100  0.707000  1.0  0.1146
  C  C45  1  0.685200  0.733200  0.776300  1.0  -0.1539
  C  C46  1  0.744400  0.675400  0.832800  1.0  -0.0111
  C  C47  1  0.656600  0.865100  0.641000  1.0  -0.1161
  C  C48  1  0.580900  0.946500  0.660100  1.0  0.1108
  C  C49  1  0.557500  0.980200  0.738200  1.0  -0.1354
  C  C50  1  0.474400  0.060400  0.739500  1.0  -0.1566
  C  C51  1  0.444200  0.076500  0.661500  1.0  0.1798
  C  C52  1  0.353200  0.154200  0.640000  1.0  -0.0791
  C  C53  1  0.329400  0.171700  0.562400  1.0  0.2219
  C  C54  1  0.235300  0.248700  0.539900  1.0  -0.1462
  C  C55  1  0.230800  0.243100  0.465200  1.0  -0.1507
  C  C56  1  0.320200  0.161800  0.438500  1.0  0.1541
  C  C57  1  0.299200  0.218800  0.698700  1.0  0.0946
  C  C58  1  0.336400  0.307200  0.689100  1.0  -0.1369
  C  C59  1  0.282200  0.370100  0.753500  1.0  -0.0796
  C  C60  1  0.187200  0.341500  0.814400  1.0  -0.1341
  C  C61  1  0.144900  0.254800  0.828200  1.0  -0.0836
  C  C62  1  0.211000  0.200600  0.760200  1.0  -0.1094
  C  C63  1  0.119300  0.408300  0.888800  1.0  0.6009
  C  C64  1  0.203200  0.645700  0.027400  1.0  0.0719
  C  C65  1  0.271300  0.711600  0.024000  1.0  -0.1926
  C  C66  1  0.310900  0.791500  0.957200  1.0  0.238
  C  C67  1  0.285000  0.788100  0.869400  1.0  -0.2379
  C  C68  1  0.220800  0.717200  0.886800  1.0  0.2306
  C  C69  1  0.327000  0.952300  0.952500  1.0  0.5383
  C  C70  1  0.467000  0.802000  0.983100  1.0  0.4574
  C  C71  1  0.329600  0.106100  0.966700  1.0  -0.0115
  C  C72  1  0.369000  0.008000  0.971200  1.0  -0.1186
  C  C73  1  0.477200  0.963900  0.992800  1.0  0.0313
  C  C74  1  0.522000  0.861600  0.998000  1.0  -0.1054
  C  C75  1  0.621800  0.828100  0.020900  1.0  -0.0695
  C  C76  1  0.085900  0.367200  0.116000  1.0  0.6412
  C  C77  1  0.158200  0.309500  0.179500  1.0  -0.1223
  C  C78  1  0.109900  0.237100  0.249700  1.0  -0.0685
  C  C79  1  0.174000  0.175300  0.316000  1.0  -0.174
  C  C80  1  0.277100  0.196900  0.293000  1.0  0.1139
  C  C81  1  0.314800  0.266800  0.223700  1.0  -0.1544
  C  C82  1  0.255600  0.324600  0.167200  1.0  -0.0097
  C  C83  1  0.343400  0.134900  0.359000  1.0  -0.1166
  C  C84  1  0.419100  0.053500  0.339900  1.0  0.1021
  C  C85  1  0.442500  0.019800  0.261800  1.0  -0.1365
  C  C86  1  0.525600  0.939600  0.260500  1.0  -0.1561
  C  C87  1  0.555800  0.923500  0.338500  1.0  0.1608
  C  C88  1  0.646800  0.845800  0.360000  1.0  -0.0792
  C  C89  1  0.670600  0.828300  0.437600  1.0  0.2228
  C  C90  1  0.764700  0.751300  0.460100  1.0  -0.1468
  C  C91  1  0.769200  0.756900  0.534800  1.0  -0.1489
  C  C92  1  0.679800  0.838200  0.561500  1.0  0.1606
  C  C93  1  0.700800  0.781200  0.301300  1.0  0.0983
  C  C94  1  0.663600  0.692800  0.310900  1.0  -0.137
  C  C95  1  0.717800  0.629900  0.246500  1.0  -0.0798
  C  C96  1  0.812800  0.658500  0.185600  1.0  -0.1329
  C  C97  1  0.855100  0.745200  0.171800  1.0  -0.0823
  C  C98  1  0.789000  0.799400  0.239800  1.0  -0.1082
  C  C99  1  0.880700  0.591700  0.111200  1.0  0.6001
  C  C100  1  0.796800  0.354300  0.972600  1.0  0.0712
  C  C101  1  0.728700  0.288400  0.976000  1.0  -0.191
  C  C102  1  0.689100  0.208500  0.042800  1.0  0.2371
  C  C103  1  0.715000  0.211900  0.130600  1.0  -0.2418
  C  C104  1  0.779200  0.282800  0.113200  1.0  0.2324
  C  C105  1  0.673000  0.047700  0.047500  1.0  0.5352
  C  C106  1  0.533000  0.198000  0.016900  1.0  0.4577
  C  C107  1  0.670400  0.893900  0.033300  1.0  -0.0094
  C  C108  1  0.631000  0.992000  0.028800  1.0  -0.1207
  C  C109  1  0.522800  0.036100  0.007200  1.0  0.0304
  C  C110  1  0.478000  0.138400  0.002000  1.0  -0.1038
  C  C111  1  0.378200  0.171900  0.979100  1.0  -0.0682
  N  N112  1  0.505500  0.010600  0.611900  1.0  -0.4502
  N  N113  1  0.375200  0.111900  0.504600  1.0  -0.4473
  N  N114  1  0.169600  0.650100  0.937900  1.0  -0.2573
  N  N115  1  0.364500  0.852900  0.959400  1.0  -0.1649
  N  N116  1  0.494500  0.989400  0.388100  1.0  -0.4519
  N  N117  1  0.624800  0.888100  0.495400  1.0  -0.4478
  N  N118  1  0.830400  0.349900  0.062100  1.0  -0.257
  N  N119  1  0.635500  0.147100  0.040600  1.0  -0.1679
  O  O120  1  0.998500  0.658900  0.874900  1.0  -0.5478
  O  O121  1  0.868400  0.554500  0.941500  1.0  -0.6082
  O  O122  1  0.033100  0.375500  0.940000  1.0  -0.5695
  O  O123  1  0.161800  0.483800  0.874000  1.0  -0.5382
  O  O124  1  0.237000  0.978800  0.932700  1.0  -0.5336
  O  O125  1  0.503300  0.708200  0.988400  1.0  -0.4728
  O  O126  1  0.001500  0.341100  0.125100  1.0  -0.5412
  O  O127  1  0.131600  0.445500  0.058500  1.0  -0.6081
  O  O128  1  0.966900  0.624500  0.060000  1.0  -0.5685
  O  O129  1  0.838200  0.516200  0.126000  1.0  -0.5384
  O  O130  1  0.763000  0.021200  0.067300  1.0  -0.5361
  O  O131  1  0.496700  0.291800  0.011600  1.0  -0.4703
