# generated using pymatgen
data_ZnH16C18(NO)4
_symmetry_space_group_name_H-M   'P 1'
_cell_length_a   14.77400000
_cell_length_b   15.65300000
_cell_length_c   16.87100000
_cell_angle_alpha   90.00000000
_cell_angle_beta   90.00000000
_cell_angle_gamma   90.00000000
_symmetry_Int_Tables_number   1
_chemical_formula_structural   ZnH16C18(NO)4
_chemical_formula_sum   'Zn8 H128 C144 N32 O32'
_cell_volume   3901.54396656
_cell_formula_units_Z   8
loop_
 _symmetry_equiv_pos_site_id
 _symmetry_equiv_pos_as_xyz
  1  'x, y, z'
loop_
 _atom_site_type_symbol
 _atom_site_label
 _atom_site_symmetry_multiplicity
 _atom_site_fract_x
 _atom_site_fract_y
 _atom_site_fract_z
 _atom_site_occupancy
 _atom_site_charge
  Zn  Zn1  1  0.588060  0.028390  0.237510  1.0  0.8255
  Zn  Zn2  1  0.346260  0.975320  0.709730  1.0  0.8437
  Zn  Zn3  1  0.088060  0.471610  0.762490  1.0  0.8256
  Zn  Zn4  1  0.846260  0.524680  0.290270  1.0  0.8435
  Zn  Zn5  1  0.153740  0.024680  0.209730  1.0  0.8441
  Zn  Zn6  1  0.911940  0.971610  0.737510  1.0  0.8254
  Zn  Zn7  1  0.653740  0.475320  0.790270  1.0  0.8442
  Zn  Zn8  1  0.411940  0.528390  0.262490  1.0  0.8248
  H  H9  1  0.502900  0.848600  0.664900  1.0  0.0994
  H  H10  1  0.160100  0.528300  0.093000  1.0  0.1044
  H  H11  1  0.543100  0.624900  0.114900  1.0  0.0963
  H  H12  1  0.263400  0.208300  0.885000  1.0  0.0897
  H  H13  1  0.380200  0.618800  0.016800  1.0  0.0906
  H  H14  1  0.632600  0.746700  0.881200  1.0  0.0981
  H  H15  1  0.467500  0.619200  0.832400  1.0  0.1148
  H  H16  1  0.767300  0.571400  0.970800  1.0  0.1246
  H  H17  1  0.926900  0.589900  0.812600  1.0  0.0867
  H  H18  1  0.196300  0.209500  0.733800  1.0  0.0827
  H  H19  1  0.927900  0.943200  0.103600  1.0  0.1209
  H  H20  1  0.232500  0.814000  0.645300  1.0  0.1091
  H  H21  1  0.426900  0.910100  0.187400  1.0  0.0874
  H  H22  1  0.100600  0.848700  0.017200  1.0  0.0903
  H  H23  1  0.603100  0.842400  0.138500  1.0  0.0865
  H  H24  1  0.137700  0.562000  0.964200  1.0  0.1094
  H  H25  1  0.343400  0.733000  0.096700  1.0  0.1172
  H  H26  1  0.642700  0.824600  0.740500  1.0  0.121
  H  H27  1  0.043100  0.875100  0.885100  1.0  0.0968
  H  H28  1  0.103100  0.657600  0.861500  1.0  0.0866
  H  H29  1  0.637700  0.938000  0.035800  1.0  0.1092
  H  H30  1  0.363600  0.888100  0.908200  1.0  0.0978
  H  H31  1  0.392600  0.045400  0.993200  1.0  0.1156
  H  H32  1  0.602400  0.749700  0.284300  1.0  0.129
  H  H33  1  0.896300  0.728700  0.171300  1.0  0.1019
  H  H34  1  0.892600  0.454600  0.006800  1.0  0.1157
  H  H35  1  0.283000  0.875100  0.106400  1.0  0.11
  H  H36  1  0.710400  0.899000  0.335100  1.0  0.1183
  H  H37  1  0.360600  0.657600  0.710300  1.0  0.1422
  H  H38  1  0.267300  0.928600  0.029200  1.0  0.1253
  H  H39  1  0.763400  0.291700  0.115000  1.0  0.0885
  H  H40  1  0.142700  0.675400  0.259500  1.0  0.1204
  H  H41  1  0.511200  0.704500  0.163300  1.0  0.1048
  H  H42  1  0.699500  0.560700  0.158000  1.0  0.0806
  H  H43  1  0.199500  0.939300  0.842000  1.0  0.0805
  H  H44  1  0.880200  0.881200  0.983200  1.0  0.0899
  H  H45  1  0.660100  0.971700  0.907000  1.0  0.1005
  H  H46  1  0.011200  0.795500  0.836700  1.0  0.1051
  H  H47  1  0.991100  0.503800  0.148600  1.0  0.0944
  H  H48  1  0.600600  0.651300  0.982800  1.0  0.0911
  H  H49  1  0.939000  0.662000  0.572200  1.0  0.0917
  H  H50  1  0.863600  0.611900  0.091800  1.0  0.0972
  H  H51  1  0.696300  0.290500  0.266200  1.0  0.0837
  H  H52  1  0.763800  0.998700  0.126500  1.0  0.1016
  H  H53  1  0.216300  0.597600  0.138500  1.0  0.1175
  H  H54  1  0.959500  0.494600  0.531000  1.0  0.0787
  H  H55  1  0.263800  0.501300  0.873500  1.0  0.1015
  H  H56  1  0.783000  0.624900  0.893600  1.0  0.1097
  H  H57  1  0.515900  0.109800  0.068900  1.0  0.1133
  H  H58  1  0.967500  0.880800  0.167600  1.0  0.1152
  H  H59  1  0.860600  0.842400  0.289700  1.0  0.139
  H  H60  1  0.102400  0.750300  0.715700  1.0  0.1282
  H  H61  1  0.396300  0.771300  0.828700  1.0  0.1027
  H  H62  1  0.210400  0.601000  0.664900  1.0  0.1203
  H  H63  1  0.015900  0.390200  0.931100  1.0  0.1126
  H  H64  1  0.132600  0.753300  0.118800  1.0  0.0972
  H  H65  1  0.843400  0.767000  0.903300  1.0  0.1166
  H  H66  1  0.439000  0.838000  0.427800  1.0  0.0954
  H  H67  1  0.732500  0.686000  0.354700  1.0  0.1074
  H  H68  1  0.459500  0.005400  0.469000  1.0  0.0792
  H  H69  1  0.491100  0.996200  0.851400  1.0  0.0934
  H  H70  1  0.002900  0.651400  0.335100  1.0  0.099
  H  H71  1  0.427900  0.556800  0.896400  1.0  0.1212
  H  H72  1  0.716300  0.902400  0.861500  1.0  0.1168
  H  H73  1  0.232700  0.071400  0.529200  1.0  0.1233
  H  H74  1  0.736200  0.001300  0.626500  1.0  0.1014
  H  H75  1  0.803700  0.709500  0.766200  1.0  0.0837
  H  H76  1  0.857300  0.175400  0.240500  1.0  0.1216
  H  H77  1  0.732700  0.428600  0.470800  1.0  0.1234
  H  H78  1  0.639400  0.157600  0.789700  1.0  0.1417
  H  H79  1  0.997100  0.151400  0.164900  1.0  0.0982
  H  H80  1  0.717000  0.375100  0.393600  1.0  0.1101
  H  H81  1  0.497100  0.348600  0.835100  1.0  0.0988
  H  H82  1  0.136400  0.111900  0.408200  1.0  0.0971
  H  H83  1  0.236200  0.498700  0.373500  1.0  0.1009
  H  H84  1  0.399400  0.151300  0.517200  1.0  0.0911
  H  H85  1  0.396900  0.342400  0.361500  1.0  0.0862
  H  H86  1  0.032500  0.380800  0.332400  1.0  0.1167
  H  H87  1  0.603700  0.271300  0.671300  1.0  0.1023
  H  H88  1  0.303700  0.790500  0.233800  1.0  0.0827
  H  H89  1  0.289600  0.399000  0.164900  1.0  0.1201
  H  H90  1  0.072100  0.443200  0.396400  1.0  0.1195
  H  H91  1  0.767500  0.314000  0.854700  1.0  0.1113
  H  H92  1  0.073100  0.089900  0.687400  1.0  0.0872
  H  H93  1  0.156600  0.267000  0.596700  1.0  0.1157
  H  H94  1  0.488800  0.204500  0.336700  1.0  0.1046
  H  H95  1  0.061000  0.162000  0.927800  1.0  0.0921
  H  H96  1  0.508900  0.496200  0.648600  1.0  0.0935
  H  H97  1  0.800500  0.439300  0.658000  1.0  0.0808
  H  H98  1  0.217000  0.124900  0.606400  1.0  0.1101
  H  H99  1  0.300500  0.060700  0.342000  1.0  0.0808
  H  H100  1  0.783700  0.097600  0.361500  1.0  0.1173
  H  H101  1  0.956900  0.375100  0.614900  1.0  0.0955
  H  H102  1  0.267500  0.186000  0.145300  1.0  0.1111
  H  H103  1  0.789600  0.101000  0.835100  1.0  0.1177
  H  H104  1  0.561000  0.338000  0.072200  1.0  0.096
  H  H105  1  0.736600  0.708300  0.615000  1.0  0.0888
  H  H106  1  0.899400  0.348700  0.482800  1.0  0.0916
  H  H107  1  0.984100  0.890200  0.568900  1.0  0.1126
  H  H108  1  0.456900  0.124900  0.385100  1.0  0.0947
  H  H109  1  0.573100  0.410100  0.312600  1.0  0.0866
  H  H110  1  0.139400  0.342400  0.210300  1.0  0.1417
  H  H111  1  0.862300  0.062000  0.535800  1.0  0.11
  H  H112  1  0.656600  0.233000  0.403300  1.0  0.1174
  H  H113  1  0.008900  0.003800  0.351400  1.0  0.093
  H  H114  1  0.532500  0.119200  0.667600  1.0  0.1164
  H  H115  1  0.397600  0.249700  0.215700  1.0  0.1292
  H  H116  1  0.988800  0.295500  0.663300  1.0  0.1047
  H  H117  1  0.040500  0.994600  0.969000  1.0  0.0792
  H  H118  1  0.897600  0.250300  0.784300  1.0  0.13
  H  H119  1  0.867400  0.253300  0.381200  1.0  0.0979
  H  H120  1  0.484100  0.609800  0.431100  1.0  0.1129
  H  H121  1  0.283700  0.402400  0.638500  1.0  0.1169
  H  H122  1  0.896900  0.157600  0.638500  1.0  0.0867
  H  H123  1  0.339900  0.471700  0.593000  1.0  0.1025
  H  H124  1  0.103700  0.228700  0.328700  1.0  0.1028
  H  H125  1  0.572100  0.056800  0.603600  1.0  0.1224
  H  H126  1  0.107400  0.954600  0.493200  1.0  0.1155
  H  H127  1  0.839900  0.028300  0.407000  1.0  0.1041
  H  H128  1  0.367400  0.246700  0.618800  1.0  0.0976
  H  H129  1  0.236600  0.791700  0.385000  1.0  0.0895
  H  H130  1  0.362300  0.438000  0.464200  1.0  0.1097
  H  H131  1  0.540500  0.505400  0.031000  1.0  0.0792
  H  H132  1  0.357300  0.324600  0.759500  1.0  0.1211
  H  H133  1  0.607400  0.545400  0.506800  1.0  0.1154
  H  H134  1  0.636400  0.388100  0.591800  1.0  0.0974
  H  H135  1  0.119800  0.381200  0.516800  1.0  0.0902
  H  H136  1  0.619800  0.118800  0.483200  1.0  0.0905
  C  C137  1  0.255500  0.187800  0.833700  1.0  -0.1534
  C  C138  1  0.852700  0.758700  0.957200  1.0  -0.1458
  C  C139  1  0.138200  0.795500  0.732900  1.0  -0.1609
  C  C140  1  0.128700  0.619600  0.975100  1.0  -0.1369
  C  C141  1  0.843800  0.677700  0.990300  1.0  0.0764
  C  C142  1  0.093600  0.762800  0.930000  1.0  0.0668
  C  C143  1  0.323100  0.620000  0.737500  1.0  -0.1396
  C  C144  1  0.414900  0.026000  0.041500  1.0  -0.1152
  C  C145  1  0.157300  0.584900  0.116300  1.0  -0.0868
  C  C146  1  0.692500  0.600300  0.198600  1.0  0.1685
  C  C147  1  0.823100  0.880000  0.262500  1.0  -0.1374
  C  C148  1  0.390000  0.929700  0.552800  1.0  0.6765
  C  C149  1  0.456900  0.894500  0.421200  1.0  -0.2285
  C  C150  1  0.635800  0.850300  0.948200  1.0  0.0576
  C  C151  1  0.205500  0.232400  0.784000  1.0  -0.1301
  C  C152  1  0.162400  0.316600  0.801300  1.0  0.7112
  C  C153  1  0.239500  0.587900  0.712300  1.0  -0.0309
  C  C154  1  0.439800  0.949600  0.476600  1.0  -0.1466
  C  C155  1  0.095800  0.638400  0.246500  1.0  -0.1605
  C  C156  1  0.605800  0.709200  0.994000  1.0  -0.1078
  C  C157  1  0.391700  0.681000  0.915900  1.0  0.0514
  C  C158  1  0.705500  0.267600  0.216000  1.0  -0.131
  C  C159  1  0.800000  0.394500  0.188600  1.0  0.6896
  C  C160  1  0.934200  0.548400  0.851500  1.0  0.1579
  C  C161  1  0.914900  0.474000  0.958500  1.0  -0.1135
  C  C162  1  0.939800  0.550400  0.523400  1.0  -0.153
  C  C163  1  0.875700  0.827200  0.005800  1.0  -0.1082
  C  C164  1  0.956900  0.605500  0.578800  1.0  -0.2287
  C  C165  1  0.607600  0.822800  0.086600  1.0  -0.0875
  C  C166  1  0.483000  0.061600  0.083200  1.0  -0.0328
  C  C167  1  0.593600  0.737200  0.070000  1.0  0.0668
  C  C168  1  0.210100  0.831900  0.694100  1.0  0.0276
  C  C169  1  0.343800  0.822300  0.009700  1.0  0.0758
  C  C170  1  0.812300  0.603100  0.940900  1.0  -0.0821
  C  C171  1  0.504600  0.920000  0.347100  1.0  0.6828
  C  C172  1  0.885800  0.736400  0.117400  1.0  -0.1107
  C  C173  1  0.983000  0.438400  0.916800  1.0  -0.0332
  C  C174  1  0.107600  0.677200  0.913400  1.0  -0.0876
  C  C175  1  0.628700  0.880400  0.024900  1.0  -0.1369
  C  C176  1  0.434200  0.951600  0.148500  1.0  0.1589
  C  C177  1  0.511700  0.956600  0.814500  1.0  0.1635
  C  C178  1  0.011700  0.543400  0.185500  1.0  0.1664
  C  C179  1  0.375700  0.672800  0.994200  1.0  -0.1097
  C  C180  1  0.268400  0.533200  0.827200  1.0  0.1483
  C  C181  1  0.300000  0.105500  0.811400  1.0  0.6889
  C  C182  1  0.638200  0.704500  0.267100  1.0  -0.1635
  C  C183  1  0.518600  0.875300  0.712200  1.0  0.0008
  C  C184  1  0.891700  0.819000  0.084100  1.0  0.0516
  C  C185  1  0.004600  0.580000  0.652900  1.0  0.6838
  C  C186  1  0.657300  0.915100  0.883700  1.0  -0.0885
  C  C187  1  0.414100  0.606000  0.863600  1.0  -0.0603
  C  C188  1  0.135800  0.649700  0.051800  1.0  0.0577
  C  C189  1  0.595800  0.861600  0.753500  1.0  -0.1589
  C  C190  1  0.890000  0.570300  0.447200  1.0  0.6792
  C  C191  1  0.364300  0.833500  0.930000  1.0  -0.1026
  C  C192  1  0.864300  0.666500  0.070000  1.0  -0.1151
  C  C193  1  0.739500  0.912100  0.287700  1.0  -0.031
  C  C194  1  0.768400  0.966800  0.172800  1.0  0.1469
  C  C195  1  0.312300  0.896900  0.059100  1.0  -0.0853
  C  C196  1  0.385800  0.763600  0.882600  1.0  -0.1042
  C  C197  1  0.755500  0.312200  0.166300  1.0  -0.152
  C  C198  1  0.126000  0.733300  0.067200  1.0  -0.1164
  C  C199  1  0.352700  0.741300  0.042800  1.0  -0.144
  C  C200  1  0.914100  0.894000  0.136400  1.0  -0.0599
  C  C201  1  0.626000  0.766700  0.932800  1.0  -0.1163
  C  C202  1  0.563100  0.678600  0.137600  1.0  -0.1087
  C  C203  1  0.105800  0.790800  0.006000  1.0  -0.1081
  C  C204  1  0.018600  0.624700  0.287800  1.0  -1e-04
  C  C205  1  0.662400  0.183400  0.198700  1.0  0.71
  C  C206  1  0.710100  0.668100  0.305900  1.0  0.0271
  C  C207  1  0.192500  0.899700  0.801400  1.0  0.1678
  C  C208  1  0.063100  0.821400  0.862400  1.0  -0.1097
  C  C209  1  0.676900  0.120000  0.762500  1.0  -0.1397
  C  C210  1  0.307500  0.100300  0.301400  1.0  0.1681
  C  C211  1  0.517000  0.561600  0.416800  1.0  -0.0342
  C  C212  1  0.017000  0.938400  0.583200  1.0  -0.0337
  C  C213  1  0.988300  0.043400  0.314500  1.0  0.1637
  C  C214  1  0.156200  0.177700  0.509700  1.0  0.076
  C  C215  1  0.361800  0.204500  0.232900  1.0  -0.1628
  C  C216  1  0.404200  0.361600  0.746500  1.0  -0.157
  C  C217  1  0.760500  0.087900  0.787700  1.0  -0.0305
  C  C218  1  0.981400  0.124700  0.212200  1.0  0.001
  C  C219  1  0.864200  0.149700  0.448200  1.0  0.0577
  C  C220  1  0.231600  0.466800  0.327200  1.0  0.1477
  C  C221  1  0.904200  0.138400  0.253500  1.0  -0.1602
  C  C222  1  0.560200  0.449600  0.023400  1.0  -0.1544
  C  C223  1  0.731600  0.033200  0.672800  1.0  0.1478
  C  C224  1  0.700000  0.605500  0.688600  1.0  0.6898
  C  C225  1  0.614200  0.263600  0.617400  1.0  -0.1128
  C  C226  1  0.065800  0.048400  0.648500  1.0  0.16
  C  C227  1  0.187700  0.103100  0.559100  1.0  -0.0868
  C  C228  1  0.436900  0.178600  0.362400  1.0  -0.1109
  C  C229  1  0.837600  0.816600  0.698700  1.0  0.7109
  C  C230  1  0.744500  0.687800  0.666300  1.0  -0.1528
  C  C231  1  0.687700  0.396900  0.440900  1.0  -0.0853
  C  C232  1  0.371300  0.380400  0.475100  1.0  -0.1367
  C  C233  1  0.871300  0.119600  0.524900  1.0  -0.1357
  C  C234  1  0.495400  0.420000  0.152900  1.0  0.6841
  C  C235  1  0.610000  0.429700  0.947200  1.0  0.6771
  C  C236  1  0.585100  0.526000  0.458500  1.0  -0.1138
  C  C237  1  0.200000  0.894500  0.311400  1.0  0.6899
  C  C238  1  0.543100  0.394500  0.078800  1.0  -0.2245
  C  C239  1  0.176900  0.380000  0.237500  1.0  -0.1359
  C  C240  1  0.807500  0.399700  0.698600  1.0  0.1686
  C  C241  1  0.406400  0.237200  0.430000  1.0  0.0668
  C  C242  1  0.794500  0.732400  0.716000  1.0  -0.1318
  C  C243  1  0.110000  0.070300  0.052800  1.0  0.6782
  C  C244  1  0.114200  0.236400  0.382600  1.0  -0.1153
  C  C245  1  0.108300  0.319000  0.415900  1.0  0.0515
  C  C246  1  0.392400  0.322800  0.413400  1.0  -0.0976
  C  C247  1  0.861800  0.295500  0.767100  1.0  -0.161
  C  C248  1  0.337600  0.683400  0.301300  1.0  0.7107
  C  C249  1  0.060200  0.050400  0.976600  1.0  -0.1533
  C  C250  1  0.635700  0.333500  0.570000  1.0  -0.1029
  C  C251  1  0.995400  0.080000  0.847100  1.0  0.6851
  C  C252  1  0.789900  0.331900  0.805900  1.0  0.0266
  C  C253  1  0.364200  0.350300  0.551800  1.0  0.0575
  C  C254  1  0.488300  0.456600  0.685500  1.0  0.1621
  C  C255  1  0.085900  0.394000  0.363600  1.0  -0.0596
  C  C256  1  0.894200  0.290800  0.494000  1.0  -0.1051
  C  C257  1  0.608300  0.181000  0.584100  1.0  0.0517
  C  C258  1  0.892400  0.177200  0.586600  1.0  -0.0889
  C  C259  1  0.647300  0.241300  0.457200  1.0  -0.1356
  C  C260  1  0.585900  0.106000  0.636400  1.0  -0.0593
  C  C261  1  0.906400  0.262800  0.570000  1.0  0.0663
  C  C262  1  0.043100  0.105500  0.921200  1.0  -0.225
  C  C263  1  0.936900  0.321400  0.637600  1.0  -0.1107
  C  C264  1  0.342700  0.415100  0.616300  1.0  -0.0862
  C  C265  1  0.624300  0.172800  0.505800  1.0  -0.1077
  C  C266  1  0.135700  0.166500  0.430000  1.0  -0.1026
  C  C267  1  0.656200  0.322300  0.490300  1.0  0.0755
  C  C268  1  0.260500  0.412100  0.212300  1.0  -0.0301
  C  C269  1  0.294500  0.767600  0.284000  1.0  -0.134
  C  C270  1  0.289900  0.168100  0.194100  1.0  0.0271
  C  C271  1  0.874000  0.233300  0.432800  1.0  -0.1159
  C  C272  1  0.394200  0.209200  0.506000  1.0  -0.1089
  C  C273  1  0.124300  0.327200  0.494200  1.0  -0.109
  C  C274  1  0.244500  0.812200  0.333700  1.0  -0.1544
  C  C275  1  0.565800  0.451600  0.351500  1.0  0.1566
  C  C276  1  0.842700  0.084900  0.383700  1.0  -0.0867
  C  C277  1  0.374000  0.266700  0.567200  1.0  -0.1171
  C  C278  1  0.147300  0.258700  0.542800  1.0  -0.1462
  C  C279  1  0.085100  0.974000  0.541500  1.0  -0.1139
  C  C280  1  0.481400  0.375300  0.787800  1.0  0.0021
  N  N281  1  0.130700  0.839900  0.802100  1.0  0.0583
  N  N282  1  0.467400  0.934700  0.751100  1.0  -0.3487
  N  N283  1  0.338300  0.585000  0.810000  1.0  0.05
  N  N284  1  0.707800  0.967000  0.229100  1.0  -0.3745
  N  N285  1  0.244000  0.898500  0.737600  1.0  -0.4169
  N  N286  1  0.495100  0.012800  0.151800  1.0  -0.3975
  N  N287  1  0.967400  0.565300  0.248900  1.0  -0.3493
  N  N288  1  0.630700  0.660100  0.197900  1.0  0.0585
  N  N289  1  0.384200  0.955800  0.082900  1.0  0.0358
  N  N290  1  0.884200  0.544200  0.917100  1.0  0.0357
  N  N291  1  0.207800  0.533000  0.770900  1.0  -0.3739
  N  N292  1  0.090300  0.584900  0.179700  1.0  0.0098
  N  N293  1  0.590300  0.915100  0.820300  1.0  0.0106
  N  N294  1  0.995100  0.487200  0.848200  1.0  -0.3978
  N  N295  1  0.838300  0.915000  0.190000  1.0  0.0497
  N  N296  1  0.744000  0.601500  0.262400  1.0  -0.4169
  N  N297  1  0.532600  0.434700  0.748900  1.0  -0.3472
  N  N298  1  0.369300  0.160100  0.302100  1.0  0.0587
  N  N299  1  0.756000  0.398500  0.762400  1.0  -0.4195
  N  N300  1  0.256000  0.101500  0.237600  1.0  -0.4187
  N  N301  1  0.615800  0.455800  0.417100  1.0  0.0361
  N  N302  1  0.115800  0.044200  0.582900  1.0  0.0362
  N  N303  1  0.869300  0.339900  0.697900  1.0  0.0586
  N  N304  1  0.661700  0.085000  0.690000  1.0  0.0489
  N  N305  1  0.161700  0.415000  0.310000  1.0  0.0494
  N  N306  1  0.504900  0.512800  0.348200  1.0  -0.3985
  N  N307  1  0.292200  0.467000  0.270900  1.0  -0.3752
  N  N308  1  0.032600  0.065300  0.251100  1.0  -0.3466
  N  N309  1  0.792200  0.033000  0.729100  1.0  -0.3742
  N  N310  1  0.409700  0.415100  0.679700  1.0  0.01
  N  N311  1  0.004900  0.987200  0.651800  1.0  -0.3983
  N  N312  1  0.909700  0.084900  0.320300  1.0  0.0104
  O  O313  1  0.867600  0.646600  0.431000  1.0  -0.5834
  O  O314  1  0.305900  0.090100  0.737400  1.0  -0.6061
  O  O315  1  0.035400  0.504400  0.658500  1.0  -0.5913
  O  O316  1  0.669500  0.148400  0.131700  1.0  -0.6181
  O  O317  1  0.823900  0.445700  0.136500  1.0  -0.5945
  O  O318  1  0.323900  0.054300  0.863500  1.0  -0.5948
  O  O319  1  0.367600  0.853400  0.569000  1.0  -0.5831
  O  O320  1  0.169500  0.351600  0.868300  1.0  -0.6146
  O  O321  1  0.124300  0.351900  0.742900  1.0  -0.578
  O  O322  1  0.010800  0.636200  0.705700  1.0  -0.5795
  O  O323  1  0.624300  0.148100  0.257100  1.0  -0.5783
  O  O324  1  0.805900  0.409900  0.262600  1.0  -0.6077
  O  O325  1  0.876700  0.507300  0.402500  1.0  -0.591
  O  O326  1  0.535400  0.995600  0.341500  1.0  -0.59
  O  O327  1  0.510800  0.863800  0.294300  1.0  -0.5803
  O  O328  1  0.376700  0.992700  0.597500  1.0  -0.5908
  O  O329  1  0.875700  0.851900  0.757100  1.0  -0.5789
  O  O330  1  0.623300  0.492700  0.902500  1.0  -0.5908
  O  O331  1  0.489200  0.363800  0.205700  1.0  -0.5802
  O  O332  1  0.989200  0.136200  0.794300  1.0  -0.5798
  O  O333  1  0.123300  0.007300  0.097500  1.0  -0.5913
  O  O334  1  0.330500  0.648400  0.368300  1.0  -0.6151
  O  O335  1  0.375700  0.648100  0.242900  1.0  -0.5788
  O  O336  1  0.464600  0.495600  0.158500  1.0  -0.5903
  O  O337  1  0.694100  0.590100  0.762600  1.0  -0.6077
  O  O338  1  0.132400  0.146600  0.069000  1.0  -0.585
  O  O339  1  0.194100  0.909900  0.237400  1.0  -0.6067
  O  O340  1  0.830500  0.851600  0.631700  1.0  -0.6167
  O  O341  1  0.632400  0.353400  0.931000  1.0  -0.5836
  O  O342  1  0.964600  0.004400  0.841500  1.0  -0.5901
  O  O343  1  0.176100  0.945700  0.363500  1.0  -0.5957
  O  O344  1  0.676100  0.554300  0.636500  1.0  -0.5937
