# generated using pymatgen
data_ZnH16C18(NO)4
_symmetry_space_group_name_H-M   'P 1'
_cell_length_a   14.55200000
_cell_length_b   15.63900000
_cell_length_c   16.76400000
_cell_angle_alpha   90.00000000
_cell_angle_beta   90.00000000
_cell_angle_gamma   90.00000000
_symmetry_Int_Tables_number   1
_chemical_formula_structural   ZnH16C18(NO)4
_chemical_formula_sum   'Zn8 H128 C144 N32 O32'
_cell_volume   3815.12979619
_cell_formula_units_Z   8
loop_
 _symmetry_equiv_pos_site_id
 _symmetry_equiv_pos_as_xyz
  1  'x, y, z'
loop_
 _atom_site_type_symbol
 _atom_site_label
 _atom_site_symmetry_multiplicity
 _atom_site_fract_x
 _atom_site_fract_y
 _atom_site_fract_z
 _atom_site_occupancy
 _atom_site_charge
  Zn  Zn1  1  0.656080  0.476330  0.210360  1.0  0.8808
  Zn  Zn2  1  0.913230  0.974030  0.262380  1.0  0.8692
  Zn  Zn3  1  0.156080  0.023670  0.789640  1.0  0.881
  Zn  Zn4  1  0.413230  0.525970  0.737620  1.0  0.8691
  Zn  Zn5  1  0.843920  0.523670  0.710360  1.0  0.8806
  Zn  Zn6  1  0.586770  0.025970  0.762380  1.0  0.8694
  Zn  Zn7  1  0.343920  0.976330  0.289640  1.0  0.8806
  Zn  Zn8  1  0.086770  0.474030  0.237620  1.0  0.8694
  H  H9  1  0.734800  0.712300  0.384300  1.0  0.1121
  H  H10  1  0.808100  0.710100  0.233200  1.0  0.0969
  H  H11  1  0.549000  0.503700  0.965900  1.0  0.0983
  H  H12  1  0.563800  0.334400  0.927600  1.0  0.1125
  H  H13  1  0.773200  0.316100  0.145400  1.0  0.1141
  H  H14  1  0.901900  0.252000  0.217800  1.0  0.1319
  H  H15  1  0.801300  0.441500  0.345300  1.0  0.0972
  H  H16  1  0.995400  0.299400  0.343800  1.0  0.12
  H  H17  1  0.957700  0.376700  0.393300  1.0  0.0975
  H  H18  1  0.902600  0.346600  0.522200  1.0  0.0969
  H  H19  1  0.865100  0.249800  0.621300  1.0  0.0976
  H  H20  1  0.862700  0.060300  0.461800  1.0  0.1042
  H  H21  1  0.897800  0.157700  0.360600  1.0  0.0954
  H  H22  1  0.839400  0.023700  0.592200  1.0  0.1069
  H  H23  1  0.779600  0.091900  0.637000  1.0  0.1149
  H  H24  1  0.993800  0.148100  0.837200  1.0  0.1096
  H  H25  1  0.853300  0.170400  0.760300  1.0  0.1204
  H  H26  1  0.008300  0.001400  0.647400  1.0  0.0977
  H  H27  1  0.985200  0.891100  0.429900  1.0  0.1149
  H  H28  1  0.108900  0.952500  0.509100  1.0  0.1378
  H  H29  1  0.075900  0.092100  0.314900  1.0  0.0949
  H  H30  1  0.236100  0.071500  0.475900  1.0  0.119
  H  H31  1  0.221600  0.125000  0.397900  1.0  0.1066
  H  H32  1  0.137500  0.109600  0.595900  1.0  0.0979
  H  H33  1  0.094800  0.224200  0.675000  1.0  0.0976
  H  H34  1  0.121600  0.381000  0.487400  1.0  0.1059
  H  H35  1  0.160400  0.265600  0.407200  1.0  0.0998
  H  H36  1  0.028000  0.376200  0.674200  1.0  0.1186
  H  H37  1  0.065300  0.439300  0.609000  1.0  0.1148
  H  H38  1  0.292900  0.392200  0.834600  1.0  0.1142
  H  H39  1  0.142800  0.336500  0.792800  1.0  0.1456
  H  H40  1  0.231800  0.497400  0.629500  1.0  0.106
  H  H41  1  0.234800  0.787700  0.615700  1.0  0.112
  H  H42  1  0.308100  0.789900  0.766800  1.0  0.0971
  H  H43  1  0.049000  0.996300  0.034100  1.0  0.0964
  H  H44  1  0.063800  0.165600  0.072400  1.0  0.1067
  H  H45  1  0.273200  0.183900  0.854600  1.0  0.1139
  H  H46  1  0.401900  0.248000  0.782200  1.0  0.1326
  H  H47  1  0.301300  0.058500  0.654700  1.0  0.0969
  H  H48  1  0.495400  0.200600  0.656200  1.0  0.1199
  H  H49  1  0.457700  0.123300  0.606700  1.0  0.0996
  H  H50  1  0.402600  0.153400  0.477800  1.0  0.0959
  H  H51  1  0.365100  0.250200  0.378700  1.0  0.0986
  H  H52  1  0.362700  0.439700  0.538200  1.0  0.104
  H  H53  1  0.397800  0.342300  0.639400  1.0  0.0954
  H  H54  1  0.339400  0.476300  0.407800  1.0  0.1032
  H  H55  1  0.279600  0.408100  0.363000  1.0  0.1149
  H  H56  1  0.493800  0.351900  0.162800  1.0  0.1108
  H  H57  1  0.353300  0.329600  0.239700  1.0  0.1199
  H  H58  1  0.508300  0.498600  0.352600  1.0  0.0974
  H  H59  1  0.485200  0.608900  0.570100  1.0  0.1153
  H  H60  1  0.608900  0.547500  0.490900  1.0  0.138
  H  H61  1  0.575900  0.407900  0.685100  1.0  0.0956
  H  H62  1  0.736100  0.428500  0.524100  1.0  0.119
  H  H63  1  0.721600  0.375000  0.602100  1.0  0.1061
  H  H64  1  0.637500  0.390400  0.404100  1.0  0.0987
  H  H65  1  0.594800  0.275800  0.325000  1.0  0.0978
  H  H66  1  0.621600  0.119000  0.512600  1.0  0.1061
  H  H67  1  0.660400  0.234400  0.592800  1.0  0.1007
  H  H68  1  0.528000  0.123800  0.325800  1.0  0.1187
  H  H69  1  0.565300  0.060700  0.391000  1.0  0.1148
  H  H70  1  0.792900  0.107800  0.165400  1.0  0.1145
  H  H71  1  0.642800  0.163500  0.207200  1.0  0.1455
  H  H72  1  0.731800  0.002600  0.370500  1.0  0.1055
  H  H73  1  0.765200  0.287700  0.884300  1.0  0.1123
  H  H74  1  0.691900  0.289900  0.733200  1.0  0.0973
  H  H75  1  0.951000  0.496300  0.465900  1.0  0.0959
  H  H76  1  0.936200  0.665600  0.427600  1.0  0.1037
  H  H77  1  0.726800  0.683900  0.645400  1.0  0.1146
  H  H78  1  0.598100  0.748000  0.717800  1.0  0.1313
  H  H79  1  0.698700  0.558500  0.845300  1.0  0.0974
  H  H80  1  0.504600  0.700600  0.843800  1.0  0.1207
  H  H81  1  0.542300  0.623300  0.893300  1.0  0.099
  H  H82  1  0.597400  0.653400  0.022200  1.0  0.097
  H  H83  1  0.634900  0.750200  0.121300  1.0  0.098
  H  H84  1  0.637300  0.939700  0.961800  1.0  0.104
  H  H85  1  0.602200  0.842300  0.860600  1.0  0.0952
  H  H86  1  0.660600  0.976300  0.092200  1.0  0.1036
  H  H87  1  0.720400  0.908100  0.137000  1.0  0.1152
  H  H88  1  0.506200  0.851900  0.337200  1.0  0.1114
  H  H89  1  0.646700  0.829600  0.260300  1.0  0.1202
  H  H90  1  0.491700  0.998600  0.147400  1.0  0.1002
  H  H91  1  0.514800  0.108900  0.929900  1.0  0.115
  H  H92  1  0.391100  0.047500  0.009100  1.0  0.1385
  H  H93  1  0.424100  0.907900  0.814900  1.0  0.0954
  H  H94  1  0.263900  0.928500  0.975900  1.0  0.119
  H  H95  1  0.278400  0.875000  0.897900  1.0  0.1074
  H  H96  1  0.362500  0.890400  0.095900  1.0  0.0982
  H  H97  1  0.405200  0.775800  0.175000  1.0  0.0978
  H  H98  1  0.378400  0.619000  0.987400  1.0  0.1053
  H  H99  1  0.339600  0.734400  0.907200  1.0  0.0998
  H  H100  1  0.472000  0.623800  0.174200  1.0  0.1194
  H  H101  1  0.434700  0.560700  0.109000  1.0  0.1158
  H  H102  1  0.207100  0.607800  0.334600  1.0  0.1139
  H  H103  1  0.357200  0.663500  0.292800  1.0  0.1449
  H  H104  1  0.268200  0.502600  0.129500  1.0  0.106
  H  H105  1  0.265200  0.212300  0.115700  1.0  0.1122
  H  H106  1  0.191900  0.210100  0.266800  1.0  0.0977
  H  H107  1  0.451000  0.003700  0.534100  1.0  0.0968
  H  H108  1  0.436200  0.834400  0.572400  1.0  0.1118
  H  H109  1  0.226800  0.816100  0.354600  1.0  0.1137
  H  H110  1  0.098100  0.752000  0.282200  1.0  0.1325
  H  H111  1  0.198700  0.941500  0.154700  1.0  0.0974
  H  H112  1  0.004600  0.799400  0.156200  1.0  0.1203
  H  H113  1  0.042300  0.876700  0.106700  1.0  0.102
  H  H114  1  0.097400  0.846600  0.977800  1.0  0.0968
  H  H115  1  0.134900  0.749800  0.878700  1.0  0.0986
  H  H116  1  0.137300  0.560300  0.038200  1.0  0.1037
  H  H117  1  0.102200  0.657700  0.139400  1.0  0.0956
  H  H118  1  0.160600  0.523700  0.907800  1.0  0.1057
  H  H119  1  0.220400  0.591900  0.863000  1.0  0.1147
  H  H120  1  0.006200  0.648100  0.662800  1.0  0.1107
  H  H121  1  0.146700  0.670400  0.739700  1.0  0.1203
  H  H122  1  0.991700  0.501400  0.852600  1.0  0.0995
  H  H123  1  0.014800  0.391100  0.070100  1.0  0.1147
  H  H124  1  0.891100  0.452500  0.990900  1.0  0.1371
  H  H125  1  0.924100  0.592100  0.185100  1.0  0.0948
  H  H126  1  0.763900  0.571500  0.024100  1.0  0.1193
  H  H127  1  0.778400  0.625000  0.102100  1.0  0.1071
  H  H128  1  0.862500  0.609600  0.904100  1.0  0.0987
  H  H129  1  0.905200  0.724200  0.825000  1.0  0.098
  H  H130  1  0.878400  0.881000  0.012600  1.0  0.1058
  H  H131  1  0.839600  0.765600  0.092800  1.0  0.0993
  H  H132  1  0.972000  0.876200  0.825800  1.0  0.1193
  H  H133  1  0.934700  0.939300  0.891000  1.0  0.1139
  H  H134  1  0.707100  0.892200  0.665400  1.0  0.1145
  H  H135  1  0.857200  0.836500  0.707200  1.0  0.145
  H  H136  1  0.768200  0.997400  0.870500  1.0  0.1055
  C  C137  1  0.700600  0.608600  0.310000  1.0  0.6754
  C  C138  1  0.744400  0.690900  0.333200  1.0  -0.1704
  C  C139  1  0.796800  0.734500  0.282900  1.0  -0.1768
  C  C140  1  0.838900  0.819100  0.299500  1.0  0.6719
  C  C141  1  0.614200  0.427100  0.052400  1.0  0.6647
  C  C142  1  0.566100  0.447300  0.975000  1.0  -0.18
  C  C143  1  0.546800  0.391100  0.919800  1.0  -0.1819
  C  C144  1  0.498600  0.415200  0.845300  1.0  0.6614
  C  C145  1  0.794900  0.333500  0.195000  1.0  0.0283
  C  C146  1  0.865700  0.297400  0.234900  1.0  -0.1366
  C  C147  1  0.809600  0.402000  0.304400  1.0  0.1474
  C  C148  1  0.940600  0.323200  0.368100  1.0  -0.0728
  C  C149  1  0.906600  0.262000  0.431800  1.0  0.0197
  C  C150  1  0.895300  0.289100  0.509600  1.0  -0.1089
  C  C151  1  0.873100  0.230800  0.569200  1.0  -0.1134
  C  C152  1  0.862800  0.145500  0.552000  1.0  0.0237
  C  C153  1  0.871300  0.117800  0.474000  1.0  -0.138
  C  C154  1  0.892800  0.176300  0.413100  1.0  -0.1004
  C  C155  1  0.840400  0.080300  0.616000  1.0  -0.0729
  C  C156  1  0.978900  0.121300  0.789400  1.0  0.0208
  C  C157  1  0.901200  0.133600  0.747300  1.0  -0.1415
  C  C158  1  0.987300  0.040200  0.685200  1.0  0.1443
  C  C159  1  0.019000  0.939600  0.416800  1.0  0.0292
  C  C160  1  0.087200  0.972800  0.460500  1.0  -0.1383
  C  C161  1  0.068300  0.049600  0.353200  1.0  0.1463
  C  C162  1  0.190900  0.102700  0.444900  1.0  -0.0736
  C  C163  1  0.156400  0.176300  0.493700  1.0  0.0274
  C  C164  1  0.134700  0.164200  0.574000  1.0  -0.1278
  C  C165  1  0.109200  0.232800  0.621600  1.0  -0.1126
  C  C166  1  0.105100  0.315100  0.588700  1.0  0.0188
  C  C167  1  0.124600  0.326500  0.509400  1.0  -0.0978
  C  C168  1  0.149100  0.257200  0.461300  1.0  -0.109
  C  C169  1  0.081000  0.390400  0.641800  1.0  -0.0886
  C  C170  1  0.262000  0.406600  0.788000  1.0  0.0255
  C  C171  1  0.179000  0.375500  0.765100  1.0  -0.1563
  C  C172  1  0.229000  0.464500  0.675600  1.0  0.1407
  C  C173  1  0.200600  0.891400  0.690000  1.0  0.6755
  C  C174  1  0.244400  0.809100  0.666800  1.0  -0.1685
  C  C175  1  0.296800  0.765500  0.717100  1.0  -0.1779
  C  C176  1  0.338900  0.680900  0.700500  1.0  0.6728
  C  C177  1  0.114200  0.072900  0.947600  1.0  0.6662
  C  C178  1  0.066100  0.052700  0.025000  1.0  -0.1723
  C  C179  1  0.046800  0.108900  0.080200  1.0  -0.1799
  C  C180  1  0.998600  0.084800  0.154700  1.0  0.6618
  C  C181  1  0.294900  0.166500  0.805000  1.0  0.0283
  C  C182  1  0.365700  0.202600  0.765100  1.0  -0.1384
  C  C183  1  0.309600  0.098000  0.695600  1.0  0.1488
  C  C184  1  0.440600  0.176800  0.631900  1.0  -0.0724
  C  C185  1  0.406600  0.238000  0.568200  1.0  0.0199
  C  C186  1  0.395300  0.210900  0.490400  1.0  -0.099
  C  C187  1  0.373100  0.269200  0.430800  1.0  -0.1107
  C  C188  1  0.362800  0.354500  0.448000  1.0  0.0263
  C  C189  1  0.371300  0.382200  0.526000  1.0  -0.1382
  C  C190  1  0.392800  0.323700  0.586900  1.0  -0.1018
  C  C191  1  0.340400  0.419700  0.384000  1.0  -0.0718
  C  C192  1  0.478900  0.378700  0.210600  1.0  0.0196
  C  C193  1  0.401200  0.366400  0.252700  1.0  -0.1371
  C  C194  1  0.487300  0.459800  0.314800  1.0  0.1437
  C  C195  1  0.519000  0.560400  0.583200  1.0  0.028
  C  C196  1  0.587200  0.527200  0.539500  1.0  -0.1398
  C  C197  1  0.568300  0.450400  0.646800  1.0  0.146
  C  C198  1  0.690900  0.397300  0.555100  1.0  -0.0712
  C  C199  1  0.656400  0.323700  0.506300  1.0  0.0269
  C  C200  1  0.634700  0.335800  0.426000  1.0  -0.1158
  C  C201  1  0.609200  0.267200  0.378400  1.0  -0.1252
  C  C202  1  0.605100  0.184900  0.411300  1.0  0.0189
  C  C203  1  0.624600  0.173500  0.490600  1.0  -0.113
  C  C204  1  0.649100  0.242800  0.538700  1.0  -0.0991
  C  C205  1  0.581000  0.109600  0.358200  1.0  -0.0905
  C  C206  1  0.762000  0.093400  0.212000  1.0  0.0242
  C  C207  1  0.679000  0.124500  0.234900  1.0  -0.1579
  C  C208  1  0.729000  0.035500  0.324400  1.0  0.1413
  C  C209  1  0.799400  0.391400  0.810000  1.0  0.6743
  C  C210  1  0.755600  0.309100  0.833200  1.0  -0.169
  C  C211  1  0.703200  0.265500  0.782900  1.0  -0.175
  C  C212  1  0.661100  0.180900  0.799500  1.0  0.6732
  C  C213  1  0.885800  0.572900  0.552400  1.0  0.6649
  C  C214  1  0.933900  0.552700  0.475000  1.0  -0.1805
  C  C215  1  0.953200  0.608900  0.419800  1.0  -0.1813
  C  C216  1  0.001400  0.584800  0.345300  1.0  0.665
  C  C217  1  0.705100  0.666500  0.695000  1.0  0.0284
  C  C218  1  0.634300  0.702600  0.734900  1.0  -0.1401
  C  C219  1  0.690400  0.598000  0.804400  1.0  0.1481
  C  C220  1  0.559400  0.676800  0.868100  1.0  -0.0698
  C  C221  1  0.593400  0.738000  0.931800  1.0  0.0204
  C  C222  1  0.604700  0.710900  0.009600  1.0  -0.1093
  C  C223  1  0.626900  0.769200  0.069200  1.0  -0.114
  C  C224  1  0.637200  0.854500  0.052000  1.0  0.0254
  C  C225  1  0.628700  0.882200  0.974000  1.0  -0.1391
  C  C226  1  0.607200  0.823700  0.913100  1.0  -0.1
  C  C227  1  0.659600  0.919700  0.116000  1.0  -0.072
  C  C228  1  0.521100  0.878700  0.289400  1.0  0.021
  C  C229  1  0.598800  0.866400  0.247300  1.0  -0.1379
  C  C230  1  0.512700  0.959800  0.185200  1.0  0.1448
  C  C231  1  0.481000  0.060400  0.916800  1.0  0.0288
  C  C232  1  0.412800  0.027200  0.960500  1.0  -0.1392
  C  C233  1  0.431700  0.950400  0.853200  1.0  0.1467
  C  C234  1  0.309100  0.897300  0.944900  1.0  -0.069
  C  C235  1  0.343600  0.823700  0.993700  1.0  0.0271
  C  C236  1  0.365300  0.835800  0.074000  1.0  -0.1153
  C  C237  1  0.390800  0.767200  0.121600  1.0  -0.122
  C  C238  1  0.394900  0.684900  0.088700  1.0  0.0184
  C  C239  1  0.375400  0.673500  0.009400  1.0  -0.1124
  C  C240  1  0.350900  0.742800  0.961300  1.0  -0.109
  C  C241  1  0.419000  0.609600  0.141800  1.0  -0.0893
  C  C242  1  0.238000  0.593400  0.288000  1.0  0.0243
  C  C243  1  0.321000  0.624500  0.265100  1.0  -0.1581
  C  C244  1  0.271000  0.535500  0.175600  1.0  0.1405
  C  C245  1  0.299400  0.108600  0.190000  1.0  0.6752
  C  C246  1  0.255600  0.190900  0.166800  1.0  -0.1666
  C  C247  1  0.203200  0.234500  0.217100  1.0  -0.176
  C  C248  1  0.161100  0.319100  0.200500  1.0  0.6716
  C  C249  1  0.385800  0.927100  0.447600  1.0  0.6635
  C  C250  1  0.433900  0.947300  0.525000  1.0  -0.1819
  C  C251  1  0.453200  0.891100  0.580200  1.0  -0.1711
  C  C252  1  0.501400  0.915200  0.654700  1.0  0.6618
  C  C253  1  0.205100  0.833500  0.305000  1.0  0.0298
  C  C254  1  0.134300  0.797400  0.265100  1.0  -0.1353
  C  C255  1  0.190400  0.902000  0.195600  1.0  0.1477
  C  C256  1  0.059400  0.823200  0.131900  1.0  -0.0721
  C  C257  1  0.093400  0.762000  0.068200  1.0  0.0203
  C  C258  1  0.104700  0.789100  0.990400  1.0  -0.0996
  C  C259  1  0.126900  0.730800  0.930800  1.0  -0.1113
  C  C260  1  0.137200  0.645500  0.948000  1.0  0.0231
  C  C261  1  0.128700  0.617800  0.026000  1.0  -0.1393
  C  C262  1  0.107200  0.676300  0.086900  1.0  -0.1021
  C  C263  1  0.159600  0.580300  0.884000  1.0  -0.0727
  C  C264  1  0.021100  0.621300  0.710600  1.0  0.0204
  C  C265  1  0.098800  0.633600  0.752700  1.0  -0.1393
  C  C266  1  0.012700  0.540200  0.814800  1.0  0.1468
  C  C267  1  0.981000  0.439600  0.083200  1.0  0.0281
  C  C268  1  0.912800  0.472800  0.039500  1.0  -0.1394
  C  C269  1  0.931700  0.549600  0.146800  1.0  0.1466
  C  C270  1  0.809100  0.602700  0.055100  1.0  -0.0705
  C  C271  1  0.843600  0.676300  0.006300  1.0  0.0275
  C  C272  1  0.865300  0.664200  0.926000  1.0  -0.1149
  C  C273  1  0.890800  0.732800  0.878400  1.0  -0.1133
  C  C274  1  0.894900  0.815100  0.911300  1.0  0.0189
  C  C275  1  0.875400  0.826500  0.990600  1.0  -0.113
  C  C276  1  0.850900  0.757200  0.038700  1.0  -0.111
  C  C277  1  0.919000  0.890400  0.858200  1.0  -0.0917
  C  C278  1  0.738000  0.906600  0.712000  1.0  0.024
  C  C279  1  0.821000  0.875500  0.734900  1.0  -0.1558
  C  C280  1  0.771000  0.964500  0.824400  1.0  0.1402
  N  N281  1  0.760000  0.400100  0.239500  1.0  -0.4043
  N  N282  1  0.873300  0.341000  0.305200  1.0  0.0615
  N  N283  1  0.033100  0.062300  0.749700  1.0  -0.3885
  N  N284  1  0.906300  0.081000  0.681200  1.0  0.0432
  N  N285  1  0.006600  0.988500  0.349100  1.0  -0.3935
  N  N286  1  0.118800  0.042900  0.419300  1.0  0.0532
  N  N287  1  0.293100  0.463200  0.730630  1.0  -0.388
  N  N288  1  0.158900  0.412400  0.693900  1.0  0.0507
  N  N289  1  0.260000  0.099900  0.760500  1.0  -0.4043
  N  N290  1  0.373300  0.159000  0.694800  1.0  0.0618
  N  N291  1  0.533100  0.437700  0.250300  1.0  -0.3888
  N  N292  1  0.406300  0.419000  0.318800  1.0  0.0439
  N  N293  1  0.506600  0.511500  0.650900  1.0  -0.3938
  N  N294  1  0.618800  0.457100  0.580700  1.0  0.0533
  N  N295  1  0.793100  0.036800  0.269370  1.0  -0.3878
  N  N296  1  0.658900  0.087600  0.306100  1.0  0.051
  N  N297  1  0.740000  0.599900  0.739500  1.0  -0.4032
  N  N298  1  0.626700  0.659000  0.805200  1.0  0.0615
  N  N299  1  0.466900  0.937700  0.249700  1.0  -0.3907
  N  N300  1  0.593700  0.919000  0.181200  1.0  0.0436
  N  N301  1  0.493400  0.011500  0.849100  1.0  -0.3921
  N  N302  1  0.381200  0.957100  0.919300  1.0  0.0532
  N  N303  1  0.206900  0.536800  0.230630  1.0  -0.3884
  N  N304  1  0.341100  0.587600  0.193900  1.0  0.0512
  N  N305  1  0.240000  0.900100  0.260500  1.0  -0.404
  N  N306  1  0.126700  0.841000  0.194800  1.0  0.0619
  N  N307  1  0.966900  0.562300  0.750300  1.0  -0.3906
  N  N308  1  0.093700  0.581000  0.818800  1.0  0.0435
  N  N309  1  0.993400  0.488500  0.150900  1.0  -0.3923
  N  N310  1  0.881200  0.542900  0.080700  1.0  0.0531
  N  N311  1  0.706900  0.963200  0.769370  1.0  -0.3886
  N  N312  1  0.841100  0.912400  0.806100  1.0  0.0517
  O  O313  1  0.696400  0.591670  0.236630  1.0  -0.6168
  O  O314  1  0.675000  0.558400  0.362300  1.0  -0.6048
  O  O315  1  0.877800  0.854590  0.239500  1.0  -0.6092
  O  O316  1  0.832100  0.854180  0.366230  1.0  -0.6062
  O  O317  1  0.627100  0.492400  0.097220  1.0  -0.6155
  O  O318  1  0.634700  0.352800  0.070600  1.0  -0.5952
  O  O319  1  0.465300  0.491900  0.841720  1.0  -0.625
  O  O320  1  0.493700  0.362090  0.791300  1.0  -0.5678
  O  O321  1  0.196400  0.908330  0.763370  1.0  -0.6178
  O  O322  1  0.175000  0.941600  0.637700  1.0  -0.6049
  O  O323  1  0.377800  0.645410  0.760500  1.0  -0.6096
  O  O324  1  0.332100  0.645820  0.633770  1.0  -0.6067
  O  O325  1  0.127100  0.007600  0.902780  1.0  -0.6148
  O  O326  1  0.134700  0.147200  0.929400  1.0  -0.596
  O  O327  1  0.965300  0.008100  0.158280  1.0  -0.6245
  O  O328  1  0.993700  0.137910  0.208700  1.0  -0.565
  O  O329  1  0.803600  0.408330  0.736630  1.0  -0.6162
  O  O330  1  0.825000  0.441600  0.862300  1.0  -0.6049
  O  O331  1  0.622200  0.145410  0.739500  1.0  -0.6124
  O  O332  1  0.667900  0.145820  0.866230  1.0  -0.6059
  O  O333  1  0.872900  0.507600  0.597220  1.0  -0.6166
  O  O334  1  0.865300  0.647200  0.570600  1.0  -0.5951
  O  O335  1  0.034700  0.508100  0.341720  1.0  -0.6253
  O  O336  1  0.006300  0.637910  0.291300  1.0  -0.568
  O  O337  1  0.303600  0.091670  0.263370  1.0  -0.6165
  O  O338  1  0.325000  0.058400  0.137700  1.0  -0.6037
  O  O339  1  0.122200  0.354590  0.260500  1.0  -0.6101
  O  O340  1  0.167900  0.354180  0.133770  1.0  -0.606
  O  O341  1  0.372900  0.992400  0.402780  1.0  -0.6145
  O  O342  1  0.365300  0.852800  0.429400  1.0  -0.5939
  O  O343  1  0.534700  0.991900  0.658280  1.0  -0.6256
  O  O344  1  0.506300  0.862090  0.708700  1.0  -0.5638
