# generated using pymatgen
data_La2H24C39N2O13
_symmetry_space_group_name_H-M   'P 1'
_cell_length_a   12.38960000
_cell_length_b   12.44010000
_cell_length_c   16.57870000
_cell_angle_alpha   83.98040000
_cell_angle_beta   77.84290000
_cell_angle_gamma   60.13430000
_symmetry_Int_Tables_number   1
_chemical_formula_structural   La2H24C39N2O13
_chemical_formula_sum   'La4 H48 C78 N4 O26'
_cell_volume   2166.19713048
_cell_formula_units_Z   2
loop_
 _symmetry_equiv_pos_site_id
 _symmetry_equiv_pos_as_xyz
  1  'x, y, z'
loop_
 _atom_site_type_symbol
 _atom_site_label
 _atom_site_symmetry_multiplicity
 _atom_site_fract_x
 _atom_site_fract_y
 _atom_site_fract_z
 _atom_site_occupancy
 _atom_site_charge
  La  La1  1  0.485280  0.093460  0.599920  1.0  2.1976
  La  La2  1  0.421260  0.093460  0.900080  1.0  2.1992
  La  La3  1  0.514720  0.906540  0.400080  1.0  2.201
  La  La4  1  0.578740  0.906540  0.099920  1.0  2.1998
  H  H5  1  0.785800  0.664200  0.454500  1.0  0.0959
  H  H6  1  0.070900  0.243800  0.645300  1.0  0.0968
  H  H7  1  0.894300  0.252200  0.588300  1.0  0.1188
  H  H8  1  0.882900  0.074800  0.112700  1.0  0.1309
  H  H9  1  0.747800  0.078000  0.250900  1.0  0.099
  H  H10  1  0.918100  0.737000  0.629500  1.0  0.1121
  H  H11  1  0.913400  0.459200  0.382900  1.0  0.1128
  H  H12  1  0.049200  0.233800  0.889800  1.0  0.1031
  H  H13  1  0.862600  0.074200  0.457700  1.0  0.0968
  H  H14  1  0.808900  0.585400  0.770400  1.0  0.0814
  H  H15  1  0.691000  0.597400  0.836400  1.0  0.0675
  H  H16  1  0.703500  0.788600  0.826200  1.0  0.3227
  H  H17  1  0.550000  0.664200  0.045500  1.0  0.0955
  H  H18  1  0.685300  0.243800  0.854700  1.0  0.0972
  H  H19  1  0.853500  0.252200  0.911700  1.0  0.1178
  H  H20  1  0.042300  0.074800  0.387300  1.0  0.1306
  H  H21  1  0.174200  0.078000  0.249100  1.0  0.0991
  H  H22  1  0.344900  0.737000  0.870500  1.0  0.1123
  H  H23  1  0.627400  0.459200  0.117100  1.0  0.1122
  H  H24  1  0.717000  0.233800  0.610200  1.0  0.1029
  H  H25  1  0.063200  0.074200  0.042300  1.0  0.0967
  H  H26  1  0.605700  0.585400  0.729600  1.0  0.0796
  H  H27  1  0.711600  0.597400  0.663600  1.0  0.0659
  H  H28  1  0.507900  0.788600  0.673800  1.0  0.3237
  H  H29  1  0.214200  0.335800  0.545500  1.0  0.0946
  H  H30  1  0.929100  0.756200  0.354700  1.0  0.0972
  H  H31  1  0.105700  0.747800  0.411700  1.0  0.1178
  H  H32  1  0.117100  0.925200  0.887300  1.0  0.1309
  H  H33  1  0.252200  0.922000  0.749100  1.0  0.0995
  H  H34  1  0.081900  0.263000  0.370500  1.0  0.1128
  H  H35  1  0.086600  0.540800  0.617100  1.0  0.1121
  H  H36  1  0.950800  0.766200  0.110200  1.0  0.1026
  H  H37  1  0.137400  0.925800  0.542300  1.0  0.0966
  H  H38  1  0.191100  0.414600  0.229600  1.0  0.0785
  H  H39  1  0.309000  0.402600  0.163600  1.0  0.0659
  H  H40  1  0.296500  0.211400  0.173800  1.0  0.3244
  H  H41  1  0.450000  0.335800  0.954500  1.0  0.0956
  H  H42  1  0.314700  0.756200  0.145300  1.0  0.0967
  H  H43  1  0.146500  0.747800  0.088300  1.0  0.1189
  H  H44  1  0.957700  0.925200  0.612700  1.0  0.1308
  H  H45  1  0.825800  0.922000  0.750900  1.0  0.0985
  H  H46  1  0.655100  0.263000  0.129500  1.0  0.1124
  H  H47  1  0.372600  0.540800  0.882900  1.0  0.1125
  H  H48  1  0.283000  0.766200  0.389800  1.0  0.1026
  H  H49  1  0.936800  0.925800  0.957700  1.0  0.0966
  H  H50  1  0.394300  0.414600  0.270400  1.0  0.08
  H  H51  1  0.288400  0.402600  0.336400  1.0  0.0671
  H  H52  1  0.492100  0.211400  0.326200  1.0  0.3231
  C  C53  1  0.718600  0.843400  0.555600  1.0  0.7011
  C  C54  1  0.833300  0.718400  0.542300  1.0  -0.136
  C  C55  1  0.953200  0.518400  0.475600  1.0  0.0343
  C  C56  1  0.080200  0.234400  0.765100  1.0  -0.1702
  C  C57  1  0.214400  0.211800  0.751400  1.0  0.8036
  C  C58  1  0.847500  0.639000  0.486700  1.0  -0.0665
  C  C59  1  0.027800  0.242600  0.698300  1.0  -0.0604
  C  C60  1  0.855200  0.247200  0.641900  1.0  -0.1398
  C  C61  1  0.939900  0.075400  0.141000  1.0  -0.149
  C  C62  1  0.672200  0.075600  0.410300  1.0  0.7389
  C  C63  1  0.787900  0.076200  0.360200  1.0  -0.1506
  C  C64  1  0.807500  0.077200  0.277200  1.0  -0.0729
  C  C65  1  0.917500  0.076800  0.228400  1.0  0.037
  C  C66  1  0.907500  0.249200  0.709700  1.0  0.0366
  C  C67  1  0.926100  0.682200  0.591700  1.0  -0.0672
  C  C68  1  0.972300  0.434400  0.417100  1.0  -0.1115
  C  C69  1  0.013300  0.238000  0.844900  1.0  -0.029
  C  C70  1  0.877200  0.075200  0.400300  1.0  -0.0298
  C  C71  1  0.717400  0.632000  0.786000  1.0  0.0506
  C  C72  1  0.438000  0.843400  0.944400  1.0  0.7023
  C  C73  1  0.448300  0.718400  0.957700  1.0  -0.1362
  C  C74  1  0.528400  0.518400  0.024400  1.0  0.0344
  C  C75  1  0.685400  0.234400  0.734900  1.0  -0.1707
  C  C76  1  0.573800  0.211800  0.748600  1.0  0.8058
  C  C77  1  0.513500  0.639000  0.013300  1.0  -0.0655
  C  C78  1  0.729600  0.242600  0.801700  1.0  -0.0646
  C  C79  1  0.897600  0.247200  0.858100  1.0  -0.1389
  C  C80  1  0.984700  0.075400  0.359000  1.0  -0.1474
  C  C81  1  0.252200  0.075600  0.089700  1.0  0.7401
  C  C82  1  0.135900  0.076200  0.139800  1.0  -0.1518
  C  C83  1  0.115300  0.077200  0.222800  1.0  -0.0728
  C  C84  1  0.005700  0.076800  0.271600  1.0  0.0363
  C  C85  1  0.843300  0.249200  0.790300  1.0  0.0362
  C  C86  1  0.391700  0.682200  0.908300  1.0  -0.0671
  C  C87  1  0.593300  0.434400  0.082900  1.0  -0.1119
  C  C88  1  0.748700  0.238000  0.655100  1.0  -0.0292
  C  C89  1  0.047600  0.075200  0.099700  1.0  -0.0279
  C  C90  1  0.650600  0.632000  0.714000  1.0  0.0518
  C  C91  1  0.281400  0.156600  0.444400  1.0  0.7014
  C  C92  1  0.166700  0.281600  0.457700  1.0  -0.1361
  C  C93  1  0.046800  0.481600  0.524400  1.0  0.0344
  C  C94  1  0.919800  0.765600  0.234900  1.0  -0.1713
  C  C95  1  0.785600  0.788200  0.248600  1.0  0.8052
  C  C96  1  0.152500  0.361000  0.513300  1.0  -0.064
  C  C97  1  0.972200  0.757400  0.301700  1.0  -0.0613
  C  C98  1  0.144800  0.752800  0.358100  1.0  -0.14
  C  C99  1  0.060100  0.924600  0.859000  1.0  -0.1488
  C  C100  1  0.327800  0.924400  0.589700  1.0  0.7271
  C  C101  1  0.212100  0.923800  0.639800  1.0  -0.1517
  C  C102  1  0.192500  0.922800  0.722800  1.0  -0.0731
  C  C103  1  0.082500  0.923200  0.771600  1.0  0.0366
  C  C104  1  0.092500  0.750800  0.290300  1.0  0.0358
  C  C105  1  0.073900  0.317800  0.408300  1.0  -0.0672
  C  C106  1  0.027700  0.565600  0.582900  1.0  -0.1196
  C  C107  1  0.986700  0.762000  0.155100  1.0  -0.029
  C  C108  1  0.122800  0.924800  0.599700  1.0  -0.0278
  C  C109  1  0.282600  0.368000  0.214000  1.0  0.052
  C  C110  1  0.562000  0.156600  0.055600  1.0  0.6999
  C  C111  1  0.551700  0.281600  0.042300  1.0  -0.1359
  C  C112  1  0.471600  0.481600  0.975600  1.0  0.0344
  C  C113  1  0.314600  0.765600  0.265100  1.0  -0.1696
  C  C114  1  0.426200  0.788200  0.251400  1.0  0.8037
  C  C115  1  0.486500  0.361000  0.986700  1.0  -0.0642
  C  C116  1  0.270400  0.757400  0.198300  1.0  -0.0646
  C  C117  1  0.102400  0.752800  0.141900  1.0  -0.1398
  C  C118  1  0.015300  0.924600  0.641000  1.0  -0.1487
  C  C119  1  0.747800  0.924400  0.910300  1.0  0.726
  C  C120  1  0.864100  0.923800  0.860200  1.0  -0.1506
  C  C121  1  0.884700  0.922800  0.777200  1.0  -0.072
  C  C122  1  0.994300  0.923200  0.728400  1.0  0.037
  C  C123  1  0.156700  0.750800  0.209700  1.0  0.0359
  C  C124  1  0.608300  0.317800  0.091700  1.0  -0.0674
  C  C125  1  0.406700  0.565600  0.917100  1.0  -0.1193
  C  C126  1  0.251300  0.762000  0.344900  1.0  -0.031
  C  C127  1  0.952400  0.924800  0.900300  1.0  -0.0306
  C  C128  1  0.349400  0.368000  0.286000  1.0  0.05
  C  C129  1  0.579500  0.841000  0.750000  1.0  0.5829
  C  C130  1  0.420500  0.159000  0.250000  1.0  0.5822
  N  N131  1  0.674100  0.761800  0.795400  1.0  -0.4474
  N  N132  1  0.564100  0.761800  0.704600  1.0  -0.4481
  N  N133  1  0.325900  0.238200  0.204600  1.0  -0.4495
  N  N134  1  0.435900  0.238200  0.295400  1.0  -0.4486
  O  O135  1  0.634040  0.876120  0.513000  1.0  -0.8161
  O  O136  1  0.707200  0.913200  0.609900  1.0  -0.6267
  O  O137  1  0.268500  0.218800  0.681300  1.0  -0.7206
  O  O138  1  0.261500  0.190200  0.814500  1.0  -0.7461
  O  O139  1  0.641400  0.107600  0.483600  1.0  -0.7057
  O  O140  1  0.611400  0.045200  0.374100  1.0  -0.7166
  O  O141  1  0.489840  0.876120  0.987000  1.0  -0.8166
  O  O142  1  0.379600  0.913200  0.890100  1.0  -0.6263
  O  O143  1  0.512700  0.218800  0.818700  1.0  -0.7206
  O  O144  1  0.548300  0.190200  0.685500  1.0  -0.7464
  O  O145  1  0.251000  0.107600  0.016400  1.0  -0.7058
  O  O146  1  0.343400  0.045200  0.125900  1.0  -0.7177
  O  O147  1  0.365960  0.123880  0.487000  1.0  -0.8167
  O  O148  1  0.292800  0.086800  0.390100  1.0  -0.6273
  O  O149  1  0.731500  0.781200  0.318700  1.0  -0.7208
  O  O150  1  0.738500  0.809800  0.185500  1.0  -0.7445
  O  O151  1  0.358600  0.892400  0.516400  1.0  -0.7063
  O  O152  1  0.388600  0.954800  0.625900  1.0  -0.7184
  O  O153  1  0.510160  0.123880  0.013000  1.0  -0.817
  O  O154  1  0.620400  0.086800  0.109900  1.0  -0.6268
  O  O155  1  0.487300  0.781200  0.181300  1.0  -0.7206
  O  O156  1  0.451700  0.809800  0.314500  1.0  -0.7463
  O  O157  1  0.749000  0.892400  0.983600  1.0  -0.7051
  O  O158  1  0.656600  0.954800  0.874100  1.0  -0.7171
  O  O159  1  0.514000  0.972000  0.750000  1.0  -0.7078
  O  O160  1  0.486000  0.028000  0.250000  1.0  -0.7066
