# generated using pymatgen
data_LaH9(C3O)6
_symmetry_space_group_name_H-M   'P 1'
_cell_length_a   8.78500000
_cell_length_b   12.33200000
_cell_length_c   19.09000000
_cell_angle_alpha   106.52000000
_cell_angle_beta   90.00000000
_cell_angle_gamma   90.00000000
_symmetry_Int_Tables_number   1
_chemical_formula_structural   LaH9(C3O)6
_chemical_formula_sum   'La4 H36 C72 O24'
_cell_volume   1982.77411514
_cell_formula_units_Z   4
loop_
 _symmetry_equiv_pos_site_id
 _symmetry_equiv_pos_as_xyz
  1  'x, y, z'
loop_
 _atom_site_type_symbol
 _atom_site_label
 _atom_site_symmetry_multiplicity
 _atom_site_fract_x
 _atom_site_fract_y
 _atom_site_fract_z
 _atom_site_occupancy
 _atom_site_charge
  La  La1  1  0.539560  0.770490  0.787540  1.0  2.1939
  La  La2  1  0.039560  0.729510  0.712460  1.0  2.1938
  La  La3  1  0.460440  0.229510  0.212460  1.0  2.1938
  La  La4  1  0.960440  0.270490  0.287540  1.0  2.194
  H  H5  1  0.111100  0.637100  0.929500  1.0  0.1052
  H  H6  1  0.886500  0.024300  0.612800  1.0  0.1024
  H  H7  1  0.881100  0.382800  0.582000  1.0  0.1046
  H  H8  1  0.911900  0.192300  0.563800  1.0  0.112
  H  H9  1  0.280100  0.579300  0.018000  1.0  0.1174
  H  H10  1  0.591000  0.397700  0.746600  1.0  0.1034
  H  H11  1  0.678800  0.529000  0.904000  1.0  0.1101
  H  H12  1  0.616000  0.044400  0.785300  1.0  0.0883
  H  H13  1  0.551900  0.225900  0.789500  1.0  0.0854
  H  H14  1  0.611100  0.862900  0.570500  1.0  0.1063
  H  H15  1  0.386500  0.475700  0.887200  1.0  0.1024
  H  H16  1  0.381100  0.117200  0.918000  1.0  0.1045
  H  H17  1  0.411900  0.307700  0.936200  1.0  0.1117
  H  H18  1  0.780100  0.920700  0.482000  1.0  0.1165
  H  H19  1  0.091000  0.102300  0.753400  1.0  0.1033
  H  H20  1  0.178800  0.971000  0.596000  1.0  0.1102
  H  H21  1  0.116000  0.455600  0.714700  1.0  0.0875
  H  H22  1  0.051900  0.274100  0.710500  1.0  0.0855
  H  H23  1  0.888900  0.362900  0.070500  1.0  0.1058
  H  H24  1  0.113500  0.975700  0.387200  1.0  0.1028
  H  H25  1  0.118900  0.617200  0.418000  1.0  0.1049
  H  H26  1  0.088100  0.807700  0.436200  1.0  0.1117
  H  H27  1  0.719900  0.420700  0.982000  1.0  0.1166
  H  H28  1  0.409000  0.602300  0.253400  1.0  0.1031
  H  H29  1  0.321200  0.471000  0.096000  1.0  0.1095
  H  H30  1  0.384000  0.955600  0.214700  1.0  0.0869
  H  H31  1  0.448100  0.774100  0.210500  1.0  0.0858
  H  H32  1  0.388900  0.137100  0.429500  1.0  0.1053
  H  H33  1  0.613500  0.524300  0.112800  1.0  0.1025
  H  H34  1  0.618900  0.882800  0.082000  1.0  0.1049
  H  H35  1  0.588100  0.692300  0.063800  1.0  0.1118
  H  H36  1  0.219900  0.079300  0.518000  1.0  0.1178
  H  H37  1  0.909000  0.897700  0.246600  1.0  0.1029
  H  H38  1  0.821200  0.029000  0.404000  1.0  0.1102
  H  H39  1  0.884000  0.544400  0.285300  1.0  0.0883
  H  H40  1  0.948100  0.725900  0.289500  1.0  0.0855
  C  C41  1  0.032300  0.595100  0.941430  1.0  -0.0653
  C  C42  1  0.786100  0.179110  0.651130  1.0  0.0349
  C  C43  1  0.059700  0.533400  0.992360  1.0  0.0415
  C  C44  1  0.809300  0.899280  0.696660  1.0  0.7211
  C  C45  1  0.893700  0.594590  0.909540  1.0  -0.1597
  C  C46  1  0.867900  0.661970  0.856310  1.0  0.7833
  C  C47  1  0.717800  0.536010  0.682580  1.0  0.7815
  C  C48  1  0.734200  0.409870  0.668090  1.0  -0.1249
  C  C49  1  0.821200  0.065960  0.648840  1.0  -0.0642
  C  C50  1  0.831400  0.347080  0.612310  1.0  -0.0641
  C  C51  1  0.852900  0.233800  0.602660  1.0  -0.1156
  C  C52  1  0.760800  0.016710  0.698680  1.0  -0.1515
  C  C53  1  0.687100  0.241130  0.706150  1.0  0.0446
  C  C54  1  0.201700  0.534600  0.027250  1.0  -0.1217
  C  C55  1  0.660200  0.357100  0.712110  1.0  -0.071
  C  C56  1  0.773800  0.529000  0.925490  1.0  -0.0473
  C  C57  1  0.658500  0.077900  0.751980  1.0  -0.0409
  C  C58  1  0.621600  0.186800  0.754800  1.0  -0.1091
  C  C59  1  0.532300  0.904900  0.558570  1.0  -0.0659
  C  C60  1  0.286100  0.320890  0.848870  1.0  0.0354
  C  C61  1  0.559700  0.966600  0.507640  1.0  0.0412
  C  C62  1  0.309300  0.600720  0.803340  1.0  0.7214
  C  C63  1  0.393700  0.905410  0.590460  1.0  -0.1599
  C  C64  1  0.367900  0.838030  0.643690  1.0  0.782
  C  C65  1  0.217800  0.963990  0.817420  1.0  0.7788
  C  C66  1  0.234200  0.090130  0.831910  1.0  -0.1247
  C  C67  1  0.321200  0.434040  0.851160  1.0  -0.0638
  C  C68  1  0.331400  0.152920  0.887690  1.0  -0.067
  C  C69  1  0.352900  0.266200  0.897340  1.0  -0.1164
  C  C70  1  0.260800  0.483290  0.801320  1.0  -0.1513
  C  C71  1  0.187100  0.258870  0.793850  1.0  0.0442
  C  C72  1  0.701700  0.965400  0.472750  1.0  -0.1228
  C  C73  1  0.160200  0.142900  0.787890  1.0  -0.0714
  C  C74  1  0.273800  0.971000  0.574510  1.0  -0.0476
  C  C75  1  0.158500  0.422100  0.748020  1.0  -0.0393
  C  C76  1  0.121600  0.313200  0.745200  1.0  -0.1094
  C  C77  1  0.967700  0.404900  0.058570  1.0  -0.0654
  C  C78  1  0.213900  0.820890  0.348870  1.0  0.035
  C  C79  1  0.940300  0.466600  0.007640  1.0  0.0413
  C  C80  1  0.190700  0.100720  0.303340  1.0  0.7216
  C  C81  1  0.106300  0.405410  0.090460  1.0  -0.1603
  C  C82  1  0.132100  0.338030  0.143690  1.0  0.7821
  C  C83  1  0.282200  0.463990  0.317420  1.0  0.7799
  C  C84  1  0.265800  0.590130  0.331910  1.0  -0.1235
  C  C85  1  0.178800  0.934040  0.351160  1.0  -0.0647
  C  C86  1  0.168600  0.652920  0.387690  1.0  -0.0668
  C  C87  1  0.147100  0.766200  0.397340  1.0  -0.1165
  C  C88  1  0.239200  0.983290  0.301320  1.0  -0.1505
  C  C89  1  0.312900  0.758870  0.293850  1.0  0.0439
  C  C90  1  0.798300  0.465400  0.972750  1.0  -0.1338
  C  C91  1  0.339800  0.642900  0.287890  1.0  -0.0711
  C  C92  1  0.226200  0.471000  0.074510  1.0  -0.048
  C  C93  1  0.341500  0.922100  0.248020  1.0  -0.0403
  C  C94  1  0.378400  0.813200  0.245200  1.0  -0.1096
  C  C95  1  0.467700  0.095100  0.441430  1.0  -0.0659
  C  C96  1  0.713900  0.679110  0.151130  1.0  0.0344
  C  C97  1  0.440300  0.033400  0.492360  1.0  0.0417
  C  C98  1  0.690700  0.399280  0.196660  1.0  0.7208
  C  C99  1  0.606300  0.094590  0.409540  1.0  -0.1604
  C  C100  1  0.632100  0.161970  0.356310  1.0  0.7826
  C  C101  1  0.782200  0.036010  0.182580  1.0  0.7816
  C  C102  1  0.765800  0.909870  0.168090  1.0  -0.1246
  C  C103  1  0.678800  0.565960  0.148840  1.0  -0.0646
  C  C104  1  0.668600  0.847080  0.112310  1.0  -0.0639
  C  C105  1  0.647100  0.733800  0.102660  1.0  -0.1152
  C  C106  1  0.739200  0.516710  0.198680  1.0  -0.1505
  C  C107  1  0.812900  0.741130  0.206150  1.0  0.0442
  C  C108  1  0.298300  0.034600  0.527250  1.0  -0.1336
  C  C109  1  0.839800  0.857100  0.212110  1.0  -0.0709
  C  C110  1  0.726200  0.029000  0.425490  1.0  -0.0474
  C  C111  1  0.841500  0.577900  0.251980  1.0  -0.0409
  C  C112  1  0.878400  0.686800  0.254800  1.0  -0.1089
  O  O113  1  0.773610  0.859990  0.749970  1.0  -0.8183
  O  O114  1  0.891800  0.845150  0.645280  1.0  -0.6557
  O  O115  1  0.982600  0.695860  0.829670  1.0  -0.7021
  O  O116  1  0.590200  0.579150  0.701800  1.0  -0.6625
  O  O117  1  0.834800  0.589960  0.675500  1.0  -0.7874
  O  O118  1  0.734600  0.679990  0.841480  1.0  -0.7583
  O  O119  1  0.273610  0.640010  0.750030  1.0  -0.8201
  O  O120  1  0.391800  0.654850  0.854720  1.0  -0.6547
  O  O121  1  0.482600  0.804140  0.670330  1.0  -0.7017
  O  O122  1  0.090200  0.920850  0.798200  1.0  -0.662
  O  O123  1  0.334800  0.910040  0.824500  1.0  -0.785
  O  O124  1  0.234600  0.820010  0.658520  1.0  -0.7585
  O  O125  1  0.226390  0.140010  0.250030  1.0  -0.8204
  O  O126  1  0.108200  0.154850  0.354720  1.0  -0.6545
  O  O127  1  0.017400  0.304140  0.170330  1.0  -0.7014
  O  O128  1  0.409800  0.420850  0.298200  1.0  -0.6636
  O  O129  1  0.165200  0.410040  0.324500  1.0  -0.7843
  O  O130  1  0.265400  0.320010  0.158520  1.0  -0.7589
  O  O131  1  0.726390  0.359990  0.249970  1.0  -0.8184
  O  O132  1  0.608200  0.345150  0.145280  1.0  -0.6555
  O  O133  1  0.517400  0.195860  0.329670  1.0  -0.7025
  O  O134  1  0.909800  0.079150  0.201800  1.0  -0.6649
  O  O135  1  0.665200  0.089960  0.175500  1.0  -0.7863
  O  O136  1  0.765400  0.179990  0.341480  1.0  -0.7587
