# generated using pymatgen
data_CoH5C4N3O2
_symmetry_space_group_name_H-M   'P 1'
_cell_length_a   14.79280000
_cell_length_b   14.79280000
_cell_length_c   14.79280000
_cell_angle_alpha   104.26400000
_cell_angle_beta   112.13600000
_cell_angle_gamma   112.13600000
_symmetry_Int_Tables_number   1
_chemical_formula_structural   CoH5C4N3O2
_chemical_formula_sum   'Co8 H40 C32 N24 O16'
_cell_volume   2476.63765637
_cell_formula_units_Z   8
loop_
 _symmetry_equiv_pos_site_id
 _symmetry_equiv_pos_as_xyz
  1  'x, y, z'
loop_
 _atom_site_type_symbol
 _atom_site_label
 _atom_site_symmetry_multiplicity
 _atom_site_fract_x
 _atom_site_fract_y
 _atom_site_fract_z
 _atom_site_occupancy
 _atom_site_charge
  Co  Co1  1  0.566670  0.907180  0.493170  1.0  0.605
  Co  Co2  1  0.933330  0.426500  0.340510  1.0  0.5953
  Co  Co3  1  0.585990  0.493170  0.426500  1.0  0.6025
  Co  Co4  1  0.914010  0.340510  0.907180  1.0  0.6079
  Co  Co5  1  0.433330  0.092820  0.506830  1.0  0.597
  Co  Co6  1  0.066670  0.573500  0.659490  1.0  0.5962
  Co  Co7  1  0.414010  0.506830  0.573500  1.0  0.6041
  Co  Co8  1  0.085990  0.659490  0.092820  1.0  0.6102
  H  H9  1  0.361600  0.733400  0.538200  1.0  0.0972
  H  H10  1  0.459600  0.758400  0.650600  1.0  0.0823
  H  H11  1  0.571000  0.681100  0.300500  1.0  0.0728
  H  H12  1  0.688300  0.763700  0.411800  1.0  0.0952
  H  H13  1  0.572000  0.894000  0.638000  1.0  0.3756
  H  H14  1  0.138400  0.676600  0.371800  1.0  0.0993
  H  H15  1  0.040400  0.691000  0.298800  1.0  0.0833
  H  H16  1  0.929000  0.229500  0.110100  1.0  0.0689
  H  H17  1  0.811700  0.223500  0.075400  1.0  0.0933
  H  H18  1  0.928000  0.566000  0.322000  1.0  0.3768
  H  H19  1  0.804800  0.538200  0.676600  1.0  0.0963
  H  H20  1  0.892200  0.650600  0.691000  1.0  0.0826
  H  H21  1  0.619400  0.300500  0.229500  1.0  0.0722
  H  H22  1  0.648100  0.411800  0.223500  1.0  0.0938
  H  H23  1  0.744000  0.638000  0.566000  1.0  0.3757
  H  H24  1  0.695200  0.371800  0.733400  1.0  0.0964
  H  H25  1  0.607800  0.298800  0.758400  1.0  0.0834
  H  H26  1  0.880600  0.110100  0.681100  1.0  0.0729
  H  H27  1  0.851900  0.075400  0.763700  1.0  0.0948
  H  H28  1  0.756000  0.322000  0.894000  1.0  0.3721
  H  H29  1  0.638400  0.266600  0.461800  1.0  0.0939
  H  H30  1  0.540400  0.241600  0.349400  1.0  0.083
  H  H31  1  0.429000  0.318900  0.699500  1.0  0.0739
  H  H32  1  0.311700  0.236300  0.588200  1.0  0.096
  H  H33  1  0.428000  0.106000  0.362000  1.0  0.3792
  H  H34  1  0.861600  0.323400  0.628200  1.0  0.1002
  H  H35  1  0.959600  0.309000  0.701200  1.0  0.0825
  H  H36  1  0.071000  0.770500  0.889900  1.0  0.0717
  H  H37  1  0.188300  0.776500  0.924600  1.0  0.0939
  H  H38  1  0.072000  0.434000  0.678000  1.0  0.3759
  H  H39  1  0.195200  0.461800  0.323400  1.0  0.0951
  H  H40  1  0.107800  0.349400  0.309000  1.0  0.0826
  H  H41  1  0.380600  0.699500  0.770500  1.0  0.073
  H  H42  1  0.351900  0.588200  0.776500  1.0  0.094
  H  H43  1  0.256000  0.362000  0.434000  1.0  0.3768
  H  H44  1  0.304800  0.628200  0.266600  1.0  0.0967
  H  H45  1  0.392200  0.701200  0.241600  1.0  0.0824
  H  H46  1  0.119400  0.889900  0.318900  1.0  0.0746
  H  H47  1  0.148100  0.924600  0.236300  1.0  0.095
  H  H48  1  0.244000  0.678000  0.106000  1.0  0.3762
  C  C49  1  0.483000  0.707400  0.524200  1.0  0.2934
  C  C50  1  0.558900  0.680300  0.433200  1.0  0.3432
  C  C51  1  0.443500  0.765200  0.583500  1.0  0.0629
  C  C52  1  0.620100  0.691200  0.372500  1.0  0.065
  C  C53  1  0.017000  0.541200  0.224400  1.0  0.2951
  C  C54  1  0.941100  0.374300  0.121400  1.0  0.3412
  C  C55  1  0.056500  0.640000  0.321700  1.0  0.0656
  C  C56  1  0.879900  0.252400  0.071100  1.0  0.066
  C  C57  1  0.816800  0.524200  0.541200  1.0  0.2956
  C  C58  1  0.752900  0.433200  0.374300  1.0  0.3424
  C  C59  1  0.818300  0.583500  0.640000  1.0  0.0629
  C  C60  1  0.681300  0.372500  0.252400  1.0  0.0701
  C  C61  1  0.683200  0.224400  0.707400  1.0  0.2949
  C  C62  1  0.747100  0.121400  0.680300  1.0  0.3422
  C  C63  1  0.681700  0.321700  0.765200  1.0  0.0629
  C  C64  1  0.818700  0.071100  0.691200  1.0  0.0651
  C  C65  1  0.517000  0.292600  0.475800  1.0  0.2939
  C  C66  1  0.441100  0.319700  0.566800  1.0  0.3417
  C  C67  1  0.556500  0.234800  0.416500  1.0  0.0622
  C  C68  1  0.379900  0.308800  0.627500  1.0  0.0602
  C  C69  1  0.983000  0.458800  0.775600  1.0  0.2954
  C  C70  1  0.058900  0.625700  0.878600  1.0  0.341
  C  C71  1  0.943500  0.360000  0.678300  1.0  0.0634
  C  C72  1  0.120100  0.747600  0.928900  1.0  0.0625
  C  C73  1  0.183200  0.475800  0.458800  1.0  0.2948
  C  C74  1  0.247100  0.566800  0.625700  1.0  0.3408
  C  C75  1  0.181700  0.416500  0.360000  1.0  0.0635
  C  C76  1  0.318700  0.627500  0.747600  1.0  0.066
  C  C77  1  0.316800  0.775600  0.292600  1.0  0.2961
  C  C78  1  0.252900  0.878600  0.319700  1.0  0.3409
  C  C79  1  0.318300  0.678300  0.234800  1.0  0.0631
  C  C80  1  0.181300  0.928900  0.308800  1.0  0.0667
  N  N81  1  0.532300  0.752800  0.473700  1.0  -0.4656
  N  N82  1  0.479200  0.615300  0.517100  1.0  -0.2809
  N  N83  1  0.529300  0.597200  0.456900  1.0  -0.2529
  N  N84  1  0.967700  0.441400  0.220500  1.0  -0.4648
  N  N85  1  0.020800  0.537900  0.136100  1.0  -0.2808
  N  N86  1  0.970700  0.427600  0.067900  1.0  -0.2501
  N  N87  1  0.720900  0.473700  0.441400  1.0  -0.4681
  N  N88  1  0.901800  0.517100  0.537900  1.0  -0.2832
  N  N89  1  0.859700  0.456900  0.427600  1.0  -0.2529
  N  N90  1  0.779100  0.220500  0.752800  1.0  -0.4655
  N  N91  1  0.598200  0.136100  0.615300  1.0  -0.2857
  N  N92  1  0.640300  0.067900  0.597200  1.0  -0.2511
  N  N93  1  0.467700  0.247200  0.526300  1.0  -0.4653
  N  N94  1  0.520800  0.384700  0.482900  1.0  -0.2806
  N  N95  1  0.470700  0.402800  0.543100  1.0  -0.2526
  N  N96  1  0.032300  0.558600  0.779500  1.0  -0.4654
  N  N97  1  0.979200  0.462100  0.863900  1.0  -0.2805
  N  N98  1  0.029300  0.572400  0.932100  1.0  -0.2524
  N  N99  1  0.279100  0.526300  0.558600  1.0  -0.4676
  N  N100  1  0.098200  0.482900  0.462100  1.0  -0.2858
  N  N101  1  0.140300  0.543100  0.572400  1.0  -0.2533
  N  N102  1  0.220900  0.779500  0.247200  1.0  -0.4684
  N  N103  1  0.401800  0.863900  0.384700  1.0  -0.2835
  N  N104  1  0.359700  0.932100  0.402800  1.0  -0.2534
  O  O105  1  0.502700  0.876000  0.607500  1.0  -0.4815
  O  O106  1  0.650400  0.611300  0.362700  1.0  -0.6081
  O  O107  1  0.997300  0.604800  0.373300  1.0  -0.4817
  O  O108  1  0.849600  0.212300  0.960900  1.0  -0.6098
  O  O109  1  0.731500  0.607500  0.604800  1.0  -0.4856
  O  O110  1  0.751400  0.362700  0.212300  1.0  -0.6086
  O  O111  1  0.768500  0.373300  0.876000  1.0  -0.4793
  O  O112  1  0.748600  0.960900  0.611300  1.0  -0.6065
  O  O113  1  0.497300  0.124000  0.392500  1.0  -0.4815
  O  O114  1  0.349600  0.388700  0.637300  1.0  -0.6071
  O  O115  1  0.002700  0.395200  0.626700  1.0  -0.4772
  O  O116  1  0.150400  0.787700  0.039100  1.0  -0.609
  O  O117  1  0.268500  0.392500  0.395200  1.0  -0.4808
  O  O118  1  0.248600  0.637300  0.787700  1.0  -0.6071
  O  O119  1  0.231500  0.626700  0.124000  1.0  -0.479
  O  O120  1  0.251400  0.039100  0.388700  1.0  -0.6071
