# generated using pymatgen
data_ZnH4(CN)3
_symmetry_space_group_name_H-M   'P 1'
_cell_length_a   11.38870000
_cell_length_b   13.74950000
_cell_length_c   13.74950000
_cell_angle_alpha   80.12380000
_cell_angle_beta   65.53410000
_cell_angle_gamma   65.53420000
_symmetry_Int_Tables_number   1
_chemical_formula_structural   ZnH4(CN)3
_chemical_formula_sum   'Zn8 H32 C24 N24'
_cell_volume   1783.73168259
_cell_formula_units_Z   8
loop_
 _symmetry_equiv_pos_site_id
 _symmetry_equiv_pos_as_xyz
  1  'x, y, z'
loop_
 _atom_site_type_symbol
 _atom_site_label
 _atom_site_symmetry_multiplicity
 _atom_site_fract_x
 _atom_site_fract_y
 _atom_site_fract_z
 _atom_site_occupancy
 _atom_site_charge
  Zn  Zn1  1  0.337120  0.550800  0.472940  1.0  0.0019
  Zn  Zn2  1  0.860860  0.949200  0.027060  1.0  -0.0082
  Zn  Zn3  1  0.810060  0.527060  0.050800  1.0  -0.0019
  Zn  Zn4  1  0.887920  0.972940  0.449200  1.0  -0.0064
  Zn  Zn5  1  0.662880  0.449200  0.527060  1.0  -0.0005
  Zn  Zn6  1  0.139140  0.050800  0.972940  1.0  0.0015
  Zn  Zn7  1  0.189940  0.472940  0.949200  1.0  -0.0
  Zn  Zn8  1  0.112080  0.027060  0.550800  1.0  -0.0006
  H  H9  1  0.910200  0.421800  0.343000  1.0  0.127
  H  H10  1  0.955800  0.384700  0.226700  1.0  0.1435
  H  H11  1  0.934800  0.500800  0.246800  1.0  0.1441
  H  H12  1  0.504000  0.573600  0.226000  1.0  0.0758
  H  H13  1  0.175000  0.078200  0.157000  1.0  0.1257
  H  H14  1  0.067200  0.115300  0.273300  1.0  0.1429
  H  H15  1  0.182400  0.999200  0.253200  1.0  0.1452
  H  H16  1  0.803600  0.926400  0.274000  1.0  0.0767
  H  H17  1  0.253200  0.657000  0.921800  1.0  0.1273
  H  H18  1  0.182500  0.773300  0.884700  1.0  0.1432
  H  H19  1  0.181600  0.753200  0.000800  1.0  0.1447
  H  H20  1  0.730000  0.774000  0.073600  1.0  0.0767
  H  H21  1  0.332000  0.843000  0.578200  1.0  0.1256
  H  H22  1  0.340500  0.726700  0.615300  1.0  0.1455
  H  H23  1  0.435600  0.746800  0.499200  1.0  0.1434
  H  H24  1  0.077600  0.726000  0.426400  1.0  0.0753
  H  H25  1  0.089800  0.578200  0.657000  1.0  0.1269
  H  H26  1  0.044200  0.615300  0.773300  1.0  0.1427
  H  H27  1  0.065200  0.499200  0.753200  1.0  0.1451
  H  H28  1  0.496000  0.426400  0.774000  1.0  0.0766
  H  H29  1  0.825000  0.921800  0.843000  1.0  0.1253
  H  H30  1  0.932800  0.884700  0.726700  1.0  0.142
  H  H31  1  0.817600  0.000800  0.746800  1.0  0.1451
  H  H32  1  0.196400  0.073600  0.726000  1.0  0.0772
  H  H33  1  0.746800  0.343000  0.078200  1.0  0.1262
  H  H34  1  0.817500  0.226700  0.115300  1.0  0.1425
  H  H35  1  0.818400  0.246800  0.999200  1.0  0.1439
  H  H36  1  0.270000  0.226000  0.926400  1.0  0.0775
  H  H37  1  0.668000  0.157000  0.421800  1.0  0.1257
  H  H38  1  0.659500  0.273300  0.384700  1.0  0.1433
  H  H39  1  0.564400  0.253200  0.500800  1.0  0.1468
  H  H40  1  0.922400  0.274000  0.573600  1.0  0.0753
  C  C41  1  0.901500  0.444100  0.275300  1.0  -0.4117
  C  C42  1  0.751500  0.482900  0.290300  1.0  0.3649
  C  C43  1  0.566270  0.545350  0.260510  1.0  0.1775
  C  C44  1  0.120900  0.055900  0.224700  1.0  -0.4104
  C  C45  1  0.024700  0.017100  0.209700  1.0  0.368
  C  C46  1  0.872130  0.954650  0.239490  1.0  0.1731
  C  C47  1  0.176800  0.724700  0.944100  1.0  -0.412
  C  C48  1  0.041800  0.709700  0.982900  1.0  0.3669
  C  C49  1  0.826780  0.739490  0.045350  1.0  0.1744
  C  C50  1  0.345600  0.775300  0.555900  1.0  -0.4114
  C  C51  1  0.234400  0.790300  0.517100  1.0  0.3691
  C  C52  1  0.111620  0.760510  0.454650  1.0  0.1778
  C  C53  1  0.098500  0.555900  0.724700  1.0  -0.4103
  C  C54  1  0.248500  0.517100  0.709700  1.0  0.3659
  C  C55  1  0.433730  0.454650  0.739490  1.0  0.1839
  C  C56  1  0.879100  0.944100  0.775300  1.0  -0.4103
  C  C57  1  0.975300  0.982900  0.790300  1.0  0.3681
  C  C58  1  0.127870  0.045350  0.760510  1.0  0.1826
  C  C59  1  0.823200  0.275300  0.055900  1.0  -0.4104
  C  C60  1  0.958200  0.290300  0.017100  1.0  0.3673
  C  C61  1  0.173220  0.260510  0.954650  1.0  0.1821
  C  C62  1  0.654400  0.224700  0.444100  1.0  -0.4118
  C  C63  1  0.765600  0.209700  0.482900  1.0  0.3699
  C  C64  1  0.888380  0.239490  0.545350  1.0  0.1855
  N  N65  1  0.529140  0.526800  0.363320  1.0  -0.1227
  N  N66  1  0.650030  0.486170  0.382970  1.0  -0.1765
  N  N67  1  0.704610  0.518890  0.210490  1.0  -0.3257
  N  N68  1  0.919260  0.973200  0.136680  1.0  -0.1179
  N  N69  1  0.019170  0.013830  0.117030  1.0  -0.1854
  N  N70  1  0.933990  0.981110  0.289510  1.0  -0.3224
  N  N71  1  0.892460  0.636680  0.026800  1.0  -0.1205
  N  N72  1  0.033000  0.617030  0.986170  1.0  -0.1793
  N  N73  1  0.915100  0.789510  0.018890  1.0  -0.3227
  N  N74  1  0.055940  0.863320  0.473200  1.0  -0.1192
  N  N75  1  0.136200  0.882970  0.513830  1.0  -0.1809
  N  N76  1  0.223500  0.710490  0.481110  1.0  -0.3263
  N  N77  1  0.470860  0.473200  0.636680  1.0  -0.1234
  N  N78  1  0.349970  0.513830  0.617030  1.0  -0.1799
  N  N79  1  0.295390  0.481110  0.789510  1.0  -0.3232
  N  N80  1  0.080740  0.026800  0.863320  1.0  -0.119
  N  N81  1  0.980830  0.986170  0.882970  1.0  -0.1788
  N  N82  1  0.066010  0.018890  0.710490  1.0  -0.3212
  N  N83  1  0.107540  0.363320  0.973200  1.0  -0.1214
  N  N84  1  0.967000  0.382970  0.013830  1.0  -0.1792
  N  N85  1  0.084900  0.210490  0.981110  1.0  -0.3266
  N  N86  1  0.944060  0.136680  0.526800  1.0  -0.1197
  N  N87  1  0.863800  0.117030  0.486170  1.0  -0.1803
  N  N88  1  0.776500  0.289510  0.518890  1.0  -0.3265
