# generated using pymatgen
data_CuH26C28(NO)6
_symmetry_space_group_name_H-M   'P 1'
_cell_length_a   20.22030000
_cell_length_b   20.22030000
_cell_length_c   17.48410000
_cell_angle_alpha   90.00000000
_cell_angle_beta   90.00000000
_cell_angle_gamma   90.00000000
_symmetry_Int_Tables_number   1
_chemical_formula_structural   CuH26C28(NO)6
_chemical_formula_sum   'Cu8 H208 C224 N48 O48'
_cell_volume   7148.55842911
_cell_formula_units_Z   8
loop_
 _symmetry_equiv_pos_site_id
 _symmetry_equiv_pos_as_xyz
  1  'x, y, z'
loop_
 _atom_site_type_symbol
 _atom_site_label
 _atom_site_symmetry_multiplicity
 _atom_site_fract_x
 _atom_site_fract_y
 _atom_site_fract_z
 _atom_site_occupancy
 _atom_site_charge
  Cu  Cu1  1  0.500000  0.500000  0.000000  1.0  0.8482
  Cu  Cu2  1  0.000000  0.000000  0.500000  1.0  0.8482
  Cu  Cu3  1  0.000000  0.500000  0.500000  1.0  0.8482
  Cu  Cu4  1  0.500000  0.000000  0.000000  1.0  0.8482
  Cu  Cu5  1  0.250000  0.750000  0.250000  1.0  0.8482
  Cu  Cu6  1  0.250000  0.250000  0.750000  1.0  0.8482
  Cu  Cu7  1  0.750000  0.250000  0.750000  1.0  0.8482
  Cu  Cu8  1  0.750000  0.750000  0.250000  1.0  0.8482
  H  H9  1  0.806500  0.387300  0.077400  1.0  0.1195
  H  H10  1  0.604500  0.326500  0.177400  1.0  0.1177
  H  H11  1  0.701200  0.281600  0.225100  1.0  0.1107
  H  H12  1  0.801400  0.311500  0.173500  1.0  0.1239
  H  H13  1  0.675700  0.642200  0.156300  1.0  0.1081
  H  H14  1  0.719300  0.821200  0.084700  1.0  0.1155
  H  H15  1  0.666500  0.763300  0.979700  1.0  0.1226
  H  H16  1  0.688300  0.636400  0.912900  1.0  0.1057
  H  H17  1  0.655200  0.566700  0.921100  1.0  0.101
  H  H18  1  0.617400  0.594400  0.043600  1.0  0.0989
  H  H19  1  0.590500  0.645200  0.983400  1.0  0.1099
  H  H20  1  0.769500  0.560000  0.940700  1.0  0.1058
  H  H21  1  0.763900  0.609300  0.009500  1.0  0.1202
  H  H22  1  0.306500  0.887300  0.577400  1.0  0.1195
  H  H23  1  0.104500  0.826500  0.677400  1.0  0.1177
  H  H24  1  0.201200  0.781600  0.725100  1.0  0.1107
  H  H25  1  0.301400  0.811500  0.673500  1.0  0.1239
  H  H26  1  0.175700  0.142200  0.656300  1.0  0.1081
  H  H27  1  0.219300  0.321200  0.584700  1.0  0.1155
  H  H28  1  0.166500  0.263300  0.479700  1.0  0.1226
  H  H29  1  0.188300  0.136400  0.412900  1.0  0.1057
  H  H30  1  0.155200  0.066700  0.421100  1.0  0.101
  H  H31  1  0.117400  0.094400  0.543600  1.0  0.0989
  H  H32  1  0.090500  0.145200  0.483400  1.0  0.1099
  H  H33  1  0.269500  0.060000  0.440700  1.0  0.1058
  H  H34  1  0.263900  0.109300  0.509500  1.0  0.1202
  H  H35  1  0.693500  0.612700  0.577400  1.0  0.1198
  H  H36  1  0.895500  0.673500  0.677400  1.0  0.1176
  H  H37  1  0.798800  0.718400  0.725100  1.0  0.1105
  H  H38  1  0.698600  0.688500  0.673500  1.0  0.1239
  H  H39  1  0.824300  0.357800  0.656300  1.0  0.1082
  H  H40  1  0.780700  0.178800  0.584700  1.0  0.1154
  H  H41  1  0.833500  0.236700  0.479700  1.0  0.1228
  H  H42  1  0.811700  0.363600  0.412900  1.0  0.1053
  H  H43  1  0.844800  0.433300  0.421100  1.0  0.0988
  H  H44  1  0.882600  0.405600  0.543600  1.0  0.0988
  H  H45  1  0.909500  0.354800  0.483400  1.0  0.1068
  H  H46  1  0.730500  0.440000  0.440700  1.0  0.1055
  H  H47  1  0.736100  0.390700  0.509500  1.0  0.1202
  H  H48  1  0.193500  0.112700  0.077400  1.0  0.1198
  H  H49  1  0.395500  0.173500  0.177400  1.0  0.1176
  H  H50  1  0.298800  0.218400  0.225100  1.0  0.1105
  H  H51  1  0.198600  0.188500  0.173500  1.0  0.1239
  H  H52  1  0.324300  0.857800  0.156300  1.0  0.1082
  H  H53  1  0.280700  0.678800  0.084700  1.0  0.1154
  H  H54  1  0.333500  0.736700  0.979700  1.0  0.1228
  H  H55  1  0.311700  0.863600  0.912900  1.0  0.1053
  H  H56  1  0.344800  0.933300  0.921100  1.0  0.0988
  H  H57  1  0.382600  0.905600  0.043600  1.0  0.0988
  H  H58  1  0.409500  0.854800  0.983400  1.0  0.1068
  H  H59  1  0.230500  0.940000  0.940700  1.0  0.1055
  H  H60  1  0.236100  0.890700  0.009500  1.0  0.1201
  H  H61  1  0.362700  0.056500  0.327400  1.0  0.1185
  H  H62  1  0.423500  0.854500  0.427400  1.0  0.1177
  H  H63  1  0.468400  0.951200  0.475100  1.0  0.1108
  H  H64  1  0.438500  0.051400  0.423500  1.0  0.1232
  H  H65  1  0.107800  0.925700  0.406300  1.0  0.107
  H  H66  1  0.928800  0.969300  0.334700  1.0  0.1146
  H  H67  1  0.986700  0.916500  0.229700  1.0  0.1223
  H  H68  1  0.113600  0.938300  0.162900  1.0  0.1069
  H  H69  1  0.183300  0.905200  0.171100  1.0  0.099
  H  H70  1  0.155600  0.867400  0.293600  1.0  0.099
  H  H71  1  0.104800  0.840500  0.233400  1.0  0.1117
  H  H72  1  0.190000  0.019500  0.190700  1.0  0.105
  H  H73  1  0.140700  0.013900  0.259500  1.0  0.1194
  H  H74  1  0.862700  0.556500  0.827400  1.0  0.1185
  H  H75  1  0.923500  0.354500  0.927400  1.0  0.1177
  H  H76  1  0.968400  0.451200  0.975100  1.0  0.1108
  H  H77  1  0.938500  0.551400  0.923500  1.0  0.1232
  H  H78  1  0.607800  0.425700  0.906300  1.0  0.107
  H  H79  1  0.428800  0.469300  0.834700  1.0  0.1146
  H  H80  1  0.486700  0.416500  0.729700  1.0  0.1223
  H  H81  1  0.613600  0.438300  0.662900  1.0  0.1069
  H  H82  1  0.683300  0.405200  0.671100  1.0  0.099
  H  H83  1  0.655600  0.367400  0.793600  1.0  0.099
  H  H84  1  0.604800  0.340500  0.733400  1.0  0.1117
  H  H85  1  0.690000  0.519500  0.690700  1.0  0.105
  H  H86  1  0.640700  0.513900  0.759500  1.0  0.1194
  H  H87  1  0.137300  0.943500  0.827400  1.0  0.1189
  H  H88  1  0.076500  0.145500  0.927400  1.0  0.1179
  H  H89  1  0.031600  0.048800  0.975100  1.0  0.111
  H  H90  1  0.061500  0.948600  0.923500  1.0  0.1242
  H  H91  1  0.392200  0.074300  0.906300  1.0  0.1069
  H  H92  1  0.571200  0.030700  0.834700  1.0  0.1149
  H  H93  1  0.513300  0.083500  0.729700  1.0  0.1225
  H  H94  1  0.386400  0.061700  0.662900  1.0  0.1069
  H  H95  1  0.316700  0.094800  0.671100  1.0  0.1002
  H  H96  1  0.344400  0.132600  0.793600  1.0  0.0992
  H  H97  1  0.395200  0.159500  0.733400  1.0  0.1123
  H  H98  1  0.310000  0.980500  0.690700  1.0  0.1052
  H  H99  1  0.359300  0.986100  0.759500  1.0  0.1196
  H  H100  1  0.637300  0.443500  0.327400  1.0  0.1189
  H  H101  1  0.576500  0.645500  0.427400  1.0  0.1179
  H  H102  1  0.531600  0.548800  0.475100  1.0  0.111
  H  H103  1  0.561500  0.448600  0.423500  1.0  0.1242
  H  H104  1  0.892200  0.574300  0.406300  1.0  0.1069
  H  H105  1  0.071200  0.530700  0.334700  1.0  0.1149
  H  H106  1  0.013300  0.583500  0.229700  1.0  0.1225
  H  H107  1  0.886400  0.561700  0.162900  1.0  0.1069
  H  H108  1  0.816700  0.594800  0.171100  1.0  0.1002
  H  H109  1  0.844400  0.632600  0.293600  1.0  0.0992
  H  H110  1  0.895200  0.659500  0.233400  1.0  0.1123
  H  H111  1  0.810000  0.480500  0.190700  1.0  0.1052
  H  H112  1  0.859300  0.486100  0.259500  1.0  0.1196
  H  H113  1  0.193500  0.612700  0.922600  1.0  0.1197
  H  H114  1  0.395500  0.673500  0.822600  1.0  0.1177
  H  H115  1  0.298800  0.718400  0.774900  1.0  0.1099
  H  H116  1  0.198600  0.688500  0.826500  1.0  0.1241
  H  H117  1  0.324300  0.357800  0.843700  1.0  0.1078
  H  H118  1  0.280700  0.178800  0.915300  1.0  0.1179
  H  H119  1  0.333500  0.236700  0.020300  1.0  0.123
  H  H120  1  0.311700  0.363600  0.087100  1.0  0.1053
  H  H121  1  0.344800  0.433300  0.078900  1.0  0.0984
  H  H122  1  0.382600  0.405600  0.956400  1.0  0.099
  H  H123  1  0.409500  0.354800  0.016600  1.0  0.1058
  H  H124  1  0.230500  0.440000  0.059300  1.0  0.1072
  H  H125  1  0.236100  0.390700  0.990500  1.0  0.1203
  H  H126  1  0.693500  0.112700  0.422600  1.0  0.1197
  H  H127  1  0.895500  0.173500  0.322600  1.0  0.1177
  H  H128  1  0.798800  0.218400  0.274900  1.0  0.1099
  H  H129  1  0.698600  0.188500  0.326500  1.0  0.1241
  H  H130  1  0.824300  0.857800  0.343700  1.0  0.1078
  H  H131  1  0.780700  0.678800  0.415300  1.0  0.1179
  H  H132  1  0.833500  0.736700  0.520300  1.0  0.123
  H  H133  1  0.811700  0.863600  0.587100  1.0  0.1053
  H  H134  1  0.844800  0.933300  0.578900  1.0  0.0984
  H  H135  1  0.882600  0.905600  0.456400  1.0  0.099
  H  H136  1  0.909500  0.854800  0.516600  1.0  0.1058
  H  H137  1  0.730500  0.940000  0.559300  1.0  0.1072
  H  H138  1  0.736100  0.890700  0.490500  1.0  0.1203
  H  H139  1  0.306500  0.387300  0.422600  1.0  0.1201
  H  H140  1  0.104500  0.326500  0.322600  1.0  0.1174
  H  H141  1  0.201200  0.281600  0.274900  1.0  0.1106
  H  H142  1  0.301400  0.311500  0.326500  1.0  0.1238
  H  H143  1  0.175700  0.642200  0.343700  1.0  0.1079
  H  H144  1  0.219300  0.821200  0.415300  1.0  0.1176
  H  H145  1  0.166500  0.763300  0.520300  1.0  0.1229
  H  H146  1  0.188300  0.636400  0.587100  1.0  0.1043
  H  H147  1  0.155200  0.566700  0.578900  1.0  0.1001
  H  H148  1  0.117400  0.594400  0.456400  1.0  0.099
  H  H149  1  0.090500  0.645200  0.516600  1.0  0.1096
  H  H150  1  0.269500  0.560000  0.559300  1.0  0.1068
  H  H151  1  0.263900  0.609300  0.490500  1.0  0.1205
  H  H152  1  0.806500  0.887300  0.922600  1.0  0.1201
  H  H153  1  0.604500  0.826500  0.822600  1.0  0.1174
  H  H154  1  0.701200  0.781600  0.774900  1.0  0.1106
  H  H155  1  0.801400  0.811500  0.826500  1.0  0.1238
  H  H156  1  0.675700  0.142200  0.843700  1.0  0.1079
  H  H157  1  0.719300  0.321200  0.915300  1.0  0.1176
  H  H158  1  0.666500  0.263300  0.020300  1.0  0.1229
  H  H159  1  0.688300  0.136400  0.087100  1.0  0.1043
  H  H160  1  0.655200  0.066700  0.078900  1.0  0.1001
  H  H161  1  0.617400  0.094400  0.956400  1.0  0.099
  H  H162  1  0.590500  0.145200  0.016600  1.0  0.1096
  H  H163  1  0.769500  0.060000  0.059300  1.0  0.1068
  H  H164  1  0.763900  0.109300  0.990500  1.0  0.1205
  H  H165  1  0.637300  0.943500  0.672600  1.0  0.1189
  H  H166  1  0.576500  0.145500  0.572600  1.0  0.1177
  H  H167  1  0.531600  0.048800  0.524900  1.0  0.1111
  H  H168  1  0.561500  0.948600  0.576500  1.0  0.1244
  H  H169  1  0.892200  0.074300  0.593700  1.0  0.107
  H  H170  1  0.071200  0.030700  0.665300  1.0  0.1158
  H  H171  1  0.013300  0.083500  0.770300  1.0  0.1226
  H  H172  1  0.886400  0.061700  0.837100  1.0  0.1049
  H  H173  1  0.816700  0.094800  0.828900  1.0  0.0991
  H  H174  1  0.844400  0.132600  0.706400  1.0  0.0998
  H  H175  1  0.895200  0.159500  0.766600  1.0  0.111
  H  H176  1  0.810000  0.980500  0.809300  1.0  0.107
  H  H177  1  0.859300  0.986100  0.740500  1.0  0.1192
  H  H178  1  0.137300  0.443500  0.172600  1.0  0.1189
  H  H179  1  0.076500  0.645500  0.072600  1.0  0.1177
  H  H180  1  0.031600  0.548800  0.024900  1.0  0.1111
  H  H181  1  0.061500  0.448600  0.076500  1.0  0.1244
  H  H182  1  0.392200  0.574300  0.093700  1.0  0.107
  H  H183  1  0.571200  0.530700  0.165300  1.0  0.1158
  H  H184  1  0.513300  0.583500  0.270300  1.0  0.1226
  H  H185  1  0.386400  0.561700  0.337100  1.0  0.1049
  H  H186  1  0.316700  0.594800  0.328900  1.0  0.0991
  H  H187  1  0.344400  0.632600  0.206400  1.0  0.0998
  H  H188  1  0.395200  0.659500  0.266600  1.0  0.111
  H  H189  1  0.310000  0.480500  0.309300  1.0  0.107
  H  H190  1  0.359300  0.486100  0.240500  1.0  0.1192
  H  H191  1  0.862700  0.056500  0.172600  1.0  0.1182
  H  H192  1  0.923500  0.854500  0.072600  1.0  0.1174
  H  H193  1  0.968400  0.951200  0.024900  1.0  0.1109
  H  H194  1  0.938500  0.051400  0.076500  1.0  0.123
  H  H195  1  0.607800  0.925700  0.093700  1.0  0.1064
  H  H196  1  0.428800  0.969300  0.165300  1.0  0.1155
  H  H197  1  0.486700  0.916500  0.270300  1.0  0.1222
  H  H198  1  0.613600  0.938300  0.337100  1.0  0.1059
  H  H199  1  0.683300  0.905200  0.328900  1.0  0.0992
  H  H200  1  0.655600  0.867400  0.206400  1.0  0.0988
  H  H201  1  0.604800  0.840500  0.266600  1.0  0.1128
  H  H202  1  0.690000  0.019500  0.309300  1.0  0.1059
  H  H203  1  0.640700  0.013900  0.240500  1.0  0.1202
  H  H204  1  0.362700  0.556500  0.672600  1.0  0.1182
  H  H205  1  0.423500  0.354500  0.572600  1.0  0.1174
  H  H206  1  0.468400  0.451200  0.524900  1.0  0.1109
  H  H207  1  0.438500  0.551400  0.576500  1.0  0.123
  H  H208  1  0.107800  0.425700  0.593700  1.0  0.1064
  H  H209  1  0.928800  0.469300  0.665300  1.0  0.1155
  H  H210  1  0.986700  0.416500  0.770300  1.0  0.1222
  H  H211  1  0.113600  0.438300  0.837100  1.0  0.1059
  H  H212  1  0.183300  0.405200  0.828900  1.0  0.0992
  H  H213  1  0.155600  0.367400  0.706400  1.0  0.0988
  H  H214  1  0.104800  0.340500  0.766600  1.0  0.1128
  H  H215  1  0.190000  0.519500  0.809300  1.0  0.1059
  H  H216  1  0.140700  0.513900  0.740500  1.0  0.1203
  C  C217  1  0.717300  0.457800  0.008800  1.0  0.6227
  C  C218  1  0.583300  0.414600  0.069100  1.0  0.6765
  C  C219  1  0.709000  0.406300  0.070900  1.0  -0.1003
  C  C220  1  0.647700  0.386600  0.099200  1.0  -0.1586
  C  C221  1  0.765700  0.376200  0.098200  1.0  -0.0695
  C  C222  1  0.645100  0.339500  0.157500  1.0  -0.0661
  C  C223  1  0.702900  0.312300  0.185500  1.0  -0.0773
  C  C224  1  0.762600  0.330500  0.155100  1.0  -0.087
  C  C225  1  0.680500  0.679600  0.125700  1.0  0.1325
  C  C226  1  0.704200  0.777800  0.085800  1.0  -0.0048
  C  C227  1  0.675000  0.746100  0.028100  1.0  -0.1463
  C  C228  1  0.677500  0.601600  0.949100  1.0  -0.1017
  C  C229  1  0.630200  0.629400  0.008700  1.0  0.0176
  C  C230  1  0.741200  0.574200  0.982300  1.0  -0.0347
  C  C231  1  0.217300  0.957800  0.508800  1.0  0.6227
  C  C232  1  0.083300  0.914600  0.569100  1.0  0.6765
  C  C233  1  0.209000  0.906300  0.570900  1.0  -0.1003
  C  C234  1  0.147700  0.886600  0.599200  1.0  -0.1586
  C  C235  1  0.265700  0.876200  0.598200  1.0  -0.0695
  C  C236  1  0.145100  0.839500  0.657500  1.0  -0.0661
  C  C237  1  0.202900  0.812300  0.685500  1.0  -0.0773
  C  C238  1  0.262600  0.830500  0.655100  1.0  -0.087
  C  C239  1  0.180500  0.179600  0.625700  1.0  0.1325
  C  C240  1  0.204200  0.277800  0.585800  1.0  -0.0048
  C  C241  1  0.175000  0.246100  0.528100  1.0  -0.1463
  C  C242  1  0.177500  0.101600  0.449100  1.0  -0.1017
  C  C243  1  0.130200  0.129400  0.508700  1.0  0.0176
  C  C244  1  0.241200  0.074200  0.482300  1.0  -0.0347
  C  C245  1  0.782700  0.542200  0.508800  1.0  0.6217
  C  C246  1  0.916700  0.585400  0.569100  1.0  0.6777
  C  C247  1  0.791000  0.593700  0.570900  1.0  -0.0998
  C  C248  1  0.852300  0.613400  0.599200  1.0  -0.1581
  C  C249  1  0.734300  0.623800  0.598200  1.0  -0.0684
  C  C250  1  0.854900  0.660500  0.657500  1.0  -0.067
  C  C251  1  0.797100  0.687700  0.685500  1.0  -0.0782
  C  C252  1  0.737400  0.669500  0.655100  1.0  -0.0876
  C  C253  1  0.819500  0.320400  0.625700  1.0  0.1327
  C  C254  1  0.795800  0.222200  0.585800  1.0  -0.0056
  C  C255  1  0.825000  0.253900  0.528100  1.0  -0.1463
  C  C256  1  0.822500  0.398400  0.449100  1.0  -0.1013
  C  C257  1  0.869800  0.370600  0.508700  1.0  0.0195
  C  C258  1  0.758800  0.425800  0.482300  1.0  -0.0363
  C  C259  1  0.282700  0.042200  0.008800  1.0  0.6217
  C  C260  1  0.416700  0.085400  0.069100  1.0  0.6777
  C  C261  1  0.291000  0.093700  0.070900  1.0  -0.0998
  C  C262  1  0.352300  0.113400  0.099200  1.0  -0.1581
  C  C263  1  0.234300  0.123800  0.098200  1.0  -0.0684
  C  C264  1  0.354900  0.160500  0.157500  1.0  -0.067
  C  C265  1  0.297100  0.187700  0.185500  1.0  -0.0782
  C  C266  1  0.237400  0.169500  0.155100  1.0  -0.0876
  C  C267  1  0.319500  0.820400  0.125700  1.0  0.1327
  C  C268  1  0.295800  0.722200  0.085800  1.0  -0.0056
  C  C269  1  0.325000  0.753900  0.028100  1.0  -0.1463
  C  C270  1  0.322500  0.898400  0.949100  1.0  -0.1013
  C  C271  1  0.369800  0.870600  0.008700  1.0  0.0195
  C  C272  1  0.258800  0.925800  0.982300  1.0  -0.0363
  C  C273  1  0.292200  0.967300  0.258800  1.0  0.6226
  C  C274  1  0.335400  0.833300  0.319100  1.0  0.6814
  C  C275  1  0.343700  0.959000  0.320900  1.0  -0.0991
  C  C276  1  0.363400  0.897700  0.349200  1.0  -0.1551
  C  C277  1  0.373800  0.015700  0.348200  1.0  -0.073
  C  C278  1  0.410500  0.895100  0.407500  1.0  -0.0678
  C  C279  1  0.437700  0.952900  0.435500  1.0  -0.0781
  C  C280  1  0.419500  0.012600  0.405100  1.0  -0.0862
  C  C281  1  0.070400  0.930500  0.375700  1.0  0.1331
  C  C282  1  0.972200  0.954200  0.335800  1.0  -0.006
  C  C283  1  0.003900  0.925000  0.278100  1.0  -0.1449
  C  C284  1  0.148400  0.927500  0.199100  1.0  -0.0998
  C  C285  1  0.120600  0.880200  0.258700  1.0  0.0114
  C  C286  1  0.175800  0.991200  0.232300  1.0  -0.0397
  C  C287  1  0.792200  0.467300  0.758800  1.0  0.6223
  C  C288  1  0.835400  0.333333  0.819100  1.0  0.6812
  C  C289  1  0.843700  0.459000  0.820900  1.0  -0.0991
  C  C290  1  0.863400  0.397700  0.849200  1.0  -0.1544
  C  C291  1  0.873800  0.515700  0.848200  1.0  -0.073
  C  C292  1  0.910500  0.395100  0.907500  1.0  -0.0675
  C  C293  1  0.937700  0.452900  0.935500  1.0  -0.0781
  C  C294  1  0.919500  0.512600  0.905100  1.0  -0.0862
  C  C295  1  0.570400  0.430500  0.875700  1.0  0.1331
  C  C296  1  0.472200  0.454200  0.835800  1.0  -0.006
  C  C297  1  0.503900  0.425000  0.778100  1.0  -0.1449
  C  C298  1  0.648400  0.427500  0.699100  1.0  -0.0998
  C  C299  1  0.620600  0.380200  0.758700  1.0  0.0114
  C  C300  1  0.675800  0.491200  0.732300  1.0  -0.0397
  C  C301  1  0.207800  0.032700  0.758800  1.0  0.6216
  C  C302  1  0.164600  0.166700  0.819100  1.0  0.6795
  C  C303  1  0.156300  0.041000  0.820900  1.0  -0.0988
  C  C304  1  0.136600  0.102300  0.849200  1.0  -0.1569
  C  C305  1  0.126200  0.984300  0.848200  1.0  -0.0727
  C  C306  1  0.089500  0.104900  0.907500  1.0  -0.0661
  C  C307  1  0.062300  0.047100  0.935500  1.0  -0.0778
  C  C308  1  0.080500  0.987400  0.905100  1.0  -0.0873
  C  C309  1  0.429600  0.069500  0.875700  1.0  0.1321
  C  C310  1  0.527800  0.045800  0.835800  1.0  -0.0052
  C  C311  1  0.496100  0.075000  0.778100  1.0  -0.1453
  C  C312  1  0.351600  0.072500  0.699100  1.0  -0.1015
  C  C313  1  0.379400  0.119800  0.758700  1.0  0.0111
  C  C314  1  0.324200  0.008800  0.732300  1.0  -0.0386
  C  C315  1  0.707800  0.532700  0.258800  1.0  0.6213
  C  C316  1  0.664600  0.666667  0.319100  1.0  0.6792
  C  C317  1  0.656300  0.541000  0.320900  1.0  -0.0988
  C  C318  1  0.636600  0.602300  0.349200  1.0  -0.1563
  C  C319  1  0.626200  0.484300  0.348200  1.0  -0.0727
  C  C320  1  0.589500  0.604900  0.407500  1.0  -0.0658
  C  C321  1  0.562300  0.547100  0.435500  1.0  -0.0778
  C  C322  1  0.580500  0.487400  0.405100  1.0  -0.0873
  C  C323  1  0.929600  0.569500  0.375700  1.0  0.1321
  C  C324  1  0.027800  0.545800  0.335800  1.0  -0.0052
  C  C325  1  0.996100  0.575000  0.278100  1.0  -0.1453
  C  C326  1  0.851600  0.572500  0.199100  1.0  -0.1015
  C  C327  1  0.879400  0.619800  0.258700  1.0  0.0111
  C  C328  1  0.824200  0.508800  0.232300  1.0  -0.0386
  C  C329  1  0.282700  0.542200  0.991200  1.0  0.6222
  C  C330  1  0.416700  0.585400  0.930900  1.0  0.6779
  C  C331  1  0.291000  0.593700  0.929100  1.0  -0.1005
  C  C332  1  0.352300  0.613400  0.900800  1.0  -0.1577
  C  C333  1  0.234300  0.623800  0.901800  1.0  -0.068
  C  C334  1  0.354900  0.660500  0.842500  1.0  -0.0666
  C  C335  1  0.297100  0.687700  0.814500  1.0  -0.0791
  C  C336  1  0.237400  0.669500  0.844900  1.0  -0.0882
  C  C337  1  0.319500  0.320400  0.874300  1.0  0.1323
  C  C338  1  0.295800  0.222200  0.914200  1.0  -0.0054
  C  C339  1  0.325000  0.253900  0.971900  1.0  -0.1462
  C  C340  1  0.322500  0.398400  0.050900  1.0  -0.1002
  C  C341  1  0.369800  0.370600  0.991300  1.0  0.0206
  C  C342  1  0.258800  0.425800  0.017700  1.0  -0.0366
  C  C343  1  0.782700  0.042200  0.491200  1.0  0.6222
  C  C344  1  0.916700  0.085400  0.430900  1.0  0.6779
  C  C345  1  0.791000  0.093700  0.429100  1.0  -0.1005
  C  C346  1  0.852300  0.113400  0.400800  1.0  -0.1577
  C  C347  1  0.734300  0.123800  0.401800  1.0  -0.068
  C  C348  1  0.854900  0.160500  0.342500  1.0  -0.0666
  C  C349  1  0.797100  0.187700  0.314500  1.0  -0.0791
  C  C350  1  0.737400  0.169500  0.344900  1.0  -0.0882
  C  C351  1  0.819500  0.820400  0.374300  1.0  0.1323
  C  C352  1  0.795800  0.722200  0.414200  1.0  -0.0054
  C  C353  1  0.825000  0.753900  0.471900  1.0  -0.1462
  C  C354  1  0.822500  0.898400  0.550900  1.0  -0.1002
  C  C355  1  0.869800  0.870600  0.491300  1.0  0.0206
  C  C356  1  0.758800  0.925800  0.517700  1.0  -0.0366
  C  C357  1  0.217300  0.457800  0.491200  1.0  0.6234
  C  C358  1  0.083300  0.414600  0.430900  1.0  0.6769
  C  C359  1  0.209000  0.406300  0.429100  1.0  -0.1006
  C  C360  1  0.147700  0.386600  0.400800  1.0  -0.1585
  C  C361  1  0.265700  0.376200  0.401800  1.0  -0.0684
  C  C362  1  0.145100  0.339500  0.342500  1.0  -0.0655
  C  C363  1  0.202900  0.312300  0.314500  1.0  -0.0777
  C  C364  1  0.262600  0.330500  0.344900  1.0  -0.0878
  C  C365  1  0.180500  0.679600  0.374300  1.0  0.1332
  C  C366  1  0.204200  0.777800  0.414200  1.0  -0.0046
  C  C367  1  0.175000  0.746100  0.471900  1.0  -0.1471
  C  C368  1  0.177500  0.601600  0.550900  1.0  -0.1022
  C  C369  1  0.130200  0.629400  0.491300  1.0  0.0187
  C  C370  1  0.241200  0.574200  0.517700  1.0  -0.0343
  C  C371  1  0.717300  0.957800  0.991200  1.0  0.6234
  C  C372  1  0.583300  0.914600  0.930900  1.0  0.6769
  C  C373  1  0.709000  0.906300  0.929100  1.0  -0.1006
  C  C374  1  0.647700  0.886600  0.900800  1.0  -0.1585
  C  C375  1  0.765700  0.876200  0.901800  1.0  -0.0684
  C  C376  1  0.645100  0.839500  0.842500  1.0  -0.0655
  C  C377  1  0.702900  0.812300  0.814500  1.0  -0.0777
  C  C378  1  0.762600  0.830500  0.844900  1.0  -0.0878
  C  C379  1  0.680500  0.179600  0.874300  1.0  0.1332
  C  C380  1  0.704200  0.277800  0.914200  1.0  -0.0046
  C  C381  1  0.675000  0.246100  0.971900  1.0  -0.1471
  C  C382  1  0.677500  0.101600  0.050900  1.0  -0.1022
  C  C383  1  0.630200  0.129400  0.991300  1.0  0.0187
  C  C384  1  0.741200  0.074200  0.017700  1.0  -0.0343
  C  C385  1  0.707800  0.032700  0.741200  1.0  0.6221
  C  C386  1  0.664600  0.166700  0.680900  1.0  0.6807
  C  C387  1  0.656300  0.041000  0.679100  1.0  -0.0991
  C  C388  1  0.636600  0.102300  0.650800  1.0  -0.1565
  C  C389  1  0.626200  0.984300  0.651800  1.0  -0.0722
  C  C390  1  0.589500  0.104900  0.592500  1.0  -0.0652
  C  C391  1  0.562300  0.047100  0.564500  1.0  -0.078
  C  C392  1  0.580500  0.987400  0.594900  1.0  -0.0874
  C  C393  1  0.929600  0.069500  0.624300  1.0  0.1324
  C  C394  1  0.027800  0.045800  0.664200  1.0  -0.005
  C  C395  1  0.996100  0.075000  0.721900  1.0  -0.1458
  C  C396  1  0.851600  0.072500  0.800900  1.0  -0.1007
  C  C397  1  0.879400  0.119800  0.741300  1.0  0.0122
  C  C398  1  0.824200  0.008800  0.767700  1.0  -0.0376
  C  C399  1  0.207800  0.532700  0.241200  1.0  0.6218
  C  C400  1  0.164600  0.666667  0.180900  1.0  0.6804
  C  C401  1  0.156300  0.541000  0.179100  1.0  -0.0991
  C  C402  1  0.136600  0.602300  0.150800  1.0  -0.1558
  C  C403  1  0.126200  0.484300  0.151800  1.0  -0.0722
  C  C404  1  0.089500  0.604900  0.092500  1.0  -0.0649
  C  C405  1  0.062300  0.547100  0.064500  1.0  -0.078
  C  C406  1  0.080500  0.487400  0.094900  1.0  -0.0874
  C  C407  1  0.429600  0.569500  0.124300  1.0  0.1324
  C  C408  1  0.527800  0.545800  0.164200  1.0  -0.005
  C  C409  1  0.496100  0.575000  0.221900  1.0  -0.1458
  C  C410  1  0.351600  0.572500  0.300900  1.0  -0.1007
  C  C411  1  0.379400  0.619800  0.241300  1.0  0.0122
  C  C412  1  0.324200  0.508800  0.267700  1.0  -0.0376
  C  C413  1  0.792200  0.967300  0.241200  1.0  0.6231
  C  C414  1  0.835400  0.833300  0.180900  1.0  0.6818
  C  C415  1  0.843700  0.959000  0.179100  1.0  -0.0996
  C  C416  1  0.863400  0.897700  0.150800  1.0  -0.1551
  C  C417  1  0.873800  0.015700  0.151800  1.0  -0.0719
  C  C418  1  0.910500  0.895100  0.092500  1.0  -0.0675
  C  C419  1  0.937700  0.952900  0.064500  1.0  -0.0788
  C  C420  1  0.919500  0.012600  0.094900  1.0  -0.0871
  C  C421  1  0.570400  0.930500  0.124300  1.0  0.1327
  C  C422  1  0.472200  0.954200  0.164200  1.0  -0.0059
  C  C423  1  0.503900  0.925000  0.221900  1.0  -0.1452
  C  C424  1  0.648400  0.927500  0.300900  1.0  -0.1006
  C  C425  1  0.620600  0.880200  0.241300  1.0  0.0125
  C  C426  1  0.675800  0.991200  0.267700  1.0  -0.0397
  C  C427  1  0.292200  0.467300  0.741200  1.0  0.6228
  C  C428  1  0.335400  0.333333  0.680900  1.0  0.6816
  C  C429  1  0.343700  0.459000  0.679100  1.0  -0.0996
  C  C430  1  0.363400  0.397700  0.650800  1.0  -0.1544
  C  C431  1  0.373800  0.515700  0.651800  1.0  -0.0719
  C  C432  1  0.410500  0.395100  0.592500  1.0  -0.0672
  C  C433  1  0.437700  0.452900  0.564500  1.0  -0.0788
  C  C434  1  0.419500  0.512600  0.594900  1.0  -0.0871
  C  C435  1  0.070400  0.430500  0.624300  1.0  0.1327
  C  C436  1  0.972200  0.454200  0.664200  1.0  -0.0059
  C  C437  1  0.003900  0.425000  0.721900  1.0  -0.1452
  C  C438  1  0.148400  0.427500  0.800900  1.0  -0.1006
  C  C439  1  0.120600  0.380200  0.741300  1.0  0.0125
  C  C440  1  0.175800  0.491200  0.767700  1.0  -0.0397
  N  N441  1  0.708300  0.735010  0.148000  1.0  -0.3823
  N  N442  1  0.659700  0.684050  0.052700  1.0  0.0428
  N  N443  1  0.730950  0.518350  0.034700  1.0  -0.4512
  N  N444  1  0.208300  0.235010  0.648000  1.0  -0.3823
  N  N445  1  0.159700  0.184050  0.552700  1.0  0.0428
  N  N446  1  0.230950  0.018350  0.534700  1.0  -0.4512
  N  N447  1  0.791700  0.264990  0.648000  1.0  -0.3822
  N  N448  1  0.840300  0.315950  0.552700  1.0  0.0412
  N  N449  1  0.769050  0.481650  0.534700  1.0  -0.4505
  N  N450  1  0.291700  0.764990  0.148000  1.0  -0.3822
  N  N451  1  0.340300  0.815950  0.052700  1.0  0.0412
  N  N452  1  0.269050  0.981650  0.034700  1.0  -0.4505
  N  N453  1  0.014990  0.958300  0.398000  1.0  -0.3828
  N  N454  1  0.065950  0.909700  0.302700  1.0  0.0415
  N  N455  1  0.231650  0.980950  0.284700  1.0  -0.4522
  N  N456  1  0.514990  0.458300  0.898000  1.0  -0.3828
  N  N457  1  0.565950  0.409700  0.802700  1.0  0.0415
  N  N458  1  0.731650  0.480950  0.784700  1.0  -0.4522
  N  N459  1  0.485010  0.041700  0.898000  1.0  -0.3825
  N  N460  1  0.434050  0.090300  0.802700  1.0  0.0422
  N  N461  1  0.268350  0.019050  0.784700  1.0  -0.4517
  N  N462  1  0.985010  0.541700  0.398000  1.0  -0.3825
  N  N463  1  0.934050  0.590300  0.302700  1.0  0.0422
  N  N464  1  0.768350  0.519050  0.284700  1.0  -0.4517
  N  N465  1  0.291700  0.264990  0.852000  1.0  -0.3827
  N  N466  1  0.340300  0.315950  0.947300  1.0  0.0413
  N  N467  1  0.269050  0.481650  0.965300  1.0  -0.4491
  N  N468  1  0.791700  0.764990  0.352000  1.0  -0.3827
  N  N469  1  0.840300  0.815950  0.447300  1.0  0.0413
  N  N470  1  0.769050  0.981650  0.465300  1.0  -0.4491
  N  N471  1  0.208300  0.735010  0.352000  1.0  -0.3824
  N  N472  1  0.159700  0.684050  0.447300  1.0  0.043
  N  N473  1  0.230950  0.518350  0.465300  1.0  -0.4497
  N  N474  1  0.708300  0.235010  0.852000  1.0  -0.3823
  N  N475  1  0.659700  0.184050  0.947300  1.0  0.043
  N  N476  1  0.730950  0.018350  0.965300  1.0  -0.4497
  N  N477  1  0.985010  0.041700  0.602000  1.0  -0.3826
  N  N478  1  0.934050  0.090300  0.697300  1.0  0.0423
  N  N479  1  0.768350  0.019050  0.715300  1.0  -0.45
  N  N480  1  0.485010  0.541700  0.102000  1.0  -0.3826
  N  N481  1  0.434050  0.590300  0.197300  1.0  0.0423
  N  N482  1  0.268350  0.519050  0.215300  1.0  -0.45
  N  N483  1  0.514990  0.958300  0.102000  1.0  -0.3828
  N  N484  1  0.565950  0.909700  0.197300  1.0  0.0415
  N  N485  1  0.731650  0.980950  0.215300  1.0  -0.4505
  N  N486  1  0.014990  0.458300  0.602000  1.0  -0.3828
  N  N487  1  0.065950  0.409700  0.697300  1.0  0.0415
  N  N488  1  0.231650  0.480950  0.715300  1.0  -0.4505
  O  O489  1  0.587010  0.468620  0.033010  1.0  -0.5729
  O  O490  1  0.530780  0.384500  0.080600  1.0  -0.5864
  O  O491  1  0.716180  0.442380  0.940650  1.0  -0.5341
  O  O492  1  0.087010  0.968620  0.533010  1.0  -0.5729
  O  O493  1  0.030780  0.884500  0.580600  1.0  -0.5864
  O  O494  1  0.216180  0.942380  0.440650  1.0  -0.5341
  O  O495  1  0.912990  0.531380  0.533010  1.0  -0.5724
  O  O496  1  0.969220  0.615500  0.580600  1.0  -0.587
  O  O497  1  0.783820  0.557620  0.440650  1.0  -0.5342
  O  O498  1  0.412990  0.031380  0.033010  1.0  -0.5724
  O  O499  1  0.469220  0.115500  0.080600  1.0  -0.587
  O  O500  1  0.283820  0.057620  0.940650  1.0  -0.5342
  O  O501  1  0.281380  0.837010  0.283010  1.0  -0.5704
  O  O502  1  0.365500  0.780780  0.330600  1.0  -0.5877
  O  O503  1  0.307620  0.966180  0.190650  1.0  -0.5337
  O  O504  1  0.781380  0.337010  0.783010  1.0  -0.5699
  O  O505  1  0.865500  0.280780  0.830600  1.0  -0.5867
  O  O506  1  0.807620  0.466180  0.690650  1.0  -0.5337
  O  O507  1  0.218620  0.162990  0.783010  1.0  -0.5708
  O  O508  1  0.134500  0.219220  0.830600  1.0  -0.5857
  O  O509  1  0.192380  0.033820  0.690650  1.0  -0.5344
  O  O510  1  0.718620  0.662990  0.283010  1.0  -0.5702
  O  O511  1  0.634500  0.719220  0.330600  1.0  -0.5851
  O  O512  1  0.692380  0.533820  0.190650  1.0  -0.5344
  O  O513  1  0.412990  0.531380  0.966990  1.0  -0.5715
  O  O514  1  0.469220  0.615500  0.919400  1.0  -0.5871
  O  O515  1  0.283820  0.557620  0.059350  1.0  -0.5332
  O  O516  1  0.912990  0.031380  0.466990  1.0  -0.5715
  O  O517  1  0.969220  0.115500  0.419400  1.0  -0.5871
  O  O518  1  0.783820  0.057620  0.559350  1.0  -0.5332
  O  O519  1  0.087010  0.468620  0.466990  1.0  -0.5718
  O  O520  1  0.030780  0.384500  0.419400  1.0  -0.5871
  O  O521  1  0.216180  0.442380  0.559350  1.0  -0.5328
  O  O522  1  0.587010  0.968620  0.966990  1.0  -0.5718
  O  O523  1  0.530780  0.884500  0.919400  1.0  -0.5871
  O  O524  1  0.716180  0.942380  0.059350  1.0  -0.5328
  O  O525  1  0.718620  0.162990  0.716990  1.0  -0.5705
  O  O526  1  0.634500  0.219220  0.669400  1.0  -0.5858
  O  O527  1  0.692380  0.033820  0.809350  1.0  -0.5333
  O  O528  1  0.218620  0.662990  0.216990  1.0  -0.5699
  O  O529  1  0.134500  0.719220  0.169400  1.0  -0.5856
  O  O530  1  0.192380  0.533820  0.309350  1.0  -0.5333
  O  O531  1  0.781380  0.837010  0.216990  1.0  -0.5705
  O  O532  1  0.865500  0.780780  0.169400  1.0  -0.588
  O  O533  1  0.807620  0.966180  0.309350  1.0  -0.5326
  O  O534  1  0.281380  0.337010  0.716990  1.0  -0.57
  O  O535  1  0.365500  0.280780  0.669400  1.0  -0.5873
  O  O536  1  0.307620  0.466180  0.809350  1.0  -0.5326
