# generated using pymatgen
data_CdH4C8O5
_symmetry_space_group_name_H-M   'P 1'
_cell_length_a   7.15200000
_cell_length_b   18.28300000
_cell_length_c   19.94700000
_cell_angle_alpha   90.00000000
_cell_angle_beta   90.39500000
_cell_angle_gamma   90.00000000
_symmetry_Int_Tables_number   1
_chemical_formula_structural   CdH4C8O5
_chemical_formula_sum   'Cd8 H32 C64 O40'
_cell_volume   2608.20805656
_cell_formula_units_Z   8
loop_
 _symmetry_equiv_pos_site_id
 _symmetry_equiv_pos_as_xyz
  1  'x, y, z'
loop_
 _atom_site_type_symbol
 _atom_site_label
 _atom_site_symmetry_multiplicity
 _atom_site_fract_x
 _atom_site_fract_y
 _atom_site_fract_z
 _atom_site_occupancy
 _atom_site_charge
  Cd  Cd1  1  0.528220  0.264540  0.352670  1.0  0.9877
  Cd  Cd2  1  0.040450  0.239780  0.327010  1.0  1.0834
  Cd  Cd3  1  0.971780  0.764540  0.147330  1.0  0.9876
  Cd  Cd4  1  0.459550  0.739780  0.172990  1.0  1.0837
  Cd  Cd5  1  0.471780  0.735460  0.647330  1.0  0.9874
  Cd  Cd6  1  0.959550  0.760220  0.672990  1.0  1.0845
  Cd  Cd7  1  0.028220  0.235460  0.852670  1.0  0.9877
  Cd  Cd8  1  0.540450  0.260220  0.827010  1.0  1.0837
  H  H9  1  0.141100  0.071900  0.217200  1.0  0.3467
  H  H10  1  0.371200  0.175600  0.641100  1.0  0.3499
  H  H11  1  0.880300  0.004600  0.227900  1.0  0.1254
  H  H12  1  0.429700  0.137300  0.235300  1.0  0.1227
  H  H13  1  0.376400  0.931200  0.167600  1.0  0.1368
  H  H14  1  0.637500  0.216800  0.580700  1.0  0.1276
  H  H15  1  0.081800  0.182400  0.702600  1.0  0.1292
  H  H16  1  0.138100  0.166200  0.502800  1.0  0.1398
  H  H17  1  0.358900  0.571900  0.282800  1.0  0.3461
  H  H18  1  0.128800  0.675600  0.858900  1.0  0.3501
  H  H19  1  0.619700  0.504600  0.272100  1.0  0.1251
  H  H20  1  0.070300  0.637300  0.264700  1.0  0.123
  H  H21  1  0.123600  0.431200  0.332400  1.0  0.1374
  H  H22  1  0.862500  0.716800  0.919300  1.0  0.1258
  H  H23  1  0.418200  0.682400  0.797400  1.0  0.1285
  H  H24  1  0.361900  0.666200  0.997200  1.0  0.1404
  H  H25  1  0.858900  0.928100  0.782800  1.0  0.3466
  H  H26  1  0.628800  0.824400  0.358900  1.0  0.35
  H  H27  1  0.119700  0.995400  0.772100  1.0  0.1252
  H  H28  1  0.570300  0.862700  0.764700  1.0  0.1231
  H  H29  1  0.623600  0.068800  0.832400  1.0  0.1369
  H  H30  1  0.362500  0.783200  0.419300  1.0  0.126
  H  H31  1  0.918200  0.817600  0.297400  1.0  0.129
  H  H32  1  0.861900  0.833800  0.497200  1.0  0.1404
  H  H33  1  0.641100  0.428100  0.717200  1.0  0.3473
  H  H34  1  0.871200  0.324400  0.141100  1.0  0.3495
  H  H35  1  0.380300  0.495400  0.727900  1.0  0.1254
  H  H36  1  0.929700  0.362700  0.735300  1.0  0.1229
  H  H37  1  0.876400  0.568800  0.667600  1.0  0.1371
  H  H38  1  0.137500  0.283200  0.080700  1.0  0.1277
  H  H39  1  0.581800  0.317600  0.202600  1.0  0.1292
  H  H40  1  0.638100  0.333800  0.002800  1.0  0.1399
  C  C41  1  0.792200  0.141300  0.263500  1.0  0.7242
  C  C42  1  0.674200  0.080200  0.236100  1.0  -0.1201
  C  C43  1  0.753400  0.012700  0.220600  1.0  0.0048
  C  C44  1  0.482500  0.092000  0.225800  1.0  -0.1052
  C  C45  1  0.640400  0.957500  0.194200  1.0  -0.1156
  C  C46  1  0.450900  0.968500  0.184800  1.0  -0.084
  C  C47  1  0.372400  0.035500  0.201300  1.0  0.3112
  C  C48  1  0.726400  0.886100  0.174100  1.0  0.7203
  C  C49  1  0.803000  0.204100  0.461300  1.0  0.7473
  C  C50  1  0.877300  0.194300  0.531300  1.0  -0.1391
  C  C51  1  0.763500  0.205800  0.586600  1.0  -0.0116
  C  C52  1  0.839700  0.200400  0.650700  1.0  -0.1201
  C  C53  1  0.029800  0.184500  0.659700  1.0  -0.1328
  C  C54  1  0.139700  0.171600  0.603700  1.0  0.3051
  C  C55  1  0.064000  0.175800  0.539900  1.0  -0.0754
  C  C56  1  0.719500  0.212800  0.711100  1.0  0.7188
  C  C57  1  0.707800  0.641300  0.236500  1.0  0.7234
  C  C58  1  0.825800  0.580200  0.263900  1.0  -0.1196
  C  C59  1  0.746600  0.512700  0.279400  1.0  0.0051
  C  C60  1  0.017500  0.592000  0.274200  1.0  -0.1046
  C  C61  1  0.859600  0.457500  0.305800  1.0  -0.1149
  C  C62  1  0.049100  0.468500  0.315200  1.0  -0.0846
  C  C63  1  0.127600  0.535500  0.298700  1.0  0.3135
  C  C64  1  0.773600  0.386100  0.325900  1.0  0.7209
  C  C65  1  0.697000  0.704100  0.038700  1.0  0.7459
  C  C66  1  0.622700  0.694300  0.968700  1.0  -0.1387
  C  C67  1  0.736500  0.705800  0.913400  1.0  -0.0121
  C  C68  1  0.660300  0.700400  0.849300  1.0  -0.1209
  C  C69  1  0.470200  0.684500  0.840300  1.0  -0.1318
  C  C70  1  0.360300  0.671600  0.896300  1.0  0.305
  C  C71  1  0.436000  0.675800  0.960100  1.0  -0.0732
  C  C72  1  0.780500  0.712800  0.788900  1.0  0.7193
  C  C73  1  0.207800  0.858700  0.736500  1.0  0.7229
  C  C74  1  0.325800  0.919800  0.763900  1.0  -0.1196
  C  C75  1  0.246600  0.987300  0.779400  1.0  0.0052
  C  C76  1  0.517500  0.908000  0.774200  1.0  -0.1045
  C  C77  1  0.359600  0.042500  0.805800  1.0  -0.1154
  C  C78  1  0.549100  0.031500  0.815200  1.0  -0.0834
  C  C79  1  0.627600  0.964500  0.798700  1.0  0.3135
  C  C80  1  0.273600  0.113900  0.825900  1.0  0.7207
  C  C81  1  0.197000  0.795900  0.538700  1.0  0.7455
  C  C82  1  0.122700  0.805700  0.468700  1.0  -0.1387
  C  C83  1  0.236500  0.794200  0.413400  1.0  -0.0118
  C  C84  1  0.160300  0.799600  0.349300  1.0  -0.1212
  C  C85  1  0.970200  0.815500  0.340300  1.0  -0.1316
  C  C86  1  0.860300  0.828400  0.396300  1.0  0.3052
  C  C87  1  0.936000  0.824200  0.460100  1.0  -0.0742
  C  C88  1  0.280500  0.787200  0.288900  1.0  0.7194
  C  C89  1  0.292200  0.358700  0.763500  1.0  0.7239
  C  C90  1  0.174200  0.419800  0.736100  1.0  -0.12
  C  C91  1  0.253400  0.487300  0.720600  1.0  0.0046
  C  C92  1  0.982500  0.408000  0.725800  1.0  -0.1049
  C  C93  1  0.140400  0.542500  0.694200  1.0  -0.1151
  C  C94  1  0.950900  0.531500  0.684800  1.0  -0.0834
  C  C95  1  0.872400  0.464500  0.701300  1.0  0.3112
  C  C96  1  0.226400  0.613900  0.674100  1.0  0.7206
  C  C97  1  0.303000  0.295900  0.961300  1.0  0.7472
  C  C98  1  0.377300  0.305700  0.031300  1.0  -0.139
  C  C99  1  0.263500  0.294200  0.086600  1.0  -0.0112
  C  C100  1  0.339700  0.299600  0.150700  1.0  -0.1202
  C  C101  1  0.529800  0.315500  0.159700  1.0  -0.1326
  C  C102  1  0.639700  0.328400  0.103700  1.0  0.3058
  C  C103  1  0.564000  0.324200  0.039900  1.0  -0.0759
  C  C104  1  0.219500  0.287200  0.211100  1.0  0.7189
  O  O105  1  0.715400  0.200300  0.280700  1.0  -0.6984
  O  O106  1  0.966500  0.132600  0.268100  1.0  -0.589
  O  O107  1  0.898300  0.876100  0.185300  1.0  -0.5891
  O  O108  1  0.626800  0.838700  0.144700  1.0  -0.7185
  O  O109  1  0.900400  0.180100  0.414000  1.0  -0.6764
  O  O110  1  0.185200  0.043900  0.189400  1.0  -0.5158
  O  O111  1  0.647100  0.235300  0.453300  1.0  -0.616
  O  O112  1  0.545800  0.206000  0.707300  1.0  -0.6325
  O  O113  1  0.797500  0.231700  0.765500  1.0  -0.6608
  O  O114  1  0.325800  0.155300  0.608200  1.0  -0.4856
  O  O115  1  0.784600  0.700300  0.219300  1.0  -0.6986
  O  O116  1  0.533500  0.632600  0.231900  1.0  -0.5892
  O  O117  1  0.601700  0.376100  0.314700  1.0  -0.5875
  O  O118  1  0.873200  0.338700  0.355300  1.0  -0.7193
  O  O119  1  0.599600  0.680100  0.086000  1.0  -0.6726
  O  O120  1  0.314800  0.543900  0.310600  1.0  -0.5153
  O  O121  1  0.852900  0.735300  0.046700  1.0  -0.6154
  O  O122  1  0.954200  0.706000  0.792700  1.0  -0.6314
  O  O123  1  0.702500  0.731700  0.734500  1.0  -0.6628
  O  O124  1  0.174200  0.655300  0.891800  1.0  -0.4849
  O  O125  1  0.284600  0.799700  0.719300  1.0  -0.6985
  O  O126  1  0.033500  0.867400  0.731900  1.0  -0.5893
  O  O127  1  0.101700  0.123900  0.814700  1.0  -0.5873
  O  O128  1  0.373200  0.161300  0.855300  1.0  -0.7187
  O  O129  1  0.099600  0.819900  0.586000  1.0  -0.6748
  O  O130  1  0.814800  0.956100  0.810600  1.0  -0.5149
  O  O131  1  0.352900  0.764700  0.546700  1.0  -0.6152
  O  O132  1  0.454200  0.794000  0.292700  1.0  -0.6313
  O  O133  1  0.202500  0.768300  0.234500  1.0  -0.6628
  O  O134  1  0.674200  0.844700  0.391800  1.0  -0.4851
  O  O135  1  0.215400  0.299700  0.780700  1.0  -0.6983
  O  O136  1  0.466500  0.367400  0.768100  1.0  -0.5892
  O  O137  1  0.398300  0.623900  0.685300  1.0  -0.589
  O  O138  1  0.126800  0.661300  0.644700  1.0  -0.7181
  O  O139  1  0.400400  0.319900  0.914000  1.0  -0.6782
  O  O140  1  0.685200  0.456100  0.689400  1.0  -0.5155
  O  O141  1  0.147100  0.264700  0.953300  1.0  -0.6162
  O  O142  1  0.045800  0.294000  0.207300  1.0  -0.6323
  O  O143  1  0.297500  0.268300  0.265500  1.0  -0.6604
  O  O144  1  0.825800  0.344700  0.108200  1.0  -0.4851
