# generated using pymatgen
data_Nd2Co3H18C42(NO4)6
_symmetry_space_group_name_H-M   'P 1'
_cell_length_a   15.27640000
_cell_length_b   15.43180000
_cell_length_c   15.43180000
_cell_angle_alpha   120.00000000
_cell_angle_beta   90.00000000
_cell_angle_gamma   90.00000000
_symmetry_Int_Tables_number   1
_chemical_formula_structural   Nd2Co3H18C42(NO4)6
_chemical_formula_sum   'Nd4 Co6 H36 C84 N12 O48'
_cell_volume   3150.53874871
_cell_formula_units_Z   2
loop_
 _symmetry_equiv_pos_site_id
 _symmetry_equiv_pos_as_xyz
  1  'x, y, z'
loop_
 _atom_site_type_symbol
 _atom_site_label
 _atom_site_symmetry_multiplicity
 _atom_site_fract_x
 _atom_site_fract_y
 _atom_site_fract_z
 _atom_site_occupancy
 _atom_site_charge
  Nd  Nd1  1  0.750000  0.333333  0.666667  1.0  2.1459
  Nd  Nd2  1  0.750000  0.666667  0.333333  1.0  2.1459
  Nd  Nd3  1  0.250000  0.666667  0.333333  1.0  2.1459
  Nd  Nd4  1  0.250000  0.333333  0.666667  1.0  2.1459
  Co  Co5  1  0.000000  0.500000  0.500000  1.0  1.1228
  Co  Co6  1  0.000000  0.000000  0.500000  1.0  1.1228
  Co  Co7  1  0.000000  0.500000  0.000000  1.0  1.1228
  Co  Co8  1  0.500000  0.000000  0.500000  1.0  1.1228
  Co  Co9  1  0.500000  0.500000  0.500000  1.0  1.1228
  Co  Co10  1  0.500000  0.500000  0.000000  1.0  1.1228
  H  H11  1  0.844400  0.712900  0.765900  1.0  0.1192
  H  H12  1  0.844400  0.053000  0.287100  1.0  0.1181
  H  H13  1  0.844400  0.234100  0.947000  1.0  0.119
  H  H14  1  0.844400  0.287100  0.234100  1.0  0.119
  H  H15  1  0.844400  0.947000  0.712900  1.0  0.1188
  H  H16  1  0.844400  0.765900  0.053000  1.0  0.1188
  H  H17  1  0.655600  0.947000  0.234100  1.0  0.1188
  H  H18  1  0.655600  0.765900  0.712900  1.0  0.1193
  H  H19  1  0.655600  0.287100  0.053000  1.0  0.1191
  H  H20  1  0.655600  0.053000  0.765900  1.0  0.1189
  H  H21  1  0.655600  0.234100  0.287100  1.0  0.119
  H  H22  1  0.655600  0.712900  0.947000  1.0  0.1192
  H  H23  1  0.155600  0.287100  0.234100  1.0  0.1194
  H  H24  1  0.155600  0.947000  0.712900  1.0  0.1192
  H  H25  1  0.155600  0.765900  0.053000  1.0  0.1191
  H  H26  1  0.155600  0.712900  0.765900  1.0  0.1194
  H  H27  1  0.155600  0.053000  0.287100  1.0  0.1182
  H  H28  1  0.155600  0.234100  0.947000  1.0  0.1193
  H  H29  1  0.344400  0.053000  0.765900  1.0  0.1186
  H  H30  1  0.344400  0.234100  0.287100  1.0  0.1188
  H  H31  1  0.344400  0.712900  0.947000  1.0  0.1191
  H  H32  1  0.344400  0.947000  0.234100  1.0  0.1186
  H  H33  1  0.344400  0.765900  0.712900  1.0  0.1189
  H  H34  1  0.344400  0.287100  0.053000  1.0  0.1188
  H  H35  1  0.750000  0.800000  0.900000  1.0  0.0832
  H  H36  1  0.750000  0.100000  0.200000  1.0  0.0859
  H  H37  1  0.750000  0.100000  0.900000  1.0  0.0858
  H  H38  1  0.750000  0.200000  0.100000  1.0  0.0824
  H  H39  1  0.750000  0.900000  0.800000  1.0  0.0856
  H  H40  1  0.750000  0.900000  0.100000  1.0  0.0858
  H  H41  1  0.250000  0.200000  0.100000  1.0  0.0824
  H  H42  1  0.250000  0.900000  0.800000  1.0  0.0856
  H  H43  1  0.250000  0.900000  0.100000  1.0  0.0858
  H  H44  1  0.250000  0.800000  0.900000  1.0  0.0832
  H  H45  1  0.250000  0.100000  0.200000  1.0  0.0859
  H  H46  1  0.250000  0.100000  0.900000  1.0  0.0858
  C  C47  1  0.861200  0.511500  0.646500  1.0  0.662
  C  C48  1  0.803400  0.575400  0.735000  1.0  0.1453
  C  C49  1  0.806000  0.679000  0.785400  1.0  -0.1242
  C  C50  1  0.861200  0.135000  0.488500  1.0  0.6632
  C  C51  1  0.803400  0.159600  0.424600  1.0  0.1462
  C  C52  1  0.806000  0.106400  0.321000  1.0  -0.124
  C  C53  1  0.861200  0.353500  0.865000  1.0  0.6615
  C  C54  1  0.803400  0.265000  0.840400  1.0  0.1458
  C  C55  1  0.806000  0.214600  0.893600  1.0  -0.1255
  C  C56  1  0.861200  0.488500  0.353500  1.0  0.6621
  C  C57  1  0.803400  0.424600  0.265000  1.0  0.145
  C  C58  1  0.806000  0.321000  0.214600  1.0  -0.1234
  C  C59  1  0.861200  0.865000  0.511500  1.0  0.6634
  C  C60  1  0.803400  0.840400  0.575400  1.0  0.1468
  C  C61  1  0.806000  0.893600  0.679000  1.0  -0.1243
  C  C62  1  0.861200  0.646500  0.135000  1.0  0.6618
  C  C63  1  0.803400  0.735000  0.159600  1.0  0.1461
  C  C64  1  0.806000  0.785400  0.106400  1.0  -0.125
  C  C65  1  0.638800  0.865000  0.353500  1.0  0.6631
  C  C66  1  0.696600  0.840400  0.265000  1.0  0.1457
  C  C67  1  0.694000  0.893600  0.214600  1.0  -0.1255
  C  C68  1  0.638800  0.646500  0.511500  1.0  0.6617
  C  C69  1  0.696600  0.735000  0.575400  1.0  0.1451
  C  C70  1  0.694000  0.785400  0.679000  1.0  -0.1262
  C  C71  1  0.638800  0.488500  0.135000  1.0  0.6623
  C  C72  1  0.696600  0.424600  0.159600  1.0  0.1449
  C  C73  1  0.694000  0.321000  0.106400  1.0  -0.1255
  C  C74  1  0.638800  0.135000  0.646500  1.0  0.6638
  C  C75  1  0.696600  0.159600  0.735000  1.0  0.1465
  C  C76  1  0.694000  0.106400  0.785400  1.0  -0.1254
  C  C77  1  0.638800  0.353500  0.488500  1.0  0.6617
  C  C78  1  0.696600  0.265000  0.424600  1.0  0.1456
  C  C79  1  0.694000  0.214600  0.321000  1.0  -0.1271
  C  C80  1  0.638800  0.511500  0.865000  1.0  0.6621
  C  C81  1  0.696600  0.575400  0.840400  1.0  0.1446
  C  C82  1  0.694000  0.679000  0.893600  1.0  -0.125
  C  C83  1  0.138800  0.488500  0.353500  1.0  0.6623
  C  C84  1  0.196600  0.424600  0.265000  1.0  0.1449
  C  C85  1  0.194000  0.321000  0.214600  1.0  -0.1231
  C  C86  1  0.138800  0.865000  0.511500  1.0  0.6639
  C  C87  1  0.196600  0.840400  0.575400  1.0  0.1463
  C  C88  1  0.194000  0.893600  0.679000  1.0  -0.1235
  C  C89  1  0.138800  0.646500  0.135000  1.0  0.6618
  C  C90  1  0.196600  0.735000  0.159600  1.0  0.1453
  C  C91  1  0.194000  0.785400  0.106400  1.0  -0.1243
  C  C92  1  0.138800  0.511500  0.646500  1.0  0.662
  C  C93  1  0.196600  0.575400  0.735000  1.0  0.1445
  C  C94  1  0.194000  0.679000  0.785400  1.0  -0.1233
  C  C95  1  0.138800  0.135000  0.488500  1.0  0.6631
  C  C96  1  0.196600  0.159600  0.424600  1.0  0.146
  C  C97  1  0.194000  0.106400  0.321000  1.0  -0.1235
  C  C98  1  0.138800  0.353500  0.865000  1.0  0.6617
  C  C99  1  0.196600  0.265000  0.840400  1.0  0.1456
  C  C100  1  0.194000  0.214600  0.893600  1.0  -0.1249
  C  C101  1  0.361200  0.135000  0.646500  1.0  0.6633
  C  C102  1  0.303400  0.159600  0.735000  1.0  0.1471
  C  C103  1  0.306000  0.106400  0.785400  1.0  -0.1257
  C  C104  1  0.361200  0.353500  0.488500  1.0  0.6614
  C  C105  1  0.303400  0.265000  0.424600  1.0  0.1457
  C  C106  1  0.306000  0.214600  0.321000  1.0  -0.1276
  C  C107  1  0.361200  0.511500  0.865000  1.0  0.6623
  C  C108  1  0.303400  0.575400  0.840400  1.0  0.1452
  C  C109  1  0.306000  0.679000  0.893600  1.0  -0.1256
  C  C110  1  0.361200  0.865000  0.353500  1.0  0.6632
  C  C111  1  0.303400  0.840400  0.265000  1.0  0.1458
  C  C112  1  0.306000  0.893600  0.214600  1.0  -0.1262
  C  C113  1  0.361200  0.646500  0.511500  1.0  0.6618
  C  C114  1  0.303400  0.735000  0.575400  1.0  0.1458
  C  C115  1  0.306000  0.785400  0.679000  1.0  -0.1265
  C  C116  1  0.361200  0.488500  0.135000  1.0  0.6619
  C  C117  1  0.303400  0.424600  0.159600  1.0  0.145
  C  C118  1  0.306000  0.321000  0.106400  1.0  -0.1258
  C  C119  1  0.750000  0.730400  0.865200  1.0  -0.0204
  C  C120  1  0.750000  0.134800  0.269600  1.0  -0.0209
  C  C121  1  0.750000  0.134800  0.865200  1.0  -0.0207
  C  C122  1  0.750000  0.269600  0.134800  1.0  -0.0203
  C  C123  1  0.750000  0.865200  0.730400  1.0  -0.021
  C  C124  1  0.750000  0.865200  0.134800  1.0  -0.0209
  C  C125  1  0.250000  0.269600  0.134800  1.0  -0.0203
  C  C126  1  0.250000  0.865200  0.730400  1.0  -0.021
  C  C127  1  0.250000  0.865200  0.134800  1.0  -0.0209
  C  C128  1  0.250000  0.730400  0.865200  1.0  -0.0204
  C  C129  1  0.250000  0.134800  0.269600  1.0  -0.0209
  C  C130  1  0.250000  0.134800  0.865200  1.0  -0.0207
  N  N131  1  0.750000  0.524900  0.762450  1.0  -0.4041
  N  N132  1  0.750000  0.237550  0.475100  1.0  -0.4042
  N  N133  1  0.750000  0.237550  0.762450  1.0  -0.4056
  N  N134  1  0.750000  0.475100  0.237550  1.0  -0.4051
  N  N135  1  0.750000  0.762450  0.524900  1.0  -0.406
  N  N136  1  0.750000  0.762450  0.237550  1.0  -0.4046
  N  N137  1  0.250000  0.475100  0.237550  1.0  -0.4051
  N  N138  1  0.250000  0.762450  0.524900  1.0  -0.406
  N  N139  1  0.250000  0.762450  0.237550  1.0  -0.4046
  N  N140  1  0.250000  0.524900  0.762450  1.0  -0.4041
  N  N141  1  0.250000  0.237550  0.475100  1.0  -0.4042
  N  N142  1  0.250000  0.237550  0.762450  1.0  -0.4056
  O  O143  1  0.858500  0.417400  0.613400  1.0  -0.674
  O  O144  1  0.906000  0.554600  0.612600  1.0  -0.5943
  O  O145  1  0.858500  0.196000  0.582600  1.0  -0.6759
  O  O146  1  0.906000  0.058000  0.445400  1.0  -0.5943
  O  O147  1  0.858500  0.386600  0.804000  1.0  -0.6747
  O  O148  1  0.906000  0.387400  0.942000  1.0  -0.5942
  O  O149  1  0.858500  0.582600  0.386600  1.0  -0.6731
  O  O150  1  0.906000  0.445400  0.387400  1.0  -0.5945
  O  O151  1  0.858500  0.804000  0.417400  1.0  -0.6758
  O  O152  1  0.906000  0.942000  0.554600  1.0  -0.5947
  O  O153  1  0.858500  0.613400  0.196000  1.0  -0.6762
  O  O154  1  0.906000  0.612600  0.058000  1.0  -0.5952
  O  O155  1  0.641500  0.804000  0.386600  1.0  -0.676
  O  O156  1  0.594000  0.942000  0.387400  1.0  -0.5949
  O  O157  1  0.641500  0.613400  0.417400  1.0  -0.6754
  O  O158  1  0.594000  0.612600  0.554600  1.0  -0.5939
  O  O159  1  0.641500  0.582600  0.196000  1.0  -0.6741
  O  O160  1  0.594000  0.445400  0.058000  1.0  -0.5944
  O  O161  1  0.641500  0.196000  0.613400  1.0  -0.6754
  O  O162  1  0.594000  0.058000  0.612600  1.0  -0.5941
  O  O163  1  0.641500  0.386600  0.582600  1.0  -0.6765
  O  O164  1  0.594000  0.387400  0.445400  1.0  -0.595
  O  O165  1  0.641500  0.417400  0.804000  1.0  -0.6737
  O  O166  1  0.594000  0.554600  0.942000  1.0  -0.5947
  O  O167  1  0.141500  0.582600  0.386600  1.0  -0.674
  O  O168  1  0.094000  0.445400  0.387400  1.0  -0.595
  O  O169  1  0.141500  0.804000  0.417400  1.0  -0.6756
  O  O170  1  0.094000  0.942000  0.554600  1.0  -0.5953
  O  O171  1  0.141500  0.613400  0.196000  1.0  -0.6759
  O  O172  1  0.094000  0.612600  0.058000  1.0  -0.5952
  O  O173  1  0.141500  0.417400  0.613400  1.0  -0.6737
  O  O174  1  0.094000  0.554600  0.612600  1.0  -0.595
  O  O175  1  0.141500  0.196000  0.582600  1.0  -0.6762
  O  O176  1  0.094000  0.058000  0.445400  1.0  -0.5948
  O  O177  1  0.141500  0.386600  0.804000  1.0  -0.6752
  O  O178  1  0.094000  0.387400  0.942000  1.0  -0.5952
  O  O179  1  0.358500  0.196000  0.613400  1.0  -0.6753
  O  O180  1  0.406000  0.058000  0.612600  1.0  -0.5948
  O  O181  1  0.358500  0.386600  0.582600  1.0  -0.6761
  O  O182  1  0.406000  0.387400  0.445400  1.0  -0.5949
  O  O183  1  0.358500  0.417400  0.804000  1.0  -0.6739
  O  O184  1  0.406000  0.554600  0.942000  1.0  -0.5948
  O  O185  1  0.358500  0.804000  0.386600  1.0  -0.6761
  O  O186  1  0.406000  0.942000  0.387400  1.0  -0.5951
  O  O187  1  0.358500  0.613400  0.417400  1.0  -0.6756
  O  O188  1  0.406000  0.612600  0.554600  1.0  -0.5946
  O  O189  1  0.358500  0.582600  0.196000  1.0  -0.6732
  O  O190  1  0.406000  0.445400  0.058000  1.0  -0.5954
