# generated using pymatgen
data_Gd2Co3H18C42(NO4)6
_symmetry_space_group_name_H-M   'P 1'
_cell_length_a   15.21200000
_cell_length_b   15.21200000
_cell_length_c   15.45100000
_cell_angle_alpha   90.00000000
_cell_angle_beta   90.00000000
_cell_angle_gamma   120.00000000
_symmetry_Int_Tables_number   1
_chemical_formula_structural   Gd2Co3H18C42(NO4)6
_chemical_formula_sum   'Gd4 Co6 H36 C84 N12 O48'
_cell_volume   3096.41995557
_cell_formula_units_Z   2
loop_
 _symmetry_equiv_pos_site_id
 _symmetry_equiv_pos_as_xyz
  1  'x, y, z'
loop_
 _atom_site_type_symbol
 _atom_site_label
 _atom_site_symmetry_multiplicity
 _atom_site_fract_x
 _atom_site_fract_y
 _atom_site_fract_z
 _atom_site_occupancy
 _atom_site_charge
  Gd  Gd1  1  0.666667  0.333333  0.750000  1.0  2.0276
  Gd  Gd2  1  0.333333  0.666667  0.750000  1.0  2.0276
  Gd  Gd3  1  0.333333  0.666667  0.250000  1.0  2.0276
  Gd  Gd4  1  0.666667  0.333333  0.250000  1.0  2.0276
  Co  Co5  1  0.500000  0.500000  0.000000  1.0  1.0726
  Co  Co6  1  0.000000  0.500000  0.000000  1.0  1.0726
  Co  Co7  1  0.500000  0.000000  0.000000  1.0  1.0726
  Co  Co8  1  0.000000  0.500000  0.500000  1.0  1.0726
  Co  Co9  1  0.500000  0.500000  0.500000  1.0  1.0726
  Co  Co10  1  0.500000  0.000000  0.500000  1.0  1.0726
  H  H11  1  0.767000  0.713900  0.845200  1.0  0.1241
  H  H12  1  0.946900  0.233000  0.845200  1.0  0.1237
  H  H13  1  0.286100  0.053100  0.845200  1.0  0.1234
  H  H14  1  0.233000  0.286100  0.845200  1.0  0.1241
  H  H15  1  0.053100  0.767000  0.845200  1.0  0.1238
  H  H16  1  0.713900  0.946900  0.845200  1.0  0.1229
  H  H17  1  0.053100  0.286100  0.654800  1.0  0.1235
  H  H18  1  0.713900  0.767000  0.654800  1.0  0.1233
  H  H19  1  0.233000  0.946900  0.654800  1.0  0.1232
  H  H20  1  0.946900  0.713900  0.654800  1.0  0.124
  H  H21  1  0.286100  0.233000  0.654800  1.0  0.1234
  H  H22  1  0.767000  0.053100  0.654800  1.0  0.1225
  H  H23  1  0.233000  0.286100  0.154800  1.0  0.1238
  H  H24  1  0.053100  0.767000  0.154800  1.0  0.1235
  H  H25  1  0.713900  0.946900  0.154800  1.0  0.1229
  H  H26  1  0.767000  0.713900  0.154800  1.0  0.124
  H  H27  1  0.946900  0.233000  0.154800  1.0  0.1233
  H  H28  1  0.286100  0.053100  0.154800  1.0  0.123
  H  H29  1  0.946900  0.713900  0.345200  1.0  0.1241
  H  H30  1  0.286100  0.233000  0.345200  1.0  0.1237
  H  H31  1  0.767000  0.053100  0.345200  1.0  0.1228
  H  H32  1  0.053100  0.286100  0.345200  1.0  0.1239
  H  H33  1  0.713900  0.767000  0.345200  1.0  0.1237
  H  H34  1  0.233000  0.946900  0.345200  1.0  0.1233
  H  H35  1  0.901000  0.802000  0.750000  1.0  0.0857
  H  H36  1  0.901000  0.099000  0.750000  1.0  0.0874
  H  H37  1  0.198000  0.099000  0.750000  1.0  0.0876
  H  H38  1  0.099000  0.198000  0.750000  1.0  0.0847
  H  H39  1  0.099000  0.901000  0.750000  1.0  0.0874
  H  H40  1  0.802000  0.901000  0.750000  1.0  0.0872
  H  H41  1  0.099000  0.198000  0.250000  1.0  0.0847
  H  H42  1  0.099000  0.901000  0.250000  1.0  0.0874
  H  H43  1  0.802000  0.901000  0.250000  1.0  0.0872
  H  H44  1  0.901000  0.802000  0.250000  1.0  0.0857
  H  H45  1  0.901000  0.099000  0.250000  1.0  0.0874
  H  H46  1  0.198000  0.099000  0.250000  1.0  0.0876
  C  C47  1  0.645500  0.508900  0.861100  1.0  0.6618
  C  C48  1  0.734700  0.574000  0.804000  1.0  0.1471
  C  C49  1  0.785900  0.679400  0.806500  1.0  -0.114
  C  C50  1  0.863400  0.354500  0.861100  1.0  0.6623
  C  C51  1  0.839300  0.265300  0.804000  1.0  0.147
  C  C52  1  0.893500  0.214100  0.806500  1.0  -0.1139
  C  C53  1  0.491100  0.136600  0.861100  1.0  0.6621
  C  C54  1  0.426000  0.160700  0.804000  1.0  0.1469
  C  C55  1  0.320600  0.106500  0.806500  1.0  -0.1136
  C  C56  1  0.354500  0.491100  0.861100  1.0  0.6615
  C  C57  1  0.265300  0.426000  0.804000  1.0  0.1467
  C  C58  1  0.214100  0.320600  0.806500  1.0  -0.1133
  C  C59  1  0.136600  0.645500  0.861100  1.0  0.6623
  C  C60  1  0.160700  0.734700  0.804000  1.0  0.1469
  C  C61  1  0.106500  0.785900  0.806500  1.0  -0.1149
  C  C62  1  0.508900  0.863400  0.861100  1.0  0.6626
  C  C63  1  0.574000  0.839300  0.804000  1.0  0.1473
  C  C64  1  0.679400  0.893500  0.806500  1.0  -0.1128
  C  C65  1  0.136600  0.491100  0.638900  1.0  0.662
  C  C66  1  0.160700  0.426000  0.696000  1.0  0.1467
  C  C67  1  0.106500  0.320600  0.693500  1.0  -0.1156
  C  C68  1  0.508900  0.645500  0.638900  1.0  0.6622
  C  C69  1  0.574000  0.734700  0.696000  1.0  0.1461
  C  C70  1  0.679400  0.785900  0.693500  1.0  -0.1154
  C  C71  1  0.354500  0.863400  0.638900  1.0  0.6618
  C  C72  1  0.265300  0.839300  0.696000  1.0  0.1465
  C  C73  1  0.214100  0.893500  0.693500  1.0  -0.1142
  C  C74  1  0.863400  0.508900  0.638900  1.0  0.661
  C  C75  1  0.839300  0.574000  0.696000  1.0  0.146
  C  C76  1  0.893500  0.679400  0.693500  1.0  -0.1153
  C  C77  1  0.491100  0.354500  0.638900  1.0  0.6619
  C  C78  1  0.426000  0.265300  0.696000  1.0  0.1467
  C  C79  1  0.320600  0.214100  0.693500  1.0  -0.1166
  C  C80  1  0.645500  0.136600  0.638900  1.0  0.6629
  C  C81  1  0.734700  0.160700  0.696000  1.0  0.1469
  C  C82  1  0.785900  0.106500  0.693500  1.0  -0.1146
  C  C83  1  0.354500  0.491100  0.138900  1.0  0.6615
  C  C84  1  0.265300  0.426000  0.196000  1.0  0.1465
  C  C85  1  0.214100  0.320600  0.193500  1.0  -0.1134
  C  C86  1  0.136600  0.645500  0.138900  1.0  0.6619
  C  C87  1  0.160700  0.734700  0.196000  1.0  0.1463
  C  C88  1  0.106500  0.785900  0.193500  1.0  -0.1141
  C  C89  1  0.508900  0.863400  0.138900  1.0  0.6628
  C  C90  1  0.574000  0.839300  0.196000  1.0  0.1471
  C  C91  1  0.679400  0.893500  0.193500  1.0  -0.113
  C  C92  1  0.645500  0.508900  0.138900  1.0  0.6617
  C  C93  1  0.734700  0.574000  0.196000  1.0  0.1463
  C  C94  1  0.785900  0.679400  0.193500  1.0  -0.1136
  C  C95  1  0.863400  0.354500  0.138900  1.0  0.6626
  C  C96  1  0.839300  0.265300  0.196000  1.0  0.1468
  C  C97  1  0.893500  0.214100  0.193500  1.0  -0.1142
  C  C98  1  0.491100  0.136600  0.138900  1.0  0.6618
  C  C99  1  0.426000  0.160700  0.196000  1.0  0.1467
  C  C100  1  0.320600  0.106500  0.193500  1.0  -0.1128
  C  C101  1  0.863400  0.508900  0.361100  1.0  0.6616
  C  C102  1  0.839300  0.574000  0.304000  1.0  0.1467
  C  C103  1  0.893500  0.679400  0.306500  1.0  -0.1152
  C  C104  1  0.491100  0.354500  0.361100  1.0  0.6616
  C  C105  1  0.426000  0.265300  0.304000  1.0  0.1467
  C  C106  1  0.320600  0.214100  0.306500  1.0  -0.117
  C  C107  1  0.645500  0.136600  0.361100  1.0  0.6628
  C  C108  1  0.734700  0.160700  0.304000  1.0  0.1471
  C  C109  1  0.785900  0.106500  0.306500  1.0  -0.1147
  C  C110  1  0.136600  0.491100  0.361100  1.0  0.6616
  C  C111  1  0.160700  0.426000  0.304000  1.0  0.1469
  C  C112  1  0.106500  0.320600  0.306500  1.0  -0.1159
  C  C113  1  0.508900  0.645500  0.361100  1.0  0.6625
  C  C114  1  0.574000  0.734700  0.304000  1.0  0.1469
  C  C115  1  0.679400  0.785900  0.306500  1.0  -0.1152
  C  C116  1  0.354500  0.863400  0.361100  1.0  0.662
  C  C117  1  0.265300  0.839300  0.304000  1.0  0.1467
  C  C118  1  0.214100  0.893500  0.306500  1.0  -0.1145
  C  C119  1  0.865700  0.731400  0.750000  1.0  -0.0266
  C  C120  1  0.865700  0.134300  0.750000  1.0  -0.0284
  C  C121  1  0.268600  0.134300  0.750000  1.0  -0.028
  C  C122  1  0.134300  0.268600  0.750000  1.0  -0.0259
  C  C123  1  0.134300  0.865700  0.750000  1.0  -0.028
  C  C124  1  0.731400  0.865700  0.750000  1.0  -0.0288
  C  C125  1  0.134300  0.268600  0.250000  1.0  -0.0259
  C  C126  1  0.134300  0.865700  0.250000  1.0  -0.028
  C  C127  1  0.731400  0.865700  0.250000  1.0  -0.0288
  C  C128  1  0.865700  0.731400  0.250000  1.0  -0.0266
  C  C129  1  0.865700  0.134300  0.250000  1.0  -0.0284
  C  C130  1  0.268600  0.134300  0.250000  1.0  -0.028
  N  N131  1  0.761280  0.522560  0.750000  1.0  -0.3945
  N  N132  1  0.761280  0.238720  0.750000  1.0  -0.3952
  N  N133  1  0.477440  0.238720  0.750000  1.0  -0.3955
  N  N134  1  0.238720  0.477440  0.750000  1.0  -0.3956
  N  N135  1  0.238720  0.761280  0.750000  1.0  -0.3953
  N  N136  1  0.522560  0.761280  0.750000  1.0  -0.3952
  N  N137  1  0.238720  0.477440  0.250000  1.0  -0.3956
  N  N138  1  0.238720  0.761280  0.250000  1.0  -0.3953
  N  N139  1  0.522560  0.761280  0.250000  1.0  -0.3952
  N  N140  1  0.761280  0.522560  0.250000  1.0  -0.3945
  N  N141  1  0.761280  0.238720  0.250000  1.0  -0.3952
  N  N142  1  0.477440  0.238720  0.250000  1.0  -0.3955
  O  O143  1  0.611520  0.413840  0.857060  1.0  -0.6626
  O  O144  1  0.613500  0.553300  0.907180  1.0  -0.5912
  O  O145  1  0.802320  0.388480  0.857060  1.0  -0.6645
  O  O146  1  0.939800  0.386500  0.907180  1.0  -0.5923
  O  O147  1  0.586160  0.197680  0.857060  1.0  -0.6646
  O  O148  1  0.446700  0.060200  0.907180  1.0  -0.5907
  O  O149  1  0.388480  0.586160  0.857060  1.0  -0.6638
  O  O150  1  0.386500  0.446700  0.907180  1.0  -0.5911
  O  O151  1  0.197680  0.611520  0.857060  1.0  -0.6644
  O  O152  1  0.060200  0.613500  0.907180  1.0  -0.5919
  O  O153  1  0.413840  0.802320  0.857060  1.0  -0.6636
  O  O154  1  0.553300  0.939800  0.907180  1.0  -0.5908
  O  O155  1  0.197680  0.586160  0.642940  1.0  -0.6638
  O  O156  1  0.060200  0.446700  0.592820  1.0  -0.5916
  O  O157  1  0.413840  0.611520  0.642940  1.0  -0.6644
  O  O158  1  0.553300  0.613500  0.592820  1.0  -0.5924
  O  O159  1  0.388480  0.802320  0.642940  1.0  -0.665
  O  O160  1  0.386500  0.939800  0.592820  1.0  -0.5905
  O  O161  1  0.802320  0.413840  0.642940  1.0  -0.6632
  O  O162  1  0.939800  0.553300  0.592820  1.0  -0.5914
  O  O163  1  0.586160  0.388480  0.642940  1.0  -0.6654
  O  O164  1  0.446700  0.386500  0.592820  1.0  -0.5914
  O  O165  1  0.611520  0.197680  0.642940  1.0  -0.6641
  O  O166  1  0.613500  0.060200  0.592820  1.0  -0.5909
  O  O167  1  0.388480  0.586160  0.142940  1.0  -0.6642
  O  O168  1  0.386500  0.446700  0.092820  1.0  -0.5922
  O  O169  1  0.197680  0.611520  0.142940  1.0  -0.6649
  O  O170  1  0.060200  0.613500  0.092820  1.0  -0.5931
  O  O171  1  0.413840  0.802320  0.142940  1.0  -0.6641
  O  O172  1  0.553300  0.939800  0.092820  1.0  -0.5913
  O  O173  1  0.611520  0.413840  0.142940  1.0  -0.6628
  O  O174  1  0.613500  0.553300  0.092820  1.0  -0.5918
  O  O175  1  0.802320  0.388480  0.142940  1.0  -0.6648
  O  O176  1  0.939800  0.386500  0.092820  1.0  -0.5926
  O  O177  1  0.586160  0.197680  0.142940  1.0  -0.6652
  O  O178  1  0.446700  0.060200  0.092820  1.0  -0.5915
  O  O179  1  0.802320  0.413840  0.357060  1.0  -0.6629
  O  O180  1  0.939800  0.553300  0.407180  1.0  -0.5919
  O  O181  1  0.586160  0.388480  0.357060  1.0  -0.6648
  O  O182  1  0.446700  0.386500  0.407180  1.0  -0.5928
  O  O183  1  0.611520  0.197680  0.357060  1.0  -0.6639
  O  O184  1  0.613500  0.060200  0.407180  1.0  -0.5912
  O  O185  1  0.197680  0.586160  0.357060  1.0  -0.6637
  O  O186  1  0.060200  0.446700  0.407180  1.0  -0.5917
  O  O187  1  0.413840  0.611520  0.357060  1.0  -0.664
  O  O188  1  0.553300  0.613500  0.407180  1.0  -0.5927
  O  O189  1  0.388480  0.802320  0.357060  1.0  -0.6643
  O  O190  1  0.386500  0.939800  0.407180  1.0  -0.5911
