# generated using pymatgen
data_K5Cu5Ge2H14W18C7NO65
_symmetry_space_group_name_H-M   'P 1'
_cell_length_a   11.88100000
_cell_length_b   15.07000000
_cell_length_c   18.33800000
_cell_angle_alpha   66.01400000
_cell_angle_beta   76.90100000
_cell_angle_gamma   75.64600000
_symmetry_Int_Tables_number   1
_chemical_formula_structural   K5Cu5Ge2H14W18C7NO65
_chemical_formula_sum   'K5 Cu5 Ge2 H14 W18 C7 N1 O65'
_cell_volume   2876.64783863
_cell_formula_units_Z   1
loop_
 _symmetry_equiv_pos_site_id
 _symmetry_equiv_pos_as_xyz
  1  'x, y, z'
loop_
 _atom_site_type_symbol
 _atom_site_label
 _atom_site_symmetry_multiplicity
 _atom_site_fract_x
 _atom_site_fract_y
 _atom_site_fract_z
 _atom_site_occupancy
 _atom_site_charge
  K  K1  1  0.677000  0.427000  0.800000  1.0  1.0468
  K  K2  1  0.942700  0.606200  0.900100  1.0  0.9999
  K  K3  1  0.602200  0.738200  0.508200  1.0  0.9126
  K  K4  1  0.011000  0.288500  0.198300  1.0  0.9618
  K  K5  1  0.924900  0.032800  0.256700  1.0  0.9384
  Cu  Cu6  1  0.238900  0.616300  0.308000  1.0  1.0838
  Cu  Cu7  1  0.097400  0.441400  0.426800  1.0  0.7237
  Cu  Cu8  1  0.518800  0.587900  0.271900  1.0  0.9804
  Cu  Cu9  1  0.379300  0.414500  0.391700  1.0  0.9504
  Cu  Cu10  1  0.275500  0.900900  0.704000  1.0  0.7477
  Ge  Ge11  1  0.259600  0.550000  0.498200  1.0  1.4595
  Ge  Ge12  1  0.356100  0.483000  0.201700  1.0  1.5026
  H  H13  1  0.454600  0.838400  0.825700  1.0  0.1228
  H  H14  1  0.389300  0.838500  0.911500  1.0  0.1132
  H  H15  1  0.217700  0.660800  0.850500  1.0  0.1038
  H  H16  1  0.238100  0.684300  0.756400  1.0  0.1514
  H  H17  1  0.328800  0.711400  0.901100  1.0  0.1021
  H  H18  1  0.223000  0.799100  0.881100  1.0  0.0941
  H  H19  1  0.176500  0.951300  0.856000  1.0  0.182
  H  H20  1  0.223300  0.043300  0.794700  1.0  0.2316
  H  H21  1  0.468200  0.685600  0.799400  1.0  0.1072
  H  H22  1  0.409400  0.672500  0.737400  1.0  0.1294
  H  H23  1  0.536200  0.880500  0.508300  1.0  0.356
  H  H24  1  0.462000  0.986400  0.493100  1.0  0.3503
  H  H25  1  0.816200  0.909800  0.342600  1.0  0.2639
  H  H26  1  0.780700  0.030700  0.292200  1.0  0.2802
  W  W27  1  0.185300  0.708210  0.104790  1.0  1.3675
  W  W28  1  0.358900  0.274370  0.147090  1.0  1.4678
  W  W29  1  0.507900  0.483990  0.004220  1.0  2.5622
  W  W30  1  0.668000  0.447440  0.146930  1.0  2.1098
  W  W31  1  0.508400  0.245810  0.294020  1.0  1.5091
  W  W32  1  0.433200  0.508110  0.653540  1.0  2.5382
  W  W33  1  0.256400  0.756550  0.553220  1.0  1.2985
  W  W34  1  0.182400  0.523500  0.046530  1.0  2.0291
  W  W35  1  0.510100  0.670990  0.061590  1.0  1.2934
  W  W36  1  0.042000  0.523450  0.229650  1.0  1.6446
  W  W37  1  0.402400  0.752560  0.371420  1.0  1.5955
  W  W38  1  0.574400  0.508070  0.469820  1.0  1.2733
  W  W39  1  0.213300  0.278530  0.328320  1.0  1.1976
  W  W40  1  0.106700  0.785400  0.405800  1.0  2.5712
  W  W41  1  0.105200  0.360750  0.637660  1.0  1.5994
  W  W42  1  0.107400  0.548060  0.695190  1.0  2.0717
  W  W43  1  0.947200  0.584660  0.552030  1.0  2.4431
  W  W44  1  0.431000  0.323470  0.594970  1.0  1.5024
  C  C45  1  0.119000  0.794000  0.788000  1.0  0.3928
  C  C46  1  0.379000  0.845000  0.858000  1.0  -0.0959
  C  C47  1  0.224000  0.713000  0.797300  1.0  0.043
  C  C48  1  0.304000  0.776000  0.862000  1.0  -0.0037
  C  C49  1  0.243000  0.984000  0.841000  1.0  -0.1447
  C  C50  1  0.423000  0.721000  0.755000  1.0  -0.0378
  C  C51  1  0.493000  0.781000  0.692000  1.0  0.3079
  N  N52  1  0.307000  0.767000  0.787000  1.0  -0.0997
  O  O53  1  0.268000  0.334000  0.642000  1.0  -0.68
  O  O54  1  0.663000  0.589000  0.089300  1.0  -0.7315
  O  O55  1  0.385000  0.492000  0.536000  1.0  -0.743
  O  O56  1  0.243000  0.831000  0.348800  1.0  -0.7185
  O  O57  1  0.002000  0.706000  0.487900  1.0  -0.7725
  O  O58  1  0.355000  0.358000  0.239500  1.0  -0.7572
  O  O59  1  0.247000  0.226000  0.235000  1.0  -0.8047
  O  O60  1  0.358000  0.515000  0.278900  1.0  -0.8571
  O  O61  1  0.456000  0.368000  0.677000  1.0  -0.7273
  O  O62  1  0.012000  0.895000  0.356600  1.0  -0.7334
  O  O63  1  0.254000  0.677000  0.470400  1.0  -0.8073
  O  O64  1  0.246000  0.517000  0.412000  1.0  -0.8902
  O  O65  1  0.130000  0.710000  0.348100  1.0  -0.7385
  O  O66  1  0.277000  0.507000  0.693000  1.0  -0.7037
  O  O67  1  0.486000  0.212000  0.203900  1.0  -0.6578
  O  O68  1  0.225500  0.539300  0.154100  1.0  -0.7893
  O  O69  1  0.568000  0.372000  0.537000  1.0  -0.688
  O  O70  1  0.000000  0.554000  0.460000  1.0  -0.7045
  O  O71  1  0.224000  0.702000  0.198700  1.0  -0.7314
  O  O72  1  0.476000  0.353000  0.072000  1.0  -0.7844
  O  O73  1  0.662000  0.435000  0.049000  1.0  -0.7042
  O  O74  1  0.626000  0.479000  0.244000  1.0  -0.6647
  O  O75  1  0.035000  0.665000  0.167100  1.0  -0.6868
  O  O76  1  0.484000  0.514000  0.732000  1.0  -0.6859
  O  O77  1  0.406000  0.675600  0.318900  1.0  -0.9117
  O  O78  1  0.822000  0.415000  0.144000  1.0  -0.7993
  O  O79  1  0.141000  0.833000  0.486100  1.0  -0.6451
  O  O80  1  0.951000  0.451000  0.615000  1.0  -0.7141
  O  O81  1  0.469000  0.516000  0.120500  1.0  -0.7432
  O  O82  1  0.088000  0.411000  0.725000  1.0  -0.6589
  O  O83  1  0.358000  0.192800  0.357100  1.0  -0.7343
  O  O84  1  0.540000  0.607000  0.980000  1.0  -0.7254
  O  O85  1  0.524000  0.506000  0.380000  1.0  -0.8302
  O  O86  1  0.130300  0.524000  0.569600  1.0  -0.7756
  O  O87  1  0.161000  0.656000  0.026000  1.0  -0.7147
  O  O88  1  0.132000  0.348000  0.544200  1.0  -0.6685
  O  O89  1  0.108000  0.397500  0.261000  1.0  -0.7804
  O  O90  1  0.350000  0.710000  0.054900  1.0  -0.6575
  O  O91  1  0.089000  0.538000  0.309000  1.0  -0.8026
  O  O92  1  0.045000  0.515000  0.124000  1.0  -0.7801
  O  O93  1  0.060000  0.557000  0.790000  1.0  -0.8261
  O  O94  1  0.389000  0.328000  0.507000  1.0  -0.7111
  O  O95  1  0.500000  0.322000  0.349000  1.0  -0.7167
  O  O96  1  0.153000  0.674000  0.626300  1.0  -0.672
  O  O97  1  0.354000  0.533400  0.998700  1.0  -0.7581
  O  O98  1  0.128000  0.531000  0.960000  1.0  -0.7023
  O  O99  1  0.559000  0.468000  0.916000  1.0  -0.8388
  O  O100  1  0.228000  0.344000  0.395700  1.0  -0.8274
  O  O101  1  0.493000  0.670100  0.167300  1.0  -0.6947
  O  O102  1  0.803000  0.628000  0.550200  1.0  -0.8484
  O  O103  1  0.245000  0.377000  0.101200  1.0  -0.7467
  O  O104  1  0.967000  0.601000  0.650000  1.0  -0.675
  O  O105  1  0.372000  0.795000  0.464000  1.0  -0.7908
  O  O106  1  0.568000  0.523000  0.578000  1.0  -0.8114
  O  O107  1  0.510500  0.656600  0.431700  1.0  -0.7536
  O  O108  1  0.375000  0.638000  0.603600  1.0  -0.7769
  O  O109  1  0.609000  0.327000  0.208000  1.0  -0.6897
  O  O110  1  0.292000  0.948000  0.814400  1.0  -0.5
  O  O111  1  0.586000  0.765000  0.641000  1.0  -0.6237
  O  O112  1  0.123000  0.891000  0.753000  1.0  -0.5472
  O  O113  1  0.445000  0.883000  0.655000  1.0  -0.5743
  O  O114  1  0.016000  0.760000  0.827000  1.0  -0.6413
  O  O115  1  0.023000  0.085000  0.281000  1.0  -0.7055
  O  O116  1  0.529000  0.948000  0.472000  1.0  -0.6047
  O  O117  1  0.790000  0.976000  0.343000  1.0  -0.5924
