# generated using pymatgen
data_Fe2C4Cl2O9
_symmetry_space_group_name_H-M   'P 1'
_cell_length_a   14.95600000
_cell_length_b   23.67100000
_cell_length_c   9.02600000
_cell_angle_alpha   90.00000000
_cell_angle_beta   90.00000000
_cell_angle_gamma   90.00000000
_symmetry_Int_Tables_number   1
_chemical_formula_structural   Fe2C4Cl2O9
_chemical_formula_sum   'Fe16 C32 Cl16 O72'
_cell_volume   3195.41589438
_cell_formula_units_Z   8
loop_
 _symmetry_equiv_pos_site_id
 _symmetry_equiv_pos_as_xyz
  1  'x, y, z'
loop_
 _atom_site_type_symbol
 _atom_site_label
 _atom_site_symmetry_multiplicity
 _atom_site_fract_x
 _atom_site_fract_y
 _atom_site_fract_z
 _atom_site_occupancy
 _atom_site_charge
  Fe  Fe1  1  0.073150  0.054520  0.000000  1.0  1.315
  Fe  Fe2  1  0.073150  0.554520  0.500000  1.0  1.315
  Fe  Fe3  1  0.573150  0.054520  0.500000  1.0  1.315
  Fe  Fe4  1  0.573150  0.554520  0.000000  1.0  1.315
  Fe  Fe5  1  0.926850  0.945480  0.000000  1.0  1.3205
  Fe  Fe6  1  0.926850  0.445480  0.500000  1.0  1.3205
  Fe  Fe7  1  0.426850  0.945480  0.500000  1.0  1.3205
  Fe  Fe8  1  0.426850  0.445480  0.000000  1.0  1.3205
  Fe  Fe9  1  0.323150  0.195480  0.250000  1.0  1.3178
  Fe  Fe10  1  0.323150  0.695480  0.750000  1.0  1.3178
  Fe  Fe11  1  0.823150  0.195480  0.750000  1.0  1.3178
  Fe  Fe12  1  0.823150  0.695480  0.250000  1.0  1.3178
  Fe  Fe13  1  0.176850  0.304520  0.250000  1.0  1.3176
  Fe  Fe14  1  0.176850  0.804520  0.750000  1.0  1.3176
  Fe  Fe15  1  0.676850  0.304520  0.750000  1.0  1.3176
  Fe  Fe16  1  0.676850  0.804520  0.250000  1.0  1.3176
  C  C17  1  0.188600  0.112500  0.197800  1.0  0.616
  C  C18  1  0.205900  0.141300  0.048400  1.0  0.6104
  C  C19  1  0.188600  0.612500  0.697800  1.0  0.616
  C  C20  1  0.205900  0.641300  0.548400  1.0  0.6104
  C  C21  1  0.688600  0.112500  0.697800  1.0  0.616
  C  C22  1  0.705900  0.141300  0.548400  1.0  0.6104
  C  C23  1  0.688600  0.612500  0.197800  1.0  0.616
  C  C24  1  0.705900  0.641300  0.048400  1.0  0.6104
  C  C25  1  0.811400  0.887500  0.197800  1.0  0.6164
  C  C26  1  0.794100  0.858700  0.048400  1.0  0.6093
  C  C27  1  0.811400  0.387500  0.697800  1.0  0.6164
  C  C28  1  0.794100  0.358700  0.548400  1.0  0.6093
  C  C29  1  0.311400  0.887500  0.697800  1.0  0.6164
  C  C30  1  0.294100  0.858700  0.548400  1.0  0.6093
  C  C31  1  0.311400  0.387500  0.197800  1.0  0.6164
  C  C32  1  0.294100  0.358700  0.048400  1.0  0.6093
  C  C33  1  0.438600  0.137500  0.447800  1.0  0.6156
  C  C34  1  0.455900  0.108700  0.298400  1.0  0.6099
  C  C35  1  0.438600  0.637500  0.947800  1.0  0.6156
  C  C36  1  0.455900  0.608700  0.798400  1.0  0.6099
  C  C37  1  0.938600  0.137500  0.947800  1.0  0.6156
  C  C38  1  0.955900  0.108700  0.798400  1.0  0.6099
  C  C39  1  0.938600  0.637500  0.447800  1.0  0.6156
  C  C40  1  0.955900  0.608700  0.298400  1.0  0.6099
  C  C41  1  0.061400  0.362500  0.447800  1.0  0.6168
  C  C42  1  0.044100  0.391300  0.298400  1.0  0.6097
  C  C43  1  0.061400  0.862500  0.947800  1.0  0.6168
  C  C44  1  0.044100  0.891300  0.798400  1.0  0.6097
  C  C45  1  0.561400  0.362500  0.947800  1.0  0.6168
  C  C46  1  0.544100  0.391300  0.798400  1.0  0.6097
  C  C47  1  0.561400  0.862500  0.447800  1.0  0.6168
  C  C48  1  0.544100  0.891300  0.298400  1.0  0.6097
  Cl  Cl49  1  0.181860  0.995970  0.901600  1.0  -0.4287
  Cl  Cl50  1  0.181860  0.495970  0.401600  1.0  -0.4287
  Cl  Cl51  1  0.681860  0.995970  0.401600  1.0  -0.4287
  Cl  Cl52  1  0.681860  0.495970  0.901600  1.0  -0.4287
  Cl  Cl53  1  0.818140  0.004030  0.901600  1.0  -0.429
  Cl  Cl54  1  0.818140  0.504030  0.401600  1.0  -0.429
  Cl  Cl55  1  0.318140  0.004030  0.401600  1.0  -0.429
  Cl  Cl56  1  0.318140  0.504030  0.901600  1.0  -0.429
  Cl  Cl57  1  0.431860  0.254030  0.151600  1.0  -0.4287
  Cl  Cl58  1  0.431860  0.754030  0.651600  1.0  -0.4287
  Cl  Cl59  1  0.931860  0.254030  0.651600  1.0  -0.4287
  Cl  Cl60  1  0.931860  0.754030  0.151600  1.0  -0.4287
  Cl  Cl61  1  0.068140  0.245970  0.151600  1.0  -0.429
  Cl  Cl62  1  0.068140  0.745970  0.651600  1.0  -0.429
  Cl  Cl63  1  0.568140  0.245970  0.651600  1.0  -0.429
  Cl  Cl64  1  0.568140  0.745970  0.151600  1.0  -0.429
  O  O65  1  0.132000  0.072760  0.199300  1.0  -0.4725
  O  O66  1  0.160900  0.125280  0.940600  1.0  -0.4158
  O  O67  1  0.265000  0.179510  0.048400  1.0  -0.4683
  O  O68  1  0.231600  0.130750  0.306100  1.0  -0.421
  O  O69  1  0.132000  0.572760  0.699300  1.0  -0.4725
  O  O70  1  0.160900  0.625280  0.440600  1.0  -0.4158
  O  O71  1  0.265000  0.679510  0.548400  1.0  -0.4683
  O  O72  1  0.231600  0.630750  0.806100  1.0  -0.421
  O  O73  1  0.632000  0.072760  0.699300  1.0  -0.4725
  O  O74  1  0.660900  0.125280  0.440600  1.0  -0.4158
  O  O75  1  0.765000  0.179510  0.548400  1.0  -0.4683
  O  O76  1  0.731600  0.130750  0.806100  1.0  -0.421
  O  O77  1  0.632000  0.572760  0.199300  1.0  -0.4725
  O  O78  1  0.660900  0.625280  0.940600  1.0  -0.4158
  O  O79  1  0.765000  0.679510  0.048400  1.0  -0.4683
  O  O80  1  0.731600  0.630750  0.306100  1.0  -0.421
  O  O81  1  0.868000  0.927240  0.199300  1.0  -0.4712
  O  O82  1  0.839100  0.874720  0.940600  1.0  -0.4163
  O  O83  1  0.735000  0.820490  0.048400  1.0  -0.4681
  O  O84  1  0.768400  0.869250  0.306100  1.0  -0.4202
  O  O85  1  0.868000  0.427240  0.699300  1.0  -0.4712
  O  O86  1  0.839100  0.374720  0.440600  1.0  -0.4163
  O  O87  1  0.735000  0.320490  0.548400  1.0  -0.4681
  O  O88  1  0.768400  0.369250  0.806100  1.0  -0.4202
  O  O89  1  0.368000  0.927240  0.699300  1.0  -0.4712
  O  O90  1  0.339100  0.874720  0.440600  1.0  -0.4163
  O  O91  1  0.235000  0.820490  0.548400  1.0  -0.4681
  O  O92  1  0.268400  0.869250  0.806100  1.0  -0.4202
  O  O93  1  0.368000  0.427240  0.199300  1.0  -0.4712
  O  O94  1  0.339100  0.374720  0.940600  1.0  -0.4163
  O  O95  1  0.235000  0.320490  0.048400  1.0  -0.4681
  O  O96  1  0.268400  0.369250  0.306100  1.0  -0.4202
  O  O97  1  0.382000  0.177240  0.449300  1.0  -0.4718
  O  O98  1  0.410900  0.124720  0.190600  1.0  -0.4157
  O  O99  1  0.515000  0.070490  0.298400  1.0  -0.4683
  O  O100  1  0.481600  0.119250  0.556100  1.0  -0.4202
  O  O101  1  0.382000  0.677240  0.949300  1.0  -0.4718
  O  O102  1  0.410900  0.624720  0.690600  1.0  -0.4157
  O  O103  1  0.515000  0.570490  0.798400  1.0  -0.4683
  O  O104  1  0.481600  0.619250  0.056100  1.0  -0.4202
  O  O105  1  0.882000  0.177240  0.949300  1.0  -0.4718
  O  O106  1  0.910900  0.124720  0.690600  1.0  -0.4157
  O  O107  1  0.015000  0.070490  0.798400  1.0  -0.4683
  O  O108  1  0.981600  0.119250  0.056100  1.0  -0.4202
  O  O109  1  0.882000  0.677240  0.449300  1.0  -0.4718
  O  O110  1  0.910900  0.624720  0.190600  1.0  -0.4157
  O  O111  1  0.015000  0.570490  0.298400  1.0  -0.4683
  O  O112  1  0.981600  0.619250  0.556100  1.0  -0.4202
  O  O113  1  0.118000  0.322760  0.449300  1.0  -0.472
  O  O114  1  0.089100  0.375280  0.190600  1.0  -0.4161
  O  O115  1  0.985000  0.429510  0.298400  1.0  -0.4678
  O  O116  1  0.018400  0.380750  0.556100  1.0  -0.4197
  O  O117  1  0.118000  0.822760  0.949300  1.0  -0.472
  O  O118  1  0.089100  0.875280  0.690600  1.0  -0.4161
  O  O119  1  0.985000  0.929510  0.798400  1.0  -0.4678
  O  O120  1  0.018400  0.880750  0.056100  1.0  -0.4197
  O  O121  1  0.618000  0.322760  0.949300  1.0  -0.472
  O  O122  1  0.589100  0.375280  0.690600  1.0  -0.4161
  O  O123  1  0.485000  0.429510  0.798400  1.0  -0.4678
  O  O124  1  0.518400  0.380750  0.056100  1.0  -0.4197
  O  O125  1  0.618000  0.822760  0.449300  1.0  -0.472
  O  O126  1  0.589100  0.875280  0.190600  1.0  -0.4161
  O  O127  1  0.485000  0.929510  0.298400  1.0  -0.4678
  O  O128  1  0.518400  0.880750  0.556100  1.0  -0.4197
  O  O129  1  0.000000  0.000000  0.075900  1.0  -0.6777
  O  O130  1  0.000000  0.500000  0.575900  1.0  -0.6777
  O  O131  1  0.500000  0.000000  0.575900  1.0  -0.6777
  O  O132  1  0.500000  0.500000  0.075900  1.0  -0.6777
  O  O133  1  0.250000  0.250000  0.325900  1.0  -0.6769
  O  O134  1  0.250000  0.750000  0.825900  1.0  -0.6769
  O  O135  1  0.750000  0.250000  0.825900  1.0  -0.6769
  O  O136  1  0.750000  0.750000  0.325900  1.0  -0.6769
