# generated using pymatgen
data_DyH3C8NO6
_symmetry_space_group_name_H-M   'P 1'
_cell_length_a   7.62160000
_cell_length_b   9.83300000
_cell_length_c   14.76200000
_cell_angle_alpha   90.00000000
_cell_angle_beta   98.19100000
_cell_angle_gamma   90.00000000
_symmetry_Int_Tables_number   1
_chemical_formula_structural   DyH3C8NO6
_chemical_formula_sum   'Dy4 H12 C32 N4 O24'
_cell_volume   1095.02551210
_cell_formula_units_Z   4
loop_
 _symmetry_equiv_pos_site_id
 _symmetry_equiv_pos_as_xyz
  1  'x, y, z'
loop_
 _atom_site_type_symbol
 _atom_site_label
 _atom_site_symmetry_multiplicity
 _atom_site_fract_x
 _atom_site_fract_y
 _atom_site_fract_z
 _atom_site_occupancy
 _atom_site_charge
  Dy  Dy1  1  0.649430  0.545070  0.360890  1.0  2.3047
  Dy  Dy2  1  0.850570  0.045070  0.139110  1.0  2.3052
  Dy  Dy3  1  0.350570  0.454930  0.639110  1.0  2.3052
  Dy  Dy4  1  0.149430  0.954930  0.860890  1.0  2.3048
  H  H5  1  0.799400  0.610300  0.862200  1.0  0.0806
  H  H6  1  0.827100  0.614100  0.135700  1.0  0.1031
  H  H7  1  0.616600  0.301100  0.984500  1.0  0.0722
  H  H8  1  0.700600  0.110300  0.637800  1.0  0.0801
  H  H9  1  0.672900  0.114100  0.364300  1.0  0.1035
  H  H10  1  0.883400  0.801100  0.515500  1.0  0.072
  H  H11  1  0.200600  0.389700  0.137800  1.0  0.0802
  H  H12  1  0.172900  0.385900  0.864300  1.0  0.1035
  H  H13  1  0.383400  0.698900  0.015500  1.0  0.0716
  H  H14  1  0.299400  0.889700  0.362200  1.0  0.0807
  H  H15  1  0.327100  0.885900  0.635700  1.0  0.1031
  H  H16  1  0.116600  0.198900  0.484500  1.0  0.0723
  C  C17  1  0.775400  0.569100  0.915800  1.0  0.2431
  C  C18  1  0.827100  0.635600  0.999300  1.0  -0.2728
  C  C19  1  0.797000  0.571500  0.079400  1.0  0.0982
  C  C20  1  0.720400  0.441500  0.074100  1.0  -0.2911
  C  C21  1  0.669800  0.386400  0.988300  1.0  0.263
  C  C22  1  0.912300  0.773100  0.000700  1.0  0.8746
  C  C23  1  0.693200  0.362400  0.157600  1.0  0.8165
  C  C24  1  0.457200  0.969200  0.039000  1.0  0.5713
  C  C25  1  0.724600  0.069100  0.584200  1.0  0.2422
  C  C26  1  0.672900  0.135600  0.500700  1.0  -0.2717
  C  C27  1  0.703000  0.071500  0.420600  1.0  0.098
  C  C28  1  0.779600  0.941500  0.425900  1.0  -0.2904
  C  C29  1  0.830200  0.886400  0.511700  1.0  0.2629
  C  C30  1  0.587700  0.273100  0.499300  1.0  0.8731
  C  C31  1  0.806800  0.862400  0.342400  1.0  0.825
  C  C32  1  0.042800  0.469200  0.461000  1.0  0.5716
  C  C33  1  0.224600  0.430900  0.084200  1.0  0.2425
  C  C34  1  0.172900  0.364400  0.000700  1.0  -0.2701
  C  C35  1  0.203000  0.428500  0.920600  1.0  0.0983
  C  C36  1  0.279600  0.558500  0.925900  1.0  -0.2898
  C  C37  1  0.330200  0.613600  0.011700  1.0  0.2633
  C  C38  1  0.087700  0.226900  0.999300  1.0  0.871
  C  C39  1  0.306800  0.637600  0.842400  1.0  0.8222
  C  C40  1  0.542800  0.030800  0.961000  1.0  0.5716
  C  C41  1  0.275400  0.930900  0.415800  1.0  0.2434
  C  C42  1  0.327100  0.864400  0.499300  1.0  -0.2718
  C  C43  1  0.297000  0.928500  0.579400  1.0  0.0993
  C  C44  1  0.220400  0.058500  0.574100  1.0  -0.2912
  C  C45  1  0.169800  0.113600  0.488300  1.0  0.263
  C  C46  1  0.412300  0.726900  0.500700  1.0  0.8724
  C  C47  1  0.193200  0.137600  0.657600  1.0  0.8149
  C  C48  1  0.957200  0.530800  0.539000  1.0  0.5714
  N  N49  1  0.693100  0.448900  0.910400  1.0  -0.4733
  N  N50  1  0.806900  0.948900  0.589600  1.0  -0.4737
  N  N51  1  0.306900  0.551100  0.089600  1.0  -0.475
  N  N52  1  0.193100  0.051100  0.410400  1.0  -0.4742
  O  O53  1  0.980500  0.808300  0.932200  1.0  -0.8
  O  O54  1  0.906600  0.843800  0.070700  1.0  -0.7657
  O  O55  1  0.695800  0.421900  0.231900  1.0  -0.7877
  O  O56  1  0.666800  0.235300  0.147300  1.0  -0.767
  O  O57  1  0.553100  0.952900  0.115000  1.0  -0.6197
  O  O58  1  0.295700  0.937200  0.020400  1.0  -0.6543
  O  O59  1  0.519500  0.308300  0.567800  1.0  -0.8008
  O  O60  1  0.593400  0.343800  0.429300  1.0  -0.764
  O  O61  1  0.804200  0.921900  0.268100  1.0  -0.7865
  O  O62  1  0.833200  0.735300  0.352700  1.0  -0.7679
  O  O63  1  0.946900  0.452900  0.385000  1.0  -0.6173
  O  O64  1  0.204300  0.437200  0.479600  1.0  -0.6523
  O  O65  1  0.019500  0.191700  0.067800  1.0  -0.7993
  O  O66  1  0.093400  0.156200  0.929300  1.0  -0.7654
  O  O67  1  0.304200  0.578100  0.768100  1.0  -0.7867
  O  O68  1  0.333200  0.764700  0.852700  1.0  -0.7686
  O  O69  1  0.446900  0.047100  0.885000  1.0  -0.617
  O  O70  1  0.704300  0.062800  0.979600  1.0  -0.653
  O  O71  1  0.480500  0.691700  0.432200  1.0  -0.7992
  O  O72  1  0.406600  0.656200  0.570700  1.0  -0.767
  O  O73  1  0.195800  0.078100  0.731900  1.0  -0.7869
  O  O74  1  0.166800  0.264700  0.647300  1.0  -0.7693
  O  O75  1  0.053100  0.547100  0.615000  1.0  -0.6197
  O  O76  1  0.795700  0.562800  0.520400  1.0  -0.655
