# generated using pymatgen
data_HoH3C8NO6
_symmetry_space_group_name_H-M   'P 1'
_cell_length_a   7.60040000
_cell_length_b   9.80770000
_cell_length_c   14.71450000
_cell_angle_alpha   90.00000000
_cell_angle_beta   98.16000000
_cell_angle_gamma   90.00000000
_symmetry_Int_Tables_number   1
_chemical_formula_structural   HoH3C8NO6
_chemical_formula_sum   'Ho4 H12 C32 N4 O24'
_cell_volume   1085.74974212
_cell_formula_units_Z   4
loop_
 _symmetry_equiv_pos_site_id
 _symmetry_equiv_pos_as_xyz
  1  'x, y, z'
loop_
 _atom_site_type_symbol
 _atom_site_label
 _atom_site_symmetry_multiplicity
 _atom_site_fract_x
 _atom_site_fract_y
 _atom_site_fract_z
 _atom_site_occupancy
 _atom_site_charge
  Ho  Ho1  1  0.849900  0.454760  0.638970  1.0  2.2239
  Ho  Ho2  1  0.650100  0.954760  0.861030  1.0  2.2231
  Ho  Ho3  1  0.150100  0.545240  0.361030  1.0  2.223
  Ho  Ho4  1  0.349900  0.045240  0.138970  1.0  2.2239
  H  H5  1  0.884000  0.702000  0.023000  1.0  0.0734
  H  H6  1  0.672000  0.398000  0.856000  1.0  0.1004
  H  H7  1  0.707000  0.388000  0.139000  1.0  0.0858
  H  H8  1  0.616000  0.202000  0.477000  1.0  0.0737
  H  H9  1  0.828000  0.898000  0.644000  1.0  0.101
  H  H10  1  0.793000  0.888000  0.361000  1.0  0.0861
  H  H11  1  0.116000  0.298000  0.977000  1.0  0.0733
  H  H12  1  0.328000  0.602000  0.144000  1.0  0.1007
  H  H13  1  0.293000  0.612000  0.861000  1.0  0.0861
  H  H14  1  0.384000  0.798000  0.523000  1.0  0.0736
  H  H15  1  0.172000  0.102000  0.356000  1.0  0.1007
  H  H16  1  0.207000  0.112000  0.639000  1.0  0.0858
  C  C17  1  0.830300  0.613200  0.012200  1.0  0.2396
  C  C18  1  0.778400  0.557500  0.925300  1.0  -0.2694
  C  C19  1  0.703300  0.428400  0.919800  1.0  0.078
  C  C20  1  0.672900  0.365000  0.000700  1.0  -0.2498
  C  C21  1  0.726100  0.430600  0.084500  1.0  0.2371
  C  C22  1  0.806900  0.637200  0.842200  1.0  0.8227
  C  C23  1  0.589400  0.226900  0.999500  1.0  0.8696
  C  C24  1  0.543700  0.468200  0.460400  1.0  0.5611
  C  C25  1  0.669700  0.113200  0.487800  1.0  0.2373
  C  C26  1  0.721600  0.057500  0.574700  1.0  -0.2679
  C  C27  1  0.796700  0.928400  0.580200  1.0  0.0806
  C  C28  1  0.827100  0.865000  0.499300  1.0  -0.2511
  C  C29  1  0.773900  0.930600  0.415500  1.0  0.2359
  C  C30  1  0.693100  0.137200  0.657800  1.0  0.8169
  C  C31  1  0.910600  0.726900  0.500500  1.0  0.8704
  C  C32  1  0.956300  0.968200  0.039600  1.0  0.5612
  C  C33  1  0.169700  0.386800  0.987800  1.0  0.2353
  C  C34  1  0.221600  0.442500  0.074700  1.0  -0.267
  C  C35  1  0.296700  0.571600  0.080200  1.0  0.0806
  C  C36  1  0.327100  0.635000  0.999300  1.0  -0.252
  C  C37  1  0.273900  0.569400  0.915500  1.0  0.2358
  C  C38  1  0.193100  0.362800  0.157800  1.0  0.8186
  C  C39  1  0.410600  0.773100  0.000500  1.0  0.8737
  C  C40  1  0.456300  0.531800  0.539600  1.0  0.5613
  C  C41  1  0.330300  0.886800  0.512200  1.0  0.2385
  C  C42  1  0.278400  0.942500  0.425300  1.0  -0.2699
  C  C43  1  0.203300  0.071600  0.419800  1.0  0.0777
  C  C44  1  0.172900  0.135000  0.500700  1.0  -0.2507
  C  C45  1  0.226100  0.069400  0.584500  1.0  0.2367
  C  C46  1  0.306900  0.862800  0.342200  1.0  0.8244
  C  C47  1  0.089400  0.273100  0.499500  1.0  0.8727
  C  C48  1  0.043700  0.031800  0.960400  1.0  0.5608
  N  N49  1  0.807100  0.552200  0.090400  1.0  -0.459
  N  N50  1  0.692900  0.052200  0.409600  1.0  -0.458
  N  N51  1  0.192900  0.447800  0.909600  1.0  -0.4575
  N  N52  1  0.307100  0.947800  0.590400  1.0  -0.4576
  O  O53  1  0.804400  0.577400  0.767310  1.0  -0.7686
  O  O54  1  0.833000  0.765300  0.852610  1.0  -0.7549
  O  O55  1  0.593600  0.154700  0.929210  1.0  -0.7599
  O  O56  1  0.518600  0.192100  0.068030  1.0  -0.7979
  O  O57  1  0.704500  0.436400  0.479570  1.0  -0.6283
  O  O58  1  0.447300  0.453800  0.384900  1.0  -0.6016
  O  O59  1  0.695600  0.077400  0.732690  1.0  -0.7691
  O  O60  1  0.667000  0.265300  0.647390  1.0  -0.7547
  O  O61  1  0.906400  0.654700  0.570790  1.0  -0.761
  O  O62  1  0.981400  0.692100  0.431970  1.0  -0.7994
  O  O63  1  0.795500  0.936400  0.020430  1.0  -0.6295
  O  O64  1  0.052700  0.953800  0.115100  1.0  -0.6029
  O  O65  1  0.195600  0.422600  0.232690  1.0  -0.7686
  O  O66  1  0.167000  0.234700  0.147390  1.0  -0.753
  O  O67  1  0.406400  0.845300  0.070790  1.0  -0.7608
  O  O68  1  0.481400  0.807900  0.931970  1.0  -0.7975
  O  O69  1  0.295500  0.563600  0.520430  1.0  -0.6296
  O  O70  1  0.552700  0.546200  0.615100  1.0  -0.6031
  O  O71  1  0.304400  0.922600  0.267310  1.0  -0.7685
  O  O72  1  0.333000  0.734700  0.352610  1.0  -0.7551
  O  O73  1  0.093600  0.345300  0.429210  1.0  -0.7596
  O  O74  1  0.018600  0.307900  0.568030  1.0  -0.7984
  O  O75  1  0.204500  0.063600  0.979570  1.0  -0.628
  O  O76  1  0.947300  0.046200  0.884900  1.0  -0.6012
