# generated using pymatgen
data_SmH3C8NO6
_symmetry_space_group_name_H-M   'P 1'
_cell_length_a   7.66680000
_cell_length_b   9.87340000
_cell_length_c   14.90500000
_cell_angle_alpha   90.00000000
_cell_angle_beta   98.36500000
_cell_angle_gamma   90.00000000
_symmetry_Int_Tables_number   1
_chemical_formula_structural   SmH3C8NO6
_chemical_formula_sum   'Sm4 H12 C32 N4 O24'
_cell_volume   1116.26627111
_cell_formula_units_Z   4
loop_
 _symmetry_equiv_pos_site_id
 _symmetry_equiv_pos_as_xyz
  1  'x, y, z'
loop_
 _atom_site_type_symbol
 _atom_site_label
 _atom_site_symmetry_multiplicity
 _atom_site_fract_x
 _atom_site_fract_y
 _atom_site_fract_z
 _atom_site_occupancy
 _atom_site_charge
  Sm  Sm1  1  0.853430  0.955710  0.139700  1.0  2.3025
  Sm  Sm2  1  0.646570  0.455710  0.360300  1.0  2.3022
  Sm  Sm3  1  0.146570  0.044290  0.860300  1.0  2.3021
  Sm  Sm4  1  0.353430  0.544290  0.639700  1.0  2.3025
  H  H5  1  0.614900  0.698300  0.984200  1.0  0.0753
  H  H6  1  0.825400  0.387400  0.134600  1.0  0.1072
  H  H7  1  0.795600  0.389400  0.863600  1.0  0.0841
  H  H8  1  0.885100  0.198300  0.515800  1.0  0.0746
  H  H9  1  0.674600  0.887400  0.365400  1.0  0.1072
  H  H10  1  0.704400  0.889400  0.636400  1.0  0.0843
  H  H11  1  0.385100  0.301700  0.015800  1.0  0.0749
  H  H12  1  0.174600  0.612600  0.865400  1.0  0.1073
  H  H13  1  0.204400  0.610600  0.136400  1.0  0.0843
  H  H14  1  0.114900  0.801700  0.484200  1.0  0.0751
  H  H15  1  0.325400  0.112600  0.634600  1.0  0.1071
  H  H16  1  0.295600  0.110600  0.363600  1.0  0.0841
  C  C17  1  0.669200  0.613800  0.987800  1.0  0.2724
  C  C18  1  0.721300  0.558600  0.073600  1.0  -0.3007
  C  C19  1  0.796100  0.430200  0.078900  1.0  0.1009
  C  C20  1  0.826100  0.367400  0.999500  1.0  -0.2569
  C  C21  1  0.773600  0.431700  0.916500  1.0  0.244
  C  C22  1  0.692000  0.636800  0.155900  1.0  0.8325
  C  C23  1  0.911200  0.230500  0.000900  1.0  0.8829
  C  C24  1  0.456500  0.031300  0.038900  1.0  0.5584
  C  C25  1  0.830800  0.113800  0.512200  1.0  0.2733
  C  C26  1  0.778700  0.058600  0.426400  1.0  -0.3001
  C  C27  1  0.703900  0.930200  0.421100  1.0  0.1005
  C  C28  1  0.673900  0.867400  0.500500  1.0  -0.2553
  C  C29  1  0.726400  0.931700  0.583500  1.0  0.2441
  C  C30  1  0.808000  0.136800  0.344100  1.0  0.8346
  C  C31  1  0.588800  0.730500  0.499100  1.0  0.8815
  C  C32  1  0.043500  0.531300  0.461100  1.0  0.5593
  C  C33  1  0.330800  0.386200  0.012200  1.0  0.274
  C  C34  1  0.278700  0.441400  0.926400  1.0  -0.3013
  C  C35  1  0.203900  0.569800  0.921100  1.0  0.1007
  C  C36  1  0.173900  0.632600  0.000500  1.0  -0.2565
  C  C37  1  0.226400  0.568300  0.083500  1.0  0.2441
  C  C38  1  0.308000  0.363200  0.844100  1.0  0.8359
  C  C39  1  0.088800  0.769500  0.999100  1.0  0.8839
  C  C40  1  0.543500  0.968700  0.961100  1.0  0.5593
  C  C41  1  0.169200  0.886200  0.487800  1.0  0.273
  C  C42  1  0.221300  0.941400  0.573600  1.0  -0.3006
  C  C43  1  0.296100  0.069800  0.578900  1.0  0.1005
  C  C44  1  0.326100  0.132600  0.499500  1.0  -0.2579
  C  C45  1  0.273600  0.068300  0.416500  1.0  0.244
  C  C46  1  0.192000  0.863200  0.655900  1.0  0.8336
  C  C47  1  0.411200  0.269500  0.500900  1.0  0.8852
  C  C48  1  0.956500  0.468700  0.538900  1.0  0.5583
  N  N49  1  0.692500  0.552500  0.910500  1.0  -0.478
  N  N50  1  0.807500  0.052500  0.589500  1.0  -0.4783
  N  N51  1  0.307500  0.447500  0.089500  1.0  -0.4769
  N  N52  1  0.192500  0.947500  0.410500  1.0  -0.4779
  O  O53  1  0.665900  0.763400  0.146210  1.0  -0.7673
  O  O54  1  0.696200  0.577000  0.229510  1.0  -0.7918
  O  O55  1  0.976200  0.194900  0.932700  1.0  -0.8014
  O  O56  1  0.910700  0.160400  0.071000  1.0  -0.7789
  O  O57  1  0.552600  0.050300  0.113100  1.0  -0.6312
  O  O58  1  0.296800  0.062100  0.020500  1.0  -0.6573
  O  O59  1  0.834100  0.263400  0.353790  1.0  -0.7679
  O  O60  1  0.803800  0.077000  0.270490  1.0  -0.7937
  O  O61  1  0.523800  0.694900  0.567300  1.0  -0.8016
  O  O62  1  0.589300  0.660400  0.429000  1.0  -0.7774
  O  O63  1  0.947400  0.550300  0.386900  1.0  -0.6291
  O  O64  1  0.203200  0.562100  0.479500  1.0  -0.6577
  O  O65  1  0.334100  0.236600  0.853790  1.0  -0.768
  O  O66  1  0.303800  0.423000  0.770490  1.0  -0.7919
  O  O67  1  0.023800  0.805100  0.067300  1.0  -0.8023
  O  O68  1  0.089300  0.839600  0.929000  1.0  -0.7776
  O  O69  1  0.447400  0.949700  0.886900  1.0  -0.6292
  O  O70  1  0.703200  0.937900  0.979500  1.0  -0.6576
  O  O71  1  0.165900  0.736600  0.646210  1.0  -0.7669
  O  O72  1  0.196200  0.923000  0.729510  1.0  -0.7936
  O  O73  1  0.476200  0.305100  0.432700  1.0  -0.8014
  O  O74  1  0.410700  0.339600  0.571000  1.0  -0.7795
  O  O75  1  0.052600  0.449700  0.613100  1.0  -0.6308
  O  O76  1  0.796800  0.437900  0.520500  1.0  -0.6573
