# generated using pymatgen
data_Fe(PO4)2
_symmetry_space_group_name_H-M   'P 1'
_cell_length_a   9.34100000
_cell_length_b   8.89200000
_cell_length_c   9.48000000
_cell_angle_alpha   90.00000000
_cell_angle_beta   117.60000000
_cell_angle_gamma   90.00000000
_symmetry_Int_Tables_number   1
_chemical_formula_structural   Fe(PO4)2
_chemical_formula_sum   'Fe4 P8 O32'
_cell_volume   697.80594189
_cell_formula_units_Z   4
loop_
 _symmetry_equiv_pos_site_id
 _symmetry_equiv_pos_as_xyz
  1  'x, y, z'
loop_
 _atom_site_type_symbol
 _atom_site_label
 _atom_site_symmetry_multiplicity
 _atom_site_fract_x
 _atom_site_fract_y
 _atom_site_fract_z
 _atom_site_occupancy
 _atom_site_charge
  Fe  Fe1  1  0.250000  0.881800  0.250000  1.0  1.1589
  Fe  Fe2  1  0.750000  0.118200  0.750000  1.0  1.1588
  Fe  Fe3  1  0.750000  0.604200  0.250000  1.0  1.3942
  Fe  Fe4  1  0.250000  0.395800  0.750000  1.0  1.3943
  P  P5  1  0.837000  0.899700  0.066900  1.0  1.9175
  P  P6  1  0.137600  0.658600  0.467600  1.0  1.8166
  P  P7  1  0.663000  0.899700  0.433100  1.0  1.9178
  P  P8  1  0.362400  0.658600  0.032400  1.0  1.8162
  P  P9  1  0.163000  0.100300  0.933100  1.0  1.9181
  P  P10  1  0.862400  0.341400  0.532400  1.0  1.8159
  P  P11  1  0.337000  0.100300  0.566900  1.0  1.9177
  P  P12  1  0.637600  0.341400  0.967600  1.0  1.8163
  O  O13  1  0.009700  0.854600  0.118100  1.0  -0.7225
  O  O14  1  0.242200  0.732600  0.403400  1.0  -0.6859
  O  O15  1  0.748100  0.944300  0.890800  1.0  -0.6597
  O  O16  1  0.244500  0.548500  0.594500  1.0  -0.6913
  O  O17  1  0.985900  0.587600  0.338700  1.0  -0.6803
  O  O18  1  0.737500  0.774800  0.092700  1.0  -0.7103
  O  O19  1  0.846200  0.039000  0.172200  1.0  -0.4374
  O  O20  1  0.080100  0.783300  0.549900  1.0  -0.4242
  O  O21  1  0.490300  0.854600  0.381900  1.0  -0.7218
  O  O22  1  0.257800  0.732600  0.096600  1.0  -0.6855
  O  O23  1  0.751900  0.944300  0.609200  1.0  -0.6595
  O  O24  1  0.255500  0.548500  0.905500  1.0  -0.6903
  O  O25  1  0.514100  0.587600  0.161300  1.0  -0.6796
  O  O26  1  0.762500  0.774800  0.407300  1.0  -0.7084
  O  O27  1  0.653800  0.039000  0.327800  1.0  -0.4388
  O  O28  1  0.419900  0.783300  0.950100  1.0  -0.4234
  O  O29  1  0.990300  0.145400  0.881900  1.0  -0.7245
  O  O30  1  0.757800  0.267400  0.596600  1.0  -0.6875
  O  O31  1  0.251900  0.055700  0.109200  1.0  -0.6592
  O  O32  1  0.755500  0.451500  0.405500  1.0  -0.6902
  O  O33  1  0.014100  0.412400  0.661300  1.0  -0.6795
  O  O34  1  0.262500  0.225200  0.907300  1.0  -0.7087
  O  O35  1  0.153800  0.961000  0.827800  1.0  -0.4397
  O  O36  1  0.919900  0.216700  0.450100  1.0  -0.4231
  O  O37  1  0.509700  0.145400  0.618100  1.0  -0.7222
  O  O38  1  0.742200  0.267400  0.903400  1.0  -0.687
  O  O39  1  0.248100  0.055700  0.390800  1.0  -0.6584
  O  O40  1  0.744500  0.451500  0.094500  1.0  -0.6906
  O  O41  1  0.485900  0.412400  0.838700  1.0  -0.68
  O  O42  1  0.237500  0.225200  0.592700  1.0  -0.7102
  O  O43  1  0.346200  0.961000  0.672200  1.0  -0.4383
  O  O44  1  0.580100  0.216700  0.049900  1.0  -0.4241
