# generated using pymatgen
data_CuH16(C5N)4
_symmetry_space_group_name_H-M   'P 1'
_cell_length_a   17.48780000
_cell_length_b   16.51080000
_cell_length_c   7.13820000
_cell_angle_alpha   90.00000000
_cell_angle_beta   99.02600000
_cell_angle_gamma   90.00000000
_symmetry_Int_Tables_number   1
_chemical_formula_structural   CuH16(C5N)4
_chemical_formula_sum   'Cu4 H64 C80 N16'
_cell_volume   2035.54484075
_cell_formula_units_Z   4
loop_
 _symmetry_equiv_pos_site_id
 _symmetry_equiv_pos_as_xyz
  1  'x, y, z'
loop_
 _atom_site_type_symbol
 _atom_site_label
 _atom_site_symmetry_multiplicity
 _atom_site_fract_x
 _atom_site_fract_y
 _atom_site_fract_z
 _atom_site_occupancy
 _atom_site_charge
  Cu  Cu1  1  0.785040  0.772920  0.993360  1.0  0.3668
  Cu  Cu2  1  0.285040  0.272920  0.993360  1.0  0.3668
  Cu  Cu3  1  0.214960  0.772920  0.006640  1.0  0.3675
  Cu  Cu4  1  0.714960  0.272920  0.006640  1.0  0.3675
  H  H5  1  0.881900  0.662700  0.261900  1.0  0.045
  H  H6  1  0.870900  0.569400  0.492700  1.0  0.1012
  H  H7  1  0.649100  0.552900  0.284900  1.0  0.0932
  H  H8  1  0.668100  0.647400  0.068300  1.0  0.0573
  H  H9  1  0.660900  0.540100  0.675300  1.0  0.0928
  H  H10  1  0.642700  0.440800  0.879300  1.0  0.0672
  H  H11  1  0.805200  0.309600  0.708000  1.0  0.0667
  H  H12  1  0.828200  0.406800  0.501300  1.0  0.1039
  H  H13  1  0.862800  0.658600  0.776600  1.0  0.062
  H  H14  1  0.944800  0.655900  0.555100  1.0  0.0891
  H  H15  1  0.984200  0.888200  0.648500  1.0  0.0749
  H  H16  1  0.901500  0.885200  0.867100  1.0  0.0596
  H  H17  1  0.703000  0.685700  0.646600  1.0  0.0473
  H  H18  1  0.589400  0.682300  0.444300  1.0  0.1039
  H  H19  1  0.515600  0.864400  0.740300  1.0  0.0997
  H  H20  1  0.630800  0.862000  0.932700  1.0  0.0753
  H  H21  1  0.381900  0.162700  0.261900  1.0  0.045
  H  H22  1  0.370900  0.069400  0.492700  1.0  0.1012
  H  H23  1  0.149100  0.052900  0.284900  1.0  0.0932
  H  H24  1  0.168100  0.147400  0.068300  1.0  0.0573
  H  H25  1  0.160900  0.040100  0.675300  1.0  0.0928
  H  H26  1  0.142700  0.940800  0.879300  1.0  0.0672
  H  H27  1  0.305200  0.809600  0.708000  1.0  0.0667
  H  H28  1  0.328200  0.906800  0.501300  1.0  0.1039
  H  H29  1  0.362800  0.158600  0.776600  1.0  0.062
  H  H30  1  0.444800  0.155900  0.555100  1.0  0.0891
  H  H31  1  0.484200  0.388200  0.648500  1.0  0.0749
  H  H32  1  0.401500  0.385200  0.867100  1.0  0.0596
  H  H33  1  0.203000  0.185700  0.646600  1.0  0.0473
  H  H34  1  0.089400  0.182300  0.444300  1.0  0.1039
  H  H35  1  0.015600  0.364400  0.740300  1.0  0.0997
  H  H36  1  0.130800  0.362000  0.932700  1.0  0.0753
  H  H37  1  0.118100  0.662700  0.738100  1.0  0.0441
  H  H38  1  0.129100  0.569400  0.507300  1.0  0.1002
  H  H39  1  0.350900  0.552900  0.715100  1.0  0.0938
  H  H40  1  0.331900  0.647400  0.931700  1.0  0.0566
  H  H41  1  0.339100  0.540100  0.324700  1.0  0.0928
  H  H42  1  0.357300  0.440800  0.120700  1.0  0.0673
  H  H43  1  0.194800  0.309600  0.292000  1.0  0.0668
  H  H44  1  0.171800  0.406800  0.498700  1.0  0.1036
  H  H45  1  0.137200  0.658600  0.223400  1.0  0.0621
  H  H46  1  0.055200  0.655900  0.444900  1.0  0.0907
  H  H47  1  0.015800  0.888200  0.351500  1.0  0.0749
  H  H48  1  0.098500  0.885200  0.132900  1.0  0.06
  H  H49  1  0.297000  0.685700  0.353400  1.0  0.0474
  H  H50  1  0.410600  0.682300  0.555700  1.0  0.1044
  H  H51  1  0.484400  0.864400  0.259700  1.0  0.0995
  H  H52  1  0.369200  0.862000  0.067300  1.0  0.075
  H  H53  1  0.618100  0.162700  0.738100  1.0  0.0441
  H  H54  1  0.629100  0.069400  0.507300  1.0  0.1002
  H  H55  1  0.850900  0.052900  0.715100  1.0  0.0938
  H  H56  1  0.831900  0.147400  0.931700  1.0  0.0566
  H  H57  1  0.839100  0.040100  0.324700  1.0  0.0928
  H  H58  1  0.857300  0.940800  0.120700  1.0  0.0673
  H  H59  1  0.694800  0.809600  0.292000  1.0  0.0668
  H  H60  1  0.671800  0.906800  0.498700  1.0  0.1036
  H  H61  1  0.637200  0.158600  0.223400  1.0  0.0621
  H  H62  1  0.555200  0.155900  0.444900  1.0  0.0907
  H  H63  1  0.515800  0.388200  0.351500  1.0  0.0749
  H  H64  1  0.598500  0.385200  0.132900  1.0  0.06
  H  H65  1  0.797000  0.185700  0.353400  1.0  0.0474
  H  H66  1  0.910600  0.182300  0.555700  1.0  0.1044
  H  H67  1  0.984400  0.364400  0.259700  1.0  0.0995
  H  H68  1  0.869200  0.362000  0.067300  1.0  0.075
  C  C69  1  0.833200  0.641200  0.267300  1.0  0.1409
  C  C70  1  0.827200  0.584000  0.407600  1.0  -0.2188
  C  C71  1  0.757000  0.548900  0.420900  1.0  0.1209
  C  C72  1  0.698300  0.574500  0.287500  1.0  -0.2507
  C  C73  1  0.710300  0.631600  0.156800  1.0  0.1682
  C  C74  1  0.745200  0.486600  0.565100  1.0  0.0556
  C  C75  1  0.691200  0.493700  0.680600  1.0  -0.2308
  C  C76  1  0.681000  0.433700  0.803900  1.0  0.1625
  C  C77  1  0.776600  0.357200  0.702600  1.0  0.1476
  C  C78  1  0.790300  0.414300  0.577700  1.0  -0.1917
  C  C79  1  0.887500  0.706200  0.750600  1.0  0.1559
  C  C80  1  0.937000  0.704100  0.616900  1.0  -0.2259
  C  C81  1  0.974600  0.773700  0.576000  1.0  0.0577
  C  C82  1  0.960200  0.839700  0.671000  1.0  -0.1953
  C  C83  1  0.909700  0.837500  0.803700  1.0  0.1681
  C  C84  1  0.664600  0.722300  0.666100  1.0  0.1617
  C  C85  1  0.596200  0.719600  0.542900  1.0  -0.2444
  C  C86  1  0.537700  0.772700  0.566000  1.0  0.0735
  C  C87  1  0.553000  0.827100  0.718300  1.0  -0.1813
  C  C88  1  0.622200  0.825300  0.832800  1.0  0.1465
  C  C89  1  0.333200  0.141200  0.267300  1.0  0.1409
  C  C90  1  0.327200  0.084000  0.407600  1.0  -0.2188
  C  C91  1  0.257000  0.048900  0.420900  1.0  0.1209
  C  C92  1  0.198300  0.074500  0.287500  1.0  -0.2507
  C  C93  1  0.210300  0.131600  0.156800  1.0  0.1682
  C  C94  1  0.245200  0.986600  0.565100  1.0  0.0556
  C  C95  1  0.191200  0.993700  0.680600  1.0  -0.2308
  C  C96  1  0.181000  0.933700  0.803900  1.0  0.1625
  C  C97  1  0.276600  0.857200  0.702600  1.0  0.1476
  C  C98  1  0.290300  0.914300  0.577700  1.0  -0.1917
  C  C99  1  0.387500  0.206200  0.750600  1.0  0.1559
  C  C100  1  0.437000  0.204100  0.616900  1.0  -0.2259
  C  C101  1  0.474600  0.273700  0.576000  1.0  0.0577
  C  C102  1  0.460200  0.339700  0.671000  1.0  -0.1953
  C  C103  1  0.409700  0.337500  0.803700  1.0  0.1681
  C  C104  1  0.164600  0.222300  0.666100  1.0  0.1617
  C  C105  1  0.096200  0.219600  0.542900  1.0  -0.2444
  C  C106  1  0.037700  0.272700  0.566000  1.0  0.0735
  C  C107  1  0.053000  0.327100  0.718300  1.0  -0.1813
  C  C108  1  0.122200  0.325300  0.832800  1.0  0.1465
  C  C109  1  0.166800  0.641200  0.732700  1.0  0.1426
  C  C110  1  0.172800  0.584000  0.592400  1.0  -0.2196
  C  C111  1  0.243000  0.548900  0.579100  1.0  0.121
  C  C112  1  0.301700  0.574500  0.712500  1.0  -0.251
  C  C113  1  0.289700  0.631600  0.843200  1.0  0.1675
  C  C114  1  0.254800  0.486600  0.434900  1.0  0.056
  C  C115  1  0.308800  0.493700  0.319400  1.0  -0.2327
  C  C116  1  0.319000  0.433700  0.196100  1.0  0.1628
  C  C117  1  0.223400  0.357200  0.297400  1.0  0.1487
  C  C118  1  0.209700  0.414300  0.422300  1.0  -0.1899
  C  C119  1  0.112500  0.706200  0.249400  1.0  0.1556
  C  C120  1  0.063000  0.704100  0.383100  1.0  -0.2264
  C  C121  1  0.025400  0.773700  0.424000  1.0  0.0585
  C  C122  1  0.039800  0.839700  0.329000  1.0  -0.1961
  C  C123  1  0.090300  0.837500  0.196300  1.0  0.1688
  C  C124  1  0.335400  0.722300  0.333900  1.0  0.1626
  C  C125  1  0.403800  0.719600  0.457100  1.0  -0.2413
  C  C126  1  0.462300  0.772700  0.434000  1.0  0.0744
  C  C127  1  0.447000  0.827100  0.281700  1.0  -0.1807
  C  C128  1  0.377800  0.825300  0.167200  1.0  0.1472
  C  C129  1  0.666800  0.141200  0.732700  1.0  0.1426
  C  C130  1  0.672800  0.084000  0.592400  1.0  -0.2196
  C  C131  1  0.743000  0.048900  0.579100  1.0  0.121
  C  C132  1  0.801700  0.074500  0.712500  1.0  -0.251
  C  C133  1  0.789700  0.131600  0.843200  1.0  0.1675
  C  C134  1  0.754800  0.986600  0.434900  1.0  0.056
  C  C135  1  0.808800  0.993700  0.319400  1.0  -0.2327
  C  C136  1  0.819000  0.933700  0.196100  1.0  0.1628
  C  C137  1  0.723400  0.857200  0.297400  1.0  0.1487
  C  C138  1  0.709700  0.914300  0.422300  1.0  -0.1899
  C  C139  1  0.612500  0.206200  0.249400  1.0  0.1556
  C  C140  1  0.563000  0.204100  0.383100  1.0  -0.2264
  C  C141  1  0.525400  0.273700  0.424000  1.0  0.0585
  C  C142  1  0.539800  0.339700  0.329000  1.0  -0.1961
  C  C143  1  0.590300  0.337500  0.196300  1.0  0.1688
  C  C144  1  0.835400  0.222300  0.333900  1.0  0.1626
  C  C145  1  0.903800  0.219600  0.457100  1.0  -0.2413
  C  C146  1  0.962300  0.272700  0.434000  1.0  0.0744
  C  C147  1  0.947000  0.327100  0.281700  1.0  -0.1807
  C  C148  1  0.877800  0.325300  0.167200  1.0  0.1472
  N  N149  1  0.778100  0.665800  0.148200  1.0  -0.3308
  N  N150  1  0.722100  0.365300  0.824600  1.0  -0.3811
  N  N151  1  0.873800  0.773200  0.843700  1.0  -0.3527
  N  N152  1  0.680000  0.772700  0.810100  1.0  -0.3648
  N  N153  1  0.278100  0.165800  0.148200  1.0  -0.3308
  N  N154  1  0.222100  0.865300  0.824600  1.0  -0.3811
  N  N155  1  0.373800  0.273200  0.843700  1.0  -0.3527
  N  N156  1  0.180000  0.272700  0.810100  1.0  -0.3648
  N  N157  1  0.221900  0.665800  0.851800  1.0  -0.3285
  N  N158  1  0.277900  0.365300  0.175400  1.0  -0.3823
  N  N159  1  0.126200  0.773200  0.156300  1.0  -0.3554
  N  N160  1  0.320000  0.772700  0.189900  1.0  -0.3653
  N  N161  1  0.721900  0.165800  0.851800  1.0  -0.3285
  N  N162  1  0.777900  0.865300  0.175400  1.0  -0.3823
  N  N163  1  0.626200  0.273200  0.156300  1.0  -0.3554
  N  N164  1  0.820000  0.272700  0.189900  1.0  -0.3653
