# generated using pymatgen
data_NaZn2H26C28(NO6)2
_symmetry_space_group_name_H-M   'P 1'
_cell_length_a   9.78930000
_cell_length_b   10.36410000
_cell_length_c   10.66490000
_cell_angle_alpha   111.80100000
_cell_angle_beta   100.49800000
_cell_angle_gamma   109.25700000
_symmetry_Int_Tables_number   1
_chemical_formula_structural   NaZn2H26C28(NO6)2
_chemical_formula_sum   'Na1 Zn2 H26 C28 N2 O12'
_cell_volume   889.28987451
_cell_formula_units_Z   1
loop_
 _symmetry_equiv_pos_site_id
 _symmetry_equiv_pos_as_xyz
  1  'x, y, z'
loop_
 _atom_site_type_symbol
 _atom_site_label
 _atom_site_symmetry_multiplicity
 _atom_site_fract_x
 _atom_site_fract_y
 _atom_site_fract_z
 _atom_site_occupancy
 _atom_site_charge
  Na  Na1  1  0.500000  0.500000  0.500000  1.0  0.9382
  Zn  Zn2  1  0.591020  0.468090  0.797010  1.0  0.8791
  Zn  Zn3  1  0.408980  0.531910  0.202990  1.0  0.8803
  H  H4  1  0.629700  0.398500  0.991000  1.0  0.3044
  H  H5  1  0.463200  0.914700  0.757200  1.0  0.1095
  H  H6  1  0.571100  0.870300  0.116800  1.0  0.1133
  H  H7  1  0.031100  0.212600  0.464000  1.0  0.0983
  H  H8  1  0.212100  0.987300  0.621800  1.0  0.107
  H  H9  1  0.734500  0.362300  0.418700  1.0  0.1049
  H  H10  1  0.135000  0.675500  0.740500  1.0  0.1009
  H  H11  1  0.701900  0.247800  0.833200  1.0  0.1187
  H  H12  1  0.809200  0.318000  0.992900  1.0  0.1122
  H  H13  1  0.861600  0.391700  0.895200  1.0  0.1232
  H  H14  1  0.758200  0.655100  0.123400  1.0  0.1177
  H  H15  1  0.896100  0.642400  0.073000  1.0  0.1245
  H  H16  1  0.844800  0.568900  0.171100  1.0  0.1134
  H  H17  1  0.370300  0.601500  0.009000  1.0  0.3036
  H  H18  1  0.536800  0.085300  0.242800  1.0  0.1093
  H  H19  1  0.428900  0.129700  0.883200  1.0  0.1132
  H  H20  1  0.968900  0.787400  0.536000  1.0  0.0982
  H  H21  1  0.787900  0.012700  0.378200  1.0  0.1066
  H  H22  1  0.265500  0.637700  0.581300  1.0  0.1046
  H  H23  1  0.865000  0.324500  0.259500  1.0  0.1008
  H  H24  1  0.298100  0.752200  0.166800  1.0  0.1181
  H  H25  1  0.190800  0.682000  0.007100  1.0  0.1125
  H  H26  1  0.138400  0.608300  0.104800  1.0  0.1226
  H  H27  1  0.241800  0.344900  0.876600  1.0  0.1173
  H  H28  1  0.103900  0.357600  0.927000  1.0  0.1239
  H  H29  1  0.155200  0.431100  0.828900  1.0  0.1128
  C  C30  1  0.542500  0.729700  0.838400  1.0  0.6918
  C  C31  1  0.519900  0.869500  0.923100  1.0  -0.1352
  C  C32  1  0.477800  0.948900  0.854600  1.0  -0.0181
  C  C33  1  0.542500  0.922100  0.070000  1.0  -0.065
  C  C34  1  0.303400  0.256000  0.612100  1.0  0.6801
  C  C35  1  0.146100  0.121300  0.552900  1.0  -0.1418
  C  C36  1  0.018800  0.127200  0.479000  1.0  -0.0059
  C  C37  1  0.126900  0.993000  0.573100  1.0  -0.0378
  C  C38  1  0.837600  0.548400  0.702900  1.0  0.6646
  C  C39  1  0.920900  0.522500  0.596500  1.0  -0.1423
  C  C40  1  0.841200  0.417600  0.451600  1.0  -0.0385
  C  C41  1  0.080600  0.604800  0.643800  1.0  -0.0175
  C  C42  1  0.774800  0.341500  0.917400  1.0  -0.1804
  C  C43  1  0.809500  0.590500  0.094400  1.0  -0.1736
  C  C44  1  0.457500  0.270300  0.161600  1.0  0.6916
  C  C45  1  0.480100  0.130500  0.076900  1.0  -0.1357
  C  C46  1  0.522200  0.051100  0.145400  1.0  -0.0192
  C  C47  1  0.457500  0.077900  0.930000  1.0  -0.0648
  C  C48  1  0.696600  0.744000  0.387900  1.0  0.6802
  C  C49  1  0.853900  0.878700  0.447100  1.0  -0.1419
  C  C50  1  0.981200  0.872800  0.521000  1.0  -0.0102
  C  C51  1  0.873100  0.007000  0.426900  1.0  -0.0342
  C  C52  1  0.162400  0.451600  0.297100  1.0  0.6643
  C  C53  1  0.079100  0.477500  0.403500  1.0  -0.1414
  C  C54  1  0.158800  0.582400  0.548400  1.0  -0.0399
  C  C55  1  0.919400  0.395200  0.356200  1.0  -0.0171
  C  C56  1  0.225200  0.658500  0.082600  1.0  -0.1791
  C  C57  1  0.190500  0.409500  0.905600  1.0  -0.1757
  N  N58  1  0.700900  0.444300  0.964900  1.0  -0.3322
  N  N59  1  0.299100  0.555700  0.035100  1.0  -0.3323
  O  O60  1  0.553400  0.706000  0.720000  1.0  -0.6473
  O  O61  1  0.549100  0.644700  0.899000  1.0  -0.6127
  O  O62  1  0.324600  0.346000  0.560600  1.0  -0.6649
  O  O63  1  0.405900  0.268500  0.714000  1.0  -0.5882
  O  O64  1  0.691900  0.459600  0.653000  1.0  -0.6793
  O  O65  1  0.908800  0.647000  0.828500  1.0  -0.546
  O  O66  1  0.446600  0.294000  0.280000  1.0  -0.648
  O  O67  1  0.450900  0.355300  0.101000  1.0  -0.6132
  O  O68  1  0.675400  0.654000  0.439400  1.0  -0.6657
  O  O69  1  0.594100  0.731500  0.286000  1.0  -0.5899
  O  O70  1  0.308100  0.540400  0.347000  1.0  -0.6797
  O  O71  1  0.091200  0.353000  0.171500  1.0  -0.5468
