# generated using pymatgen
data_Al4P4O17
_symmetry_space_group_name_H-M   'P 1'
_cell_length_a   19.19120000
_cell_length_b   9.34700000
_cell_length_c   9.63750000
_cell_angle_alpha   90.00000000
_cell_angle_beta   92.70900000
_cell_angle_gamma   90.00000000
_symmetry_Int_Tables_number   1
_chemical_formula_structural   Al4P4O17
_chemical_formula_sum   'Al16 P16 O68'
_cell_volume   1726.84418991
_cell_formula_units_Z   4
loop_
 _symmetry_equiv_pos_site_id
 _symmetry_equiv_pos_as_xyz
  1  'x, y, z'
loop_
 _atom_site_type_symbol
 _atom_site_label
 _atom_site_symmetry_multiplicity
 _atom_site_fract_x
 _atom_site_fract_y
 _atom_site_fract_z
 _atom_site_occupancy
 _atom_site_charge
  Al  Al1  1  0.944100  0.919500  0.519200  1.0  1.8626
  Al  Al2  1  0.918300  0.157200  0.272500  1.0  1.8945
  Al  Al3  1  0.674600  0.155400  0.489100  1.0  1.9552
  Al  Al4  1  0.466000  0.139200  0.285300  1.0  1.8696
  Al  Al5  1  0.055900  0.419500  0.980800  1.0  1.8636
  Al  Al6  1  0.081700  0.657200  0.227500  1.0  1.8966
  Al  Al7  1  0.325400  0.655400  0.010900  1.0  1.9565
  Al  Al8  1  0.534000  0.639200  0.214700  1.0  1.8679
  Al  Al9  1  0.055900  0.080500  0.480800  1.0  1.8661
  Al  Al10  1  0.081700  0.842800  0.727500  1.0  1.8935
  Al  Al11  1  0.325400  0.844600  0.510900  1.0  1.9565
  Al  Al12  1  0.534000  0.860800  0.714700  1.0  1.8682
  Al  Al13  1  0.944100  0.580500  0.019200  1.0  1.8644
  Al  Al14  1  0.918300  0.342800  0.772500  1.0  1.8912
  Al  Al15  1  0.674600  0.344600  0.989100  1.0  1.9551
  Al  Al16  1  0.466000  0.360800  0.785300  1.0  1.8696
  P  P17  1  0.833400  0.150800  0.528900  1.0  1.9482
  P  P18  1  0.952000  0.844800  0.216500  1.0  1.8206
  P  P19  1  0.580800  0.906400  0.400500  1.0  1.8535
  P  P20  1  0.605000  0.156800  0.780200  1.0  1.7874
  P  P21  1  0.166600  0.650800  0.971100  1.0  1.9545
  P  P22  1  0.048000  0.344800  0.283500  1.0  1.822
  P  P23  1  0.419200  0.406400  0.099500  1.0  1.8542
  P  P24  1  0.395000  0.656800  0.719800  1.0  1.7863
  P  P25  1  0.166600  0.849200  0.471100  1.0  1.9546
  P  P26  1  0.048000  0.155200  0.783500  1.0  1.8222
  P  P27  1  0.419200  0.093600  0.599500  1.0  1.8544
  P  P28  1  0.395000  0.843200  0.219800  1.0  1.7854
  P  P29  1  0.833400  0.349200  0.028900  1.0  1.9483
  P  P30  1  0.952000  0.655200  0.716500  1.0  1.8202
  P  P31  1  0.580800  0.593600  0.900500  1.0  1.8539
  P  P32  1  0.605000  0.343200  0.280200  1.0  1.7863
  O  O33  1  0.870600  0.015200  0.580000  1.0  -0.8743
  O  O34  1  0.839100  0.178200  0.372200  1.0  -0.8818
  O  O35  1  0.757500  0.145300  0.559000  1.0  -0.9826
  O  O36  1  0.865300  0.275600  0.615400  1.0  -0.9048
  O  O37  1  0.914900  0.818300  0.353300  1.0  -0.7946
  O  O38  1  0.911300  0.745200  0.116200  1.0  -0.7904
  O  O39  1  0.030900  0.820000  0.235700  1.0  -0.8975
  O  O40  1  0.934700  0.999000  0.169900  1.0  -0.8585
  O  O41  1  0.513300  0.985700  0.364100  1.0  -0.9198
  O  O42  1  0.572700  0.833100  0.540500  1.0  -0.8818
  O  O43  1  0.590000  0.785500  0.293000  1.0  -0.8825
  O  O44  1  0.650200  0.990400  0.413300  1.0  -0.8715
  O  O45  1  0.538800  0.228100  0.827100  1.0  -0.902
  O  O46  1  0.620900  0.196000  0.628300  1.0  -0.9921
  O  O47  1  0.601600  0.991900  0.789500  1.0  -0.7786
  O  O48  1  0.671400  0.199900  0.870100  1.0  -0.8477
  O  O49  1  0.969200  0.081300  0.420800  1.0  -0.9363
  O  O50  1  0.129400  0.515200  0.920000  1.0  -0.8733
  O  O51  1  0.160900  0.678200  0.127800  1.0  -0.8824
  O  O52  1  0.242500  0.645300  0.941000  1.0  -0.9819
  O  O53  1  0.134700  0.775600  0.884600  1.0  -0.9036
  O  O54  1  0.085100  0.318300  0.146700  1.0  -0.7957
  O  O55  1  0.088700  0.245200  0.383800  1.0  -0.7914
  O  O56  1  0.969100  0.320000  0.264300  1.0  -0.8969
  O  O57  1  0.065300  0.499000  0.330100  1.0  -0.8589
  O  O58  1  0.486700  0.485700  0.135900  1.0  -0.92
  O  O59  1  0.427300  0.333100  0.959500  1.0  -0.8815
  O  O60  1  0.410000  0.285500  0.207000  1.0  -0.8825
  O  O61  1  0.349800  0.490400  0.086700  1.0  -0.8683
  O  O62  1  0.461200  0.728100  0.672900  1.0  -0.9013
  O  O63  1  0.379100  0.696000  0.871700  1.0  -0.9937
  O  O64  1  0.398400  0.491900  0.710500  1.0  -0.7795
  O  O65  1  0.328600  0.699900  0.629900  1.0  -0.8475
  O  O66  1  0.030800  0.581300  0.079200  1.0  -0.9369
  O  O67  1  0.129400  0.984800  0.420000  1.0  -0.873
  O  O68  1  0.160900  0.821800  0.627800  1.0  -0.8799
  O  O69  1  0.242500  0.854700  0.441000  1.0  -0.9812
  O  O70  1  0.134700  0.724400  0.384600  1.0  -0.9028
  O  O71  1  0.085100  0.181700  0.646700  1.0  -0.7955
  O  O72  1  0.088700  0.254800  0.883800  1.0  -0.7921
  O  O73  1  0.969100  0.180000  0.764300  1.0  -0.8967
  O  O74  1  0.065300  0.001000  0.830100  1.0  -0.8596
  O  O75  1  0.486700  0.014300  0.635900  1.0  -0.9198
  O  O76  1  0.427300  0.166900  0.459500  1.0  -0.8836
  O  O77  1  0.410000  0.214500  0.707000  1.0  -0.8829
  O  O78  1  0.349800  0.009600  0.586700  1.0  -0.8693
  O  O79  1  0.461200  0.771900  0.172900  1.0  -0.9009
  O  O80  1  0.379100  0.804000  0.371700  1.0  -0.9932
  O  O81  1  0.398400  0.008100  0.210500  1.0  -0.78
  O  O82  1  0.328600  0.800100  0.129900  1.0  -0.8468
  O  O83  1  0.030800  0.918700  0.579200  1.0  -0.9373
  O  O84  1  0.870600  0.484800  0.080000  1.0  -0.8741
  O  O85  1  0.839100  0.321800  0.872200  1.0  -0.882
  O  O86  1  0.757500  0.354700  0.059000  1.0  -0.9823
  O  O87  1  0.865300  0.224400  0.115400  1.0  -0.9037
  O  O88  1  0.914900  0.681700  0.853300  1.0  -0.7959
  O  O89  1  0.911300  0.754800  0.616200  1.0  -0.7908
  O  O90  1  0.030900  0.680000  0.735700  1.0  -0.8978
  O  O91  1  0.934700  0.501000  0.669900  1.0  -0.8594
  O  O92  1  0.513300  0.514300  0.864100  1.0  -0.9197
  O  O93  1  0.572700  0.666900  0.040500  1.0  -0.8828
  O  O94  1  0.590000  0.714500  0.793000  1.0  -0.882
  O  O95  1  0.650200  0.509600  0.913300  1.0  -0.871
  O  O96  1  0.538800  0.271900  0.327100  1.0  -0.9021
  O  O97  1  0.620900  0.304000  0.128300  1.0  -0.9918
  O  O98  1  0.601600  0.508100  0.289500  1.0  -0.7781
  O  O99  1  0.671400  0.300100  0.370100  1.0  -0.846
  O  O100  1  0.969200  0.418700  0.920800  1.0  -0.9368
