# generated using pymatgen
data_Al4P4O17
_symmetry_space_group_name_H-M   'P 1'
_cell_length_a   19.24910000
_cell_length_b   9.27500000
_cell_length_c   9.70190000
_cell_angle_alpha   90.00000000
_cell_angle_beta   93.79300000
_cell_angle_gamma   90.00000000
_symmetry_Int_Tables_number   1
_chemical_formula_structural   Al4P4O17
_chemical_formula_sum   'Al16 P16 O68'
_cell_volume   1728.33848500
_cell_formula_units_Z   4
loop_
 _symmetry_equiv_pos_site_id
 _symmetry_equiv_pos_as_xyz
  1  'x, y, z'
loop_
 _atom_site_type_symbol
 _atom_site_label
 _atom_site_symmetry_multiplicity
 _atom_site_fract_x
 _atom_site_fract_y
 _atom_site_fract_z
 _atom_site_occupancy
 _atom_site_charge
  Al  Al1  1  0.942300  0.922300  0.511700  1.0  1.7991
  Al  Al2  1  0.919500  0.157200  0.266900  1.0  1.9322
  Al  Al3  1  0.671600  0.151000  0.490400  1.0  1.9656
  Al  Al4  1  0.461300  0.144200  0.302900  1.0  1.9715
  Al  Al5  1  0.057700  0.422300  0.988300  1.0  1.7992
  Al  Al6  1  0.080500  0.657200  0.233100  1.0  1.9355
  Al  Al7  1  0.328400  0.651000  0.009600  1.0  1.9662
  Al  Al8  1  0.538700  0.644200  0.197100  1.0  1.9699
  Al  Al9  1  0.057700  0.077700  0.488300  1.0  1.8007
  Al  Al10  1  0.080500  0.842800  0.733100  1.0  1.9356
  Al  Al11  1  0.328400  0.849000  0.509600  1.0  1.9664
  Al  Al12  1  0.538700  0.855800  0.697100  1.0  1.9696
  Al  Al13  1  0.942300  0.577700  0.011700  1.0  1.7994
  Al  Al14  1  0.919500  0.342800  0.766900  1.0  1.9318
  Al  Al15  1  0.671600  0.349000  0.990400  1.0  1.9658
  Al  Al16  1  0.461300  0.355800  0.802900  1.0  1.9715
  P  P17  1  0.836500  0.159800  0.522700  1.0  1.8369
  P  P18  1  0.948100  0.844400  0.217500  1.0  1.8884
  P  P19  1  0.580300  0.898900  0.397200  1.0  1.837
  P  P20  1  0.600800  0.151600  0.778900  1.0  1.9314
  P  P21  1  0.163500  0.659800  0.977300  1.0  1.8409
  P  P22  1  0.051900  0.344400  0.282500  1.0  1.8756
  P  P23  1  0.419700  0.398900  0.102800  1.0  1.8351
  P  P24  1  0.399200  0.651600  0.721100  1.0  1.9295
  P  P25  1  0.163500  0.840200  0.477300  1.0  1.8415
  P  P26  1  0.051900  0.155600  0.782500  1.0  1.8887
  P  P27  1  0.419700  0.101100  0.602800  1.0  1.8352
  P  P28  1  0.399200  0.848400  0.221100  1.0  1.9098
  P  P29  1  0.836500  0.340200  0.022700  1.0  1.8374
  P  P30  1  0.948100  0.655600  0.717500  1.0  1.8751
  P  P31  1  0.580300  0.601100  0.897200  1.0  1.8371
  P  P32  1  0.600800  0.348400  0.278900  1.0  1.9111
  O  O33  1  0.868900  0.013800  0.566100  1.0  -0.8631
  O  O34  1  0.840600  0.179500  0.365800  1.0  -0.83
  O  O35  1  0.759300  0.146800  0.540800  1.0  -0.9823
  O  O36  1  0.871200  0.284800  0.606800  1.0  -0.9765
  O  O37  1  0.921000  0.807900  0.358800  1.0  -0.8257
  O  O38  1  0.918300  0.735800  0.110800  1.0  -0.9471
  O  O39  1  0.027100  0.824800  0.225400  1.0  -0.8169
  O  O40  1  0.938100  0.997300  0.159100  1.0  -0.7789
  O  O41  1  0.517400  0.997500  0.366900  1.0  -0.9787
  O  O42  1  0.582000  0.832000  0.542300  1.0  -0.9087
  O  O43  1  0.593000  0.784600  0.286900  1.0  -0.8328
  O  O44  1  0.645200  0.996300  0.396900  1.0  -0.8902
  O  O45  1  0.537500  0.244500  0.798000  1.0  -0.9294
  O  O46  1  0.621300  0.181500  0.629900  1.0  -1.0401
  O  O47  1  0.585400  0.992900  0.809600  1.0  -0.7875
  O  O48  1  0.657000  0.192400  0.891500  1.0  -0.8525
  O  O49  1  0.971000  0.076300  0.410700  1.0  -0.9101
  O  O50  1  0.131100  0.513800  0.933900  1.0  -0.8634
  O  O51  1  0.159400  0.679500  0.134200  1.0  -0.8315
  O  O52  1  0.240700  0.646800  0.959200  1.0  -0.9828
  O  O53  1  0.128800  0.784800  0.893200  1.0  -0.9769
  O  O54  1  0.079000  0.307900  0.141200  1.0  -0.8277
  O  O55  1  0.081700  0.235800  0.389200  1.0  -0.9449
  O  O56  1  0.972900  0.324800  0.274600  1.0  -0.8167
  O  O57  1  0.061900  0.497300  0.340900  1.0  -0.7767
  O  O58  1  0.482600  0.497500  0.133100  1.0  -0.9796
  O  O59  1  0.418000  0.332000  0.957700  1.0  -0.9081
  O  O60  1  0.407000  0.284600  0.213100  1.0  -0.8328
  O  O61  1  0.354800  0.496300  0.103100  1.0  -0.8899
  O  O62  1  0.462500  0.744500  0.702000  1.0  -0.9298
  O  O63  1  0.378700  0.681500  0.870100  1.0  -1.0429
  O  O64  1  0.414600  0.492900  0.690400  1.0  -0.7877
  O  O65  1  0.343000  0.692400  0.608500  1.0  -0.8508
  O  O66  1  0.029000  0.576300  0.089300  1.0  -0.9088
  O  O67  1  0.131100  0.986200  0.433900  1.0  -0.8619
  O  O68  1  0.159400  0.820500  0.634200  1.0  -0.831
  O  O69  1  0.240700  0.853200  0.459200  1.0  -0.9835
  O  O70  1  0.128800  0.715200  0.393200  1.0  -0.9752
  O  O71  1  0.079000  0.192100  0.641200  1.0  -0.8282
  O  O72  1  0.081700  0.264200  0.889200  1.0  -0.9456
  O  O73  1  0.972900  0.175200  0.774600  1.0  -0.8166
  O  O74  1  0.061900  0.002700  0.840900  1.0  -0.7782
  O  O75  1  0.482600  0.002500  0.633100  1.0  -0.9785
  O  O76  1  0.418000  0.168000  0.457700  1.0  -0.9095
  O  O77  1  0.407000  0.215400  0.713100  1.0  -0.833
  O  O78  1  0.354800  0.003700  0.603100  1.0  -0.8886
  O  O79  1  0.462500  0.755500  0.202000  1.0  -0.9292
  O  O80  1  0.378700  0.818500  0.370100  1.0  -1.0402
  O  O81  1  0.414600  0.007100  0.190400  1.0  -0.7863
  O  O82  1  0.343000  0.807600  0.108500  1.0  -0.851
  O  O83  1  0.029000  0.923700  0.589300  1.0  -0.9091
  O  O84  1  0.868900  0.486200  0.066100  1.0  -0.8626
  O  O85  1  0.840600  0.320500  0.865800  1.0  -0.8298
  O  O86  1  0.759300  0.353200  0.040800  1.0  -0.9831
  O  O87  1  0.871200  0.215200  0.106800  1.0  -0.9756
  O  O88  1  0.921000  0.692100  0.858800  1.0  -0.8262
  O  O89  1  0.918300  0.764200  0.610800  1.0  -0.9473
  O  O90  1  0.027100  0.675200  0.725400  1.0  -0.8171
  O  O91  1  0.938100  0.502700  0.659100  1.0  -0.7795
  O  O92  1  0.517400  0.502500  0.866900  1.0  -0.9787
  O  O93  1  0.582000  0.668000  0.042300  1.0  -0.9098
  O  O94  1  0.593000  0.715400  0.786900  1.0  -0.8324
  O  O95  1  0.645200  0.503700  0.896900  1.0  -0.8873
  O  O96  1  0.537500  0.255500  0.298000  1.0  -0.9284
  O  O97  1  0.621300  0.318500  0.129900  1.0  -1.0379
  O  O98  1  0.585400  0.507100  0.309600  1.0  -0.7864
  O  O99  1  0.657000  0.307600  0.391500  1.0  -0.8513
  O  O100  1  0.971000  0.423700  0.910700  1.0  -0.9104
