# generated using pymatgen
data_FeH8Pt(C3N)6
_symmetry_space_group_name_H-M   'P 1'
_cell_length_a   7.24520000
_cell_length_b   13.97060000
_cell_length_c   16.37790000
_cell_angle_alpha   73.53100000
_cell_angle_beta   83.67800000
_cell_angle_gamma   89.99800000
_symmetry_Int_Tables_number   1
_chemical_formula_structural   FeH8Pt(C3N)6
_chemical_formula_sum   'Fe2 H16 Pt2 C36 N12'
_cell_volume   1579.24130007
_cell_formula_units_Z   2
loop_
 _symmetry_equiv_pos_site_id
 _symmetry_equiv_pos_as_xyz
  1  'x, y, z'
loop_
 _atom_site_type_symbol
 _atom_site_label
 _atom_site_symmetry_multiplicity
 _atom_site_fract_x
 _atom_site_fract_y
 _atom_site_fract_z
 _atom_site_occupancy
 _atom_site_charge
  Fe  Fe1  1  0.000000  0.500000  0.000000  1.0  0.4584
  Fe  Fe2  1  0.000000  0.000000  0.000000  1.0  0.5369
  H  H3  1  0.054400  0.992100  0.820600  1.0  0.0929
  H  H4  1  0.073800  0.096800  0.682700  1.0  0.1243
  H  H5  1  0.008100  0.330400  0.780100  1.0  0.1065
  H  H6  1  0.999700  0.220600  0.915800  1.0  0.0914
  H  H7  1  0.261800  0.501100  0.126500  1.0  0.0907
  H  H8  1  0.267800  0.471800  0.271600  1.0  0.1235
  H  H9  1  0.715200  0.415500  0.303500  1.0  0.1235
  H  H10  1  0.722400  0.453100  0.156200  1.0  0.0877
  H  H11  1  0.945600  0.007900  0.179400  1.0  0.093
  H  H12  1  0.926200  0.903200  0.317300  1.0  0.1244
  H  H13  1  0.991900  0.669600  0.219900  1.0  0.1067
  H  H14  1  0.000300  0.779400  0.084200  1.0  0.0917
  H  H15  1  0.738200  0.498900  0.873500  1.0  0.0904
  H  H16  1  0.732200  0.528200  0.728400  1.0  0.124
  H  H17  1  0.284800  0.584500  0.696500  1.0  0.1237
  H  H18  1  0.277600  0.546900  0.843800  1.0  0.0876
  Pt  Pt19  1  0.493090  0.237530  0.032570  1.0  0.2462
  Pt  Pt20  1  0.506910  0.762470  0.967430  1.0  0.2446
  C  C21  1  0.045000  0.060500  0.812400  1.0  0.1558
  C  C22  1  0.055200  0.122900  0.729200  1.0  -0.1591
  C  C23  1  0.036900  0.225700  0.716400  1.0  0.0469
  C  C24  1  0.017200  0.262200  0.787100  1.0  -0.1396
  C  C25  1  0.011400  0.195700  0.868500  1.0  0.1473
  C  C26  1  0.033400  0.289900  0.630700  1.0  -0.0763
  C  C27  1  0.023900  0.336100  0.557000  1.0  -0.0006
  C  C28  1  0.295300  0.139000  0.033400  1.0  0.1081
  C  C29  1  0.693900  0.336800  0.026600  1.0  0.1319
  C  C30  1  0.304100  0.342700  0.018300  1.0  0.1065
  C  C31  1  0.684200  0.134800  0.037600  1.0  0.0741
  C  C32  1  0.150700  0.484600  0.162300  1.0  0.1555
  C  C33  1  0.156400  0.465800  0.249800  1.0  -0.1847
  C  C34  1  0.992100  0.437700  0.304400  1.0  0.0097
  C  C35  1  0.827300  0.433200  0.268600  1.0  -0.1194
  C  C36  1  0.833000  0.455400  0.179600  1.0  0.1506
  C  C37  1  0.996400  0.410100  0.396200  1.0  -0.0268
  C  C38  1  0.011100  0.379200  0.471400  1.0  -0.0007
  C  C39  1  0.955000  0.939500  0.187600  1.0  0.1575
  C  C40  1  0.944800  0.877100  0.270800  1.0  -0.1627
  C  C41  1  0.963100  0.774300  0.283600  1.0  0.0449
  C  C42  1  0.982800  0.737800  0.212900  1.0  -0.1389
  C  C43  1  0.988600  0.804300  0.131500  1.0  0.1462
  C  C44  1  0.966600  0.710100  0.369300  1.0  -0.0772
  C  C45  1  0.976100  0.663900  0.443000  1.0  1e-04
  C  C46  1  0.704700  0.861000  0.966600  1.0  0.1085
  C  C47  1  0.306100  0.663200  0.973400  1.0  0.13
  C  C48  1  0.695900  0.657300  0.981700  1.0  0.1077
  C  C49  1  0.315800  0.865200  0.962400  1.0  0.0744
  C  C50  1  0.849300  0.515400  0.837700  1.0  0.1562
  C  C51  1  0.843600  0.534200  0.750200  1.0  -0.1857
  C  C52  1  0.007900  0.562300  0.695600  1.0  0.0115
  C  C53  1  0.172700  0.566800  0.731400  1.0  -0.1173
  C  C54  1  0.167000  0.544600  0.820400  1.0  0.1531
  C  C55  1  0.003600  0.589900  0.603800  1.0  -0.0272
  C  C56  1  0.988900  0.620800  0.528600  1.0  1e-04
  N  N57  1  0.022300  0.094300  0.881600  1.0  -0.3136
  N  N58  1  0.181300  0.083700  0.028100  1.0  -0.3502
  N  N59  1  0.811600  0.395200  0.019900  1.0  -0.3414
  N  N60  1  0.193400  0.403000  0.008100  1.0  -0.303
  N  N61  1  0.992500  0.480400  0.125900  1.0  -0.3119
  N  N62  1  0.799000  0.079400  0.031700  1.0  -0.3438
  N  N63  1  0.977700  0.905700  0.118400  1.0  -0.3126
  N  N64  1  0.818700  0.916300  0.971900  1.0  -0.3506
  N  N65  1  0.188400  0.604800  0.980100  1.0  -0.34
  N  N66  1  0.806600  0.597000  0.991900  1.0  -0.3067
  N  N67  1  0.007500  0.519600  0.874100  1.0  -0.311
  N  N68  1  0.201000  0.920600  0.968300  1.0  -0.3437
