# generated using pymatgen
data_FeH8Pt(C3N)6
_symmetry_space_group_name_H-M   'P 1'
_cell_length_a   7.24430000
_cell_length_b   13.81270000
_cell_length_c   15.47460000
_cell_angle_alpha   80.35200000
_cell_angle_beta   87.66900000
_cell_angle_gamma   89.84200000
_symmetry_Int_Tables_number   1
_chemical_formula_structural   FeH8Pt(C3N)6
_chemical_formula_sum   'Fe2 H16 Pt2 C36 N12'
_cell_volume   1525.26292573
_cell_formula_units_Z   2
loop_
 _symmetry_equiv_pos_site_id
 _symmetry_equiv_pos_as_xyz
  1  'x, y, z'
loop_
 _atom_site_type_symbol
 _atom_site_label
 _atom_site_symmetry_multiplicity
 _atom_site_fract_x
 _atom_site_fract_y
 _atom_site_fract_z
 _atom_site_occupancy
 _atom_site_charge
  Fe  Fe1  1  0.500000  0.500000  0.500000  1.0  0.5506
  Fe  Fe2  1  0.500000  0.000000  0.500000  1.0  0.4135
  H  H3  1  0.518200  0.486100  0.309100  1.0  0.1026
  H  H4  1  0.520200  0.584400  0.176200  1.0  0.1243
  H  H5  1  0.506000  0.819400  0.299300  1.0  0.0999
  H  H6  1  0.501500  0.715200  0.430500  1.0  0.0895
  H  H7  1  0.766900  0.994400  0.641600  1.0  0.0845
  H  H8  1  0.770700  0.961500  0.792000  1.0  0.1165
  H  H9  1  0.217000  0.957900  0.801400  1.0  0.1203
  H  H10  1  0.225500  0.994300  0.649300  1.0  0.0937
  H  H11  1  0.481800  0.513900  0.690900  1.0  0.1037
  H  H12  1  0.479800  0.415600  0.823800  1.0  0.1241
  H  H13  1  0.494000  0.180600  0.700700  1.0  0.0991
  H  H14  1  0.498500  0.284800  0.569500  1.0  0.0899
  H  H15  1  0.233100  0.005600  0.358400  1.0  0.0845
  H  H16  1  0.229300  0.038500  0.208000  1.0  0.1163
  H  H17  1  0.783000  0.042100  0.198600  1.0  0.1195
  H  H18  1  0.774500  0.005700  0.350700  1.0  0.0937
  Pt  Pt19  1  0.002880  0.260610  0.462870  1.0  0.2198
  Pt  Pt20  1  0.997120  0.739390  0.537130  1.0  0.2203
  C  C21  1  0.514700  0.553800  0.306800  1.0  0.1557
  C  C22  1  0.516300  0.612200  0.227000  1.0  -0.1501
  C  C23  1  0.512100  0.714900  0.221400  1.0  0.0411
  C  C24  1  0.507500  0.751900  0.300200  1.0  -0.1206
  C  C25  1  0.505200  0.689000  0.378800  1.0  0.1732
  C  C26  1  0.511000  0.778300  0.137500  1.0  -0.1172
  C  C27  1  0.507500  0.826100  0.066000  1.0  0.0117
  C  C28  1  0.501500  0.876300  0.981500  1.0  -0.0095
  C  C29  1  0.808200  0.363200  0.454900  1.0  0.0478
  C  C30  1  0.655200  0.985500  0.673800  1.0  0.152
  C  C31  1  0.658700  0.965000  0.764300  1.0  -0.1695
  C  C32  1  0.493500  0.949700  0.813600  1.0  0.0265
  C  C33  1  0.329800  0.963200  0.770000  1.0  -0.1299
  C  C34  1  0.335900  0.985100  0.678100  1.0  0.1505
  C  C35  1  0.497100  0.915100  0.906600  1.0  0.0275
  C  C36  1  0.196600  0.158000  0.479900  1.0  0.1292
  C  C37  1  0.805500  0.158500  0.477200  1.0  0.129
  C  C38  1  0.196500  0.362800  0.457000  1.0  0.0514
  C  C39  1  0.485300  0.446200  0.693200  1.0  0.1557
  C  C40  1  0.483700  0.387800  0.773000  1.0  -0.1523
  C  C41  1  0.487900  0.285100  0.778600  1.0  0.0393
  C  C42  1  0.492500  0.248100  0.699800  1.0  -0.1184
  C  C43  1  0.494800  0.311000  0.621200  1.0  0.1726
  C  C44  1  0.489000  0.221700  0.862500  1.0  -0.1161
  C  C45  1  0.492500  0.173900  0.934000  1.0  0.0128
  C  C46  1  0.498500  0.123700  0.018500  1.0  -0.0092
  C  C47  1  0.191800  0.636800  0.545100  1.0  0.0481
  C  C48  1  0.344800  0.014500  0.326200  1.0  0.1514
  C  C49  1  0.341300  0.035000  0.235700  1.0  -0.1712
  C  C50  1  0.506500  0.050300  0.186400  1.0  0.0287
  C  C51  1  0.670200  0.036800  0.230000  1.0  -0.1272
  C  C52  1  0.664100  0.014900  0.321900  1.0  0.1503
  C  C53  1  0.502900  0.084900  0.093400  1.0  0.0247
  C  C54  1  0.803400  0.842000  0.520100  1.0  0.128
  C  C55  1  0.194500  0.841500  0.522800  1.0  0.1316
  C  C56  1  0.803500  0.637200  0.543000  1.0  0.0505
  N  N57  1  0.508200  0.589500  0.384000  1.0  -0.3151
  N  N58  1  0.693700  0.418900  0.461000  1.0  -0.3435
  N  N59  1  0.311000  0.099900  0.489900  1.0  -0.3083
  N  N60  1  0.689900  0.100500  0.486100  1.0  -0.2931
  N  N61  1  0.496700  0.993200  0.630000  1.0  -0.305
  N  N62  1  0.312500  0.418500  0.462500  1.0  -0.3674
  N  N63  1  0.491800  0.410500  0.616000  1.0  -0.3154
  N  N64  1  0.306300  0.581100  0.539000  1.0  -0.3451
  N  N65  1  0.689000  0.900100  0.510100  1.0  -0.304
  N  N66  1  0.310100  0.899500  0.513900  1.0  -0.2958
  N  N67  1  0.503300  0.006800  0.370000  1.0  -0.3033
  N  N68  1  0.687500  0.581500  0.537500  1.0  -0.3684
