# generated using pymatgen
data_FePt(C3N)6
_symmetry_space_group_name_H-M   'P 1'
_cell_length_a   7.48720000
_cell_length_b   14.30240000
_cell_length_c   15.02030000
_cell_angle_alpha   86.39300000
_cell_angle_beta   84.50200000
_cell_angle_gamma   89.93600000
_symmetry_Int_Tables_number   1
_chemical_formula_structural   FePt(C3N)6
_chemical_formula_sum   'Fe2 Pt2 C36 N12'
_cell_volume   1597.85705003
_cell_formula_units_Z   2
loop_
 _symmetry_equiv_pos_site_id
 _symmetry_equiv_pos_as_xyz
  1  'x, y, z'
loop_
 _atom_site_type_symbol
 _atom_site_label
 _atom_site_symmetry_multiplicity
 _atom_site_fract_x
 _atom_site_fract_y
 _atom_site_fract_z
 _atom_site_occupancy
 _atom_site_charge
  Fe  Fe1  1  0.500000  0.500000  0.500000  1.0  0.8185
  Fe  Fe2  1  0.500000  0.000000  0.500000  1.0  0.6079
  Pt  Pt3  1  0.006810  0.258910  0.462300  1.0  0.1221
  Pt  Pt4  1  0.993190  0.741090  0.537700  1.0  0.1211
  C  C5  1  0.532000  0.552700  0.292400  1.0  -0.0094
  C  C6  1  0.535000  0.613400  0.218100  1.0  0.0393
  C  C7  1  0.525000  0.710100  0.221000  1.0  0.2323
  C  C8  1  0.524000  0.747000  0.303500  1.0  -0.0118
  C  C9  1  0.517000  0.686800  0.379800  1.0  0.1491
  C  C10  1  0.528000  0.766000  0.141900  1.0  -0.0283
  C  C11  1  0.514000  0.814800  0.070900  1.0  -0.0222
  C  C12  1  0.497000  0.868000  0.996400  1.0  0.1621
  C  C13  1  0.822500  0.357300  0.445600  1.0  0.0271
  C  C14  1  0.638000  0.990800  0.688900  1.0  0.1297
  C  C15  1  0.636000  0.966200  0.780500  1.0  0.076
  C  C16  1  0.487000  0.952000  0.831000  1.0  0.4259
  C  C17  1  0.337000  0.959400  0.795800  1.0  0.0276
  C  C18  1  0.330000  0.991500  0.700800  1.0  0.0181
  C  C19  1  0.493000  0.911000  0.925000  1.0  0.0132
  C  C20  1  0.192600  0.162600  0.483900  1.0  0.1168
  C  C21  1  0.813500  0.162500  0.479600  1.0  0.1546
  C  C22  1  0.197900  0.357100  0.448500  1.0  0.0393
  C  C23  1  0.468000  0.447300  0.707600  1.0  -0.008
  C  C24  1  0.465000  0.386600  0.781900  1.0  0.0384
  C  C25  1  0.475000  0.289900  0.779000  1.0  0.233
  C  C26  1  0.476000  0.253000  0.696500  1.0  -0.0099
  C  C27  1  0.483000  0.313200  0.620200  1.0  0.1498
  C  C28  1  0.472000  0.234000  0.858100  1.0  -0.0277
  C  C29  1  0.486000  0.185200  0.929100  1.0  -0.0253
  C  C30  1  0.503000  0.132000  0.003600  1.0  0.1626
  C  C31  1  0.177500  0.642700  0.554400  1.0  0.0269
  C  C32  1  0.362000  0.009200  0.311100  1.0  0.1321
  C  C33  1  0.364000  0.033800  0.219500  1.0  0.0749
  C  C34  1  0.513000  0.048000  0.169000  1.0  0.4278
  C  C35  1  0.663000  0.040600  0.204200  1.0  0.0332
  C  C36  1  0.670000  0.008500  0.299200  1.0  0.0172
  C  C37  1  0.507000  0.089000  0.075000  1.0  0.0136
  C  C38  1  0.807400  0.837400  0.516100  1.0  0.116
  C  C39  1  0.186500  0.837500  0.520400  1.0  0.1548
  C  C40  1  0.802100  0.642900  0.551500  1.0  0.0376
  N  N41  1  0.518600  0.594100  0.377900  1.0  -0.3146
  N  N42  1  0.716600  0.414700  0.443600  1.0  -0.473
  N  N43  1  0.488000  0.000700  0.649000  1.0  -0.2699
  N  N44  1  0.295300  0.106500  0.496900  1.0  -0.4308
  N  N45  1  0.706000  0.105400  0.487100  1.0  -0.4269
  N  N46  1  0.306300  0.413300  0.448400  1.0  -0.4635
  N  N47  1  0.481400  0.405900  0.622100  1.0  -0.3162
  N  N48  1  0.283400  0.585300  0.556400  1.0  -0.4711
  N  N49  1  0.512000  0.999300  0.351000  1.0  -0.2697
  N  N50  1  0.704700  0.893500  0.503100  1.0  -0.4316
  N  N51  1  0.294000  0.894600  0.512900  1.0  -0.4248
  N  N52  1  0.693700  0.586700  0.551600  1.0  -0.464
