# generated using pymatgen
data_FeH8Pt(C3N)6
_symmetry_space_group_name_H-M   'P 1'
_cell_length_a   7.36350000
_cell_length_b   14.11120000
_cell_length_c   16.39060000
_cell_angle_alpha   74.66300000
_cell_angle_beta   82.34900000
_cell_angle_gamma   89.87800000
_symmetry_Int_Tables_number   1
_chemical_formula_structural   FeH8Pt(C3N)6
_chemical_formula_sum   'Fe2 H16 Pt2 C36 N12'
_cell_volume   1626.86065595
_cell_formula_units_Z   2
loop_
 _symmetry_equiv_pos_site_id
 _symmetry_equiv_pos_as_xyz
  1  'x, y, z'
loop_
 _atom_site_type_symbol
 _atom_site_label
 _atom_site_symmetry_multiplicity
 _atom_site_fract_x
 _atom_site_fract_y
 _atom_site_fract_z
 _atom_site_occupancy
 _atom_site_charge
  Fe  Fe1  1  0.000000  0.500000  0.000000  1.0  0.4261
  Fe  Fe2  1  0.000000  0.000000  0.000000  1.0  0.5153
  H  H3  1  0.052800  0.994100  0.820200  1.0  0.0982
  H  H4  1  0.063800  0.096100  0.685400  1.0  0.1317
  H  H5  1  0.005100  0.323800  0.787800  1.0  0.1068
  H  H6  1  0.998200  0.216400  0.920200  1.0  0.0861
  H  H7  1  0.252300  0.516000  0.136000  1.0  0.0786
  H  H8  1  0.259400  0.483500  0.279700  1.0  0.1252
  H  H9  1  0.727400  0.401700  0.317800  1.0  0.1332
  H  H10  1  0.735700  0.439300  0.172300  1.0  0.0849
  H  H11  1  0.947200  0.005900  0.179800  1.0  0.0984
  H  H12  1  0.936200  0.903900  0.314600  1.0  0.1321
  H  H13  1  0.994900  0.676200  0.212200  1.0  0.1069
  H  H14  1  0.001800  0.783600  0.079800  1.0  0.0863
  H  H15  1  0.747700  0.484000  0.864000  1.0  0.0787
  H  H16  1  0.740600  0.516500  0.720300  1.0  0.126
  H  H17  1  0.272600  0.598300  0.682200  1.0  0.1331
  H  H18  1  0.264300  0.560700  0.827700  1.0  0.0847
  Pt  Pt19  1  0.491720  0.228370  0.034500  1.0  0.222
  Pt  Pt20  1  0.508280  0.771630  0.965500  1.0  0.2211
  C  C21  1  0.042100  0.061270  0.813650  1.0  0.1776
  C  C22  1  0.048500  0.122100  0.732350  1.0  -0.1649
  C  C23  1  0.031800  0.222500  0.720960  1.0  0.0678
  C  C24  1  0.014100  0.256800  0.793000  1.0  -0.1337
  C  C25  1  0.009700  0.191840  0.872540  1.0  0.1779
  C  C26  1  0.028800  0.286300  0.637010  1.0  -0.0109
  C  C27  1  0.021000  0.331900  0.565280  1.0  -0.0022
  C  C28  1  0.294200  0.132610  0.035150  1.0  0.0725
  C  C29  1  0.686100  0.325950  0.029870  1.0  0.182
  C  C30  1  0.313200  0.334410  0.016200  1.0  0.1208
  C  C31  1  0.680200  0.126740  0.042470  1.0  0.0502
  C  C32  1  0.145400  0.492700  0.173070  1.0  0.1656
  C  C33  1  0.151200  0.472900  0.259480  1.0  -0.1689
  C  C34  1  0.994000  0.437100  0.316130  1.0  0.0363
  C  C35  1  0.836200  0.424800  0.282150  1.0  -0.174
  C  C36  1  0.842800  0.447400  0.194440  1.0  0.1829
  C  C37  1  0.998400  0.408600  0.406900  1.0  -0.0515
  C  C38  1  0.008400  0.376900  0.480720  1.0  0.085
  C  C39  1  0.957900  0.938730  0.186350  1.0  0.1781
  C  C40  1  0.951500  0.877900  0.267650  1.0  -0.1678
  C  C41  1  0.968200  0.777500  0.279040  1.0  0.0704
  C  C42  1  0.985900  0.743200  0.207000  1.0  -0.1354
  C  C43  1  0.990300  0.808160  0.127460  1.0  0.1774
  C  C44  1  0.971200  0.713700  0.362990  1.0  -0.0093
  C  C45  1  0.979000  0.668100  0.434720  1.0  -0.0022
  C  C46  1  0.705800  0.867390  0.964850  1.0  0.0742
  C  C47  1  0.313900  0.674050  0.970130  1.0  0.1803
  C  C48  1  0.686800  0.665590  0.983800  1.0  0.1197
  C  C49  1  0.319800  0.873260  0.957530  1.0  0.0494
  C  C50  1  0.854600  0.507300  0.826930  1.0  0.1662
  C  C51  1  0.848800  0.527100  0.740520  1.0  -0.1698
  C  C52  1  0.006000  0.562900  0.683870  1.0  0.0381
  C  C53  1  0.163800  0.575200  0.717850  1.0  -0.1729
  C  C54  1  0.157200  0.552600  0.805560  1.0  0.1838
  C  C55  1  0.001600  0.591400  0.593100  1.0  -0.0542
  C  C56  1  0.991600  0.623100  0.519280  1.0  0.0853
  N  N57  1  0.021300  0.094240  0.883850  1.0  -0.3383
  N  N58  1  0.178900  0.081260  0.029150  1.0  -0.3233
  N  N59  1  0.799200  0.384470  0.024520  1.0  -0.4335
  N  N60  1  0.210800  0.396210  0.004160  1.0  -0.3965
  N  N61  1  0.994600  0.480170  0.139800  1.0  -0.3234
  N  N62  1  0.798600  0.075000  0.035870  1.0  -0.3372
  N  N63  1  0.978700  0.905760  0.116150  1.0  -0.3377
  N  N64  1  0.821100  0.918740  0.970850  1.0  -0.3199
  N  N65  1  0.200800  0.615530  0.975480  1.0  -0.4348
  N  N66  1  0.789200  0.603790  0.995840  1.0  -0.3952
  N  N67  1  0.005400  0.519830  0.860200  1.0  -0.3243
  N  N68  1  0.201400  0.925000  0.964130  1.0  -0.3352
