# generated using pymatgen
data_FeH8Pt(C3N)6
_symmetry_space_group_name_H-M   'P 1'
_cell_length_a   7.51740000
_cell_length_b   14.36760000
_cell_length_c   16.35000000
_cell_angle_alpha   76.83100000
_cell_angle_beta   84.28200000
_cell_angle_gamma   89.96500000
_symmetry_Int_Tables_number   1
_chemical_formula_structural   FeH8Pt(C3N)6
_chemical_formula_sum   'Fe2 H16 Pt2 C36 N12'
_cell_volume   1710.47468750
_cell_formula_units_Z   2
loop_
 _symmetry_equiv_pos_site_id
 _symmetry_equiv_pos_as_xyz
  1  'x, y, z'
loop_
 _atom_site_type_symbol
 _atom_site_label
 _atom_site_symmetry_multiplicity
 _atom_site_fract_x
 _atom_site_fract_y
 _atom_site_fract_z
 _atom_site_occupancy
 _atom_site_charge
  Fe  Fe1  1  0.000000  0.500000  0.000000  1.0  0.6442
  Fe  Fe2  1  0.000000  0.000000  0.000000  1.0  0.746
  H  H3  1  0.053800  0.000200  0.814500  1.0  0.1044
  H  H4  1  0.074400  0.103400  0.680200  1.0  0.1093
  H  H5  1  0.005700  0.326900  0.789000  1.0  0.1049
  H  H6  1  0.991200  0.220900  0.917000  1.0  0.0818
  H  H7  1  0.252500  0.506500  0.136500  1.0  0.0929
  H  H8  1  0.258000  0.475400  0.285400  1.0  0.1234
  H  H9  1  0.729300  0.416900  0.311300  1.0  0.1039
  H  H10  1  0.732500  0.447100  0.163500  1.0  0.0934
  H  H11  1  0.946200  0.999800  0.185500  1.0  0.1039
  H  H12  1  0.925600  0.896600  0.319800  1.0  0.1084
  H  H13  1  0.994300  0.673100  0.211000  1.0  0.105
  H  H14  1  0.008800  0.779100  0.083000  1.0  0.0824
  H  H15  1  0.747500  0.493500  0.863500  1.0  0.092
  H  H16  1  0.742000  0.524600  0.714600  1.0  0.124
  H  H17  1  0.270700  0.583100  0.688700  1.0  0.1045
  H  H18  1  0.267500  0.552900  0.836500  1.0  0.0932
  Pt  Pt19  1  0.493650  0.238900  0.032560  1.0  0.2581
  Pt  Pt20  1  0.506350  0.761100  0.967440  1.0  0.2574
  C  C21  1  0.043000  0.065700  0.809200  1.0  0.1102
  C  C22  1  0.053000  0.128300  0.727900  1.0  -0.0948
  C  C23  1  0.030000  0.228500  0.718300  1.0  0.0153
  C  C24  1  0.013000  0.261700  0.791600  1.0  -0.1458
  C  C25  1  0.006000  0.197600  0.868200  1.0  0.1505
  C  C26  1  0.031000  0.293000  0.635100  1.0  0.0414
  C  C27  1  0.016000  0.334000  0.563400  1.0  -0.0641
  C  C28  1  0.301000  0.142200  0.037500  1.0  0.099
  C  C29  1  0.688000  0.336400  0.025900  1.0  0.1171
  C  C30  1  0.310000  0.340600  0.018100  1.0  0.1195
  C  C31  1  0.680000  0.138300  0.041200  1.0  0.0646
  C  C32  1  0.148000  0.487000  0.171900  1.0  0.1254
  C  C33  1  0.153000  0.468000  0.261700  1.0  -0.1357
  C  C34  1  0.990000  0.436000  0.313200  1.0  0.0418
  C  C35  1  0.837000  0.432000  0.277300  1.0  -0.1189
  C  C36  1  0.838000  0.451000  0.187500  1.0  0.1376
  C  C37  1  0.995000  0.407000  0.404500  1.0  -0.0257
  C  C38  1  0.006000  0.381400  0.477700  1.0  0.0813
  C  C39  1  0.957000  0.934300  0.190800  1.0  0.112
  C  C40  1  0.947000  0.871700  0.272100  1.0  -0.0943
  C  C41  1  0.970000  0.771500  0.281700  1.0  0.014
  C  C42  1  0.987000  0.738300  0.208400  1.0  -0.1454
  C  C43  1  0.994000  0.802400  0.131800  1.0  0.1505
  C  C44  1  0.969000  0.707000  0.364900  1.0  0.0435
  C  C45  1  0.984000  0.666000  0.436600  1.0  -0.0636
  C  C46  1  0.699000  0.857800  0.962500  1.0  0.1006
  C  C47  1  0.312000  0.663600  0.974100  1.0  0.1162
  C  C48  1  0.690000  0.659400  0.981900  1.0  0.1208
  C  C49  1  0.320000  0.861700  0.958800  1.0  0.0644
  C  C50  1  0.852000  0.513000  0.828100  1.0  0.1275
  C  C51  1  0.847000  0.532000  0.738300  1.0  -0.1374
  C  C52  1  0.010000  0.564000  0.686800  1.0  0.0429
  C  C53  1  0.163000  0.568000  0.722700  1.0  -0.117
  C  C54  1  0.162000  0.549000  0.812500  1.0  0.1378
  C  C55  1  0.005000  0.593000  0.595500  1.0  -0.0285
  C  C56  1  0.994000  0.618600  0.522300  1.0  0.0819
  N  N57  1  0.020000  0.100400  0.876200  1.0  -0.3406
  N  N58  1  0.191000  0.086500  0.035300  1.0  -0.4396
  N  N59  1  0.799000  0.390700  0.020100  1.0  -0.3626
  N  N60  1  0.204000  0.397900  0.007000  1.0  -0.4128
  N  N61  1  0.993000  0.476000  0.137400  1.0  -0.3195
  N  N62  1  0.788000  0.082300  0.038700  1.0  -0.4128
  N  N63  1  0.980000  0.899600  0.123800  1.0  -0.3419
  N  N64  1  0.809000  0.913500  0.964700  1.0  -0.4397
  N  N65  1  0.201000  0.609300  0.979900  1.0  -0.3613
  N  N66  1  0.796000  0.602100  0.993000  1.0  -0.4135
  N  N67  1  0.007000  0.524000  0.862600  1.0  -0.3189
  N  N68  1  0.212000  0.917700  0.961300  1.0  -0.4143
