# generated using pymatgen
data_Zn2H6C12O7
_symmetry_space_group_name_H-M   'P 1'
_cell_length_a   14.46690000
_cell_length_b   17.04600000
_cell_length_c   18.02000000
_cell_angle_alpha   90.00000000
_cell_angle_beta   90.00000000
_cell_angle_gamma   90.00000000
_symmetry_Int_Tables_number   1
_chemical_formula_structural   Zn2H6C12O7
_chemical_formula_sum   'Zn16 H48 C96 O56'
_cell_volume   4443.78204875
_cell_formula_units_Z   8
loop_
 _symmetry_equiv_pos_site_id
 _symmetry_equiv_pos_as_xyz
  1  'x, y, z'
loop_
 _atom_site_type_symbol
 _atom_site_label
 _atom_site_symmetry_multiplicity
 _atom_site_fract_x
 _atom_site_fract_y
 _atom_site_fract_z
 _atom_site_occupancy
 _atom_site_charge
  Zn  Zn1  1  0.846440  0.944730  0.601660  1.0  1.026
  Zn  Zn2  1  0.053990  0.936390  0.546670  1.0  1.1247
  Zn  Zn3  1  0.153560  0.444730  0.898340  1.0  1.0253
  Zn  Zn4  1  0.946010  0.436390  0.953330  1.0  1.1253
  Zn  Zn5  1  0.153560  0.055270  0.398340  1.0  1.0254
  Zn  Zn6  1  0.946010  0.063610  0.453330  1.0  1.1246
  Zn  Zn7  1  0.846440  0.555270  0.101660  1.0  1.0262
  Zn  Zn8  1  0.053990  0.563610  0.046670  1.0  1.1244
  Zn  Zn9  1  0.653560  0.055270  0.101660  1.0  1.0254
  Zn  Zn10  1  0.446010  0.063610  0.046670  1.0  1.124
  Zn  Zn11  1  0.346440  0.555270  0.398340  1.0  1.0261
  Zn  Zn12  1  0.553990  0.563610  0.453330  1.0  1.1248
  Zn  Zn13  1  0.346440  0.944730  0.898340  1.0  1.0259
  Zn  Zn14  1  0.553990  0.936390  0.953330  1.0  1.1257
  Zn  Zn15  1  0.653560  0.444730  0.601660  1.0  1.0253
  Zn  Zn16  1  0.446010  0.436390  0.546670  1.0  1.1243
  H  H17  1  0.133400  0.121200  0.693900  1.0  0.1097
  H  H18  1  0.163800  0.230400  0.766000  1.0  0.11
  H  H19  1  0.909100  0.220200  0.847100  1.0  0.1012
  H  H20  1  0.877400  0.111100  0.779200  1.0  0.117
  H  H21  1  0.578800  0.064600  0.592300  1.0  0.0998
  H  H22  1  0.563100  0.892000  0.444300  1.0  0.0919
  H  H23  1  0.866600  0.621200  0.806100  1.0  0.1098
  H  H24  1  0.836200  0.730400  0.734000  1.0  0.11
  H  H25  1  0.090900  0.720200  0.652900  1.0  0.1017
  H  H26  1  0.122600  0.611100  0.720800  1.0  0.1169
  H  H27  1  0.421200  0.564600  0.907700  1.0  0.1001
  H  H28  1  0.436900  0.392000  0.055700  1.0  0.0914
  H  H29  1  0.866600  0.878800  0.306100  1.0  0.1093
  H  H30  1  0.836200  0.769600  0.234000  1.0  0.1103
  H  H31  1  0.090900  0.779800  0.152900  1.0  0.1015
  H  H32  1  0.122600  0.888900  0.220800  1.0  0.1168
  H  H33  1  0.421200  0.935400  0.407700  1.0  0.1001
  H  H34  1  0.436900  0.108000  0.555700  1.0  0.0913
  H  H35  1  0.133400  0.378800  0.193900  1.0  0.1096
  H  H36  1  0.163800  0.269600  0.266000  1.0  0.1096
  H  H37  1  0.909100  0.279800  0.347100  1.0  0.1017
  H  H38  1  0.877400  0.388900  0.279200  1.0  0.1169
  H  H39  1  0.578800  0.435400  0.092300  1.0  0.0999
  H  H40  1  0.563100  0.608000  0.944300  1.0  0.0913
  H  H41  1  0.366600  0.878800  0.193900  1.0  0.1093
  H  H42  1  0.336200  0.769600  0.266000  1.0  0.1101
  H  H43  1  0.590900  0.779800  0.347100  1.0  0.1016
  H  H44  1  0.622600  0.888900  0.279200  1.0  0.1169
  H  H45  1  0.921200  0.935400  0.092300  1.0  0.1
  H  H46  1  0.936900  0.108000  0.944300  1.0  0.0917
  H  H47  1  0.633400  0.378800  0.306100  1.0  0.1096
  H  H48  1  0.663800  0.269600  0.234000  1.0  0.1099
  H  H49  1  0.409100  0.279800  0.152900  1.0  0.1015
  H  H50  1  0.377400  0.388900  0.220800  1.0  0.1168
  H  H51  1  0.078800  0.435400  0.407700  1.0  0.1
  H  H52  1  0.063100  0.608000  0.555700  1.0  0.0913
  H  H53  1  0.633400  0.121200  0.806100  1.0  0.11
  H  H54  1  0.663800  0.230400  0.734000  1.0  0.1098
  H  H55  1  0.409100  0.220200  0.652900  1.0  0.1013
  H  H56  1  0.377400  0.111100  0.720800  1.0  0.1171
  H  H57  1  0.078800  0.064600  0.907700  1.0  0.1001
  H  H58  1  0.063100  0.892000  0.055700  1.0  0.0915
  H  H59  1  0.366600  0.621200  0.693900  1.0  0.1095
  H  H60  1  0.336200  0.730400  0.766000  1.0  0.1101
  H  H61  1  0.590900  0.720200  0.847100  1.0  0.1015
  H  H62  1  0.622600  0.611100  0.779200  1.0  0.1169
  H  H63  1  0.921200  0.564600  0.592300  1.0  0.0998
  H  H64  1  0.936900  0.392000  0.444300  1.0  0.0919
  C  C65  1  0.980800  0.035400  0.677900  1.0  0.6919
  C  C66  1  0.001600  0.104100  0.727600  1.0  -0.1161
  C  C67  1  0.087600  0.141100  0.724800  1.0  -0.0535
  C  C68  1  0.105700  0.207200  0.767600  1.0  -0.042
  C  C69  1  0.038400  0.238200  0.812000  1.0  -0.1305
  C  C70  1  0.954400  0.200300  0.815700  1.0  -0.0443
  C  C71  1  0.935000  0.135000  0.775200  1.0  -0.0612
  C  C72  1  0.053100  0.311100  0.855000  1.0  0.7279
  C  C73  1  0.681300  0.943700  0.543800  1.0  0.6286
  C  C74  1  0.586800  0.973300  0.522700  1.0  -0.1085
  C  C75  1  0.547400  0.038000  0.554900  1.0  -0.0458
  C  C76  1  0.537700  0.935900  0.467200  1.0  -0.0423
  C  C77  1  0.019200  0.535400  0.822100  1.0  0.6921
  C  C78  1  0.998400  0.604100  0.772400  1.0  -0.1145
  C  C79  1  0.912400  0.641100  0.775200  1.0  -0.0551
  C  C80  1  0.894300  0.707200  0.732400  1.0  -0.0439
  C  C81  1  0.961600  0.738200  0.688000  1.0  -0.1297
  C  C82  1  0.045600  0.700300  0.684300  1.0  -0.044
  C  C83  1  0.065000  0.635000  0.724800  1.0  -0.0614
  C  C84  1  0.946900  0.811100  0.645000  1.0  0.7281
  C  C85  1  0.318700  0.443700  0.956200  1.0  0.6291
  C  C86  1  0.413200  0.473300  0.977300  1.0  -0.1081
  C  C87  1  0.452600  0.538000  0.945100  1.0  -0.0448
  C  C88  1  0.462300  0.435900  0.032800  1.0  -0.0423
  C  C89  1  0.019200  0.964600  0.322100  1.0  0.6918
  C  C90  1  0.998400  0.895900  0.272400  1.0  -0.115
  C  C91  1  0.912400  0.858900  0.275200  1.0  -0.0555
  C  C92  1  0.894300  0.792800  0.232400  1.0  -0.0425
  C  C93  1  0.961600  0.761800  0.188000  1.0  -0.1302
  C  C94  1  0.045600  0.799700  0.184300  1.0  -0.0437
  C  C95  1  0.065000  0.865000  0.224800  1.0  -0.0612
  C  C96  1  0.946900  0.688900  0.145000  1.0  0.7275
  C  C97  1  0.318700  0.056300  0.456200  1.0  0.629
  C  C98  1  0.413200  0.026700  0.477300  1.0  -0.1075
  C  C99  1  0.452600  0.962000  0.445100  1.0  -0.0451
  C  C100  1  0.462300  0.064100  0.532800  1.0  -0.0427
  C  C101  1  0.980800  0.464600  0.177900  1.0  0.6917
  C  C102  1  0.001600  0.395900  0.227600  1.0  -0.1154
  C  C103  1  0.087600  0.358900  0.224800  1.0  -0.0548
  C  C104  1  0.105700  0.292800  0.267600  1.0  -0.0422
  C  C105  1  0.038400  0.261800  0.312000  1.0  -0.1311
  C  C106  1  0.954400  0.299700  0.315700  1.0  -0.0437
  C  C107  1  0.935000  0.365000  0.275200  1.0  -0.0617
  C  C108  1  0.053100  0.188900  0.355000  1.0  0.7281
  C  C109  1  0.681300  0.556300  0.043800  1.0  0.6287
  C  C110  1  0.586800  0.526700  0.022700  1.0  -0.1084
  C  C111  1  0.547400  0.462000  0.054900  1.0  -0.0456
  C  C112  1  0.537700  0.564100  0.967200  1.0  -0.0425
  C  C113  1  0.519200  0.964600  0.177900  1.0  0.6917
  C  C114  1  0.498400  0.895900  0.227600  1.0  -0.1151
  C  C115  1  0.412400  0.858900  0.224800  1.0  -0.055
  C  C116  1  0.394300  0.792800  0.267600  1.0  -0.0429
  C  C117  1  0.461600  0.761800  0.312000  1.0  -0.13
  C  C118  1  0.545600  0.799700  0.315700  1.0  -0.0437
  C  C119  1  0.565000  0.865000  0.275200  1.0  -0.0615
  C  C120  1  0.446900  0.688900  0.355000  1.0  0.7276
  C  C121  1  0.818700  0.056300  0.043800  1.0  0.629
  C  C122  1  0.913200  0.026700  0.022700  1.0  -0.1077
  C  C123  1  0.952600  0.962000  0.054900  1.0  -0.0456
  C  C124  1  0.962300  0.064100  0.967200  1.0  -0.0432
  C  C125  1  0.480800  0.464600  0.322100  1.0  0.6918
  C  C126  1  0.501600  0.395900  0.272400  1.0  -0.1152
  C  C127  1  0.587600  0.358900  0.275200  1.0  -0.0539
  C  C128  1  0.605700  0.292800  0.232400  1.0  -0.0418
  C  C129  1  0.538400  0.261800  0.188000  1.0  -0.1312
  C  C130  1  0.454400  0.299700  0.184300  1.0  -0.0438
  C  C131  1  0.435000  0.365000  0.224800  1.0  -0.061
  C  C132  1  0.553100  0.188900  0.145000  1.0  0.728
  C  C133  1  0.181300  0.556300  0.456200  1.0  0.6286
  C  C134  1  0.086800  0.526700  0.477300  1.0  -0.1078
  C  C135  1  0.047400  0.462000  0.445100  1.0  -0.045
  C  C136  1  0.037700  0.564100  0.532800  1.0  -0.0424
  C  C137  1  0.480800  0.035400  0.822100  1.0  0.6921
  C  C138  1  0.501600  0.104100  0.772400  1.0  -0.1145
  C  C139  1  0.587600  0.141100  0.775200  1.0  -0.0533
  C  C140  1  0.605700  0.207200  0.732400  1.0  -0.0423
  C  C141  1  0.538400  0.238200  0.688000  1.0  -0.1305
  C  C142  1  0.454400  0.200300  0.684300  1.0  -0.044
  C  C143  1  0.435000  0.135000  0.724800  1.0  -0.0608
  C  C144  1  0.553100  0.311100  0.645000  1.0  0.7285
  C  C145  1  0.181300  0.943700  0.956200  1.0  0.6283
  C  C146  1  0.086800  0.973300  0.977300  1.0  -0.1081
  C  C147  1  0.047400  0.038000  0.945100  1.0  -0.0449
  C  C148  1  0.037700  0.935900  0.032800  1.0  -0.0418
  C  C149  1  0.519200  0.535400  0.677900  1.0  0.6919
  C  C150  1  0.498400  0.604100  0.727600  1.0  -0.1158
  C  C151  1  0.412400  0.641100  0.724800  1.0  -0.0539
  C  C152  1  0.394300  0.707200  0.767600  1.0  -0.0438
  C  C153  1  0.461600  0.738200  0.812000  1.0  -0.1297
  C  C154  1  0.545600  0.700300  0.815700  1.0  -0.0444
  C  C155  1  0.565000  0.635000  0.775200  1.0  -0.0614
  C  C156  1  0.446900  0.811100  0.855000  1.0  0.7276
  C  C157  1  0.818700  0.443700  0.543800  1.0  0.6293
  C  C158  1  0.913200  0.473300  0.522700  1.0  -0.1081
  C  C159  1  0.952600  0.538000  0.554900  1.0  -0.0457
  C  C160  1  0.962300  0.435900  0.467200  1.0  -0.0427
  O  O161  1  0.918000  0.961500  0.511100  1.0  -0.7945
  O  O162  1  0.898000  0.011900  0.680300  1.0  -0.5669
  O  O163  1  0.044300  0.009900  0.638600  1.0  -0.5927
  O  O164  1  0.987900  0.338900  0.890300  1.0  -0.6346
  O  O165  1  0.134600  0.340600  0.853400  1.0  -0.5859
  O  O166  1  0.719900  0.980100  0.597500  1.0  -0.5624
  O  O167  1  0.717100  0.889700  0.509800  1.0  -0.447
  O  O168  1  0.082000  0.461500  0.988900  1.0  -0.7956
  O  O169  1  0.102000  0.511900  0.819700  1.0  -0.5667
  O  O170  1  0.955700  0.509900  0.861400  1.0  -0.5927
  O  O171  1  0.012100  0.838900  0.609700  1.0  -0.635
  O  O172  1  0.865400  0.840600  0.646600  1.0  -0.586
  O  O173  1  0.280100  0.480100  0.902500  1.0  -0.5624
  O  O174  1  0.282900  0.389700  0.990200  1.0  -0.4475
  O  O175  1  0.082000  0.038500  0.488900  1.0  -0.7954
  O  O176  1  0.102000  0.988100  0.319700  1.0  -0.5672
  O  O177  1  0.955700  0.990100  0.361400  1.0  -0.5931
  O  O178  1  0.012100  0.661100  0.109700  1.0  -0.6348
  O  O179  1  0.865400  0.659400  0.146600  1.0  -0.5862
  O  O180  1  0.280100  0.019900  0.402500  1.0  -0.5624
  O  O181  1  0.282900  0.110300  0.490200  1.0  -0.4464
  O  O182  1  0.918000  0.538500  0.011100  1.0  -0.7946
  O  O183  1  0.898000  0.488100  0.180300  1.0  -0.5664
  O  O184  1  0.044300  0.490100  0.138600  1.0  -0.5928
  O  O185  1  0.987900  0.161100  0.390300  1.0  -0.6348
  O  O186  1  0.134600  0.159400  0.353400  1.0  -0.5862
  O  O187  1  0.719900  0.519900  0.097500  1.0  -0.5627
  O  O188  1  0.717100  0.610300  0.009800  1.0  -0.4448
  O  O189  1  0.582000  0.038500  0.011100  1.0  -0.7951
  O  O190  1  0.602000  0.988100  0.180300  1.0  -0.567
  O  O191  1  0.455700  0.990100  0.138600  1.0  -0.5939
  O  O192  1  0.512100  0.661100  0.390300  1.0  -0.6344
  O  O193  1  0.365400  0.659400  0.353400  1.0  -0.5861
  O  O194  1  0.780100  0.019900  0.097500  1.0  -0.563
  O  O195  1  0.782900  0.110300  0.009800  1.0  -0.4456
  O  O196  1  0.418000  0.538500  0.488900  1.0  -0.7952
  O  O197  1  0.398000  0.488100  0.319700  1.0  -0.5667
  O  O198  1  0.544300  0.490100  0.361400  1.0  -0.5922
  O  O199  1  0.487900  0.161100  0.109700  1.0  -0.6352
  O  O200  1  0.634600  0.159400  0.146600  1.0  -0.5863
  O  O201  1  0.219900  0.519900  0.402500  1.0  -0.5627
  O  O202  1  0.217100  0.610300  0.490200  1.0  -0.4456
  O  O203  1  0.418000  0.961500  0.988900  1.0  -0.7953
  O  O204  1  0.398000  0.011900  0.819700  1.0  -0.5676
  O  O205  1  0.544300  0.009900  0.861400  1.0  -0.5919
  O  O206  1  0.487900  0.338900  0.609700  1.0  -0.6351
  O  O207  1  0.634600  0.340600  0.646600  1.0  -0.5859
  O  O208  1  0.219900  0.980100  0.902500  1.0  -0.5627
  O  O209  1  0.217100  0.889700  0.990200  1.0  -0.4478
  O  O210  1  0.582000  0.461500  0.511100  1.0  -0.7951
  O  O211  1  0.602000  0.511900  0.680300  1.0  -0.5662
  O  O212  1  0.455700  0.509900  0.638600  1.0  -0.5938
  O  O213  1  0.512100  0.838900  0.890300  1.0  -0.6344
  O  O214  1  0.365400  0.840600  0.853400  1.0  -0.5858
  O  O215  1  0.780100  0.480100  0.597500  1.0  -0.5627
  O  O216  1  0.782900  0.389700  0.509800  1.0  -0.4471
