# generated using pymatgen
data_Ni2H16C29O10
_symmetry_space_group_name_H-M   'P 1'
_cell_length_a   14.99270000
_cell_length_b   17.23210000
_cell_length_c   24.79800000
_cell_angle_alpha   90.00000000
_cell_angle_beta   90.00000000
_cell_angle_gamma   90.00000000
_symmetry_Int_Tables_number   1
_chemical_formula_structural   Ni2H16C29O10
_chemical_formula_sum   'Ni8 H64 C116 O40'
_cell_volume   6406.70478920
_cell_formula_units_Z   4
loop_
 _symmetry_equiv_pos_site_id
 _symmetry_equiv_pos_as_xyz
  1  'x, y, z'
loop_
 _atom_site_type_symbol
 _atom_site_label
 _atom_site_symmetry_multiplicity
 _atom_site_fract_x
 _atom_site_fract_y
 _atom_site_fract_z
 _atom_site_occupancy
 _atom_site_charge
  Ni  Ni1  1  0.305440  0.210860  0.000000  1.0  0.965
  Ni  Ni2  1  0.395070  0.024220  0.000000  1.0  0.8803
  Ni  Ni3  1  0.694560  0.789140  0.000000  1.0  0.9638
  Ni  Ni4  1  0.604930  0.975780  0.000000  1.0  0.8867
  Ni  Ni5  1  0.194560  0.710860  0.500000  1.0  0.9645
  Ni  Ni6  1  0.104930  0.524220  0.500000  1.0  0.8809
  Ni  Ni7  1  0.805440  0.289140  0.500000  1.0  0.9646
  Ni  Ni8  1  0.895070  0.475780  0.500000  1.0  0.8868
  H  H9  1  0.159200  0.933400  0.216500  1.0  0.1284
  H  H10  1  0.115700  0.154800  0.116100  1.0  0.1302
  H  H11  1  0.255000  0.963000  0.146600  1.0  0.1361
  H  H12  1  0.013700  0.120100  0.180900  1.0  0.1269
  H  H13  1  0.857900  0.019900  0.309600  1.0  0.1356
  H  H14  1  0.830100  0.108600  0.378100  1.0  0.132
  H  H15  1  0.082600  0.134000  0.273700  1.0  0.14
  H  H16  1  0.053000  0.220400  0.341000  1.0  0.1263
  H  H17  1  0.840800  0.066600  0.216500  1.0  0.1283
  H  H18  1  0.884300  0.845200  0.116100  1.0  0.1302
  H  H19  1  0.745000  0.037000  0.146600  1.0  0.1363
  H  H20  1  0.986300  0.879900  0.180900  1.0  0.1256
  H  H21  1  0.142100  0.980100  0.309600  1.0  0.1353
  H  H22  1  0.169900  0.891400  0.378100  1.0  0.1322
  H  H23  1  0.917400  0.866000  0.273700  1.0  0.1385
  H  H24  1  0.947000  0.779600  0.341000  1.0  0.126
  H  H25  1  0.340800  0.433400  0.283500  1.0  0.1274
  H  H26  1  0.384300  0.654800  0.383900  1.0  0.1304
  H  H27  1  0.245000  0.463000  0.353400  1.0  0.1356
  H  H28  1  0.486300  0.620100  0.319100  1.0  0.1258
  H  H29  1  0.642100  0.519900  0.190400  1.0  0.1352
  H  H30  1  0.669900  0.608600  0.121900  1.0  0.1324
  H  H31  1  0.417400  0.634000  0.226300  1.0  0.1394
  H  H32  1  0.447000  0.720400  0.159000  1.0  0.1264
  H  H33  1  0.659200  0.566600  0.283500  1.0  0.1273
  H  H34  1  0.615700  0.345200  0.383900  1.0  0.1299
  H  H35  1  0.755000  0.537000  0.353400  1.0  0.1361
  H  H36  1  0.513700  0.379900  0.319100  1.0  0.1258
  H  H37  1  0.357900  0.480100  0.190400  1.0  0.1356
  H  H38  1  0.330100  0.391400  0.121900  1.0  0.1321
  H  H39  1  0.582600  0.366000  0.226300  1.0  0.1399
  H  H40  1  0.553000  0.279600  0.159000  1.0  0.1258
  H  H41  1  0.840800  0.066600  0.783500  1.0  0.1276
  H  H42  1  0.884300  0.845200  0.883900  1.0  0.1301
  H  H43  1  0.745000  0.037000  0.853400  1.0  0.1361
  H  H44  1  0.986300  0.879900  0.819100  1.0  0.126
  H  H45  1  0.142100  0.980100  0.690400  1.0  0.1353
  H  H46  1  0.169900  0.891400  0.621900  1.0  0.1325
  H  H47  1  0.917400  0.866000  0.726300  1.0  0.1387
  H  H48  1  0.947000  0.779600  0.659000  1.0  0.1256
  H  H49  1  0.159200  0.933400  0.783500  1.0  0.1277
  H  H50  1  0.115700  0.154800  0.883900  1.0  0.1302
  H  H51  1  0.255000  0.963000  0.853400  1.0  0.1357
  H  H52  1  0.013700  0.120100  0.819100  1.0  0.1264
  H  H53  1  0.857900  0.019900  0.690400  1.0  0.1354
  H  H54  1  0.830100  0.108600  0.621900  1.0  0.1319
  H  H55  1  0.082600  0.134000  0.726300  1.0  0.1403
  H  H56  1  0.053000  0.220400  0.659000  1.0  0.1263
  H  H57  1  0.659200  0.566600  0.716500  1.0  0.1279
  H  H58  1  0.615700  0.345200  0.616100  1.0  0.1297
  H  H59  1  0.755000  0.537000  0.646600  1.0  0.1365
  H  H60  1  0.513700  0.379900  0.680900  1.0  0.1256
  H  H61  1  0.357900  0.480100  0.809600  1.0  0.1358
  H  H62  1  0.330100  0.391400  0.878100  1.0  0.132
  H  H63  1  0.582600  0.366000  0.773700  1.0  0.1395
  H  H64  1  0.553000  0.279600  0.841000  1.0  0.1258
  H  H65  1  0.340800  0.433400  0.716500  1.0  0.1281
  H  H66  1  0.384300  0.654800  0.616100  1.0  0.1306
  H  H67  1  0.245000  0.463000  0.646600  1.0  0.1356
  H  H68  1  0.486300  0.620100  0.680900  1.0  0.1262
  H  H69  1  0.642100  0.519900  0.809600  1.0  0.1352
  H  H70  1  0.669900  0.608600  0.878100  1.0  0.1323
  H  H71  1  0.417400  0.634000  0.773700  1.0  0.1394
  H  H72  1  0.447000  0.720400  0.841000  1.0  0.1266
  C  C73  1  0.075600  0.023100  0.206630  1.0  0.0397
  C  C74  1  0.976100  0.066800  0.285040  1.0  0.0847
  C  C75  1  0.193200  0.062200  0.122900  1.0  -0.1093
  C  C76  1  0.148700  0.977300  0.195600  1.0  -0.1427
  C  C77  1  0.123500  0.108700  0.135000  1.0  0.0046
  C  C78  1  0.206900  0.995300  0.153900  1.0  -0.0311
  C  C79  1  0.063300  0.088800  0.175000  1.0  -0.139
  C  C80  1  0.898100  0.059900  0.316300  1.0  -0.1422
  C  C81  1  0.881400  0.113200  0.357200  1.0  -0.0066
  C  C82  1  0.256100  0.083200  0.077500  1.0  0.7792
  C  C83  1  0.940600  0.172800  0.367000  1.0  -0.145
  C  C84  1  0.031800  0.127600  0.294800  1.0  -0.1384
  C  C85  1  0.013800  0.179400  0.335200  1.0  0.0048
  C  C86  1  0.919900  0.229400  0.412300  1.0  0.732
  C  C87  1  0.924400  0.976900  0.206630  1.0  0.0409
  C  C88  1  0.023900  0.933200  0.285040  1.0  0.0847
  C  C89  1  0.806800  0.937800  0.122900  1.0  -0.1094
  C  C90  1  0.851300  0.022700  0.195600  1.0  -0.1415
  C  C91  1  0.876500  0.891300  0.135000  1.0  0.006
  C  C92  1  0.793100  0.004700  0.153900  1.0  -0.033
  C  C93  1  0.936700  0.911200  0.175000  1.0  -0.139
  C  C94  1  0.101900  0.940100  0.316300  1.0  -0.1395
  C  C95  1  0.118600  0.886800  0.357200  1.0  -0.0054
  C  C96  1  0.743900  0.916800  0.077500  1.0  0.7793
  C  C97  1  0.059400  0.827200  0.367000  1.0  -0.1454
  C  C98  1  0.968200  0.872400  0.294800  1.0  -0.1389
  C  C99  1  0.986200  0.820600  0.335200  1.0  0.0026
  C  C100  1  0.080100  0.770600  0.412300  1.0  0.7318
  C  C101  1  0.424400  0.523100  0.293370  1.0  0.0408
  C  C102  1  0.523900  0.566800  0.214960  1.0  0.0844
  C  C103  1  0.306800  0.562200  0.377100  1.0  -0.1091
  C  C104  1  0.351300  0.477300  0.304400  1.0  -0.1428
  C  C105  1  0.376500  0.608700  0.365000  1.0  0.0074
  C  C106  1  0.293100  0.495300  0.346100  1.0  -0.0317
  C  C107  1  0.436700  0.588800  0.325000  1.0  -0.1379
  C  C108  1  0.601900  0.559900  0.183700  1.0  -0.1397
  C  C109  1  0.618600  0.613200  0.142800  1.0  -0.0056
  C  C110  1  0.243900  0.583200  0.422500  1.0  0.7799
  C  C111  1  0.559400  0.672800  0.133000  1.0  -0.1446
  C  C112  1  0.468200  0.627600  0.205200  1.0  -0.1387
  C  C113  1  0.486200  0.679400  0.164800  1.0  0.0047
  C  C114  1  0.580100  0.729400  0.087700  1.0  0.7316
  C  C115  1  0.575600  0.476900  0.293370  1.0  0.0398
  C  C116  1  0.476100  0.433200  0.214960  1.0  0.0836
  C  C117  1  0.693200  0.437800  0.377100  1.0  -0.1101
  C  C118  1  0.648700  0.522700  0.304400  1.0  -0.1424
  C  C119  1  0.623500  0.391300  0.365000  1.0  0.0065
  C  C120  1  0.706900  0.504700  0.346100  1.0  -0.0308
  C  C121  1  0.563300  0.411200  0.325000  1.0  -0.1357
  C  C122  1  0.398100  0.440100  0.183700  1.0  -0.1431
  C  C123  1  0.381400  0.386800  0.142800  1.0  -0.0054
  C  C124  1  0.756100  0.416800  0.422500  1.0  0.7796
  C  C125  1  0.440600  0.327200  0.133000  1.0  -0.1462
  C  C126  1  0.531800  0.372400  0.205200  1.0  -0.139
  C  C127  1  0.513800  0.320600  0.164800  1.0  0.0045
  C  C128  1  0.419900  0.270600  0.087700  1.0  0.7311
  C  C129  1  0.924400  0.976900  0.793370  1.0  0.0406
  C  C130  1  0.023900  0.933200  0.714960  1.0  0.0843
  C  C131  1  0.806800  0.937800  0.877100  1.0  -0.1093
  C  C132  1  0.851300  0.022700  0.804400  1.0  -0.142
  C  C133  1  0.876500  0.891300  0.865000  1.0  0.0069
  C  C134  1  0.793100  0.004700  0.846100  1.0  -0.0331
  C  C135  1  0.936700  0.911200  0.825000  1.0  -0.1374
  C  C136  1  0.101900  0.940100  0.683700  1.0  -0.1399
  C  C137  1  0.118600  0.886800  0.642800  1.0  -0.0058
  C  C138  1  0.743900  0.916800  0.922500  1.0  0.7797
  C  C139  1  0.059400  0.827200  0.633000  1.0  -0.1459
  C  C140  1  0.968200  0.872400  0.705200  1.0  -0.1389
  C  C141  1  0.986200  0.820600  0.664800  1.0  0.0039
  C  C142  1  0.080100  0.770600  0.587700  1.0  0.7308
  C  C143  1  0.075600  0.023100  0.793370  1.0  0.0399
  C  C144  1  0.976100  0.066800  0.714960  1.0  0.0838
  C  C145  1  0.193200  0.062200  0.877100  1.0  -0.11
  C  C146  1  0.148700  0.977300  0.804400  1.0  -0.1431
  C  C147  1  0.123500  0.108700  0.865000  1.0  0.0069
  C  C148  1  0.206900  0.995300  0.846100  1.0  -0.0309
  C  C149  1  0.063300  0.088800  0.825000  1.0  -0.1377
  C  C150  1  0.898100  0.059900  0.683700  1.0  -0.1416
  C  C151  1  0.881400  0.113200  0.642800  1.0  -0.0049
  C  C152  1  0.256100  0.083200  0.922500  1.0  0.7798
  C  C153  1  0.940600  0.172800  0.633000  1.0  -0.1446
  C  C154  1  0.031800  0.127600  0.705200  1.0  -0.1384
  C  C155  1  0.013800  0.179400  0.664800  1.0  0.0047
  C  C156  1  0.919900  0.229400  0.587700  1.0  0.7316
  C  C157  1  0.575600  0.476900  0.706630  1.0  0.0395
  C  C158  1  0.476100  0.433200  0.785040  1.0  0.0843
  C  C159  1  0.693200  0.437800  0.622900  1.0  -0.1095
  C  C160  1  0.648700  0.522700  0.695600  1.0  -0.1416
  C  C161  1  0.623500  0.391300  0.635000  1.0  0.0059
  C  C162  1  0.706900  0.504700  0.653900  1.0  -0.0306
  C  C163  1  0.563300  0.411200  0.675000  1.0  -0.1374
  C  C164  1  0.398100  0.440100  0.816300  1.0  -0.1431
  C  C165  1  0.381400  0.386800  0.857200  1.0  -0.0067
  C  C166  1  0.756100  0.416800  0.577500  1.0  0.779
  C  C167  1  0.440600  0.327200  0.867000  1.0  -0.1452
  C  C168  1  0.531800  0.372400  0.794800  1.0  -0.139
  C  C169  1  0.513800  0.320600  0.835200  1.0  0.0034
  C  C170  1  0.419900  0.270600  0.912300  1.0  0.7319
  C  C171  1  0.424400  0.523100  0.706630  1.0  0.0411
  C  C172  1  0.523900  0.566800  0.785040  1.0  0.0851
  C  C173  1  0.306800  0.562200  0.622900  1.0  -0.1092
  C  C174  1  0.351300  0.477300  0.695600  1.0  -0.1423
  C  C175  1  0.376500  0.608700  0.635000  1.0  0.0047
  C  C176  1  0.293100  0.495300  0.653900  1.0  -0.0319
  C  C177  1  0.436700  0.588800  0.675000  1.0  -0.1393
  C  C178  1  0.601900  0.559900  0.816300  1.0  -0.1402
  C  C179  1  0.618600  0.613200  0.857200  1.0  -0.0055
  C  C180  1  0.243900  0.583200  0.577500  1.0  0.7795
  C  C181  1  0.559400  0.672800  0.867000  1.0  -0.1451
  C  C182  1  0.468200  0.627600  0.794800  1.0  -0.139
  C  C183  1  0.486200  0.679400  0.835200  1.0  0.0042
  C  C184  1  0.580100  0.729400  0.912300  1.0  0.732
  C  C185  1  0.000000  0.000000  0.245900  1.0  0.0098
  C  C186  1  0.500000  0.500000  0.254100  1.0  0.0097
  C  C187  1  0.000000  0.000000  0.754100  1.0  0.0097
  C  C188  1  0.500000  0.500000  0.745900  1.0  0.0098
  O  O189  1  0.857100  0.216700  0.441740  1.0  -0.5392
  O  O190  1  0.309200  0.032700  0.061310  1.0  -0.6172
  O  O191  1  0.246500  0.148500  0.058760  1.0  -0.5717
  O  O192  1  0.972600  0.288400  0.415900  1.0  -0.4545
  O  O193  1  0.142900  0.783300  0.441740  1.0  -0.5396
  O  O194  1  0.690800  0.967300  0.061310  1.0  -0.6169
  O  O195  1  0.753500  0.851500  0.058760  1.0  -0.5716
  O  O196  1  0.027400  0.711600  0.415900  1.0  -0.4508
  O  O197  1  0.642900  0.716700  0.058260  1.0  -0.5407
  O  O198  1  0.190800  0.532700  0.438690  1.0  -0.618
  O  O199  1  0.253500  0.648500  0.441240  1.0  -0.5713
  O  O200  1  0.527400  0.788400  0.084100  1.0  -0.4534
  O  O201  1  0.357100  0.283300  0.058260  1.0  -0.5399
  O  O202  1  0.809200  0.467300  0.438690  1.0  -0.6163
  O  O203  1  0.746500  0.351500  0.441240  1.0  -0.5713
  O  O204  1  0.472600  0.211600  0.084100  1.0  -0.4538
  O  O205  1  0.142900  0.783300  0.558260  1.0  -0.5411
  O  O206  1  0.690800  0.967300  0.938690  1.0  -0.6167
  O  O207  1  0.753500  0.851500  0.941240  1.0  -0.5717
  O  O208  1  0.027400  0.711600  0.584100  1.0  -0.4504
  O  O209  1  0.857100  0.216700  0.558260  1.0  -0.5405
  O  O210  1  0.309200  0.032700  0.938690  1.0  -0.6173
  O  O211  1  0.246500  0.148500  0.941240  1.0  -0.5713
  O  O212  1  0.972600  0.288400  0.584100  1.0  -0.4539
  O  O213  1  0.357100  0.283300  0.941740  1.0  -0.5389
  O  O214  1  0.809200  0.467300  0.561310  1.0  -0.6163
  O  O215  1  0.746500  0.351500  0.558760  1.0  -0.5716
  O  O216  1  0.472600  0.211600  0.915900  1.0  -0.4543
  O  O217  1  0.642900  0.716700  0.941740  1.0  -0.5401
  O  O218  1  0.190800  0.532700  0.561310  1.0  -0.618
  O  O219  1  0.253500  0.648500  0.558760  1.0  -0.5711
  O  O220  1  0.527400  0.788400  0.915900  1.0  -0.4538
  O  O221  1  0.420700  0.140600  0.000000  1.0  -0.5584
  O  O222  1  0.579300  0.859400  0.000000  1.0  -0.5563
  O  O223  1  0.079300  0.640600  0.500000  1.0  -0.5563
  O  O224  1  0.920700  0.359400  0.500000  1.0  -0.5586
  O  O225  1  0.500000  0.000000  0.056200  1.0  -0.6313
  O  O226  1  0.000000  0.500000  0.443800  1.0  -0.6306
  O  O227  1  0.500000  0.000000  0.943800  1.0  -0.6306
  O  O228  1  0.000000  0.500000  0.556200  1.0  -0.6313
