# generated using pymatgen
data_CuH7C15O4
_symmetry_space_group_name_H-M   'P 1'
_cell_length_a   18.45300000
_cell_length_b   18.45300000
_cell_length_c   27.78260000
_cell_angle_alpha   70.60390000
_cell_angle_beta   70.60390000
_cell_angle_gamma   60.00000000
_symmetry_Int_Tables_number   1
_chemical_formula_structural   CuH7C15O4
_chemical_formula_sum   'Cu12 H84 C180 O48'
_cell_volume   7566.56858537
_cell_formula_units_Z   12
loop_
 _symmetry_equiv_pos_site_id
 _symmetry_equiv_pos_as_xyz
  1  'x, y, z'
loop_
 _atom_site_type_symbol
 _atom_site_label
 _atom_site_symmetry_multiplicity
 _atom_site_fract_x
 _atom_site_fract_y
 _atom_site_fract_z
 _atom_site_occupancy
 _atom_site_charge
  Cu  Cu1  1  0.221130  0.783830  0.792250  1.0  0.9154
  Cu  Cu2  1  0.783830  0.202790  0.792250  1.0  0.9195
  Cu  Cu3  1  0.202790  0.221130  0.792250  1.0  0.9181
  Cu  Cu4  1  0.278870  0.297210  0.707750  1.0  0.9181
  Cu  Cu5  1  0.716170  0.278870  0.707750  1.0  0.9168
  Cu  Cu6  1  0.297210  0.716170  0.707750  1.0  0.9187
  Cu  Cu7  1  0.778870  0.216170  0.207750  1.0  0.9157
  Cu  Cu8  1  0.216170  0.797210  0.207750  1.0  0.9201
  Cu  Cu9  1  0.797210  0.778870  0.207750  1.0  0.9173
  Cu  Cu10  1  0.721130  0.702790  0.292250  1.0  0.9187
  Cu  Cu11  1  0.283830  0.721130  0.292250  1.0  0.9162
  Cu  Cu12  1  0.702790  0.283830  0.292250  1.0  0.9192
  H  H13  1  0.088900  0.412300  0.882100  1.0  0.1196
  H  H14  1  0.100400  0.622700  0.885400  1.0  0.1211
  H  H15  1  0.209900  0.523600  0.754900  1.0  0.1241
  H  H16  1  0.935100  0.561100  0.885100  1.0  0.1039
  H  H17  1  0.202300  0.476000  0.940600  1.0  0.102
  H  H18  1  0.795700  0.585400  0.906700  1.0  0.1117
  H  H19  1  0.273000  0.435800  0.005400  1.0  0.1065
  H  H20  1  0.412300  0.616700  0.882100  1.0  0.1189
  H  H21  1  0.622700  0.391500  0.885400  1.0  0.1199
  H  H22  1  0.523600  0.511600  0.754900  1.0  0.1221
  H  H23  1  0.561100  0.618700  0.885100  1.0  0.1028
  H  H24  1  0.476000  0.381100  0.940600  1.0  0.1054
  H  H25  1  0.585400  0.712200  0.906700  1.0  0.113
  H  H26  1  0.435800  0.285800  0.005400  1.0  0.1069
  H  H27  1  0.616700  0.088900  0.882100  1.0  0.121
  H  H28  1  0.391500  0.100400  0.885400  1.0  0.1206
  H  H29  1  0.511600  0.209900  0.754900  1.0  0.1224
  H  H30  1  0.618700  0.935100  0.885100  1.0  0.104
  H  H31  1  0.381100  0.202300  0.940600  1.0  0.1055
  H  H32  1  0.712200  0.795700  0.906700  1.0  0.1126
  H  H33  1  0.285800  0.273000  0.005400  1.0  0.1077
  H  H34  1  0.411100  0.883300  0.617900  1.0  0.1209
  H  H35  1  0.399600  0.108500  0.614600  1.0  0.1206
  H  H36  1  0.290100  0.988400  0.745100  1.0  0.123
  H  H37  1  0.564900  0.881300  0.614900  1.0  0.1035
  H  H38  1  0.297700  0.118900  0.559400  1.0  0.1053
  H  H39  1  0.704300  0.787800  0.593300  1.0  0.1129
  H  H40  1  0.227000  0.214200  0.494600  1.0  0.1066
  H  H41  1  0.087700  0.411100  0.617900  1.0  0.1205
  H  H42  1  0.877300  0.399600  0.614600  1.0  0.1204
  H  H43  1  0.976400  0.290100  0.745100  1.0  0.1249
  H  H44  1  0.938900  0.564900  0.614900  1.0  0.1038
  H  H45  1  0.024000  0.297700  0.559400  1.0  0.1031
  H  H46  1  0.914600  0.704300  0.593300  1.0  0.1122
  H  H47  1  0.064200  0.227000  0.494600  1.0  0.1068
  H  H48  1  0.883300  0.087700  0.617900  1.0  0.1197
  H  H49  1  0.108500  0.877300  0.614600  1.0  0.1212
  H  H50  1  0.988400  0.976400  0.745100  1.0  0.1229
  H  H51  1  0.881300  0.938900  0.614900  1.0  0.1035
  H  H52  1  0.118900  0.024000  0.559400  1.0  0.1054
  H  H53  1  0.787800  0.914600  0.593300  1.0  0.1125
  H  H54  1  0.214200  0.064200  0.494600  1.0  0.1064
  H  H55  1  0.911100  0.587700  0.117900  1.0  0.1197
  H  H56  1  0.899600  0.377300  0.114600  1.0  0.1207
  H  H57  1  0.790100  0.476400  0.245100  1.0  0.1249
  H  H58  1  0.064900  0.438900  0.114900  1.0  0.1029
  H  H59  1  0.797700  0.524000  0.059400  1.0  0.1021
  H  H60  1  0.204300  0.414600  0.093300  1.0  0.1127
  H  H61  1  0.727000  0.564200  0.994600  1.0  0.1075
  H  H62  1  0.587700  0.383300  0.117900  1.0  0.1197
  H  H63  1  0.377300  0.608500  0.114600  1.0  0.1203
  H  H64  1  0.476400  0.488400  0.245100  1.0  0.1227
  H  H65  1  0.438900  0.381300  0.114900  1.0  0.1031
  H  H66  1  0.524000  0.618900  0.059400  1.0  0.1052
  H  H67  1  0.414600  0.287800  0.093300  1.0  0.113
  H  H68  1  0.564200  0.714200  0.994600  1.0  0.1078
  H  H69  1  0.383300  0.911100  0.117900  1.0  0.1208
  H  H70  1  0.608500  0.899600  0.114600  1.0  0.1211
  H  H71  1  0.488400  0.790100  0.245100  1.0  0.1232
  H  H72  1  0.381300  0.064900  0.114900  1.0  0.1037
  H  H73  1  0.618900  0.797700  0.059400  1.0  0.1058
  H  H74  1  0.287800  0.204300  0.093300  1.0  0.1127
  H  H75  1  0.714200  0.727000  0.994600  1.0  0.1073
  H  H76  1  0.588900  0.116700  0.382100  1.0  0.1207
  H  H77  1  0.600400  0.891500  0.385400  1.0  0.12
  H  H78  1  0.709900  0.011600  0.254900  1.0  0.1222
  H  H79  1  0.435100  0.118700  0.385100  1.0  0.1043
  H  H80  1  0.702300  0.881100  0.440600  1.0  0.1052
  H  H81  1  0.295700  0.212200  0.406700  1.0  0.1127
  H  H82  1  0.773000  0.785800  0.505400  1.0  0.1065
  H  H83  1  0.912300  0.588900  0.382100  1.0  0.12
  H  H84  1  0.122700  0.600400  0.385400  1.0  0.1211
  H  H85  1  0.023600  0.709900  0.254900  1.0  0.1242
  H  H86  1  0.061100  0.435100  0.385100  1.0  0.1042
  H  H87  1  0.976000  0.702300  0.440600  1.0  0.1029
  H  H88  1  0.085400  0.295700  0.406700  1.0  0.1115
  H  H89  1  0.935800  0.773000  0.505400  1.0  0.1079
  H  H90  1  0.116700  0.912300  0.382100  1.0  0.1192
  H  H91  1  0.891500  0.122700  0.385400  1.0  0.1212
  H  H92  1  0.011600  0.023600  0.254900  1.0  0.122
  H  H93  1  0.118700  0.061100  0.385100  1.0  0.1033
  H  H94  1  0.881100  0.976000  0.440600  1.0  0.1055
  H  H95  1  0.212200  0.085400  0.406700  1.0  0.1124
  H  H96  1  0.785800  0.935800  0.505400  1.0  0.1066
  C  C97  1  0.181590  0.387250  0.788680  1.0  0.6882
  C  C98  1  0.087030  0.517280  0.892150  1.0  0.0707
  C  C99  1  0.194140  0.648200  0.791200  1.0  0.6939
  C  C100  1  0.106890  0.456310  0.865390  1.0  -0.0741
  C  C101  1  0.086560  0.485380  0.987190  1.0  0.0346
  C  C102  1  0.956770  0.524920  0.960070  1.0  0.0003
  C  C103  1  0.113570  0.580630  0.867370  1.0  -0.0742
  C  C104  1  0.159560  0.583690  0.816160  1.0  -0.1606
  C  C105  1  0.041240  0.510650  0.947710  1.0  -0.0696
  C  C106  1  0.178680  0.521940  0.790000  1.0  0.0079
  C  C107  1  0.908250  0.552650  0.920950  1.0  -0.1021
  C  C108  1  0.152380  0.458360  0.814840  1.0  -0.1481
  C  C109  1  0.173150  0.469370  0.975910  1.0  -0.0908
  C  C110  1  0.826050  0.567050  0.933550  1.0  -0.1039
  C  C111  1  0.215170  0.444970  0.013890  1.0  -0.1176
  C  C112  1  0.387250  0.642480  0.788680  1.0  0.6876
  C  C113  1  0.517280  0.503540  0.892150  1.0  0.0714
  C  C114  1  0.648200  0.366460  0.791200  1.0  0.6946
  C  C115  1  0.456310  0.571410  0.865390  1.0  -0.0732
  C  C116  1  0.485380  0.440870  0.987190  1.0  0.0331
  C  C117  1  0.524920  0.558240  0.960070  1.0  -0.0005
  C  C118  1  0.580630  0.438430  0.867370  1.0  -0.0719
  C  C119  1  0.583690  0.440590  0.816160  1.0  -0.1637
  C  C120  1  0.510650  0.500400  0.947710  1.0  -0.0692
  C  C121  1  0.521940  0.509380  0.790000  1.0  0.0086
  C  C122  1  0.552650  0.618150  0.920950  1.0  -0.1012
  C  C123  1  0.458360  0.574420  0.814840  1.0  -0.1495
  C  C124  1  0.469370  0.381570  0.975910  1.0  -0.0943
  C  C125  1  0.567050  0.673350  0.933550  1.0  -0.1087
  C  C126  1  0.444970  0.325970  0.013890  1.0  -0.1192
  C  C127  1  0.642480  0.181590  0.788680  1.0  0.6874
  C  C128  1  0.503540  0.087030  0.892150  1.0  0.0704
  C  C129  1  0.366460  0.194140  0.791200  1.0  0.6956
  C  C130  1  0.571410  0.106890  0.865390  1.0  -0.069
  C  C131  1  0.440870  0.086560  0.987190  1.0  0.035
  C  C132  1  0.558240  0.956770  0.960070  1.0  -1e-04
  C  C133  1  0.438430  0.113570  0.867370  1.0  -0.075
  C  C134  1  0.440590  0.159560  0.816160  1.0  -0.1598
  C  C135  1  0.500400  0.041240  0.947710  1.0  -0.07
  C  C136  1  0.509380  0.178680  0.790000  1.0  0.0082
  C  C137  1  0.618150  0.908250  0.920950  1.0  -0.1028
  C  C138  1  0.574420  0.152380  0.814840  1.0  -0.1496
  C  C139  1  0.381570  0.173150  0.975910  1.0  -0.0919
  C  C140  1  0.673350  0.826050  0.933550  1.0  -0.1078
  C  C141  1  0.325970  0.215170  0.013890  1.0  -0.1164
  C  C142  1  0.318410  0.857520  0.711320  1.0  0.6871
  C  C143  1  0.412970  0.996460  0.607850  1.0  0.0713
  C  C144  1  0.305860  0.133540  0.708800  1.0  0.6952
  C  C145  1  0.393110  0.928590  0.634610  1.0  -0.0726
  C  C146  1  0.413440  0.059130  0.512810  1.0  0.0338
  C  C147  1  0.543230  0.941760  0.539930  1.0  -0.0011
  C  C148  1  0.386430  0.061570  0.632630  1.0  -0.0747
  C  C149  1  0.340440  0.059410  0.683840  1.0  -0.1608
  C  C150  1  0.458760  0.999600  0.552290  1.0  -0.0704
  C  C151  1  0.321320  0.990620  0.710000  1.0  0.0084
  C  C152  1  0.591750  0.881850  0.579050  1.0  -0.1039
  C  C153  1  0.347620  0.925580  0.685160  1.0  -0.148
  C  C154  1  0.326850  0.118430  0.524090  1.0  -0.0912
  C  C155  1  0.673950  0.826650  0.566450  1.0  -0.111
  C  C156  1  0.284830  0.174030  0.486110  1.0  -0.119
  C  C157  1  0.112750  0.318410  0.711320  1.0  0.6882
  C  C158  1  0.982720  0.412970  0.607850  1.0  0.0707
  C  C159  1  0.851800  0.305860  0.708800  1.0  0.6945
  C  C160  1  0.043690  0.393110  0.634610  1.0  -0.0708
  C  C161  1  0.014620  0.413440  0.512810  1.0  0.0344
  C  C162  1  0.975080  0.543230  0.539930  1.0  0.0004
  C  C163  1  0.919370  0.386430  0.632630  1.0  -0.0742
  C  C164  1  0.916310  0.340440  0.683840  1.0  -0.1604
  C  C165  1  0.989350  0.458760  0.552290  1.0  -0.07
  C  C166  1  0.978060  0.321320  0.710000  1.0  0.0077
  C  C167  1  0.947350  0.591750  0.579050  1.0  -0.1027
  C  C168  1  0.041640  0.347620  0.685160  1.0  -0.1472
  C  C169  1  0.030630  0.326850  0.524090  1.0  -0.09
  C  C170  1  0.932950  0.673950  0.566450  1.0  -0.1058
  C  C171  1  0.055030  0.284830  0.486110  1.0  -0.1158
  C  C172  1  0.857520  0.112750  0.711320  1.0  0.6887
  C  C173  1  0.996460  0.982720  0.607850  1.0  0.072
  C  C174  1  0.133540  0.851800  0.708800  1.0  0.6944
  C  C175  1  0.928590  0.043690  0.634610  1.0  -0.0733
  C  C176  1  0.059130  0.014620  0.512810  1.0  0.0347
  C  C177  1  0.941760  0.975080  0.539930  1.0  -0.0008
  C  C178  1  0.061570  0.919370  0.632630  1.0  -0.0753
  C  C179  1  0.059410  0.916310  0.683840  1.0  -0.1627
  C  C180  1  0.999600  0.989350  0.552290  1.0  -0.0707
  C  C181  1  0.990620  0.978060  0.710000  1.0  0.0075
  C  C182  1  0.881850  0.947350  0.579050  1.0  -0.0995
  C  C183  1  0.925580  0.041640  0.685160  1.0  -0.1502
  C  C184  1  0.118430  0.030630  0.524090  1.0  -0.0949
  C  C185  1  0.826650  0.932950  0.566450  1.0  -0.1094
  C  C186  1  0.174030  0.055030  0.486110  1.0  -0.1151
  C  C187  1  0.818410  0.612750  0.211320  1.0  0.6888
  C  C188  1  0.912970  0.482720  0.107850  1.0  0.0716
  C  C189  1  0.805860  0.351800  0.208800  1.0  0.6942
  C  C190  1  0.893110  0.543690  0.134610  1.0  -0.0726
  C  C191  1  0.913440  0.514620  0.012810  1.0  0.0342
  C  C192  1  0.043230  0.475080  0.039930  1.0  0.0007
  C  C193  1  0.886430  0.419370  0.132630  1.0  -0.076
  C  C194  1  0.840440  0.416310  0.183840  1.0  -0.1605
  C  C195  1  0.958760  0.489350  0.052290  1.0  -0.0704
  C  C196  1  0.821320  0.478060  0.210000  1.0  0.0087
  C  C197  1  0.091750  0.447350  0.079050  1.0  -0.1035
  C  C198  1  0.847620  0.541640  0.185160  1.0  -0.1476
  C  C199  1  0.826850  0.530630  0.024090  1.0  -0.0879
  C  C200  1  0.173950  0.432950  0.066450  1.0  -0.1039
  C  C201  1  0.784830  0.555030  0.986110  1.0  -0.1172
  C  C202  1  0.612750  0.357520  0.211320  1.0  0.6879
  C  C203  1  0.482720  0.496460  0.107850  1.0  0.0709
  C  C204  1  0.351800  0.633540  0.208800  1.0  0.6957
  C  C205  1  0.543690  0.428590  0.134610  1.0  -0.0726
  C  C206  1  0.514620  0.559130  0.012810  1.0  0.0339
  C  C207  1  0.475080  0.441760  0.039930  1.0  -0.0015
  C  C208  1  0.419370  0.561570  0.132630  1.0  -0.074
  C  C209  1  0.416310  0.559410  0.183840  1.0  -0.1625
  C  C210  1  0.489350  0.499600  0.052290  1.0  -0.0705
  C  C211  1  0.478060  0.490620  0.210000  1.0  0.0071
  C  C212  1  0.447350  0.381850  0.079050  1.0  -0.1009
  C  C213  1  0.541640  0.425580  0.185160  1.0  -0.1501
  C  C214  1  0.530630  0.618430  0.024090  1.0  -0.0936
  C  C215  1  0.432950  0.326650  0.066450  1.0  -0.1103
  C  C216  1  0.555030  0.674030  0.986110  1.0  -0.118
  C  C217  1  0.357520  0.818410  0.211320  1.0  0.6872
  C  C218  1  0.496460  0.912970  0.107850  1.0  0.0706
  C  C219  1  0.633540  0.805860  0.208800  1.0  0.6943
  C  C220  1  0.428590  0.893110  0.134610  1.0  -0.0712
  C  C221  1  0.559130  0.913440  0.012810  1.0  0.0344
  C  C222  1  0.441760  0.043230  0.039930  1.0  -0.0005
  C  C223  1  0.561570  0.886430  0.132630  1.0  -0.0746
  C  C224  1  0.559410  0.840440  0.183840  1.0  -0.1593
  C  C225  1  0.499600  0.958760  0.052290  1.0  -0.0702
  C  C226  1  0.490620  0.821320  0.210000  1.0  0.008
  C  C227  1  0.381850  0.091750  0.079050  1.0  -0.1031
  C  C228  1  0.425580  0.847620  0.185160  1.0  -0.1486
  C  C229  1  0.618430  0.826850  0.024090  1.0  -0.0938
  C  C230  1  0.326650  0.173950  0.066450  1.0  -0.1089
  C  C231  1  0.674030  0.784830  0.986110  1.0  -0.116
  C  C232  1  0.681590  0.142480  0.288680  1.0  0.6871
  C  C233  1  0.587030  0.003540  0.392150  1.0  0.0708
  C  C234  1  0.694140  0.866460  0.291200  1.0  0.6946
  C  C235  1  0.606890  0.071410  0.365390  1.0  -0.0715
  C  C236  1  0.586560  0.940870  0.487190  1.0  0.0336
  C  C237  1  0.456770  0.058240  0.460070  1.0  -0.0005
  C  C238  1  0.613570  0.938430  0.367370  1.0  -0.0746
  C  C239  1  0.659560  0.940590  0.316160  1.0  -0.1609
  C  C240  1  0.541240  0.000400  0.447710  1.0  -0.0701
  C  C241  1  0.678680  0.009380  0.290000  1.0  0.0087
  C  C242  1  0.408250  0.118150  0.420950  1.0  -0.1017
  C  C243  1  0.652380  0.074420  0.314840  1.0  -0.148
  C  C244  1  0.673150  0.881570  0.475910  1.0  -0.0902
  C  C245  1  0.326050  0.173350  0.433550  1.0  -0.1104
  C  C246  1  0.715170  0.825970  0.513890  1.0  -0.1195
  C  C247  1  0.887250  0.681590  0.288680  1.0  0.6874
  C  C248  1  0.017280  0.587030  0.392150  1.0  0.0709
  C  C249  1  0.148200  0.694140  0.291200  1.0  0.6947
  C  C250  1  0.956310  0.606890  0.365390  1.0  -0.0723
  C  C251  1  0.985380  0.586560  0.487190  1.0  0.0345
  C  C252  1  0.024920  0.456770  0.460070  1.0  -1e-04
  C  C253  1  0.080630  0.613570  0.367370  1.0  -0.0734
  C  C254  1  0.083690  0.659560  0.316160  1.0  -0.162
  C  C255  1  0.010650  0.541240  0.447710  1.0  -0.0693
  C  C256  1  0.021940  0.678680  0.290000  1.0  0.0075
  C  C257  1  0.052650  0.408250  0.420950  1.0  -0.1019
  C  C258  1  0.958360  0.652380  0.314840  1.0  -0.1466
  C  C259  1  0.969370  0.673150  0.475910  1.0  -0.0905
  C  C260  1  0.067050  0.326050  0.433550  1.0  -0.1043
  C  C261  1  0.944970  0.715170  0.513890  1.0  -0.1176
  C  C262  1  0.142480  0.887250  0.288680  1.0  0.6881
  C  C263  1  0.003540  0.017280  0.392150  1.0  0.0721
  C  C264  1  0.866460  0.148200  0.291200  1.0  0.6943
  C  C265  1  0.071410  0.956310  0.365390  1.0  -0.0725
  C  C266  1  0.940870  0.985380  0.487190  1.0  0.0342
  C  C267  1  0.058240  0.024920  0.460070  1.0  -0.0004
  C  C268  1  0.938430  0.080630  0.367370  1.0  -0.0763
  C  C269  1  0.940590  0.083690  0.316160  1.0  -0.1633
  C  C270  1  0.000400  0.010650  0.447710  1.0  -0.0698
  C  C271  1  0.009380  0.021940  0.290000  1.0  0.0086
  C  C272  1  0.118150  0.052650  0.420950  1.0  -0.1002
  C  C273  1  0.074420  0.958360  0.314840  1.0  -0.1508
  C  C274  1  0.881570  0.969370  0.475910  1.0  -0.0931
  C  C275  1  0.173350  0.067050  0.433550  1.0  -0.1094
  C  C276  1  0.825970  0.944970  0.513890  1.0  -0.1166
  O  O277  1  0.177670  0.698560  0.818410  1.0  -0.5575
  O  O278  1  0.228160  0.389780  0.744190  1.0  -0.5597
  O  O279  1  0.237740  0.644170  0.745900  1.0  -0.5567
  O  O280  1  0.158610  0.328760  0.814180  1.0  -0.5855
  O  O281  1  0.698560  0.305360  0.818410  1.0  -0.5569
  O  O282  1  0.389780  0.637870  0.744190  1.0  -0.5604
  O  O283  1  0.644170  0.372190  0.745900  1.0  -0.556
  O  O284  1  0.328760  0.698450  0.814180  1.0  -0.586
  O  O285  1  0.305360  0.177670  0.818410  1.0  -0.5565
  O  O286  1  0.637870  0.228160  0.744190  1.0  -0.5604
  O  O287  1  0.372190  0.237740  0.745900  1.0  -0.5553
  O  O288  1  0.698450  0.158610  0.814180  1.0  -0.5867
  O  O289  1  0.322330  0.194640  0.681590  1.0  -0.5564
  O  O290  1  0.271840  0.862130  0.755810  1.0  -0.5601
  O  O291  1  0.262260  0.127810  0.754100  1.0  -0.5553
  O  O292  1  0.341390  0.801550  0.685820  1.0  -0.5868
  O  O293  1  0.801440  0.322330  0.681590  1.0  -0.5582
  O  O294  1  0.110220  0.271840  0.755810  1.0  -0.5595
  O  O295  1  0.855830  0.262260  0.754100  1.0  -0.5565
  O  O296  1  0.171240  0.341390  0.685820  1.0  -0.5857
  O  O297  1  0.194640  0.801440  0.681590  1.0  -0.5573
  O  O298  1  0.862130  0.110220  0.755810  1.0  -0.5593
  O  O299  1  0.127810  0.855830  0.754100  1.0  -0.5559
  O  O300  1  0.801550  0.171240  0.685820  1.0  -0.5866
  O  O301  1  0.822330  0.301440  0.181590  1.0  -0.5579
  O  O302  1  0.771840  0.610220  0.255810  1.0  -0.5594
  O  O303  1  0.762260  0.355830  0.254100  1.0  -0.5559
  O  O304  1  0.841390  0.671240  0.185820  1.0  -0.5848
  O  O305  1  0.301440  0.694640  0.181590  1.0  -0.5579
  O  O306  1  0.610220  0.362130  0.255810  1.0  -0.561
  O  O307  1  0.355830  0.627810  0.254100  1.0  -0.5558
  O  O308  1  0.671240  0.301550  0.185820  1.0  -0.586
  O  O309  1  0.694640  0.822330  0.181590  1.0  -0.5568
  O  O310  1  0.362130  0.771840  0.255810  1.0  -0.5599
  O  O311  1  0.627810  0.762260  0.254100  1.0  -0.5548
  O  O312  1  0.301550  0.841390  0.185820  1.0  -0.5867
  O  O313  1  0.677670  0.805360  0.318410  1.0  -0.5565
  O  O314  1  0.728160  0.137870  0.244190  1.0  -0.5612
  O  O315  1  0.737740  0.872190  0.245900  1.0  -0.5555
  O  O316  1  0.658610  0.198450  0.314180  1.0  -0.5873
  O  O317  1  0.198560  0.677670  0.318410  1.0  -0.5566
  O  O318  1  0.889780  0.728160  0.244190  1.0  -0.5602
  O  O319  1  0.144170  0.737740  0.245900  1.0  -0.5561
  O  O320  1  0.828760  0.658610  0.314180  1.0  -0.5854
  O  O321  1  0.805360  0.198560  0.318410  1.0  -0.557
  O  O322  1  0.137870  0.889780  0.244190  1.0  -0.5596
  O  O323  1  0.872190  0.144170  0.245900  1.0  -0.5558
  O  O324  1  0.198450  0.828760  0.314180  1.0  -0.5873
