# generated using pymatgen
data_Fe3C24N12O13
_symmetry_space_group_name_H-M   'P 1'
_cell_length_a   11.08100000
_cell_length_b   11.08100000
_cell_length_c   19.28010000
_cell_angle_alpha   90.00000000
_cell_angle_beta   90.00000000
_cell_angle_gamma   120.00000000
_symmetry_Int_Tables_number   1
_chemical_formula_structural   Fe3C24N12O13
_chemical_formula_sum   'Fe6 C48 N24 O26'
_cell_volume   2050.20752676
_cell_formula_units_Z   2
loop_
 _symmetry_equiv_pos_site_id
 _symmetry_equiv_pos_as_xyz
  1  'x, y, z'
loop_
 _atom_site_type_symbol
 _atom_site_label
 _atom_site_symmetry_multiplicity
 _atom_site_fract_x
 _atom_site_fract_y
 _atom_site_fract_z
 _atom_site_occupancy
 _atom_site_charge
  Fe  Fe1  1  0.767200  0.534400  0.750000  1.0  1.3062
  Fe  Fe2  1  0.465600  0.232800  0.750000  1.0  1.3083
  Fe  Fe3  1  0.767200  0.232800  0.750000  1.0  1.3072
  Fe  Fe4  1  0.232800  0.465600  0.250000  1.0  1.3053
  Fe  Fe5  1  0.534400  0.767200  0.250000  1.0  1.309
  Fe  Fe6  1  0.232800  0.767200  0.250000  1.0  1.3091
  C  C7  1  0.394200  0.379200  0.966100  1.0  0.1542
  C  C8  1  0.620800  0.015000  0.966100  1.0  0.1568
  C  C9  1  0.985000  0.605800  0.966100  1.0  0.1537
  C  C10  1  0.605800  0.620800  0.466100  1.0  0.1533
  C  C11  1  0.379200  0.985000  0.466100  1.0  0.155
  C  C12  1  0.015000  0.394200  0.466100  1.0  0.1556
  C  C13  1  0.379200  0.394200  0.033900  1.0  0.1526
  C  C14  1  0.015000  0.620800  0.033900  1.0  0.1527
  C  C15  1  0.605800  0.985000  0.033900  1.0  0.1548
  C  C16  1  0.620800  0.605800  0.533900  1.0  0.1545
  C  C17  1  0.985000  0.379200  0.533900  1.0  0.1533
  C  C18  1  0.394200  0.015000  0.533900  1.0  0.1554
  C  C19  1  0.605800  0.620800  0.033900  1.0  0.1521
  C  C20  1  0.379200  0.985000  0.033900  1.0  0.1543
  C  C21  1  0.015000  0.394200  0.033900  1.0  0.155
  C  C22  1  0.394200  0.379200  0.533900  1.0  0.1535
  C  C23  1  0.620800  0.015000  0.533900  1.0  0.1562
  C  C24  1  0.985000  0.605800  0.533900  1.0  0.1529
  C  C25  1  0.620800  0.605800  0.966100  1.0  0.1553
  C  C26  1  0.985000  0.379200  0.966100  1.0  0.1542
  C  C27  1  0.394200  0.015000  0.966100  1.0  0.1559
  C  C28  1  0.379200  0.394200  0.466100  1.0  0.1533
  C  C29  1  0.015000  0.620800  0.466100  1.0  0.1536
  C  C30  1  0.605800  0.985000  0.466100  1.0  0.1555
  C  C31  1  0.539900  0.460100  0.855500  1.0  0.7119
  C  C32  1  0.512200  0.487800  0.927800  1.0  -0.0631
  C  C33  1  0.539900  0.079800  0.855500  1.0  0.7111
  C  C34  1  0.512200  0.024400  0.927800  1.0  -0.0638
  C  C35  1  0.920200  0.460100  0.855500  1.0  0.7122
  C  C36  1  0.975600  0.487800  0.927800  1.0  -0.0632
  C  C37  1  0.460100  0.539900  0.355500  1.0  0.7123
  C  C38  1  0.487800  0.512200  0.427800  1.0  -0.0631
  C  C39  1  0.460100  0.920200  0.355500  1.0  0.711
  C  C40  1  0.487800  0.975600  0.427800  1.0  -0.0633
  C  C41  1  0.079800  0.539900  0.355500  1.0  0.7116
  C  C42  1  0.024400  0.512200  0.427800  1.0  -0.0629
  C  C43  1  0.460100  0.539900  0.144500  1.0  0.7122
  C  C44  1  0.487800  0.512200  0.072200  1.0  -0.0637
  C  C45  1  0.079800  0.539900  0.144500  1.0  0.7113
  C  C46  1  0.024400  0.512200  0.072200  1.0  -0.0631
  C  C47  1  0.460100  0.920200  0.144500  1.0  0.711
  C  C48  1  0.487800  0.975600  0.072200  1.0  -0.0641
  C  C49  1  0.539900  0.460100  0.644500  1.0  0.7118
  C  C50  1  0.512200  0.487800  0.572200  1.0  -0.0635
  C  C51  1  0.920200  0.460100  0.644500  1.0  0.7122
  C  C52  1  0.975600  0.487800  0.572200  1.0  -0.0639
  C  C53  1  0.539900  0.079800  0.644500  1.0  0.711
  C  C54  1  0.512200  0.024400  0.572200  1.0  -0.0639
  N  N55  1  0.261000  0.283000  0.927600  1.0  -0.1802
  N  N56  1  0.717000  0.978000  0.927600  1.0  -0.1815
  N  N57  1  0.022000  0.739000  0.927600  1.0  -0.1796
  N  N58  1  0.739000  0.717000  0.427600  1.0  -0.1799
  N  N59  1  0.283000  0.022000  0.427600  1.0  -0.1802
  N  N60  1  0.978000  0.261000  0.427600  1.0  -0.1798
  N  N61  1  0.283000  0.261000  0.072400  1.0  -0.1789
  N  N62  1  0.978000  0.717000  0.072400  1.0  -0.1807
  N  N63  1  0.739000  0.022000  0.072400  1.0  -0.1815
  N  N64  1  0.717000  0.739000  0.572400  1.0  -0.1802
  N  N65  1  0.022000  0.283000  0.572400  1.0  -0.18
  N  N66  1  0.261000  0.978000  0.572400  1.0  -0.1809
  N  N67  1  0.739000  0.717000  0.072400  1.0  -0.1799
  N  N68  1  0.283000  0.022000  0.072400  1.0  -0.1807
  N  N69  1  0.978000  0.261000  0.072400  1.0  -0.1798
  N  N70  1  0.261000  0.283000  0.572400  1.0  -0.1803
  N  N71  1  0.717000  0.978000  0.572400  1.0  -0.1816
  N  N72  1  0.022000  0.739000  0.572400  1.0  -0.1796
  N  N73  1  0.717000  0.739000  0.927600  1.0  -0.1804
  N  N74  1  0.022000  0.283000  0.927600  1.0  -0.1804
  N  N75  1  0.261000  0.978000  0.927600  1.0  -0.1803
  N  N76  1  0.283000  0.261000  0.427600  1.0  -0.1789
  N  N77  1  0.978000  0.717000  0.427600  1.0  -0.1801
  N  N78  1  0.739000  0.022000  0.427600  1.0  -0.1812
  O  O79  1  0.652600  0.552600  0.825500  1.0  -0.5369
  O  O80  1  0.447400  0.100000  0.825500  1.0  -0.5382
  O  O81  1  0.900000  0.347400  0.825500  1.0  -0.5381
  O  O82  1  0.347400  0.447400  0.325500  1.0  -0.5389
  O  O83  1  0.552600  0.900000  0.325500  1.0  -0.5374
  O  O84  1  0.100000  0.652600  0.325500  1.0  -0.535
  O  O85  1  0.552600  0.652600  0.174500  1.0  -0.537
  O  O86  1  0.100000  0.447400  0.174500  1.0  -0.5377
  O  O87  1  0.347400  0.900000  0.174500  1.0  -0.538
  O  O88  1  0.447400  0.347400  0.674500  1.0  -0.5347
  O  O89  1  0.900000  0.552600  0.674500  1.0  -0.5373
  O  O90  1  0.652600  0.100000  0.674500  1.0  -0.5376
  O  O91  1  0.347400  0.447400  0.174500  1.0  -0.5386
  O  O92  1  0.552600  0.900000  0.174500  1.0  -0.5375
  O  O93  1  0.100000  0.652600  0.174500  1.0  -0.5348
  O  O94  1  0.652600  0.552600  0.674500  1.0  -0.5367
  O  O95  1  0.447400  0.100000  0.674500  1.0  -0.5378
  O  O96  1  0.900000  0.347400  0.674500  1.0  -0.5377
  O  O97  1  0.447400  0.347400  0.825500  1.0  -0.5356
  O  O98  1  0.900000  0.552600  0.825500  1.0  -0.537
  O  O99  1  0.652600  0.100000  0.825500  1.0  -0.5379
  O  O100  1  0.552600  0.652600  0.325500  1.0  -0.537
  O  O101  1  0.100000  0.447400  0.325500  1.0  -0.5383
  O  O102  1  0.347400  0.900000  0.325500  1.0  -0.538
  O  O103  1  0.666667  0.333333  0.750000  1.0  -1.0532
  O  O104  1  0.333333  0.666667  0.250000  1.0  -1.0532
