# generated using pymatgen
data_Fe3C24N12O13
_symmetry_space_group_name_H-M   'P 1'
_cell_length_a   10.37160000
_cell_length_b   10.37160000
_cell_length_c   19.13940000
_cell_angle_alpha   90.00000000
_cell_angle_beta   90.00000000
_cell_angle_gamma   120.00000000
_symmetry_Int_Tables_number   1
_chemical_formula_structural   Fe3C24N12O13
_chemical_formula_sum   'Fe6 C48 N24 O26'
_cell_volume   1782.99641013
_cell_formula_units_Z   2
loop_
 _symmetry_equiv_pos_site_id
 _symmetry_equiv_pos_as_xyz
  1  'x, y, z'
loop_
 _atom_site_type_symbol
 _atom_site_label
 _atom_site_symmetry_multiplicity
 _atom_site_fract_x
 _atom_site_fract_y
 _atom_site_fract_z
 _atom_site_occupancy
 _atom_site_charge
  Fe  Fe1  1  0.767200  0.534400  0.750000  1.0  1.1975
  Fe  Fe2  1  0.465600  0.232800  0.750000  1.0  1.1969
  Fe  Fe3  1  0.767200  0.232800  0.750000  1.0  1.1953
  Fe  Fe4  1  0.232800  0.465600  0.250000  1.0  1.1951
  Fe  Fe5  1  0.534400  0.767200  0.250000  1.0  1.1972
  Fe  Fe6  1  0.232800  0.767200  0.250000  1.0  1.1979
  C  C7  1  0.394200  0.379200  0.966100  1.0  0.2449
  C  C8  1  0.620800  0.015000  0.966100  1.0  0.2451
  C  C9  1  0.985000  0.605800  0.966100  1.0  0.2428
  C  C10  1  0.605800  0.620800  0.466100  1.0  0.2432
  C  C11  1  0.379200  0.985000  0.466100  1.0  0.2451
  C  C12  1  0.015000  0.394200  0.466100  1.0  0.2453
  C  C13  1  0.379200  0.394200  0.033900  1.0  0.2441
  C  C14  1  0.015000  0.620800  0.033900  1.0  0.2432
  C  C15  1  0.605800  0.985000  0.033900  1.0  0.245
  C  C16  1  0.620800  0.605800  0.533900  1.0  0.2438
  C  C17  1  0.985000  0.379200  0.533900  1.0  0.245
  C  C18  1  0.394200  0.015000  0.533900  1.0  0.2449
  C  C19  1  0.605800  0.620800  0.033900  1.0  0.243
  C  C20  1  0.379200  0.985000  0.033900  1.0  0.2451
  C  C21  1  0.015000  0.394200  0.033900  1.0  0.2453
  C  C22  1  0.394200  0.379200  0.533900  1.0  0.245
  C  C23  1  0.620800  0.015000  0.533900  1.0  0.245
  C  C24  1  0.985000  0.605800  0.533900  1.0  0.2428
  C  C25  1  0.620800  0.605800  0.966100  1.0  0.2438
  C  C26  1  0.985000  0.379200  0.966100  1.0  0.245
  C  C27  1  0.394200  0.015000  0.966100  1.0  0.2449
  C  C28  1  0.379200  0.394200  0.466100  1.0  0.2442
  C  C29  1  0.015000  0.620800  0.466100  1.0  0.2432
  C  C30  1  0.605800  0.985000  0.466100  1.0  0.245
  C  C31  1  0.539900  0.460100  0.855500  1.0  0.7591
  C  C32  1  0.512200  0.487800  0.927800  1.0  -0.1464
  C  C33  1  0.539900  0.079800  0.855500  1.0  0.7569
  C  C34  1  0.512200  0.024400  0.927800  1.0  -0.1493
  C  C35  1  0.920200  0.460100  0.855500  1.0  0.7588
  C  C36  1  0.975600  0.487800  0.927800  1.0  -0.1466
  C  C37  1  0.460100  0.539900  0.355500  1.0  0.7591
  C  C38  1  0.487800  0.512200  0.427800  1.0  -0.1472
  C  C39  1  0.460100  0.920200  0.355500  1.0  0.7563
  C  C40  1  0.487800  0.975600  0.427800  1.0  -0.1483
  C  C41  1  0.079800  0.539900  0.355500  1.0  0.759
  C  C42  1  0.024400  0.512200  0.427800  1.0  -0.147
  C  C43  1  0.460100  0.539900  0.144500  1.0  0.7588
  C  C44  1  0.487800  0.512200  0.072200  1.0  -0.1474
  C  C45  1  0.079800  0.539900  0.144500  1.0  0.7592
  C  C46  1  0.024400  0.512200  0.072200  1.0  -0.1468
  C  C47  1  0.460100  0.920200  0.144500  1.0  0.7562
  C  C48  1  0.487800  0.975600  0.072200  1.0  -0.1491
  C  C49  1  0.539900  0.460100  0.644500  1.0  0.7592
  C  C50  1  0.512200  0.487800  0.572200  1.0  -0.1469
  C  C51  1  0.920200  0.460100  0.644500  1.0  0.7584
  C  C52  1  0.975600  0.487800  0.572200  1.0  -0.1472
  C  C53  1  0.539900  0.079800  0.644500  1.0  0.7574
  C  C54  1  0.512200  0.024400  0.572200  1.0  -0.1493
  N  N55  1  0.261000  0.283000  0.927600  1.0  -0.2313
  N  N56  1  0.717000  0.978000  0.927600  1.0  -0.2321
  N  N57  1  0.022000  0.739000  0.927600  1.0  -0.2273
  N  N58  1  0.739000  0.717000  0.427600  1.0  -0.2297
  N  N59  1  0.283000  0.022000  0.427600  1.0  -0.2305
  N  N60  1  0.978000  0.261000  0.427600  1.0  -0.2299
  N  N61  1  0.283000  0.261000  0.072400  1.0  -0.2282
  N  N62  1  0.978000  0.717000  0.072400  1.0  -0.2298
  N  N63  1  0.739000  0.022000  0.072400  1.0  -0.2305
  N  N64  1  0.717000  0.739000  0.572400  1.0  -0.2279
  N  N65  1  0.022000  0.283000  0.572400  1.0  -0.2293
  N  N66  1  0.261000  0.978000  0.572400  1.0  -0.2304
  N  N67  1  0.739000  0.717000  0.072400  1.0  -0.2291
  N  N68  1  0.283000  0.022000  0.072400  1.0  -0.2302
  N  N69  1  0.978000  0.261000  0.072400  1.0  -0.229
  N  N70  1  0.261000  0.283000  0.572400  1.0  -0.2299
  N  N71  1  0.717000  0.978000  0.572400  1.0  -0.2311
  N  N72  1  0.022000  0.739000  0.572400  1.0  -0.2271
  N  N73  1  0.717000  0.739000  0.927600  1.0  -0.2284
  N  N74  1  0.022000  0.283000  0.927600  1.0  -0.2305
  N  N75  1  0.261000  0.978000  0.927600  1.0  -0.2312
  N  N76  1  0.283000  0.261000  0.427600  1.0  -0.229
  N  N77  1  0.978000  0.717000  0.427600  1.0  -0.2303
  N  N78  1  0.739000  0.022000  0.427600  1.0  -0.2312
  O  O79  1  0.652600  0.552600  0.825500  1.0  -0.5429
  O  O80  1  0.447400  0.100000  0.825500  1.0  -0.5452
  O  O81  1  0.900000  0.347400  0.825500  1.0  -0.5448
  O  O82  1  0.347400  0.447400  0.325500  1.0  -0.5436
  O  O83  1  0.552600  0.900000  0.325500  1.0  -0.5456
  O  O84  1  0.100000  0.652600  0.325500  1.0  -0.5447
  O  O85  1  0.552600  0.652600  0.174500  1.0  -0.5442
  O  O86  1  0.100000  0.447400  0.174500  1.0  -0.5431
  O  O87  1  0.347400  0.900000  0.174500  1.0  -0.5444
  O  O88  1  0.447400  0.347400  0.674500  1.0  -0.5445
  O  O89  1  0.900000  0.552600  0.674500  1.0  -0.5431
  O  O90  1  0.652600  0.100000  0.674500  1.0  -0.5457
  O  O91  1  0.347400  0.447400  0.174500  1.0  -0.5433
  O  O92  1  0.552600  0.900000  0.174500  1.0  -0.5455
  O  O93  1  0.100000  0.652600  0.174500  1.0  -0.5446
  O  O94  1  0.652600  0.552600  0.674500  1.0  -0.5426
  O  O95  1  0.447400  0.100000  0.674500  1.0  -0.5452
  O  O96  1  0.900000  0.347400  0.674500  1.0  -0.5445
  O  O97  1  0.447400  0.347400  0.825500  1.0  -0.5449
  O  O98  1  0.900000  0.552600  0.825500  1.0  -0.5431
  O  O99  1  0.652600  0.100000  0.825500  1.0  -0.5457
  O  O100  1  0.552600  0.652600  0.325500  1.0  -0.5439
  O  O101  1  0.100000  0.447400  0.325500  1.0  -0.5436
  O  O102  1  0.347400  0.900000  0.325500  1.0  -0.5446
  O  O103  1  0.666667  0.333333  0.750000  1.0  -0.8971
  O  O104  1  0.333333  0.666667  0.250000  1.0  -0.8971
