# generated using pymatgen
data_Zn7(PO4)6
_symmetry_space_group_name_H-M   'P 1'
_cell_length_a   13.72490000
_cell_length_b   13.72490000
_cell_length_c   15.33160000
_cell_angle_alpha   90.00000000
_cell_angle_beta   90.00000000
_cell_angle_gamma   120.00000000
_symmetry_Int_Tables_number   1
_chemical_formula_structural   Zn7(PO4)6
_chemical_formula_sum   'Zn21 P18 O72'
_cell_volume   2501.13129004
_cell_formula_units_Z   3
loop_
 _symmetry_equiv_pos_site_id
 _symmetry_equiv_pos_as_xyz
  1  'x, y, z'
loop_
 _atom_site_type_symbol
 _atom_site_label
 _atom_site_symmetry_multiplicity
 _atom_site_fract_x
 _atom_site_fract_y
 _atom_site_fract_z
 _atom_site_occupancy
 _atom_site_charge
  Zn  Zn1  1  0.241400  0.213900  0.093200  1.0  1.1583
  Zn  Zn2  1  0.908070  0.547230  0.426530  1.0  1.1585
  Zn  Zn3  1  0.574730  0.880570  0.759870  1.0  1.1583
  Zn  Zn4  1  0.786100  0.027500  0.093200  1.0  1.1589
  Zn  Zn5  1  0.452770  0.360830  0.426530  1.0  1.1558
  Zn  Zn6  1  0.119430  0.694170  0.759870  1.0  1.1589
  Zn  Zn7  1  0.972500  0.758600  0.093200  1.0  1.1585
  Zn  Zn8  1  0.639170  0.091930  0.426530  1.0  1.1586
  Zn  Zn9  1  0.305830  0.425270  0.759870  1.0  1.1585
  Zn  Zn10  1  0.758600  0.786100  0.906800  1.0  1.1565
  Zn  Zn11  1  0.425270  0.119430  0.240130  1.0  1.1565
  Zn  Zn12  1  0.091930  0.452770  0.573470  1.0  1.1567
  Zn  Zn13  1  0.213900  0.972500  0.906800  1.0  1.1557
  Zn  Zn14  1  0.880570  0.305830  0.240130  1.0  1.1557
  Zn  Zn15  1  0.547230  0.639170  0.573470  1.0  1.1533
  Zn  Zn16  1  0.027500  0.241400  0.906800  1.0  1.1558
  Zn  Zn17  1  0.694170  0.574730  0.240130  1.0  1.1558
  Zn  Zn18  1  0.360830  0.908070  0.573470  1.0  1.1559
  Zn  Zn19  1  0.000000  0.000000  0.000000  1.0  0.9733
  Zn  Zn20  1  0.666667  0.333333  0.333333  1.0  0.9507
  Zn  Zn21  1  0.333333  0.666667  0.666667  1.0  0.9494
  P  P22  1  0.020000  0.225500  0.105300  1.0  1.9454
  P  P23  1  0.686670  0.558830  0.438630  1.0  1.9454
  P  P24  1  0.353330  0.892170  0.771970  1.0  1.9454
  P  P25  1  0.774500  0.794500  0.105300  1.0  1.9194
  P  P26  1  0.441170  0.127830  0.438630  1.0  1.9194
  P  P27  1  0.107830  0.461170  0.771970  1.0  1.9194
  P  P28  1  0.205500  0.980000  0.105300  1.0  1.9308
  P  P29  1  0.872170  0.313330  0.438630  1.0  1.9308
  P  P30  1  0.538830  0.646670  0.771970  1.0  1.9308
  P  P31  1  0.980000  0.774500  0.894700  1.0  1.9322
  P  P32  1  0.646670  0.107830  0.228030  1.0  1.9322
  P  P33  1  0.313330  0.441170  0.561370  1.0  1.9322
  P  P34  1  0.225500  0.205500  0.894700  1.0  1.9308
  P  P35  1  0.892170  0.538830  0.228030  1.0  1.9308
  P  P36  1  0.558830  0.872170  0.561370  1.0  1.9308
  P  P37  1  0.794500  0.020000  0.894700  1.0  1.919
  P  P38  1  0.461170  0.353330  0.228030  1.0  1.919
  P  P39  1  0.127830  0.686670  0.561370  1.0  1.919
  O  O40  1  0.135400  0.254100  0.139000  1.0  -0.7351
  O  O41  1  0.030800  0.296200  0.025200  1.0  -0.7391
  O  O42  1  0.956800  0.244400  0.176700  1.0  -0.8395
  O  O43  1  0.953300  0.099900  0.078600  1.0  -0.9333
  O  O44  1  0.802070  0.587430  0.472330  1.0  -0.7487
  O  O45  1  0.697470  0.629530  0.358530  1.0  -0.7389
  O  O46  1  0.623470  0.577730  0.510030  1.0  -0.8395
  O  O47  1  0.619970  0.433230  0.411930  1.0  -0.9333
  O  O48  1  0.468730  0.920770  0.805670  1.0  -0.7351
  O  O49  1  0.364130  0.962870  0.691870  1.0  -0.7379
  O  O50  1  0.290130  0.911070  0.843370  1.0  -0.8395
  O  O51  1  0.286630  0.766570  0.745270  1.0  -0.9333
  O  O52  1  0.745900  0.881300  0.139000  1.0  -0.7483
  O  O53  1  0.703800  0.734600  0.025200  1.0  -0.7379
  O  O54  1  0.755600  0.712400  0.176700  1.0  -0.8395
  O  O55  1  0.900100  0.853400  0.078600  1.0  -0.933
  O  O56  1  0.412570  0.214630  0.472330  1.0  -0.7375
  O  O57  1  0.370470  0.067930  0.358530  1.0  -0.7379
  O  O58  1  0.422270  0.045730  0.510030  1.0  -0.8395
  O  O59  1  0.566770  0.186730  0.411930  1.0  -0.933
  O  O60  1  0.079230  0.547970  0.805670  1.0  -0.7483
  O  O61  1  0.037130  0.401270  0.691870  1.0  -0.7276
  O  O62  1  0.088930  0.379070  0.843370  1.0  -0.8395
  O  O63  1  0.233430  0.520070  0.745270  1.0  -0.933
  O  O64  1  0.118700  0.864600  0.139000  1.0  -0.7366
  O  O65  1  0.265400  0.969200  0.025200  1.0  -0.7221
  O  O66  1  0.287600  0.043200  0.176700  1.0  -0.8375
  O  O67  1  0.146600  0.046700  0.078600  1.0  -0.9323
  O  O68  1  0.785370  0.197930  0.472330  1.0  -0.743
  O  O69  1  0.932070  0.302530  0.358530  1.0  -0.7218
  O  O70  1  0.954270  0.376530  0.510030  1.0  -0.8373
  O  O71  1  0.813270  0.380030  0.411930  1.0  -0.9323
  O  O72  1  0.452030  0.531270  0.805670  1.0  -0.7366
  O  O73  1  0.598730  0.635870  0.691870  1.0  -0.7335
  O  O74  1  0.620930  0.709870  0.843370  1.0  -0.8375
  O  O75  1  0.479930  0.713370  0.745270  1.0  -0.9323
  O  O76  1  0.864600  0.745900  0.861000  1.0  -0.7361
  O  O77  1  0.969200  0.703800  0.974800  1.0  -0.7393
  O  O78  1  0.043200  0.755600  0.823300  1.0  -0.8409
  O  O79  1  0.046700  0.900100  0.921400  1.0  -0.9316
  O  O80  1  0.531270  0.079230  0.194330  1.0  -0.7361
  O  O81  1  0.635870  0.037130  0.308130  1.0  -0.7378
  O  O82  1  0.709870  0.088930  0.156630  1.0  -0.8409
  O  O83  1  0.713370  0.233430  0.254730  1.0  -0.9316
  O  O84  1  0.197930  0.412570  0.527670  1.0  -0.75
  O  O85  1  0.302530  0.370470  0.641470  1.0  -0.7391
  O  O86  1  0.376530  0.422270  0.489970  1.0  -0.8409
  O  O87  1  0.380030  0.566770  0.588070  1.0  -0.9316
  O  O88  1  0.254100  0.118700  0.861000  1.0  -0.7495
  O  O89  1  0.296200  0.265400  0.974800  1.0  -0.7391
  O  O90  1  0.244400  0.287600  0.823300  1.0  -0.8405
  O  O91  1  0.099900  0.146600  0.921400  1.0  -0.9307
  O  O92  1  0.920770  0.452030  0.194330  1.0  -0.7495
  O  O93  1  0.962870  0.598730  0.308130  1.0  -0.7283
  O  O94  1  0.911070  0.620930  0.156630  1.0  -0.8405
  O  O95  1  0.766570  0.479930  0.254730  1.0  -0.9307
  O  O96  1  0.587430  0.785370  0.527670  1.0  -0.7403
  O  O97  1  0.629530  0.932070  0.641470  1.0  -0.7391
  O  O98  1  0.577730  0.954270  0.489970  1.0  -0.8405
  O  O99  1  0.433230  0.813270  0.588070  1.0  -0.9307
  O  O100  1  0.881300  0.135400  0.861000  1.0  -0.7387
  O  O101  1  0.734600  0.030800  0.974800  1.0  -0.7201
  O  O102  1  0.712400  0.956800  0.823300  1.0  -0.8397
  O  O103  1  0.853400  0.953300  0.921400  1.0  -0.9306
  O  O104  1  0.547970  0.468730  0.194330  1.0  -0.7387
  O  O105  1  0.401270  0.364130  0.308130  1.0  -0.733
  O  O106  1  0.379070  0.290130  0.156630  1.0  -0.8397
  O  O107  1  0.520070  0.286630  0.254730  1.0  -0.9306
  O  O108  1  0.214630  0.802070  0.527670  1.0  -0.7452
  O  O109  1  0.067930  0.697470  0.641470  1.0  -0.7198
  O  O110  1  0.045730  0.623470  0.489970  1.0  -0.8395
  O  O111  1  0.186730  0.619970  0.588070  1.0  -0.9306
