# generated using pymatgen
data_Zn4(PO4)3
_symmetry_space_group_name_H-M   'P 1'
_cell_length_a   5.26970000
_cell_length_b   12.14000000
_cell_length_c   13.91610000
_cell_angle_alpha   115.43900000
_cell_angle_beta   98.39200000
_cell_angle_gamma   91.15700000
_symmetry_Int_Tables_number   1
_chemical_formula_structural   Zn4(PO4)3
_chemical_formula_sum   'Zn8 P6 O24'
_cell_volume   791.91451386
_cell_formula_units_Z   2
loop_
 _symmetry_equiv_pos_site_id
 _symmetry_equiv_pos_as_xyz
  1  'x, y, z'
loop_
 _atom_site_type_symbol
 _atom_site_label
 _atom_site_symmetry_multiplicity
 _atom_site_fract_x
 _atom_site_fract_y
 _atom_site_fract_z
 _atom_site_occupancy
 _atom_site_charge
  Zn  Zn1  1  0.509700  0.397600  0.167300  1.0  1.0531
  Zn  Zn2  1  0.047600  0.303500  0.954600  1.0  1.1612
  Zn  Zn3  1  0.441300  0.114100  0.153500  1.0  0.9528
  Zn  Zn4  1  0.226900  0.491800  0.381900  1.0  1.1478
  Zn  Zn5  1  0.490300  0.602400  0.832700  1.0  1.0535
  Zn  Zn6  1  0.952400  0.696500  0.045400  1.0  1.1628
  Zn  Zn7  1  0.558700  0.885900  0.846500  1.0  0.9568
  Zn  Zn8  1  0.773100  0.508200  0.618100  1.0  1.1491
  P  P9  1  0.031900  0.537100  0.177400  1.0  1.8143
  P  P10  1  0.699600  0.337000  0.362200  1.0  1.8869
  P  P11  1  0.536500  0.168600  0.959700  1.0  1.8282
  P  P12  1  0.968100  0.462900  0.822600  1.0  1.8147
  P  P13  1  0.300400  0.663000  0.637800  1.0  1.8881
  P  P14  1  0.463500  0.831400  0.040300  1.0  1.8275
  O  O15  1  0.150200  0.415100  0.111000  1.0  -0.9361
  O  O16  1  0.104600  0.634600  0.142700  1.0  -0.7771
  O  O17  1  0.741100  0.512700  0.159100  1.0  -0.8213
  O  O18  1  0.159100  0.582400  0.295500  1.0  -0.7435
  O  O19  1  0.521000  0.407800  0.312700  1.0  -0.9571
  O  O20  1  0.621300  0.200700  0.300600  1.0  -0.7399
  O  O21  1  0.662500  0.380100  0.478400  1.0  -0.8321
  O  O22  1  0.976400  0.363100  0.352800  1.0  -0.827
  O  O23  1  0.536600  0.220700  0.084200  1.0  -0.9518
  O  O24  1  0.409300  0.038100  0.907800  1.0  -0.7262
  O  O25  1  0.814600  0.170100  0.941100  1.0  -0.7773
  O  O26  1  0.379800  0.249200  0.919200  1.0  -0.7603
  O  O27  1  0.849800  0.584900  0.889000  1.0  -0.9356
  O  O28  1  0.895400  0.365400  0.857300  1.0  -0.778
  O  O29  1  0.258900  0.487300  0.840900  1.0  -0.8205
  O  O30  1  0.840900  0.417600  0.704500  1.0  -0.7431
  O  O31  1  0.479000  0.592200  0.687300  1.0  -0.958
  O  O32  1  0.378700  0.799300  0.699400  1.0  -0.7381
  O  O33  1  0.337500  0.619900  0.521600  1.0  -0.8321
  O  O34  1  0.023600  0.636900  0.647200  1.0  -0.8286
  O  O35  1  0.463400  0.779300  0.915800  1.0  -0.9528
  O  O36  1  0.590700  0.961900  0.092200  1.0  -0.7245
  O  O37  1  0.185400  0.829900  0.058900  1.0  -0.776
  O  O38  1  0.620200  0.750800  0.080800  1.0  -0.7595
