# generated using pymatgen
data_Ti2P4H3O16
_symmetry_space_group_name_H-M   'P 1'
_cell_length_a   10.74550000
_cell_length_b   6.34690000
_cell_length_c   20.48000000
_cell_angle_alpha   90.00000000
_cell_angle_beta   104.28600000
_cell_angle_gamma   90.00000000
_symmetry_Int_Tables_number   1
_chemical_formula_structural   Ti2P4H3O16
_chemical_formula_sum   'Ti8 P16 H12 O64'
_cell_volume   1353.55559863
_cell_formula_units_Z   4
loop_
 _symmetry_equiv_pos_site_id
 _symmetry_equiv_pos_as_xyz
  1  'x, y, z'
loop_
 _atom_site_type_symbol
 _atom_site_label
 _atom_site_symmetry_multiplicity
 _atom_site_fract_x
 _atom_site_fract_y
 _atom_site_fract_z
 _atom_site_occupancy
 _atom_site_charge
  Ti  Ti1  1  0.890600  0.035100  0.200300  1.0  1.9759
  Ti  Ti2  1  0.096700  0.543000  0.393500  1.0  2.0206
  Ti  Ti3  1  0.609400  0.535100  0.299700  1.0  1.9765
  Ti  Ti4  1  0.403300  0.043000  0.106500  1.0  2.0226
  Ti  Ti5  1  0.109400  0.964900  0.799700  1.0  1.9765
  Ti  Ti6  1  0.903300  0.457000  0.606500  1.0  2.023
  Ti  Ti7  1  0.390600  0.464900  0.700300  1.0  1.9758
  Ti  Ti8  1  0.596700  0.957000  0.893500  1.0  2.021
  P  P9  1  0.172300  0.171600  0.177700  1.0  1.8452
  P  P10  1  0.883800  0.537700  0.243000  1.0  1.8815
  P  P11  1  0.025200  0.048800  0.366500  1.0  1.7352
  P  P12  1  0.679800  0.081600  0.053200  1.0  1.8379
  P  P13  1  0.327700  0.671600  0.322300  1.0  1.8484
  P  P14  1  0.616200  0.037700  0.257000  1.0  1.8821
  P  P15  1  0.474800  0.548800  0.133500  1.0  1.7342
  P  P16  1  0.820200  0.581600  0.446800  1.0  1.8396
  P  P17  1  0.827700  0.828400  0.822300  1.0  1.8484
  P  P18  1  0.116200  0.462300  0.757000  1.0  1.8821
  P  P19  1  0.974800  0.951200  0.633500  1.0  1.734
  P  P20  1  0.320200  0.918400  0.946800  1.0  1.84
  P  P21  1  0.672300  0.328400  0.677700  1.0  1.8452
  P  P22  1  0.383800  0.962300  0.743000  1.0  1.8815
  P  P23  1  0.525200  0.451200  0.866500  1.0  1.735
  P  P24  1  0.179800  0.418400  0.553200  1.0  1.8381
  H  H25  1  0.318800  0.244700  0.253100  1.0  0.406
  H  H26  1  0.863800  0.193300  0.369500  1.0  0.4179
  H  H27  1  0.649700  0.383400  0.065600  1.0  0.4134
  H  H28  1  0.181200  0.744700  0.246900  1.0  0.4074
  H  H29  1  0.636200  0.693300  0.130500  1.0  0.4156
  H  H30  1  0.850300  0.883400  0.434400  1.0  0.4144
  H  H31  1  0.681200  0.755300  0.746900  1.0  0.407
  H  H32  1  0.136200  0.806700  0.630500  1.0  0.4146
  H  H33  1  0.350300  0.616600  0.934400  1.0  0.4136
  H  H34  1  0.818800  0.255300  0.753100  1.0  0.4061
  H  H35  1  0.363800  0.306700  0.869500  1.0  0.4153
  H  H36  1  0.149700  0.116600  0.565600  1.0  0.4171
  O  O37  1  0.888400  0.729600  0.199000  1.0  -0.825
  O  O38  1  0.802200  0.028900  0.105600  1.0  -0.841
  O  O39  1  0.887700  0.342900  0.200500  1.0  -0.8367
  O  O40  1  0.997100  0.031000  0.291500  1.0  -0.841
  O  O41  1  0.765300  0.538000  0.270000  1.0  -0.8633
  O  O42  1  0.049700  0.046000  0.171000  1.0  -0.7968
  O  O43  1  0.002500  0.540300  0.302800  1.0  -0.8921
  O  O44  1  0.086500  0.848300  0.401200  1.0  -0.8448
  O  O45  1  0.687800  0.968100  0.988900  1.0  -0.8033
  O  O46  1  0.113800  0.235600  0.391900  1.0  -0.7868
  O  O47  1  0.244300  0.069900  0.129900  1.0  -0.8961
  O  O48  1  0.565600  0.013200  0.078200  1.0  -0.7461
  O  O49  1  0.253400  0.175700  0.250900  1.0  -0.648
  O  O50  1  0.145800  0.401300  0.157200  1.0  -0.649
  O  O51  1  0.897600  0.084500  0.387000  1.0  -0.6233
  O  O52  1  0.675500  0.318400  0.036900  1.0  -0.643
  O  O53  1  0.611600  0.229600  0.301000  1.0  -0.8284
  O  O54  1  0.697800  0.528900  0.394400  1.0  -0.8398
  O  O55  1  0.612300  0.842900  0.299500  1.0  -0.8384
  O  O56  1  0.502900  0.531000  0.208500  1.0  -0.8389
  O  O57  1  0.734700  0.038000  0.230000  1.0  -0.8642
  O  O58  1  0.450300  0.546000  0.329000  1.0  -0.7966
  O  O59  1  0.497500  0.040300  0.197200  1.0  -0.892
  O  O60  1  0.413500  0.348300  0.098800  1.0  -0.8442
  O  O61  1  0.812200  0.468100  0.511100  1.0  -0.8021
  O  O62  1  0.386200  0.735600  0.108100  1.0  -0.7884
  O  O63  1  0.255700  0.569900  0.370100  1.0  -0.8941
  O  O64  1  0.934400  0.513200  0.421800  1.0  -0.7462
  O  O65  1  0.246600  0.675700  0.249100  1.0  -0.648
  O  O66  1  0.354200  0.901300  0.342800  1.0  -0.6461
  O  O67  1  0.602400  0.584500  0.113000  1.0  -0.6249
  O  O68  1  0.824500  0.818400  0.463100  1.0  -0.6452
  O  O69  1  0.111600  0.270400  0.801000  1.0  -0.8284
  O  O70  1  0.197800  0.971100  0.894400  1.0  -0.8398
  O  O71  1  0.112300  0.657100  0.799500  1.0  -0.8386
  O  O72  1  0.002900  0.969000  0.708500  1.0  -0.8388
  O  O73  1  0.234700  0.462000  0.730000  1.0  -0.8643
  O  O74  1  0.950300  0.954000  0.829000  1.0  -0.796
  O  O75  1  0.997500  0.459700  0.697200  1.0  -0.8921
  O  O76  1  0.913500  0.151700  0.598800  1.0  -0.8437
  O  O77  1  0.312200  0.031900  0.011100  1.0  -0.8022
  O  O78  1  0.886200  0.764400  0.608100  1.0  -0.7875
  O  O79  1  0.755700  0.930100  0.870100  1.0  -0.8936
  O  O80  1  0.434400  0.986800  0.921800  1.0  -0.7463
  O  O81  1  0.746600  0.824300  0.749100  1.0  -0.6494
  O  O82  1  0.854200  0.598700  0.842800  1.0  -0.6471
  O  O83  1  0.102400  0.915500  0.613000  1.0  -0.6249
  O  O84  1  0.324500  0.681600  0.963100  1.0  -0.6444
  O  O85  1  0.388400  0.770400  0.699000  1.0  -0.8259
  O  O86  1  0.302200  0.471100  0.605600  1.0  -0.8403
  O  O87  1  0.387700  0.157100  0.700500  1.0  -0.8365
  O  O88  1  0.497100  0.469000  0.791500  1.0  -0.8407
  O  O89  1  0.265300  0.962000  0.770000  1.0  -0.8634
  O  O90  1  0.549700  0.454000  0.671000  1.0  -0.7964
  O  O91  1  0.502500  0.959700  0.802800  1.0  -0.8923
  O  O92  1  0.586500  0.651700  0.901200  1.0  -0.8444
  O  O93  1  0.187800  0.531900  0.488900  1.0  -0.8025
  O  O94  1  0.613800  0.264400  0.891900  1.0  -0.7867
  O  O95  1  0.744300  0.430100  0.629900  1.0  -0.8958
  O  O96  1  0.065600  0.486800  0.578200  1.0  -0.7464
  O  O97  1  0.753400  0.324300  0.750900  1.0  -0.649
  O  O98  1  0.645800  0.098700  0.657200  1.0  -0.6492
  O  O99  1  0.397600  0.415500  0.887000  1.0  -0.6243
  O  O100  1  0.175500  0.181600  0.536900  1.0  -0.6438
