# generated using pymatgen
data_Zn(CO2)3
_symmetry_space_group_name_H-M   'P 1'
_cell_length_a   15.37100000
_cell_length_b   15.37100000
_cell_length_c   15.37100000
_cell_angle_alpha   90.00000000
_cell_angle_beta   90.00000000
_cell_angle_gamma   90.00000000
_symmetry_Int_Tables_number   1
_chemical_formula_structural   Zn(CO2)3
_chemical_formula_sum   'Zn8 C24 O48'
_cell_volume   3631.66990981
_cell_formula_units_Z   8
loop_
 _symmetry_equiv_pos_site_id
 _symmetry_equiv_pos_as_xyz
  1  'x, y, z'
loop_
 _atom_site_type_symbol
 _atom_site_label
 _atom_site_symmetry_multiplicity
 _atom_site_fract_x
 _atom_site_fract_y
 _atom_site_fract_z
 _atom_site_occupancy
 _atom_site_charge
  Zn  Zn1  1  0.125000  0.625000  0.875000  1.0  1.0033
  Zn  Zn2  1  0.625000  0.125000  0.375000  1.0  1.0033
  Zn  Zn3  1  0.375000  0.375000  0.375000  1.0  1.0033
  Zn  Zn4  1  0.875000  0.875000  0.875000  1.0  1.0033
  Zn  Zn5  1  0.875000  0.125000  0.625000  1.0  1.0033
  Zn  Zn6  1  0.375000  0.625000  0.125000  1.0  1.0033
  Zn  Zn7  1  0.625000  0.875000  0.125000  1.0  1.0033
  Zn  Zn8  1  0.125000  0.375000  0.625000  1.0  1.0033
  C  C9  1  0.963300  0.713300  0.875000  1.0  0.5847
  C  C10  1  0.536700  0.286700  0.375000  1.0  0.5843
  C  C11  1  0.036700  0.213300  0.625000  1.0  0.5852
  C  C12  1  0.463300  0.786700  0.125000  1.0  0.5836
  C  C13  1  0.875000  0.963300  0.713300  1.0  0.5833
  C  C14  1  0.375000  0.536700  0.286700  1.0  0.5829
  C  C15  1  0.625000  0.036700  0.213300  1.0  0.5834
  C  C16  1  0.125000  0.463300  0.786700  1.0  0.5846
  C  C17  1  0.713300  0.875000  0.963300  1.0  0.5876
  C  C18  1  0.286700  0.375000  0.536700  1.0  0.5895
  C  C19  1  0.213300  0.625000  0.036700  1.0  0.5872
  C  C20  1  0.786700  0.125000  0.463300  1.0  0.5879
  C  C21  1  0.463300  0.213300  0.375000  1.0  0.5847
  C  C22  1  0.036700  0.786700  0.875000  1.0  0.5843
  C  C23  1  0.963300  0.286700  0.625000  1.0  0.5836
  C  C24  1  0.536700  0.713300  0.125000  1.0  0.5852
  C  C25  1  0.713300  0.125000  0.536700  1.0  0.5872
  C  C26  1  0.286700  0.625000  0.963300  1.0  0.5879
  C  C27  1  0.786700  0.875000  0.036700  1.0  0.5895
  C  C28  1  0.213300  0.375000  0.463300  1.0  0.5876
  C  C29  1  0.625000  0.963300  0.286700  1.0  0.5846
  C  C30  1  0.125000  0.536700  0.713300  1.0  0.5834
  C  C31  1  0.375000  0.463300  0.213300  1.0  0.5833
  C  C32  1  0.875000  0.036700  0.786700  1.0  0.5829
  O  O33  1  0.988900  0.636300  0.878900  1.0  -0.4617
  O  O34  1  0.488900  0.136300  0.378900  1.0  -0.4617
  O  O35  1  0.511100  0.363700  0.378900  1.0  -0.4602
  O  O36  1  0.011100  0.863700  0.878900  1.0  -0.4602
  O  O37  1  0.011100  0.136300  0.621100  1.0  -0.462
  O  O38  1  0.511100  0.636300  0.121100  1.0  -0.462
  O  O39  1  0.488900  0.863700  0.121100  1.0  -0.4606
  O  O40  1  0.988900  0.363700  0.621100  1.0  -0.4626
  O  O41  1  0.878900  0.988900  0.636300  1.0  -0.4579
  O  O42  1  0.378900  0.488900  0.136300  1.0  -0.4579
  O  O43  1  0.378900  0.511100  0.363700  1.0  -0.4579
  O  O44  1  0.878900  0.011100  0.863700  1.0  -0.458
  O  O45  1  0.621100  0.011100  0.136300  1.0  -0.4584
  O  O46  1  0.121100  0.511100  0.636300  1.0  -0.4585
  O  O47  1  0.121100  0.488900  0.863700  1.0  -0.457
  O  O48  1  0.621100  0.988900  0.363700  1.0  -0.4594
  O  O49  1  0.636300  0.878900  0.988900  1.0  -0.4606
  O  O50  1  0.136300  0.378900  0.488900  1.0  -0.4606
  O  O51  1  0.363700  0.378900  0.511100  1.0  -0.4601
  O  O52  1  0.863700  0.878900  0.011100  1.0  -0.4601
  O  O53  1  0.136300  0.621100  0.011100  1.0  -0.461
  O  O54  1  0.636300  0.121100  0.511100  1.0  -0.461
  O  O55  1  0.863700  0.121100  0.488900  1.0  -0.458
  O  O56  1  0.363700  0.621100  0.988900  1.0  -0.4599
  O  O57  1  0.386300  0.238900  0.371100  1.0  -0.463
  O  O58  1  0.886300  0.738900  0.871100  1.0  -0.4636
  O  O59  1  0.113700  0.761100  0.871100  1.0  -0.4619
  O  O60  1  0.613700  0.261100  0.371100  1.0  -0.4619
  O  O61  1  0.886300  0.261100  0.628900  1.0  -0.4624
  O  O62  1  0.386300  0.761100  0.128900  1.0  -0.4624
  O  O63  1  0.613700  0.738900  0.128900  1.0  -0.4619
  O  O64  1  0.113700  0.238900  0.628900  1.0  -0.4628
  O  O65  1  0.738900  0.128900  0.613700  1.0  -0.4593
  O  O66  1  0.238900  0.628900  0.113700  1.0  -0.4593
  O  O67  1  0.261100  0.628900  0.886300  1.0  -0.4566
  O  O68  1  0.761100  0.128900  0.386300  1.0  -0.4566
  O  O69  1  0.761100  0.871100  0.113700  1.0  -0.4569
  O  O70  1  0.261100  0.371100  0.613700  1.0  -0.4569
  O  O71  1  0.238900  0.371100  0.386300  1.0  -0.4583
  O  O72  1  0.738900  0.871100  0.886300  1.0  -0.4582
  O  O73  1  0.628900  0.886300  0.261100  1.0  -0.46
  O  O74  1  0.128900  0.386300  0.761100  1.0  -0.46
  O  O75  1  0.128900  0.613700  0.738900  1.0  -0.4591
  O  O76  1  0.628900  0.113700  0.238900  1.0  -0.4591
  O  O77  1  0.371100  0.386300  0.238900  1.0  -0.4593
  O  O78  1  0.871100  0.886300  0.738900  1.0  -0.4592
  O  O79  1  0.871100  0.113700  0.761100  1.0  -0.4589
  O  O80  1  0.371100  0.613700  0.261100  1.0  -0.4589
