# generated using pymatgen
data_NiH2(CO2)2
_symmetry_space_group_name_H-M   'P 1'
_cell_length_a   9.77630000
_cell_length_b   11.14870000
_cell_length_c   14.36430000
_cell_angle_alpha   91.38830000
_cell_angle_beta   90.00000000
_cell_angle_gamma   90.00000000
_symmetry_Int_Tables_number   1
_chemical_formula_structural   NiH2(CO2)2
_chemical_formula_sum   'Ni12 H24 C24 O48'
_cell_volume   1565.14909250
_cell_formula_units_Z   12
loop_
 _symmetry_equiv_pos_site_id
 _symmetry_equiv_pos_as_xyz
  1  'x, y, z'
loop_
 _atom_site_type_symbol
 _atom_site_label
 _atom_site_symmetry_multiplicity
 _atom_site_fract_x
 _atom_site_fract_y
 _atom_site_fract_z
 _atom_site_occupancy
 _atom_site_charge
  Ni  Ni1  1  0.923610  0.244420  0.364910  1.0  1.0728
  Ni  Ni2  1  0.617310  0.240960  0.307740  1.0  1.0367
  Ni  Ni3  1  0.423610  0.255580  0.135090  1.0  1.0731
  Ni  Ni4  1  0.117310  0.259040  0.192260  1.0  1.0367
  Ni  Ni5  1  0.076390  0.755580  0.635090  1.0  1.0724
  Ni  Ni6  1  0.382690  0.759040  0.692260  1.0  1.0358
  Ni  Ni7  1  0.576390  0.744420  0.864910  1.0  1.0721
  Ni  Ni8  1  0.882690  0.740960  0.807740  1.0  1.0358
  Ni  Ni9  1  0.000000  0.500000  0.500000  1.0  1.0474
  Ni  Ni10  1  0.500000  0.000000  0.000000  1.0  1.0474
  Ni  Ni11  1  0.000000  0.000000  0.500000  1.0  1.064
  Ni  Ni12  1  0.500000  0.500000  0.000000  1.0  1.064
  H  H13  1  0.707100  0.009900  0.486000  1.0  0.0138
  H  H14  1  0.622100  0.444000  0.451800  1.0  0.0169
  H  H15  1  0.194100  0.017300  0.270800  1.0  0.0088
  H  H16  1  0.764400  0.145500  0.129000  1.0  0.0095
  H  H17  1  0.156800  0.303200  0.571500  1.0  0.0119
  H  H18  1  0.053200  0.522500  0.238600  1.0  0.0155
  H  H19  1  0.207100  0.490100  0.014000  1.0  0.0132
  H  H20  1  0.122100  0.056000  0.048200  1.0  0.0168
  H  H21  1  0.694100  0.482700  0.229200  1.0  0.0082
  H  H22  1  0.264400  0.354500  0.371000  1.0  0.0093
  H  H23  1  0.656800  0.196800  0.928500  1.0  0.0115
  H  H24  1  0.553200  0.977500  0.261400  1.0  0.0171
  H  H25  1  0.292900  0.990100  0.514000  1.0  0.0135
  H  H26  1  0.377900  0.556000  0.548200  1.0  0.0169
  H  H27  1  0.805900  0.982700  0.729200  1.0  0.0078
  H  H28  1  0.235600  0.854500  0.871000  1.0  0.0094
  H  H29  1  0.843200  0.696800  0.428500  1.0  0.0111
  H  H30  1  0.946800  0.477500  0.761400  1.0  0.0174
  H  H31  1  0.792900  0.509900  0.986000  1.0  0.0138
  H  H32  1  0.877900  0.944000  0.951800  1.0  0.0169
  H  H33  1  0.305900  0.517300  0.770800  1.0  0.0091
  H  H34  1  0.735600  0.645500  0.629000  1.0  0.0095
  H  H35  1  0.343200  0.803200  0.071500  1.0  0.0113
  H  H36  1  0.446800  0.022500  0.738600  1.0  0.0153
  C  C37  1  0.725000  0.071700  0.445400  1.0  0.6973
  C  C38  1  0.714900  0.427000  0.446200  1.0  0.6913
  C  C39  1  0.133000  0.045250  0.316050  1.0  0.6926
  C  C40  1  0.834500  0.172810  0.167810  1.0  0.6903
  C  C41  1  0.102100  0.257640  0.531240  1.0  0.6971
  C  C42  1  0.025400  0.481550  0.290950  1.0  0.6884
  C  C43  1  0.225000  0.428300  0.054600  1.0  0.6967
  C  C44  1  0.214900  0.073000  0.053800  1.0  0.6892
  C  C45  1  0.633000  0.454750  0.183950  1.0  0.6927
  C  C46  1  0.334500  0.327190  0.332190  1.0  0.6906
  C  C47  1  0.602100  0.242360  0.968760  1.0  0.6967
  C  C48  1  0.525400  0.018450  0.209050  1.0  0.6875
  C  C49  1  0.275000  0.928300  0.554600  1.0  0.696
  C  C50  1  0.285100  0.573000  0.553800  1.0  0.6907
  C  C51  1  0.867000  0.954750  0.683950  1.0  0.6913
  C  C52  1  0.165500  0.827190  0.832190  1.0  0.6912
  C  C53  1  0.897900  0.742360  0.468760  1.0  0.6975
  C  C54  1  0.974600  0.518450  0.709050  1.0  0.688
  C  C55  1  0.775000  0.571700  0.945400  1.0  0.697
  C  C56  1  0.785100  0.927000  0.946200  1.0  0.6881
  C  C57  1  0.367000  0.545250  0.816050  1.0  0.6918
  C  C58  1  0.665500  0.672810  0.667810  1.0  0.6906
  C  C59  1  0.397900  0.757640  0.031240  1.0  0.6971
  C  C60  1  0.474600  0.981550  0.790950  1.0  0.6877
  O  O61  1  0.849600  0.102900  0.437490  1.0  -0.6877
  O  O62  1  0.625410  0.114390  0.405020  1.0  -0.5749
  O  O63  1  0.805240  0.190050  0.253370  1.0  -0.6482
  O  O64  1  0.748210  0.346350  0.386770  1.0  -0.6586
  O  O65  1  0.085940  0.149730  0.305620  1.0  -0.661
  O  O66  1  0.010960  0.369300  0.281530  1.0  -0.6411
  O  O67  1  0.025070  0.315210  0.475930  1.0  -0.6702
  O  O68  1  0.947660  0.188950  0.131250  1.0  -0.5681
  O  O69  1  0.006300  0.542040  0.362240  1.0  -0.5737
  O  O70  1  0.793110  0.485320  0.497420  1.0  -0.5654
  O  O71  1  0.107200  0.976620  0.379000  1.0  -0.5618
  O  O72  1  0.110950  0.147900  0.536540  1.0  -0.5851
  O  O73  1  0.349600  0.397100  0.062510  1.0  -0.6867
  O  O74  1  0.125410  0.385610  0.094980  1.0  -0.5747
  O  O75  1  0.305240  0.309950  0.246630  1.0  -0.6485
  O  O76  1  0.248210  0.153650  0.113230  1.0  -0.6596
  O  O77  1  0.585940  0.350270  0.194380  1.0  -0.6619
  O  O78  1  0.510960  0.130700  0.218470  1.0  -0.6406
  O  O79  1  0.525070  0.184790  0.024070  1.0  -0.6698
  O  O80  1  0.447660  0.311050  0.368750  1.0  -0.5685
  O  O81  1  0.506300  0.957960  0.137760  1.0  -0.5742
  O  O82  1  0.293110  0.014680  0.002580  1.0  -0.5659
  O  O83  1  0.607200  0.523380  0.121000  1.0  -0.5621
  O  O84  1  0.610950  0.352100  0.963460  1.0  -0.5855
  O  O85  1  0.150400  0.897100  0.562510  1.0  -0.6814
  O  O86  1  0.374590  0.885610  0.594980  1.0  -0.5751
  O  O87  1  0.194760  0.809950  0.746630  1.0  -0.6488
  O  O88  1  0.251790  0.653650  0.613230  1.0  -0.6602
  O  O89  1  0.914060  0.850270  0.694380  1.0  -0.6623
  O  O90  1  0.989040  0.630700  0.718470  1.0  -0.6403
  O  O91  1  0.974930  0.684790  0.524070  1.0  -0.6689
  O  O92  1  0.052340  0.811050  0.868750  1.0  -0.5686
  O  O93  1  0.993700  0.457960  0.637760  1.0  -0.5743
  O  O94  1  0.206890  0.514680  0.502580  1.0  -0.5668
  O  O95  1  0.892800  0.023380  0.621000  1.0  -0.5625
  O  O96  1  0.889050  0.852100  0.463460  1.0  -0.5849
  O  O97  1  0.650400  0.602900  0.937490  1.0  -0.6835
  O  O98  1  0.874590  0.614390  0.905020  1.0  -0.575
  O  O99  1  0.694760  0.690050  0.753370  1.0  -0.6484
  O  O100  1  0.751790  0.846350  0.886770  1.0  -0.6588
  O  O101  1  0.414060  0.649730  0.805620  1.0  -0.6613
  O  O102  1  0.489040  0.869300  0.781530  1.0  -0.641
  O  O103  1  0.474930  0.815210  0.975930  1.0  -0.6692
  O  O104  1  0.552340  0.688950  0.631250  1.0  -0.5678
  O  O105  1  0.493700  0.042040  0.862240  1.0  -0.5737
  O  O106  1  0.706890  0.985320  0.997420  1.0  -0.5666
  O  O107  1  0.392800  0.476620  0.879000  1.0  -0.5618
  O  O108  1  0.389050  0.647900  0.036540  1.0  -0.5851
