# generated using pymatgen
data_CaCo2H12C12(NO6)2
_symmetry_space_group_name_H-M   'P 1'
_cell_length_a   6.99100000
_cell_length_b   10.03100000
_cell_length_c   16.23800000
_cell_angle_alpha   90.00000000
_cell_angle_beta   98.50000000
_cell_angle_gamma   90.00000000
_symmetry_Int_Tables_number   1
_chemical_formula_structural   CaCo2H12C12(NO6)2
_chemical_formula_sum   'Ca2 Co4 H24 C24 N4 O24'
_cell_volume   1126.20986484
_cell_formula_units_Z   2
loop_
 _symmetry_equiv_pos_site_id
 _symmetry_equiv_pos_as_xyz
  1  'x, y, z'
loop_
 _atom_site_type_symbol
 _atom_site_label
 _atom_site_symmetry_multiplicity
 _atom_site_fract_x
 _atom_site_fract_y
 _atom_site_fract_z
 _atom_site_occupancy
 _atom_site_charge
  Ca  Ca1  1  0.000000  0.000000  0.500000  1.0  1.6365
  Ca  Ca2  1  0.500000  0.500000  0.000000  1.0  1.6365
  Co  Co3  1  0.152960  0.636140  0.292600  1.0  0.84
  Co  Co4  1  0.347040  0.136140  0.207400  1.0  0.8412
  Co  Co5  1  0.847040  0.363860  0.707400  1.0  0.841
  Co  Co6  1  0.652960  0.863860  0.792600  1.0  0.8408
  H  H7  1  0.021000  0.370000  0.384000  1.0  0.1073
  H  H8  1  0.854000  0.325000  0.316000  1.0  0.088
  H  H9  1  0.702000  0.458000  0.225000  1.0  0.1758
  H  H10  1  0.645000  0.588000  0.255000  1.0  0.1044
  H  H11  1  0.703000  0.581000  0.391000  1.0  0.1068
  H  H12  1  0.886000  0.527000  0.439000  1.0  0.0788
  H  H13  1  0.479000  0.870000  0.116000  1.0  0.1103
  H  H14  1  0.646000  0.825000  0.184000  1.0  0.0885
  H  H15  1  0.798000  0.958000  0.275000  1.0  0.1756
  H  H16  1  0.855000  0.088000  0.245000  1.0  0.1033
  H  H17  1  0.797000  0.081000  0.109000  1.0  0.1068
  H  H18  1  0.614000  0.027000  0.061000  1.0  0.0786
  H  H19  1  0.979000  0.630000  0.616000  1.0  0.1105
  H  H20  1  0.146000  0.675000  0.684000  1.0  0.0889
  H  H21  1  0.298000  0.542000  0.775000  1.0  0.1781
  H  H22  1  0.355000  0.412000  0.745000  1.0  0.1036
  H  H23  1  0.297000  0.419000  0.609000  1.0  0.1067
  H  H24  1  0.114000  0.473000  0.561000  1.0  0.0782
  H  H25  1  0.521000  0.130000  0.884000  1.0  0.1073
  H  H26  1  0.354000  0.175000  0.816000  1.0  0.0879
  H  H27  1  0.202000  0.042000  0.725000  1.0  0.1795
  H  H28  1  0.145000  0.912000  0.755000  1.0  0.1044
  H  H29  1  0.203000  0.919000  0.891000  1.0  0.1069
  H  H30  1  0.386000  0.973000  0.939000  1.0  0.0784
  C  C31  1  0.961800  0.384800  0.325100  1.0  -0.1795
  C  C32  1  0.113900  0.352300  0.269700  1.0  0.7214
  C  C33  1  0.751900  0.540600  0.241500  1.0  -0.1134
  C  C34  1  0.824200  0.604100  0.167300  1.0  0.7302
  C  C35  1  0.837000  0.580700  0.390900  1.0  -0.2082
  C  C36  1  0.908400  0.723500  0.407100  1.0  0.7153
  C  C37  1  0.538200  0.884800  0.174900  1.0  -0.1813
  C  C38  1  0.386100  0.852300  0.230300  1.0  0.7234
  C  C39  1  0.748100  0.040600  0.258500  1.0  -0.1122
  C  C40  1  0.675800  0.104100  0.332700  1.0  0.7359
  C  C41  1  0.663000  0.080700  0.109100  1.0  -0.2063
  C  C42  1  0.591600  0.223500  0.092900  1.0  0.7156
  C  C43  1  0.038200  0.615200  0.674900  1.0  -0.1799
  C  C44  1  0.886100  0.647700  0.730300  1.0  0.7232
  C  C45  1  0.248100  0.459400  0.758500  1.0  -0.1124
  C  C46  1  0.175800  0.395900  0.832700  1.0  0.7338
  C  C47  1  0.163000  0.419300  0.609100  1.0  -0.2078
  C  C48  1  0.091600  0.276500  0.592900  1.0  0.715
  C  C49  1  0.461800  0.115200  0.825100  1.0  -0.1796
  C  C50  1  0.613900  0.147700  0.769700  1.0  0.7214
  C  C51  1  0.251900  0.959400  0.741500  1.0  -0.1145
  C  C52  1  0.324200  0.895900  0.667300  1.0  0.7321
  C  C53  1  0.337000  0.919300  0.890900  1.0  -0.2067
  C  C54  1  0.408400  0.776500  0.907100  1.0  0.7159
  N  N55  1  0.899300  0.524200  0.315600  1.0  -0.115
  N  N56  1  0.600700  0.024200  0.184400  1.0  -0.1151
  N  N57  1  0.100700  0.475800  0.684400  1.0  -0.1152
  N  N58  1  0.399300  0.975800  0.815600  1.0  -0.115
  O  O59  1  0.221700  0.444900  0.252800  1.0  -0.5824
  O  O60  1  0.123100  0.233700  0.246900  1.0  -0.6159
  O  O61  1  0.981100  0.667400  0.179200  1.0  -0.6058
  O  O62  1  0.718900  0.597200  0.099100  1.0  -0.7463
  O  O63  1  0.021800  0.772100  0.362500  1.0  -0.6449
  O  O64  1  0.852400  0.784800  0.466300  1.0  -0.6844
  O  O65  1  0.278300  0.944900  0.247200  1.0  -0.5835
  O  O66  1  0.376900  0.733700  0.253100  1.0  -0.6152
  O  O67  1  0.518900  0.167400  0.320800  1.0  -0.605
  O  O68  1  0.781100  0.097200  0.400900  1.0  -0.7439
  O  O69  1  0.478200  0.272100  0.137500  1.0  -0.6448
  O  O70  1  0.647600  0.284800  0.033700  1.0  -0.6841
  O  O71  1  0.778300  0.555100  0.747200  1.0  -0.5829
  O  O72  1  0.876900  0.766300  0.753100  1.0  -0.6158
  O  O73  1  0.018900  0.332600  0.820800  1.0  -0.6042
  O  O74  1  0.281100  0.402800  0.900900  1.0  -0.7451
  O  O75  1  0.978200  0.227900  0.637500  1.0  -0.6459
  O  O76  1  0.147600  0.215200  0.533700  1.0  -0.6835
  O  O77  1  0.721700  0.055100  0.752800  1.0  -0.5824
  O  O78  1  0.623100  0.266300  0.746900  1.0  -0.6159
  O  O79  1  0.481100  0.832600  0.679200  1.0  -0.6055
  O  O80  1  0.218900  0.902800  0.599100  1.0  -0.7447
  O  O81  1  0.521800  0.727900  0.862500  1.0  -0.6456
  O  O82  1  0.352400  0.715200  0.966300  1.0  -0.6837
