# generated using pymatgen
data_Tm2U3H6(C5O4)6
_symmetry_space_group_name_H-M   'P 1'
_cell_length_a   10.51050000
_cell_length_b   11.43900000
_cell_length_c   13.44430000
_cell_angle_alpha   68.99800000
_cell_angle_beta   78.80500000
_cell_angle_gamma   63.73200000
_symmetry_Int_Tables_number   1
_chemical_formula_structural   Tm2U3H6(C5O4)6
_chemical_formula_sum   'Tm2 U3 H6 C30 O24'
_cell_volume   1351.97153911
_cell_formula_units_Z   1
loop_
 _symmetry_equiv_pos_site_id
 _symmetry_equiv_pos_as_xyz
  1  'x, y, z'
loop_
 _atom_site_type_symbol
 _atom_site_label
 _atom_site_symmetry_multiplicity
 _atom_site_fract_x
 _atom_site_fract_y
 _atom_site_fract_z
 _atom_site_occupancy
 _atom_site_charge
  Tm  Tm1  1  0.598210  0.231530  0.750420  1.0  1.9345
  Tm  Tm2  1  0.401790  0.768470  0.249580  1.0  1.9341
  U  U3  1  0.622200  0.713350  0.836790  1.0  1.7653
  U  U4  1  0.377800  0.286650  0.163210  1.0  1.7655
  U  U5  1  0.000000  0.500000  0.500000  1.0  1.88
  H  H6  1  0.098600  0.361600  0.955300  1.0  0.097
  H  H7  1  0.157500  0.111400  0.733700  1.0  0.0916
  H  H8  1  0.712200  0.998700  0.419500  1.0  0.0906
  H  H9  1  0.901400  0.638400  0.044700  1.0  0.097
  H  H10  1  0.842500  0.888600  0.266300  1.0  0.0914
  H  H11  1  0.287800  0.001300  0.580500  1.0  0.0912
  C  C12  1  0.994800  0.343500  0.853600  1.0  -0.0773
  C  C13  1  0.112000  0.314100  0.908000  1.0  -0.0541
  C  C14  1  0.248500  0.216100  0.894100  1.0  -0.1153
  C  C15  1  0.265000  0.145500  0.823100  1.0  -0.078
  C  C16  1  0.146200  0.166200  0.774600  1.0  -0.0682
  C  C17  1  0.012800  0.266500  0.786200  1.0  -0.0751
  C  C18  1  0.625600  0.999000  0.452100  1.0  -0.0727
  C  C19  1  0.616600  0.877400  0.504500  1.0  -0.1528
  C  C20  1  0.489900  0.874200  0.555400  1.0  -0.0949
  C  C21  1  0.864000  0.462600  0.857200  1.0  0.6563
  C  C22  1  0.362800  0.195000  0.955500  1.0  0.7276
  C  C23  1  0.407000  0.043000  0.795400  1.0  0.6951
  C  C24  1  0.894500  0.291800  0.725900  1.0  0.6881
  C  C25  1  0.468100  0.746100  0.620100  1.0  0.7277
  C  C26  1  0.745300  0.747000  0.507700  1.0  0.6744
  C  C27  1  0.005200  0.656500  0.146400  1.0  -0.0781
  C  C28  1  0.888000  0.685900  0.092000  1.0  -0.0535
  C  C29  1  0.751500  0.783900  0.105900  1.0  -0.1171
  C  C30  1  0.735000  0.854500  0.176900  1.0  -0.0775
  C  C31  1  0.853800  0.833800  0.225400  1.0  -0.0679
  C  C32  1  0.987200  0.733500  0.213800  1.0  -0.0751
  C  C33  1  0.374400  0.001000  0.547900  1.0  -0.0753
  C  C34  1  0.383400  0.122600  0.495500  1.0  -0.1479
  C  C35  1  0.510100  0.125800  0.444600  1.0  -0.0943
  C  C36  1  0.136000  0.537400  0.142800  1.0  0.6575
  C  C37  1  0.637200  0.805000  0.044500  1.0  0.7286
  C  C38  1  0.593000  0.957000  0.204600  1.0  0.6964
  C  C39  1  0.105500  0.708200  0.274100  1.0  0.6866
  C  C40  1  0.531900  0.253900  0.379900  1.0  0.7253
  C  C41  1  0.254700  0.253000  0.492300  1.0  0.674
  O  O42  1  0.851600  0.536100  0.914800  1.0  -0.6898
  O  O43  1  0.760500  0.496200  0.801200  1.0  -0.6155
  O  O44  1  0.812000  0.235100  0.771200  1.0  -0.7743
  O  O45  1  0.886100  0.362400  0.626800  1.0  -0.7212
  O  O46  1  0.417500  0.921000  0.818500  1.0  -0.7009
  O  O47  1  0.503000  0.080100  0.754200  1.0  -0.6937
  O  O48  1  0.484600  0.180000  0.915200  1.0  -0.7281
  O  O49  1  0.329000  0.194900  0.051700  1.0  -0.7478
  O  O50  1  0.501800  0.694000  0.717200  1.0  -0.748
  O  O51  1  0.412200  0.699400  0.579600  1.0  -0.5384
  O  O52  1  0.735000  0.634800  0.534900  1.0  -0.6534
  O  O53  1  0.865700  0.750500  0.479700  1.0  -0.6884
  O  O54  1  0.148400  0.463900  0.085200  1.0  -0.6895
  O  O55  1  0.239500  0.503800  0.198800  1.0  -0.6186
  O  O56  1  0.188000  0.764900  0.228800  1.0  -0.7745
  O  O57  1  0.113900  0.637600  0.373200  1.0  -0.7213
  O  O58  1  0.582500  0.079000  0.181500  1.0  -0.699
  O  O59  1  0.497000  0.919900  0.245800  1.0  -0.6959
  O  O60  1  0.515400  0.820000  0.084800  1.0  -0.7282
  O  O61  1  0.671000  0.805100  0.948300  1.0  -0.7464
  O  O62  1  0.498200  0.306000  0.282800  1.0  -0.7478
  O  O63  1  0.587800  0.300600  0.420400  1.0  -0.5413
  O  O64  1  0.265000  0.365200  0.465100  1.0  -0.653
  O  O65  1  0.134300  0.249500  0.520300  1.0  -0.6859
