# generated using pymatgen
data_La2U3H6(C5O4)6
_symmetry_space_group_name_H-M   'P 1'
_cell_length_a   11.00100000
_cell_length_b   11.56300000
_cell_length_c   13.43200000
_cell_angle_alpha   69.35800000
_cell_angle_beta   79.86900000
_cell_angle_gamma   61.86400000
_symmetry_Int_Tables_number   1
_chemical_formula_structural   La2U3H6(C5O4)6
_chemical_formula_sum   'La2 U3 H6 C30 O24'
_cell_volume   1409.88124834
_cell_formula_units_Z   1
loop_
 _symmetry_equiv_pos_site_id
 _symmetry_equiv_pos_as_xyz
  1  'x, y, z'
loop_
 _atom_site_type_symbol
 _atom_site_label
 _atom_site_symmetry_multiplicity
 _atom_site_fract_x
 _atom_site_fract_y
 _atom_site_fract_z
 _atom_site_occupancy
 _atom_site_charge
  La  La1  1  0.624380  0.212800  0.775210  1.0  1.7809
  La  La2  1  0.375620  0.787200  0.224790  1.0  1.7828
  U  U3  1  0.633300  0.701250  0.833770  1.0  1.7579
  U  U4  1  0.366700  0.298750  0.166230  1.0  1.7564
  U  U5  1  0.000000  0.500000  0.500000  1.0  1.9811
  H  H6  1  0.098800  0.359800  0.951900  1.0  0.099
  H  H7  1  0.185900  0.097000  0.733400  1.0  0.0955
  H  H8  1  0.703800  0.998100  0.418600  1.0  0.0983
  H  H9  1  0.901200  0.640200  0.048100  1.0  0.0995
  H  H10  1  0.814100  0.903000  0.266600  1.0  0.0938
  H  H11  1  0.296200  0.001900  0.581400  1.0  0.0985
  C  C12  1  0.010600  0.336600  0.845400  1.0  -0.1391
  C  C13  1  0.118100  0.310300  0.904900  1.0  -0.0815
  C  C14  1  0.251200  0.214000  0.896700  1.0  -0.1458
  C  C15  1  0.280300  0.132600  0.830300  1.0  -0.1033
  C  C16  1  0.169400  0.153300  0.774400  1.0  -0.0453
  C  C17  1  0.036100  0.256500  0.780000  1.0  -0.1003
  C  C18  1  0.621600  0.998700  0.451000  1.0  -0.0402
  C  C19  1  0.616700  0.875000  0.502400  1.0  -0.1421
  C  C20  1  0.491700  0.876000  0.554300  1.0  -0.103
  C  C21  1  0.876300  0.452700  0.849700  1.0  0.6163
  C  C22  1  0.355400  0.199700  0.962200  1.0  0.7329
  C  C23  1  0.419500  0.028100  0.810400  1.0  0.7412
  C  C24  1  0.923200  0.276000  0.717200  1.0  0.7695
  C  C25  1  0.475200  0.746300  0.614800  1.0  0.7122
  C  C26  1  0.742500  0.744100  0.505500  1.0  0.6657
  C  C27  1  0.989400  0.663400  0.154600  1.0  -0.1397
  C  C28  1  0.881900  0.689700  0.095100  1.0  -0.0813
  C  C29  1  0.748800  0.786000  0.103300  1.0  -0.1523
  C  C30  1  0.719700  0.867400  0.169700  1.0  -0.1029
  C  C31  1  0.830600  0.846700  0.225600  1.0  -0.0452
  C  C32  1  0.963900  0.743500  0.220000  1.0  -0.1005
  C  C33  1  0.378400  0.001300  0.549000  1.0  -0.0401
  C  C34  1  0.383300  0.125000  0.497600  1.0  -0.14
  C  C35  1  0.508300  0.124000  0.445700  1.0  -0.1028
  C  C36  1  0.123700  0.547300  0.150300  1.0  0.619
  C  C37  1  0.644600  0.800300  0.037800  1.0  0.7316
  C  C38  1  0.580500  0.971900  0.189600  1.0  0.7429
  C  C39  1  0.076800  0.724000  0.282800  1.0  0.7699
  C  C40  1  0.524800  0.253700  0.385200  1.0  0.7104
  C  C41  1  0.257500  0.255900  0.494500  1.0  0.6658
  O  O42  1  0.859200  0.527100  0.905700  1.0  -0.6626
  O  O43  1  0.776100  0.483400  0.795100  1.0  -0.6254
  O  O44  1  0.862200  0.203300  0.760900  1.0  -0.7005
  O  O45  1  0.903800  0.355000  0.622800  1.0  -0.7049
  O  O46  1  0.429700  0.908500  0.828300  1.0  -0.6724
  O  O47  1  0.516900  0.058400  0.776500  1.0  -0.7504
  O  O48  1  0.474500  0.174800  0.932900  1.0  -0.7333
  O  O49  1  0.309500  0.217200  0.053300  1.0  -0.7205
  O  O50  1  0.508200  0.691600  0.713600  1.0  -0.7195
  O  O51  1  0.425300  0.701600  0.570300  1.0  -0.5492
  O  O52  1  0.738200  0.630900  0.531400  1.0  -0.6316
  O  O53  1  0.855900  0.749700  0.476400  1.0  -0.6865
  O  O54  1  0.140800  0.472900  0.094300  1.0  -0.6631
  O  O55  1  0.223900  0.516600  0.204900  1.0  -0.6274
  O  O56  1  0.137800  0.796700  0.239100  1.0  -0.6994
  O  O57  1  0.096200  0.645000  0.377200  1.0  -0.7046
  O  O58  1  0.570300  0.091500  0.171700  1.0  -0.6717
  O  O59  1  0.483100  0.941600  0.223500  1.0  -0.752
  O  O60  1  0.525500  0.825200  0.067100  1.0  -0.7338
  O  O61  1  0.690500  0.782800  0.946700  1.0  -0.7199
  O  O62  1  0.491800  0.308400  0.286400  1.0  -0.7199
  O  O63  1  0.574700  0.298400  0.429700  1.0  -0.5522
  O  O64  1  0.261800  0.369100  0.468600  1.0  -0.6297
  O  O65  1  0.144100  0.250300  0.523600  1.0  -0.6854
