# generated using pymatgen
data_Ho2U3H6(C5O4)6
_symmetry_space_group_name_H-M   'P 1'
_cell_length_a   10.56260000
_cell_length_b   11.45590000
_cell_length_c   13.48390000
_cell_angle_alpha   69.11200000
_cell_angle_beta   78.88900000
_cell_angle_gamma   63.61400000
_symmetry_Int_Tables_number   1
_chemical_formula_structural   Ho2U3H6(C5O4)6
_chemical_formula_sum   'Ho2 U3 H6 C30 O24'
_cell_volume   1364.42312106
_cell_formula_units_Z   1
loop_
 _symmetry_equiv_pos_site_id
 _symmetry_equiv_pos_as_xyz
  1  'x, y, z'
loop_
 _atom_site_type_symbol
 _atom_site_label
 _atom_site_symmetry_multiplicity
 _atom_site_fract_x
 _atom_site_fract_y
 _atom_site_fract_z
 _atom_site_occupancy
 _atom_site_charge
  Ho  Ho1  1  0.599420  0.231480  0.750500  1.0  1.7783
  Ho  Ho2  1  0.400580  0.768520  0.249500  1.0  1.7786
  U  U3  1  0.623160  0.713410  0.836670  1.0  1.7687
  U  U4  1  0.376840  0.286590  0.163330  1.0  1.7693
  U  U5  1  0.000000  0.500000  0.500000  1.0  1.8197
  H  H6  1  0.098700  0.363200  0.955300  1.0  0.0975
  H  H7  1  0.157100  0.111500  0.734100  1.0  0.0896
  H  H8  1  0.713800  0.999800  0.416900  1.0  0.1
  H  H9  1  0.901300  0.636800  0.044700  1.0  0.0983
  H  H10  1  0.842900  0.888500  0.265900  1.0  0.0884
  H  H11  1  0.286200  0.000200  0.583100  1.0  0.1003
  C  C12  1  0.997700  0.345700  0.850000  1.0  -0.129
  C  C13  1  0.113000  0.316500  0.907200  1.0  -0.0439
  C  C14  1  0.248300  0.218700  0.892700  1.0  -0.1332
  C  C15  1  0.266900  0.144000  0.822600  1.0  -0.0982
  C  C16  1  0.147000  0.166200  0.774600  1.0  -0.0621
  C  C17  1  0.014600  0.267400  0.786200  1.0  -0.0592
  C  C18  1  0.628100  0.999600  0.450100  1.0  -0.0556
  C  C19  1  0.618000  0.874300  0.505700  1.0  -0.14
  C  C20  1  0.491000  0.873700  0.556100  1.0  -0.0683
  C  C21  1  0.861800  0.465600  0.854100  1.0  0.6481
  C  C22  1  0.363400  0.195700  0.955400  1.0  0.7054
  C  C23  1  0.407400  0.042400  0.797800  1.0  0.7067
  C  C24  1  0.894300  0.292100  0.724900  1.0  0.7287
  C  C25  1  0.471700  0.744200  0.622000  1.0  0.7251
  C  C26  1  0.744300  0.747300  0.507900  1.0  0.6347
  C  C27  1  0.002300  0.654300  0.150000  1.0  -0.1298
  C  C28  1  0.887000  0.683500  0.092800  1.0  -0.0443
  C  C29  1  0.751700  0.781300  0.107300  1.0  -0.1353
  C  C30  1  0.733100  0.856000  0.177400  1.0  -0.0977
  C  C31  1  0.853000  0.833800  0.225400  1.0  -0.0613
  C  C32  1  0.985400  0.732600  0.213800  1.0  -0.0599
  C  C33  1  0.371900  0.000400  0.549900  1.0  -0.0628
  C  C34  1  0.382000  0.125700  0.494300  1.0  -0.1393
  C  C35  1  0.509000  0.126300  0.443900  1.0  -0.0686
  C  C36  1  0.138200  0.534400  0.145900  1.0  0.6497
  C  C37  1  0.636600  0.804300  0.044600  1.0  0.7062
  C  C38  1  0.592600  0.957600  0.202200  1.0  0.7088
  C  C39  1  0.105700  0.707900  0.275100  1.0  0.7306
  C  C40  1  0.528300  0.255800  0.378000  1.0  0.7239
  C  C41  1  0.255700  0.252700  0.492100  1.0  0.6342
  O  O42  1  0.850900  0.538700  0.911900  1.0  -0.6419
  O  O43  1  0.762200  0.495800  0.801000  1.0  -0.5956
  O  O44  1  0.814500  0.235400  0.770900  1.0  -0.7556
  O  O45  1  0.887200  0.361700  0.628000  1.0  -0.722
  O  O46  1  0.416800  0.922100  0.817500  1.0  -0.6752
  O  O47  1  0.502300  0.080100  0.754000  1.0  -0.703
  O  O48  1  0.481600  0.180600  0.915100  1.0  -0.7093
  O  O49  1  0.327000  0.195200  0.051900  1.0  -0.7346
  O  O50  1  0.502700  0.694000  0.718400  1.0  -0.7321
  O  O51  1  0.417000  0.697300  0.580100  1.0  -0.5338
  O  O52  1  0.737000  0.634600  0.536800  1.0  -0.6259
  O  O53  1  0.865900  0.751000  0.477600  1.0  -0.6662
  O  O54  1  0.149100  0.461300  0.088100  1.0  -0.6449
  O  O55  1  0.237800  0.504200  0.199000  1.0  -0.5966
  O  O56  1  0.185500  0.764600  0.229100  1.0  -0.7576
  O  O57  1  0.112800  0.638300  0.372000  1.0  -0.7225
  O  O58  1  0.583200  0.077900  0.182500  1.0  -0.6739
  O  O59  1  0.497700  0.919900  0.246000  1.0  -0.705
  O  O60  1  0.518400  0.819400  0.084900  1.0  -0.7103
  O  O61  1  0.673000  0.804800  0.948100  1.0  -0.7321
  O  O62  1  0.497300  0.306000  0.281600  1.0  -0.7352
  O  O63  1  0.583000  0.302700  0.419900  1.0  -0.5394
  O  O64  1  0.263000  0.365400  0.463200  1.0  -0.625
  O  O65  1  0.134100  0.249000  0.522400  1.0  -0.6643
