# generated using pymatgen
data_Er2U3H6(C5O4)6
_symmetry_space_group_name_H-M   'P 1'
_cell_length_a   10.51360000
_cell_length_b   11.46500000
_cell_length_c   13.41750000
_cell_angle_alpha   69.08400000
_cell_angle_beta   78.60700000
_cell_angle_gamma   63.54200000
_symmetry_Int_Tables_number   1
_chemical_formula_structural   Er2U3H6(C5O4)6
_chemical_formula_sum   'Er2 U3 H6 C30 O24'
_cell_volume   1351.08367160
_cell_formula_units_Z   1
loop_
 _symmetry_equiv_pos_site_id
 _symmetry_equiv_pos_as_xyz
  1  'x, y, z'
loop_
 _atom_site_type_symbol
 _atom_site_label
 _atom_site_symmetry_multiplicity
 _atom_site_fract_x
 _atom_site_fract_y
 _atom_site_fract_z
 _atom_site_occupancy
 _atom_site_charge
  Er  Er1  1  0.598860  0.230450  0.750150  1.0  1.5357
  Er  Er2  1  0.401140  0.769550  0.249850  1.0  1.5345
  U  U3  1  0.623040  0.713430  0.836400  1.0  1.8142
  U  U4  1  0.376960  0.286570  0.163600  1.0  1.8146
  U  U5  1  0.000000  0.500000  0.500000  1.0  1.8189
  H  H6  1  0.096800  0.358600  0.958400  1.0  0.1041
  H  H7  1  0.158000  0.112600  0.732500  1.0  0.0963
  H  H8  1  0.712600  0.998500  0.415800  1.0  0.1029
  H  H9  1  0.903200  0.641400  0.041600  1.0  0.1051
  H  H10  1  0.842000  0.887400  0.267500  1.0  0.0962
  H  H11  1  0.287400  0.001500  0.584200  1.0  0.1033
  C  C12  1  0.997900  0.343500  0.852800  1.0  -0.1342
  C  C13  1  0.111100  0.312900  0.909500  1.0  -0.0326
  C  C14  1  0.246000  0.215100  0.894800  1.0  -0.1059
  C  C15  1  0.265700  0.141300  0.824700  1.0  -0.0639
  C  C16  1  0.146800  0.166100  0.774500  1.0  -0.0828
  C  C17  1  0.013300  0.267300  0.785400  1.0  -0.0522
  C  C18  1  0.626300  0.999400  0.450100  1.0  -0.0563
  C  C19  1  0.616400  0.875900  0.505400  1.0  -0.1338
  C  C20  1  0.487000  0.876200  0.556100  1.0  -0.0507
  C  C21  1  0.860900  0.461800  0.859200  1.0  0.6731
  C  C22  1  0.362200  0.194400  0.955700  1.0  0.7404
  C  C23  1  0.406800  0.041600  0.795800  1.0  0.7237
  C  C24  1  0.893700  0.291200  0.725500  1.0  0.7113
  C  C25  1  0.468000  0.747500  0.621300  1.0  0.7037
  C  C26  1  0.744500  0.745400  0.507900  1.0  0.6949
  C  C27  1  0.002100  0.656500  0.147200  1.0  -0.1352
  C  C28  1  0.888900  0.687100  0.090500  1.0  -0.0326
  C  C29  1  0.754000  0.784900  0.105200  1.0  -0.1081
  C  C30  1  0.734300  0.858700  0.175300  1.0  -0.0646
  C  C31  1  0.853200  0.833900  0.225500  1.0  -0.083
  C  C32  1  0.986700  0.732700  0.214600  1.0  -0.0523
  C  C33  1  0.373700  0.000600  0.549900  1.0  -0.0589
  C  C34  1  0.383600  0.124100  0.494600  1.0  -0.1315
  C  C35  1  0.513000  0.123800  0.443900  1.0  -0.051
  C  C36  1  0.139100  0.538200  0.140800  1.0  0.6734
  C  C37  1  0.637800  0.805600  0.044300  1.0  0.7411
  C  C38  1  0.593200  0.958400  0.204200  1.0  0.726
  C  C39  1  0.106300  0.708800  0.274500  1.0  0.7094
  C  C40  1  0.532000  0.252500  0.378700  1.0  0.7003
  C  C41  1  0.255500  0.254600  0.492100  1.0  0.6941
  O  O42  1  0.849500  0.537400  0.913700  1.0  -0.6373
  O  O43  1  0.760800  0.496400  0.801700  1.0  -0.6249
  O  O44  1  0.813100  0.235700  0.770900  1.0  -0.7274
  O  O45  1  0.886100  0.363600  0.626900  1.0  -0.7222
  O  O46  1  0.418500  0.920000  0.819300  1.0  -0.681
  O  O47  1  0.503900  0.078400  0.753600  1.0  -0.7087
  O  O48  1  0.484100  0.176900  0.916800  1.0  -0.6932
  O  O49  1  0.327000  0.197100  0.051400  1.0  -0.7263
  O  O50  1  0.500800  0.693900  0.718100  1.0  -0.7187
  O  O51  1  0.409700  0.701600  0.580800  1.0  -0.5269
  O  O52  1  0.732900  0.634000  0.534000  1.0  -0.6366
  O  O53  1  0.865400  0.749600  0.478800  1.0  -0.6889
  O  O54  1  0.150500  0.462600  0.086300  1.0  -0.6368
  O  O55  1  0.239200  0.503600  0.198300  1.0  -0.6266
  O  O56  1  0.186900  0.764300  0.229100  1.0  -0.7269
  O  O57  1  0.113900  0.636400  0.373100  1.0  -0.7224
  O  O58  1  0.581500  0.080000  0.180700  1.0  -0.6785
  O  O59  1  0.496100  0.921600  0.246400  1.0  -0.7119
  O  O60  1  0.515900  0.823100  0.083200  1.0  -0.6921
  O  O61  1  0.673000  0.802900  0.948600  1.0  -0.7256
  O  O62  1  0.499200  0.306100  0.281900  1.0  -0.7194
  O  O63  1  0.590300  0.298400  0.419200  1.0  -0.5315
  O  O64  1  0.267100  0.366000  0.466000  1.0  -0.6375
  O  O65  1  0.134600  0.250400  0.521200  1.0  -0.6864
