# generated using pymatgen
data_Zn3Cr3H48C84N6O31
_symmetry_space_group_name_H-M   'P 1'
_cell_length_a   30.24200000
_cell_length_b   30.24200000
_cell_length_c   13.40600000
_cell_angle_alpha   90.00000000
_cell_angle_beta   90.00000000
_cell_angle_gamma   120.00000000
_symmetry_Int_Tables_number   1
_chemical_formula_structural   Zn3Cr3H48C84N6O31
_chemical_formula_sum   'Zn6 Cr6 H96 C168 N12 O62'
_cell_volume   10618.19911004
_cell_formula_units_Z   2
loop_
 _symmetry_equiv_pos_site_id
 _symmetry_equiv_pos_as_xyz
  1  'x, y, z'
loop_
 _atom_site_type_symbol
 _atom_site_label
 _atom_site_symmetry_multiplicity
 _atom_site_fract_x
 _atom_site_fract_y
 _atom_site_fract_z
 _atom_site_occupancy
 _atom_site_charge
  Zn  Zn1  1  0.206310  0.412620  0.000000  1.0  0.8673
  Zn  Zn2  1  0.587380  0.793690  0.000000  1.0  0.867
  Zn  Zn3  1  0.206310  0.793690  0.000000  1.0  0.8662
  Zn  Zn4  1  0.793690  0.587380  0.000000  1.0  0.8686
  Zn  Zn5  1  0.412620  0.206310  0.000000  1.0  0.8661
  Zn  Zn6  1  0.793690  0.206310  0.000000  1.0  0.8671
  Cr  Cr7  1  0.260230  0.630110  0.500000  1.0  1.5137
  Cr  Cr8  1  0.369890  0.630110  0.500000  1.0  1.5155
  Cr  Cr9  1  0.369890  0.739770  0.500000  1.0  1.5159
  Cr  Cr10  1  0.739770  0.369890  0.500000  1.0  1.5164
  Cr  Cr11  1  0.630110  0.369890  0.500000  1.0  1.5134
  Cr  Cr12  1  0.630110  0.260230  0.500000  1.0  1.5136
  H  H13  1  0.171700  0.470000  0.131000  1.0  0.104
  H  H14  1  0.197100  0.526800  0.261500  1.0  0.1424
  H  H15  1  0.044800  0.369200  0.938300  1.0  0.1568
  H  H16  1  0.045100  0.274800  0.152400  1.0  0.1407
  H  H17  1  0.530000  0.701700  0.131000  1.0  0.1076
  H  H18  1  0.473200  0.670300  0.261500  1.0  0.1426
  H  H19  1  0.630800  0.675600  0.938300  1.0  0.1564
  H  H20  1  0.725200  0.770300  0.152400  1.0  0.1394
  H  H21  1  0.298300  0.828300  0.131000  1.0  0.1053
  H  H22  1  0.329700  0.802900  0.261500  1.0  0.1432
  H  H23  1  0.324400  0.955200  0.938300  1.0  0.1608
  H  H24  1  0.229700  0.954900  0.152400  1.0  0.1413
  H  H25  1  0.828300  0.530000  0.131000  1.0  0.1052
  H  H26  1  0.802900  0.473200  0.261500  1.0  0.1428
  H  H27  1  0.955200  0.630800  0.938300  1.0  0.1584
  H  H28  1  0.954900  0.725200  0.152400  1.0  0.1408
  H  H29  1  0.470000  0.298300  0.131000  1.0  0.1069
  H  H30  1  0.526800  0.329700  0.261500  1.0  0.1434
  H  H31  1  0.369200  0.324400  0.938300  1.0  0.1615
  H  H32  1  0.274800  0.229700  0.152400  1.0  0.1403
  H  H33  1  0.701700  0.171700  0.131000  1.0  0.1057
  H  H34  1  0.670300  0.197100  0.261500  1.0  0.1426
  H  H35  1  0.675600  0.044800  0.938300  1.0  0.1582
  H  H36  1  0.770300  0.045100  0.152400  1.0  0.1394
  H  H37  1  0.470000  0.171700  0.869000  1.0  0.1054
  H  H38  1  0.526800  0.197100  0.738500  1.0  0.1429
  H  H39  1  0.369200  0.044800  0.061700  1.0  0.1635
  H  H40  1  0.274800  0.045100  0.847600  1.0  0.1406
  H  H41  1  0.701700  0.530000  0.869000  1.0  0.1039
  H  H42  1  0.670300  0.473200  0.738500  1.0  0.1427
  H  H43  1  0.675600  0.630800  0.061700  1.0  0.1622
  H  H44  1  0.770300  0.725200  0.847600  1.0  0.1409
  H  H45  1  0.828300  0.298300  0.869000  1.0  0.1068
  H  H46  1  0.802900  0.329700  0.738500  1.0  0.1433
  H  H47  1  0.955200  0.324400  0.061700  1.0  0.1611
  H  H48  1  0.954900  0.229700  0.847600  1.0  0.1394
  H  H49  1  0.530000  0.828300  0.869000  1.0  0.1052
  H  H50  1  0.473200  0.802900  0.738500  1.0  0.1436
  H  H51  1  0.630800  0.955200  0.061700  1.0  0.1614
  H  H52  1  0.725200  0.954900  0.847600  1.0  0.1401
  H  H53  1  0.298300  0.470000  0.869000  1.0  0.1049
  H  H54  1  0.329700  0.526800  0.738500  1.0  0.1428
  H  H55  1  0.324400  0.369200  0.061700  1.0  0.1586
  H  H56  1  0.229700  0.274800  0.847600  1.0  0.1402
  H  H57  1  0.171700  0.701700  0.869000  1.0  0.1073
  H  H58  1  0.197100  0.670300  0.738500  1.0  0.1428
  H  H59  1  0.044800  0.675600  0.061700  1.0  0.1623
  H  H60  1  0.045100  0.770300  0.847600  1.0  0.1391
  H  H61  1  0.828300  0.530000  0.869000  1.0  0.1055
  H  H62  1  0.802900  0.473200  0.738500  1.0  0.1429
  H  H63  1  0.955200  0.630800  0.061700  1.0  0.162
  H  H64  1  0.954900  0.725200  0.847600  1.0  0.1408
  H  H65  1  0.470000  0.298300  0.869000  1.0  0.1068
  H  H66  1  0.526800  0.329700  0.738500  1.0  0.1434
  H  H67  1  0.369200  0.324400  0.061700  1.0  0.1626
  H  H68  1  0.274800  0.229700  0.847600  1.0  0.1383
  H  H69  1  0.701700  0.171700  0.869000  1.0  0.1049
  H  H70  1  0.670300  0.197100  0.738500  1.0  0.1425
  H  H71  1  0.675600  0.044800  0.061700  1.0  0.1622
  H  H72  1  0.770300  0.045100  0.847600  1.0  0.1405
  H  H73  1  0.171700  0.470000  0.869000  1.0  0.1035
  H  H74  1  0.197100  0.526800  0.738500  1.0  0.1426
  H  H75  1  0.044800  0.369200  0.061700  1.0  0.1601
  H  H76  1  0.045100  0.274800  0.847600  1.0  0.1409
  H  H77  1  0.530000  0.701700  0.869000  1.0  0.1078
  H  H78  1  0.473200  0.670300  0.738500  1.0  0.1428
  H  H79  1  0.630800  0.675600  0.061700  1.0  0.1599
  H  H80  1  0.725200  0.770300  0.847600  1.0  0.1395
  H  H81  1  0.298300  0.828300  0.869000  1.0  0.1053
  H  H82  1  0.329700  0.802900  0.738500  1.0  0.1435
  H  H83  1  0.324400  0.955200  0.061700  1.0  0.1639
  H  H84  1  0.229700  0.954900  0.847600  1.0  0.1402
  H  H85  1  0.530000  0.828300  0.131000  1.0  0.1056
  H  H86  1  0.473200  0.802900  0.261500  1.0  0.1433
  H  H87  1  0.630800  0.955200  0.938300  1.0  0.1609
  H  H88  1  0.725200  0.954900  0.152400  1.0  0.1394
  H  H89  1  0.298300  0.470000  0.131000  1.0  0.1046
  H  H90  1  0.329700  0.526800  0.261500  1.0  0.1425
  H  H91  1  0.324400  0.369200  0.938300  1.0  0.1593
  H  H92  1  0.229700  0.274800  0.152400  1.0  0.141
  H  H93  1  0.171700  0.701700  0.131000  1.0  0.1075
  H  H94  1  0.197100  0.670300  0.261500  1.0  0.1429
  H  H95  1  0.044800  0.675600  0.938300  1.0  0.1626
  H  H96  1  0.045100  0.770300  0.152400  1.0  0.1394
  H  H97  1  0.470000  0.171700  0.131000  1.0  0.1055
  H  H98  1  0.526800  0.197100  0.261500  1.0  0.1427
  H  H99  1  0.369200  0.044800  0.938300  1.0  0.1656
  H  H100  1  0.274800  0.045100  0.152400  1.0  0.1409
  H  H101  1  0.701700  0.530000  0.131000  1.0  0.1044
  H  H102  1  0.670300  0.473200  0.261500  1.0  0.1425
  H  H103  1  0.675600  0.630800  0.938300  1.0  0.1608
  H  H104  1  0.770300  0.725200  0.152400  1.0  0.14
  H  H105  1  0.828300  0.298300  0.131000  1.0  0.1065
  H  H106  1  0.802900  0.329700  0.261500  1.0  0.1432
  H  H107  1  0.955200  0.324400  0.938300  1.0  0.1616
  H  H108  1  0.954900  0.229700  0.152400  1.0  0.1405
  C  C109  1  0.204000  0.480900  0.158800  1.0  0.1803
  C  C110  1  0.218600  0.515200  0.237100  1.0  -0.1372
  C  C111  1  0.108700  0.352200  0.057400  1.0  0.1842
  C  C112  1  0.026540  0.341600  0.982000  1.0  0.0058
  C  C113  1  0.026680  0.284800  0.110800  1.0  -0.0507
  C  C114  1  0.051800  0.326700  0.047300  1.0  -0.0202
  C  C115  1  0.519100  0.723100  0.158800  1.0  0.1783
  C  C116  1  0.484800  0.703400  0.237100  1.0  -0.1384
  C  C117  1  0.647800  0.756500  0.057400  1.0  0.1849
  C  C118  1  0.658400  0.684940  0.982000  1.0  0.0106
  C  C119  1  0.715200  0.741880  0.110800  1.0  -0.0512
  C  C120  1  0.673300  0.725100  0.047300  1.0  -0.0244
  C  C121  1  0.276900  0.796000  0.158800  1.0  0.1787
  C  C122  1  0.296600  0.781400  0.237100  1.0  -0.1402
  C  C123  1  0.243500  0.891300  0.057400  1.0  0.1881
  C  C124  1  0.315060  0.973460  0.982000  1.0  0.0037
  C  C125  1  0.258120  0.973320  0.110800  1.0  -0.0506
  C  C126  1  0.274900  0.948200  0.047300  1.0  -0.0252
  C  C127  1  0.796000  0.519100  0.158800  1.0  0.1806
  C  C128  1  0.781400  0.484800  0.237100  1.0  -0.1382
  C  C129  1  0.891300  0.647800  0.057400  1.0  0.1876
  C  C130  1  0.973460  0.658400  0.982000  1.0  0.0071
  C  C131  1  0.973320  0.715200  0.110800  1.0  -0.0511
  C  C132  1  0.948200  0.673300  0.047300  1.0  -0.0264
  C  C133  1  0.480900  0.276900  0.158800  1.0  0.1777
  C  C134  1  0.515200  0.296600  0.237100  1.0  -0.1398
  C  C135  1  0.352200  0.243500  0.057400  1.0  0.1866
  C  C136  1  0.341600  0.315060  0.982000  1.0  0.0041
  C  C137  1  0.284800  0.258120  0.110800  1.0  -0.0498
  C  C138  1  0.326700  0.274900  0.047300  1.0  -0.0194
  C  C139  1  0.723100  0.204000  0.158800  1.0  0.1797
  C  C140  1  0.703400  0.218600  0.237100  1.0  -0.1396
  C  C141  1  0.756500  0.108700  0.057400  1.0  0.1872
  C  C142  1  0.684940  0.026540  0.982000  1.0  0.0102
  C  C143  1  0.741880  0.026680  0.110800  1.0  -0.0534
  C  C144  1  0.725100  0.051800  0.047300  1.0  -0.024
  C  C145  1  0.480900  0.204000  0.841200  1.0  0.1806
  C  C146  1  0.515200  0.218600  0.762900  1.0  -0.1391
  C  C147  1  0.352200  0.108700  0.942600  1.0  0.1904
  C  C148  1  0.341600  0.026540  0.018000  1.0  0.0023
  C  C149  1  0.284800  0.026680  0.889200  1.0  -0.0515
  C  C150  1  0.326700  0.051800  0.952700  1.0  -0.0285
  C  C151  1  0.723100  0.519100  0.841200  1.0  0.1823
  C  C152  1  0.703400  0.484800  0.762900  1.0  -0.137
  C  C153  1  0.756500  0.647800  0.942600  1.0  0.1874
  C  C154  1  0.684940  0.658400  0.018000  1.0  0.0027
  C  C155  1  0.741880  0.715200  0.889200  1.0  -0.0516
  C  C156  1  0.725100  0.673300  0.952700  1.0  -0.0203
  C  C157  1  0.796000  0.276900  0.841200  1.0  0.179
  C  C158  1  0.781400  0.296600  0.762900  1.0  -0.1388
  C  C159  1  0.891300  0.243500  0.942600  1.0  0.1919
  C  C160  1  0.973460  0.315060  0.018000  1.0  0.003
  C  C161  1  0.973320  0.258120  0.889200  1.0  -0.0492
  C  C162  1  0.948200  0.274900  0.952700  1.0  -0.0202
  C  C163  1  0.519100  0.796000  0.841200  1.0  0.1806
  C  C164  1  0.484800  0.781400  0.762900  1.0  -0.1399
  C  C165  1  0.647800  0.891300  0.942600  1.0  0.1919
  C  C166  1  0.658400  0.973460  0.018000  1.0  0.0034
  C  C167  1  0.715200  0.973320  0.889200  1.0  -0.0484
  C  C168  1  0.673300  0.948200  0.952700  1.0  -0.0216
  C  C169  1  0.276900  0.480900  0.841200  1.0  0.1814
  C  C170  1  0.296600  0.515200  0.762900  1.0  -0.138
  C  C171  1  0.243500  0.352200  0.942600  1.0  0.1923
  C  C172  1  0.315060  0.341600  0.018000  1.0  -0.0008
  C  C173  1  0.258120  0.284800  0.889200  1.0  -0.0504
  C  C174  1  0.274900  0.326700  0.952700  1.0  -0.0263
  C  C175  1  0.204000  0.723100  0.841200  1.0  0.179
  C  C176  1  0.218600  0.703400  0.762900  1.0  -0.1389
  C  C177  1  0.108700  0.756500  0.942600  1.0  0.1865
  C  C178  1  0.026540  0.684940  0.018000  1.0  0.0021
  C  C179  1  0.026680  0.741880  0.889200  1.0  -0.0508
  C  C180  1  0.051800  0.725100  0.952700  1.0  -0.0213
  C  C181  1  0.796000  0.519100  0.841200  1.0  0.1832
  C  C182  1  0.781400  0.484800  0.762900  1.0  -0.1379
  C  C183  1  0.891300  0.647800  0.942600  1.0  0.1929
  C  C184  1  0.973460  0.658400  0.018000  1.0  0.0017
  C  C185  1  0.973320  0.715200  0.889200  1.0  -0.0495
  C  C186  1  0.948200  0.673300  0.952700  1.0  -0.0251
  C  C187  1  0.480900  0.276900  0.841200  1.0  0.1804
  C  C188  1  0.515200  0.296600  0.762900  1.0  -0.1389
  C  C189  1  0.352200  0.243500  0.942600  1.0  0.1883
  C  C190  1  0.341600  0.315060  0.018000  1.0  0.0009
  C  C191  1  0.284800  0.258120  0.889200  1.0  -0.0489
  C  C192  1  0.326700  0.274900  0.952700  1.0  -0.0202
  C  C193  1  0.723100  0.204000  0.841200  1.0  0.183
  C  C194  1  0.703400  0.218600  0.762900  1.0  -0.1392
  C  C195  1  0.756500  0.108700  0.942600  1.0  0.1905
  C  C196  1  0.684940  0.026540  0.018000  1.0  0.0036
  C  C197  1  0.741880  0.026680  0.889200  1.0  -0.0515
  C  C198  1  0.725100  0.051800  0.952700  1.0  -0.025
  C  C199  1  0.204000  0.480900  0.841200  1.0  0.1834
  C  C200  1  0.218600  0.515200  0.762900  1.0  -0.1362
  C  C201  1  0.108700  0.352200  0.942600  1.0  0.1874
  C  C202  1  0.026540  0.341600  0.018000  1.0  0.0005
  C  C203  1  0.026680  0.284800  0.889200  1.0  -0.0495
  C  C204  1  0.051800  0.326700  0.952700  1.0  -0.0198
  C  C205  1  0.519100  0.723100  0.841200  1.0  0.1814
  C  C206  1  0.484800  0.703400  0.762900  1.0  -0.1381
  C  C207  1  0.647800  0.756500  0.942600  1.0  0.1905
  C  C208  1  0.658400  0.684940  0.018000  1.0  0.0053
  C  C209  1  0.715200  0.741880  0.889200  1.0  -0.0524
  C  C210  1  0.673300  0.725100  0.952700  1.0  -0.023
  C  C211  1  0.276900  0.796000  0.841200  1.0  0.1813
  C  C212  1  0.296600  0.781400  0.762900  1.0  -0.1387
  C  C213  1  0.243500  0.891300  0.942600  1.0  0.192
  C  C214  1  0.315060  0.973460  0.018000  1.0  0.0016
  C  C215  1  0.258120  0.973320  0.889200  1.0  -0.0493
  C  C216  1  0.274900  0.948200  0.952700  1.0  -0.0264
  C  C217  1  0.519100  0.796000  0.158800  1.0  0.1824
  C  C218  1  0.484800  0.781400  0.237100  1.0  -0.1406
  C  C219  1  0.647800  0.891300  0.057400  1.0  0.1899
  C  C220  1  0.658400  0.973460  0.982000  1.0  0.0074
  C  C221  1  0.715200  0.973320  0.110800  1.0  -0.0507
  C  C222  1  0.673300  0.948200  0.047300  1.0  -0.0204
  C  C223  1  0.276900  0.480900  0.158800  1.0  0.1822
  C  C224  1  0.296600  0.515200  0.237100  1.0  -0.1376
  C  C225  1  0.243500  0.352200  0.057400  1.0  0.1864
  C  C226  1  0.315060  0.341600  0.982000  1.0  0.0042
  C  C227  1  0.258120  0.284800  0.110800  1.0  -0.0515
  C  C228  1  0.274900  0.326700  0.047300  1.0  -0.0262
  C  C229  1  0.204000  0.723100  0.158800  1.0  0.1795
  C  C230  1  0.218600  0.703400  0.237100  1.0  -0.1382
  C  C231  1  0.108700  0.756500  0.057400  1.0  0.1847
  C  C232  1  0.026540  0.684940  0.982000  1.0  0.0057
  C  C233  1  0.026680  0.741880  0.110800  1.0  -0.0505
  C  C234  1  0.051800  0.725100  0.047300  1.0  -0.0209
  C  C235  1  0.480900  0.204000  0.158800  1.0  0.1813
  C  C236  1  0.515200  0.218600  0.237100  1.0  -0.1385
  C  C237  1  0.352200  0.108700  0.057400  1.0  0.1854
  C  C238  1  0.341600  0.026540  0.982000  1.0  0.005
  C  C239  1  0.284800  0.026680  0.110800  1.0  -0.0526
  C  C240  1  0.326700  0.051800  0.047300  1.0  -0.0286
  C  C241  1  0.723100  0.519100  0.158800  1.0  0.183
  C  C242  1  0.703400  0.484800  0.237100  1.0  -0.1368
  C  C243  1  0.756500  0.647800  0.057400  1.0  0.1852
  C  C244  1  0.684940  0.658400  0.982000  1.0  0.0063
  C  C245  1  0.741880  0.715200  0.110800  1.0  -0.0525
  C  C246  1  0.725100  0.673300  0.047300  1.0  -0.0215
  C  C247  1  0.796000  0.276900  0.158800  1.0  0.1806
  C  C248  1  0.781400  0.296600  0.237100  1.0  -0.1386
  C  C249  1  0.891300  0.243500  0.057400  1.0  0.1876
  C  C250  1  0.973460  0.315060  0.982000  1.0  0.0088
  C  C251  1  0.973320  0.258120  0.110800  1.0  -0.0501
  C  C252  1  0.948200  0.274900  0.047300  1.0  -0.0217
  C  C253  1  0.265700  0.531400  0.277200  1.0  -0.0786
  C  C254  1  0.283900  0.567800  0.361200  1.0  0.7533
  C  C255  1  0.468600  0.734300  0.277200  1.0  -0.0796
  C  C256  1  0.432200  0.716100  0.361200  1.0  0.7539
  C  C257  1  0.265700  0.734300  0.277200  1.0  -0.0795
  C  C258  1  0.283900  0.716100  0.361200  1.0  0.7536
  C  C259  1  0.734300  0.468600  0.277200  1.0  -0.0786
  C  C260  1  0.716100  0.432200  0.361200  1.0  0.7529
  C  C261  1  0.531400  0.265700  0.277200  1.0  -0.0794
  C  C262  1  0.567800  0.283900  0.361200  1.0  0.7542
  C  C263  1  0.734300  0.265700  0.277200  1.0  -0.0794
  C  C264  1  0.716100  0.283900  0.361200  1.0  0.7546
  C  C265  1  0.531400  0.265700  0.722800  1.0  -0.0793
  C  C266  1  0.567800  0.283900  0.638800  1.0  0.7539
  C  C267  1  0.734300  0.468600  0.722800  1.0  -0.079
  C  C268  1  0.716100  0.432200  0.638800  1.0  0.7525
  C  C269  1  0.734300  0.265700  0.722800  1.0  -0.0795
  C  C270  1  0.716100  0.283900  0.638800  1.0  0.7542
  C  C271  1  0.468600  0.734300  0.722800  1.0  -0.0797
  C  C272  1  0.432200  0.716100  0.638800  1.0  0.7533
  C  C273  1  0.265700  0.531400  0.722800  1.0  -0.0786
  C  C274  1  0.283900  0.567800  0.638800  1.0  0.753
  C  C275  1  0.265700  0.734300  0.722800  1.0  -0.0794
  C  C276  1  0.283900  0.716100  0.638800  1.0  0.7532
  N  N277  1  0.230850  0.461700  0.119000  1.0  -0.2856
  N  N278  1  0.538300  0.769150  0.119000  1.0  -0.2841
  N  N279  1  0.230850  0.769150  0.119000  1.0  -0.2841
  N  N280  1  0.769150  0.538300  0.119000  1.0  -0.2851
  N  N281  1  0.461700  0.230850  0.119000  1.0  -0.2846
  N  N282  1  0.769150  0.230850  0.119000  1.0  -0.2845
  N  N283  1  0.461700  0.230850  0.881000  1.0  -0.2837
  N  N284  1  0.769150  0.538300  0.881000  1.0  -0.2849
  N  N285  1  0.769150  0.230850  0.881000  1.0  -0.2836
  N  N286  1  0.538300  0.769150  0.881000  1.0  -0.2833
  N  N287  1  0.230850  0.461700  0.881000  1.0  -0.2853
  N  N288  1  0.230850  0.769150  0.881000  1.0  -0.2832
  O  O289  1  0.254500  0.582400  0.393900  1.0  -0.6109
  O  O290  1  0.136000  0.342800  0.114400  1.0  -0.5828
  O  O291  1  0.417600  0.672100  0.393900  1.0  -0.6125
  O  O292  1  0.657200  0.793200  0.114400  1.0  -0.5857
  O  O293  1  0.327900  0.745500  0.393900  1.0  -0.6111
  O  O294  1  0.206800  0.864000  0.114400  1.0  -0.5842
  O  O295  1  0.745500  0.417600  0.393900  1.0  -0.6117
  O  O296  1  0.864000  0.657200  0.114400  1.0  -0.5847
  O  O297  1  0.582400  0.327900  0.393900  1.0  -0.6147
  O  O298  1  0.342800  0.206800  0.114400  1.0  -0.5844
  O  O299  1  0.672100  0.254500  0.393900  1.0  -0.6102
  O  O300  1  0.793200  0.136000  0.114400  1.0  -0.5856
  O  O301  1  0.582400  0.254500  0.606100  1.0  -0.6105
  O  O302  1  0.342800  0.136000  0.885600  1.0  -0.5892
  O  O303  1  0.672100  0.417600  0.606100  1.0  -0.6109
  O  O304  1  0.793200  0.657200  0.885600  1.0  -0.5859
  O  O305  1  0.745500  0.327900  0.606100  1.0  -0.6127
  O  O306  1  0.864000  0.206800  0.885600  1.0  -0.5891
  O  O307  1  0.417600  0.745500  0.606100  1.0  -0.6103
  O  O308  1  0.657200  0.864000  0.885600  1.0  -0.5861
  O  O309  1  0.327900  0.582400  0.606100  1.0  -0.6119
  O  O310  1  0.206800  0.342800  0.885600  1.0  -0.5883
  O  O311  1  0.254500  0.672100  0.606100  1.0  -0.6133
  O  O312  1  0.136000  0.793200  0.885600  1.0  -0.5877
  O  O313  1  0.745500  0.417600  0.606100  1.0  -0.6114
  O  O314  1  0.864000  0.657200  0.885600  1.0  -0.5881
  O  O315  1  0.582400  0.327900  0.606100  1.0  -0.6148
  O  O316  1  0.342800  0.206800  0.885600  1.0  -0.5889
  O  O317  1  0.672100  0.254500  0.606100  1.0  -0.61
  O  O318  1  0.793200  0.136000  0.885600  1.0  -0.5869
  O  O319  1  0.254500  0.582400  0.606100  1.0  -0.6109
  O  O320  1  0.136000  0.342800  0.885600  1.0  -0.5862
  O  O321  1  0.417600  0.672100  0.606100  1.0  -0.612
  O  O322  1  0.657200  0.793200  0.885600  1.0  -0.588
  O  O323  1  0.327900  0.745500  0.606100  1.0  -0.6114
  O  O324  1  0.206800  0.864000  0.885600  1.0  -0.589
  O  O325  1  0.417600  0.745500  0.393900  1.0  -0.6101
  O  O326  1  0.657200  0.864000  0.114400  1.0  -0.5842
  O  O327  1  0.327900  0.582400  0.393900  1.0  -0.6123
  O  O328  1  0.206800  0.342800  0.114400  1.0  -0.584
  O  O329  1  0.254500  0.672100  0.393900  1.0  -0.6132
  O  O330  1  0.136000  0.793200  0.114400  1.0  -0.5846
  O  O331  1  0.582400  0.254500  0.393900  1.0  -0.6108
  O  O332  1  0.342800  0.136000  0.114400  1.0  -0.585
  O  O333  1  0.672100  0.417600  0.393900  1.0  -0.6107
  O  O334  1  0.793200  0.657200  0.114400  1.0  -0.5832
  O  O335  1  0.745500  0.327900  0.393900  1.0  -0.6133
  O  O336  1  0.864000  0.206800  0.114400  1.0  -0.5861
  O  O337  1  0.134000  0.388100  0.000000  1.0  -0.4254
  O  O338  1  0.611900  0.745900  0.000000  1.0  -0.4298
  O  O339  1  0.254100  0.866000  0.000000  1.0  -0.4242
  O  O340  1  0.866000  0.611900  0.000000  1.0  -0.4252
  O  O341  1  0.388100  0.254100  0.000000  1.0  -0.4173
  O  O342  1  0.745900  0.134000  0.000000  1.0  -0.429
  O  O343  1  0.388100  0.134000  0.000000  1.0  -0.4244
  O  O344  1  0.745900  0.611900  0.000000  1.0  -0.4236
  O  O345  1  0.866000  0.254100  0.000000  1.0  -0.4282
  O  O346  1  0.611900  0.866000  0.000000  1.0  -0.4302
  O  O347  1  0.254100  0.388100  0.000000  1.0  -0.4263
  O  O348  1  0.134000  0.745900  0.000000  1.0  -0.4178
  O  O349  1  0.333333  0.666667  0.500000  1.0  -1.0891
  O  O350  1  0.666667  0.333333  0.500000  1.0  -1.089
