# generated using pymatgen
data_YH4(CO2)4
_symmetry_space_group_name_H-M   'P 1'
_cell_length_a   6.65370000
_cell_length_b   8.09980000
_cell_length_c   20.17900000
_cell_angle_alpha   90.00000000
_cell_angle_beta   90.00000000
_cell_angle_gamma   90.00000000
_symmetry_Int_Tables_number   1
_chemical_formula_structural   YH4(CO2)4
_chemical_formula_sum   'Y4 H16 C16 O32'
_cell_volume   1087.51974663
_cell_formula_units_Z   4
loop_
 _symmetry_equiv_pos_site_id
 _symmetry_equiv_pos_as_xyz
  1  'x, y, z'
loop_
 _atom_site_type_symbol
 _atom_site_label
 _atom_site_symmetry_multiplicity
 _atom_site_fract_x
 _atom_site_fract_y
 _atom_site_fract_z
 _atom_site_occupancy
 _atom_site_charge
  Y  Y1  1  0.506810  0.945950  0.119470  1.0  2.011
  Y  Y2  1  0.993190  0.054050  0.619470  1.0  2.0108
  Y  Y3  1  0.493190  0.445950  0.380530  1.0  2.0105
  Y  Y4  1  0.006810  0.554050  0.880530  1.0  2.0104
  H  H5  1  0.568400  0.343900  0.030900  1.0  0.0624
  H  H6  1  0.002000  0.005600  0.086100  1.0  0.0656
  H  H7  1  0.720400  0.811900  0.975800  1.0  0.0433
  H  H8  1  0.279900  0.686900  0.244500  1.0  0.0545
  H  H9  1  0.931600  0.656100  0.530900  1.0  0.0626
  H  H10  1  0.498000  0.994400  0.586100  1.0  0.0659
  H  H11  1  0.779600  0.188100  0.475800  1.0  0.0426
  H  H12  1  0.220100  0.313100  0.744500  1.0  0.0553
  H  H13  1  0.431600  0.843900  0.469100  1.0  0.0624
  H  H14  1  0.998000  0.505600  0.413900  1.0  0.0656
  H  H15  1  0.279600  0.311900  0.524200  1.0  0.0422
  H  H16  1  0.720100  0.186900  0.255500  1.0  0.0558
  H  H17  1  0.068400  0.156100  0.969100  1.0  0.0628
  H  H18  1  0.502000  0.494400  0.913900  1.0  0.0664
  H  H19  1  0.220400  0.688100  0.024200  1.0  0.0425
  H  H20  1  0.779900  0.813100  0.755500  1.0  0.0547
  C  C21  1  0.549900  0.241000  0.052560  1.0  0.6184
  C  C22  1  0.003800  0.969000  0.130830  1.0  0.7124
  C  C23  1  0.745000  0.721200  0.004480  1.0  0.6853
  C  C24  1  0.419200  0.667100  0.238040  1.0  0.719
  C  C25  1  0.950100  0.759000  0.552560  1.0  0.6178
  C  C26  1  0.496200  0.031000  0.630830  1.0  0.7126
  C  C27  1  0.755000  0.278800  0.504480  1.0  0.6857
  C  C28  1  0.080800  0.332900  0.738040  1.0  0.7178
  C  C29  1  0.450100  0.741000  0.447440  1.0  0.6181
  C  C30  1  0.996200  0.469000  0.369170  1.0  0.7142
  C  C31  1  0.255000  0.221200  0.495520  1.0  0.6851
  C  C32  1  0.580800  0.167100  0.261960  1.0  0.7178
  C  C33  1  0.049900  0.259000  0.947440  1.0  0.6184
  C  C34  1  0.503800  0.531000  0.869170  1.0  0.7145
  C  C35  1  0.245000  0.778800  0.995520  1.0  0.685
  C  C36  1  0.919200  0.832900  0.761960  1.0  0.7168
  O  O37  1  0.170100  0.935900  0.155900  1.0  -0.6337
  O  O38  1  0.510600  0.589000  0.281690  1.0  -0.6396
  O  O39  1  0.832500  0.599400  0.980530  1.0  -0.6054
  O  O40  1  0.400700  0.222900  0.090130  1.0  -0.6134
  O  O41  1  0.674400  0.128300  0.042770  1.0  -0.5933
  O  O42  1  0.838700  0.957500  0.160450  1.0  -0.6352
  O  O43  1  0.497600  0.721200  0.186500  1.0  -0.6418
  O  O44  1  0.686800  0.734500  0.063010  1.0  -0.6149
  O  O45  1  0.329900  0.064100  0.655900  1.0  -0.6327
  O  O46  1  0.989400  0.411000  0.781690  1.0  -0.639
  O  O47  1  0.667500  0.400600  0.480530  1.0  -0.6046
  O  O48  1  0.099300  0.777100  0.590130  1.0  -0.6114
  O  O49  1  0.825600  0.871700  0.542770  1.0  -0.5935
  O  O50  1  0.661300  0.042500  0.660450  1.0  -0.6359
  O  O51  1  0.002400  0.278800  0.686500  1.0  -0.6391
  O  O52  1  0.813200  0.265500  0.563010  1.0  -0.6159
  O  O53  1  0.829900  0.435900  0.344100  1.0  -0.6333
  O  O54  1  0.489400  0.089000  0.218310  1.0  -0.6358
  O  O55  1  0.167500  0.099400  0.519470  1.0  -0.6075
  O  O56  1  0.599300  0.722900  0.409870  1.0  -0.6123
  O  O57  1  0.325600  0.628300  0.457230  1.0  -0.5941
  O  O58  1  0.161300  0.457500  0.339550  1.0  -0.6353
  O  O59  1  0.502400  0.221200  0.313500  1.0  -0.6393
  O  O60  1  0.313200  0.234500  0.436990  1.0  -0.6103
  O  O61  1  0.670100  0.564100  0.844100  1.0  -0.6338
  O  O62  1  0.010600  0.911000  0.718310  1.0  -0.6372
  O  O63  1  0.332500  0.900600  0.019470  1.0  -0.6065
  O  O64  1  0.900700  0.277100  0.909870  1.0  -0.6124
  O  O65  1  0.174400  0.371700  0.957230  1.0  -0.5939
  O  O66  1  0.338700  0.542500  0.839550  1.0  -0.634
  O  O67  1  0.997600  0.778800  0.813500  1.0  -0.6407
  O  O68  1  0.186800  0.765500  0.936990  1.0  -0.61
