# generated using pymatgen
data_V3H12C24O13
_symmetry_space_group_name_H-M   'P 1'
_cell_length_a   19.29070000
_cell_length_b   19.29070000
_cell_length_c   19.29070000
_cell_angle_alpha   90.00000000
_cell_angle_beta   90.00000000
_cell_angle_gamma   90.00000000
_symmetry_Int_Tables_number   1
_chemical_formula_structural   V3H12C24O13
_chemical_formula_sum   'V24 H96 C192 O104'
_cell_volume   7178.66953597
_cell_formula_units_Z   8
loop_
 _symmetry_equiv_pos_site_id
 _symmetry_equiv_pos_as_xyz
  1  'x, y, z'
loop_
 _atom_site_type_symbol
 _atom_site_label
 _atom_site_symmetry_multiplicity
 _atom_site_fract_x
 _atom_site_fract_y
 _atom_site_fract_z
 _atom_site_occupancy
 _atom_site_charge
  V  V1  1  0.755090  0.391020  0.142420  1.0  1.452
  V  V2  1  0.744910  0.608980  0.642420  1.0  1.4485
  V  V3  1  0.244910  0.891020  0.357580  1.0  1.4504
  V  V4  1  0.255090  0.108980  0.857580  1.0  1.4495
  V  V5  1  0.142420  0.755090  0.391020  1.0  1.4489
  V  V6  1  0.642420  0.744910  0.608980  1.0  1.4527
  V  V7  1  0.357580  0.244910  0.891020  1.0  1.4489
  V  V8  1  0.857580  0.255090  0.108980  1.0  1.4502
  V  V9  1  0.391020  0.142420  0.755090  1.0  1.4501
  V  V10  1  0.608980  0.642420  0.744910  1.0  1.4488
  V  V11  1  0.891020  0.357580  0.244910  1.0  1.4484
  V  V12  1  0.108980  0.857580  0.255090  1.0  1.4516
  V  V13  1  0.244910  0.608980  0.857580  1.0  1.4483
  V  V14  1  0.255090  0.391020  0.357580  1.0  1.4513
  V  V15  1  0.755090  0.108980  0.642420  1.0  1.4498
  V  V16  1  0.744910  0.891020  0.142420  1.0  1.4512
  V  V17  1  0.857580  0.244910  0.608980  1.0  1.4515
  V  V18  1  0.357580  0.255090  0.391020  1.0  1.4483
  V  V19  1  0.642420  0.755090  0.108980  1.0  1.4514
  V  V20  1  0.142420  0.744910  0.891020  1.0  1.4495
  V  V21  1  0.608980  0.857580  0.244910  1.0  1.4489
  V  V22  1  0.391020  0.357580  0.255090  1.0  1.4503
  V  V23  1  0.108980  0.642420  0.755090  1.0  1.4511
  V  V24  1  0.891020  0.142420  0.744910  1.0  1.4484
  H  H25  1  0.792490  0.608110  0.131440  1.0  0.1062
  H  H26  1  0.956000  0.567500  0.254100  1.0  0.1107
  H  H27  1  0.914000  0.763600  0.198800  1.0  0.1023
  H  H28  1  0.982200  0.684500  0.258200  1.0  0.097
  H  H29  1  0.707510  0.391890  0.631440  1.0  0.1063
  H  H30  1  0.544000  0.432500  0.754100  1.0  0.1114
  H  H31  1  0.586000  0.236400  0.698800  1.0  0.1022
  H  H32  1  0.517800  0.315500  0.758200  1.0  0.0971
  H  H33  1  0.207510  0.108110  0.368560  1.0  0.1063
  H  H34  1  0.044000  0.067500  0.245900  1.0  0.111
  H  H35  1  0.086000  0.263600  0.301200  1.0  0.1022
  H  H36  1  0.017800  0.184500  0.241800  1.0  0.0966
  H  H37  1  0.292490  0.891890  0.868560  1.0  0.1061
  H  H38  1  0.456000  0.932500  0.745900  1.0  0.1107
  H  H39  1  0.414000  0.736400  0.801200  1.0  0.1021
  H  H40  1  0.482200  0.815500  0.741800  1.0  0.0966
  H  H41  1  0.131440  0.792490  0.608110  1.0  0.1053
  H  H42  1  0.254100  0.956000  0.567500  1.0  0.112
  H  H43  1  0.198800  0.914000  0.763600  1.0  0.1031
  H  H44  1  0.258200  0.982200  0.684500  1.0  0.0983
  H  H45  1  0.631440  0.707510  0.391890  1.0  0.1059
  H  H46  1  0.754100  0.544000  0.432500  1.0  0.1112
  H  H47  1  0.698800  0.586000  0.236400  1.0  0.1032
  H  H48  1  0.758200  0.517800  0.315500  1.0  0.0983
  H  H49  1  0.368560  0.207510  0.108110  1.0  0.1059
  H  H50  1  0.245900  0.044000  0.067500  1.0  0.1115
  H  H51  1  0.301200  0.086000  0.263600  1.0  0.1029
  H  H52  1  0.241800  0.017800  0.184500  1.0  0.0985
  H  H53  1  0.868560  0.292490  0.891890  1.0  0.1054
  H  H54  1  0.745900  0.456000  0.932500  1.0  0.1123
  H  H55  1  0.801200  0.414000  0.736400  1.0  0.1032
  H  H56  1  0.741800  0.482200  0.815500  1.0  0.098
  H  H57  1  0.608110  0.131440  0.792490  1.0  0.1071
  H  H58  1  0.567500  0.254100  0.956000  1.0  0.1112
  H  H59  1  0.763600  0.198800  0.914000  1.0  0.103
  H  H60  1  0.684500  0.258200  0.982200  1.0  0.0973
  H  H61  1  0.391890  0.631440  0.707510  1.0  0.1077
  H  H62  1  0.432500  0.754100  0.544000  1.0  0.1108
  H  H63  1  0.236400  0.698800  0.586000  1.0  0.1029
  H  H64  1  0.315500  0.758200  0.517800  1.0  0.0971
  H  H65  1  0.108110  0.368560  0.207510  1.0  0.1078
  H  H66  1  0.067500  0.245900  0.044000  1.0  0.1107
  H  H67  1  0.263600  0.301200  0.086000  1.0  0.1029
  H  H68  1  0.184500  0.241800  0.017800  1.0  0.0969
  H  H69  1  0.891890  0.868560  0.292490  1.0  0.1072
  H  H70  1  0.932500  0.745900  0.456000  1.0  0.1105
  H  H71  1  0.736400  0.801200  0.414000  1.0  0.1029
  H  H72  1  0.815500  0.741800  0.482200  1.0  0.0977
  H  H73  1  0.207510  0.391890  0.868560  1.0  0.1063
  H  H74  1  0.044000  0.432500  0.745900  1.0  0.1114
  H  H75  1  0.086000  0.236400  0.801200  1.0  0.1021
  H  H76  1  0.017800  0.315500  0.741800  1.0  0.0969
  H  H77  1  0.292490  0.608110  0.368560  1.0  0.106
  H  H78  1  0.456000  0.567500  0.245900  1.0  0.1105
  H  H79  1  0.414000  0.763600  0.301200  1.0  0.102
  H  H80  1  0.482200  0.684500  0.241800  1.0  0.0965
  H  H81  1  0.792490  0.891890  0.631440  1.0  0.1065
  H  H82  1  0.956000  0.932500  0.754100  1.0  0.1107
  H  H83  1  0.914000  0.736400  0.698800  1.0  0.1024
  H  H84  1  0.982200  0.815500  0.758200  1.0  0.0967
  H  H85  1  0.707510  0.108110  0.131440  1.0  0.1063
  H  H86  1  0.544000  0.067500  0.254100  1.0  0.1113
  H  H87  1  0.586000  0.263600  0.198800  1.0  0.1024
  H  H88  1  0.517800  0.184500  0.258200  1.0  0.0972
  H  H89  1  0.868560  0.207510  0.391890  1.0  0.1053
  H  H90  1  0.745900  0.044000  0.432500  1.0  0.1118
  H  H91  1  0.801200  0.086000  0.236400  1.0  0.1031
  H  H92  1  0.741800  0.017800  0.315500  1.0  0.0983
  H  H93  1  0.368560  0.292490  0.608110  1.0  0.1058
  H  H94  1  0.245900  0.456000  0.567500  1.0  0.1123
  H  H95  1  0.301200  0.414000  0.763600  1.0  0.1029
  H  H96  1  0.241800  0.482200  0.684500  1.0  0.0983
  H  H97  1  0.631440  0.792490  0.891890  1.0  0.1053
  H  H98  1  0.754100  0.956000  0.932500  1.0  0.1115
  H  H99  1  0.698800  0.914000  0.736400  1.0  0.1033
  H  H100  1  0.758200  0.982200  0.815500  1.0  0.0981
  H  H101  1  0.131440  0.707510  0.108110  1.0  0.1061
  H  H102  1  0.254100  0.544000  0.067500  1.0  0.1113
  H  H103  1  0.198800  0.586000  0.263600  1.0  0.1032
  H  H104  1  0.258200  0.517800  0.184500  1.0  0.0984
  H  H105  1  0.391890  0.868560  0.207510  1.0  0.1076
  H  H106  1  0.432500  0.745900  0.044000  1.0  0.1105
  H  H107  1  0.236400  0.801200  0.086000  1.0  0.1032
  H  H108  1  0.315500  0.741800  0.017800  1.0  0.0972
  H  H109  1  0.608110  0.368560  0.292490  1.0  0.1073
  H  H110  1  0.567500  0.245900  0.456000  1.0  0.1112
  H  H111  1  0.763600  0.301200  0.414000  1.0  0.1028
  H  H112  1  0.684500  0.241800  0.482200  1.0  0.0976
  H  H113  1  0.891890  0.631440  0.792490  1.0  0.1072
  H  H114  1  0.932500  0.754100  0.956000  1.0  0.1107
  H  H115  1  0.736400  0.698800  0.914000  1.0  0.1028
  H  H116  1  0.815500  0.758200  0.982200  1.0  0.0974
  H  H117  1  0.108110  0.131440  0.707510  1.0  0.1079
  H  H118  1  0.067500  0.254100  0.544000  1.0  0.1112
  H  H119  1  0.263600  0.198800  0.586000  1.0  0.1028
  H  H120  1  0.184500  0.258200  0.517800  1.0  0.0968
  C  C121  1  0.795300  0.744790  0.130750  1.0  0.7039
  C  C122  1  0.855000  0.500480  0.189670  1.0  0.7471
  C  C123  1  0.845260  0.693920  0.160740  1.0  -0.1515
  C  C124  1  0.830400  0.623430  0.156970  1.0  -0.0007
  C  C125  1  0.872250  0.575960  0.191390  1.0  -0.1618
  C  C126  1  0.928700  0.599200  0.230100  1.0  -0.0431
  C  C127  1  0.903000  0.716700  0.197700  1.0  -0.0473
  C  C128  1  0.944100  0.669300  0.232800  1.0  -0.1043
  C  C129  1  0.704700  0.255210  0.630750  1.0  0.7029
  C  C130  1  0.645000  0.499520  0.689670  1.0  0.7475
  C  C131  1  0.654740  0.306080  0.660740  1.0  -0.1538
  C  C132  1  0.669600  0.376570  0.656970  1.0  -0.0009
  C  C133  1  0.627750  0.424040  0.691390  1.0  -0.1596
  C  C134  1  0.571300  0.400800  0.730100  1.0  -0.0435
  C  C135  1  0.597000  0.283300  0.697700  1.0  -0.0465
  C  C136  1  0.555900  0.330700  0.732800  1.0  -0.1048
  C  C137  1  0.204700  0.244790  0.369250  1.0  0.7033
  C  C138  1  0.145000  0.000480  0.310330  1.0  0.7472
  C  C139  1  0.154740  0.193920  0.339260  1.0  -0.153
  C  C140  1  0.169600  0.123430  0.343030  1.0  -0.0018
  C  C141  1  0.127750  0.075960  0.308610  1.0  -0.1606
  C  C142  1  0.071300  0.099200  0.269900  1.0  -0.0436
  C  C143  1  0.097000  0.216700  0.302300  1.0  -0.0459
  C  C144  1  0.055900  0.169300  0.267200  1.0  -0.1052
  C  C145  1  0.295300  0.755210  0.869250  1.0  0.7039
  C  C146  1  0.355000  0.999520  0.810330  1.0  0.7466
  C  C147  1  0.345260  0.806080  0.839260  1.0  -0.152
  C  C148  1  0.330400  0.876570  0.843030  1.0  -0.0025
  C  C149  1  0.372250  0.924040  0.808610  1.0  -0.1598
  C  C150  1  0.428700  0.900800  0.769900  1.0  -0.0419
  C  C151  1  0.403000  0.783300  0.802300  1.0  -0.0468
  C  C152  1  0.444100  0.830700  0.767200  1.0  -0.1038
  C  C153  1  0.130750  0.795300  0.744790  1.0  0.7073
  C  C154  1  0.189670  0.855000  0.500480  1.0  0.7501
  C  C155  1  0.160740  0.845260  0.693920  1.0  -0.1525
  C  C156  1  0.156970  0.830400  0.623430  1.0  0.0028
  C  C157  1  0.191390  0.872250  0.575960  1.0  -0.1608
  C  C158  1  0.230100  0.928700  0.599200  1.0  -0.042
  C  C159  1  0.197700  0.903000  0.716700  1.0  -0.0465
  C  C160  1  0.232800  0.944100  0.669300  1.0  -0.1035
  C  C161  1  0.630750  0.704700  0.255210  1.0  0.7079
  C  C162  1  0.689670  0.645000  0.499520  1.0  0.7507
  C  C163  1  0.660740  0.654740  0.306080  1.0  -0.1522
  C  C164  1  0.656970  0.669600  0.376570  1.0  0.0018
  C  C165  1  0.691390  0.627750  0.424040  1.0  -0.1614
  C  C166  1  0.730100  0.571300  0.400800  1.0  -0.0427
  C  C167  1  0.697700  0.597000  0.283300  1.0  -0.0456
  C  C168  1  0.732800  0.555900  0.330700  1.0  -0.1035
  C  C169  1  0.369250  0.204700  0.244790  1.0  0.707
  C  C170  1  0.310330  0.145000  0.000480  1.0  0.7504
  C  C171  1  0.339260  0.154740  0.193920  1.0  -0.1523
  C  C172  1  0.343030  0.169600  0.123430  1.0  0.0006
  C  C173  1  0.308610  0.127750  0.075960  1.0  -0.1616
  C  C174  1  0.269900  0.071300  0.099200  1.0  -0.0426
  C  C175  1  0.302300  0.097000  0.216700  1.0  -0.0477
  C  C176  1  0.267200  0.055900  0.169300  1.0  -0.104
  C  C177  1  0.869250  0.295300  0.755210  1.0  0.7068
  C  C178  1  0.810330  0.355000  0.999520  1.0  0.7493
  C  C179  1  0.839260  0.345260  0.806080  1.0  -0.1519
  C  C180  1  0.843030  0.330400  0.876570  1.0  0.0011
  C  C181  1  0.808610  0.372250  0.924040  1.0  -0.1617
  C  C182  1  0.769900  0.428700  0.900800  1.0  -0.0427
  C  C183  1  0.802300  0.403000  0.783300  1.0  -0.0462
  C  C184  1  0.767200  0.444100  0.830700  1.0  -0.1044
  C  C185  1  0.744790  0.130750  0.795300  1.0  0.7051
  C  C186  1  0.500480  0.189670  0.855000  1.0  0.7458
  C  C187  1  0.693920  0.160740  0.845260  1.0  -0.1503
  C  C188  1  0.623430  0.156970  0.830400  1.0  -0.0025
  C  C189  1  0.575960  0.191390  0.872250  1.0  -0.1603
  C  C190  1  0.599200  0.230100  0.928700  1.0  -0.0453
  C  C191  1  0.716700  0.197700  0.903000  1.0  -0.0475
  C  C192  1  0.669300  0.232800  0.944100  1.0  -0.1054
  C  C193  1  0.255210  0.630750  0.704700  1.0  0.705
  C  C194  1  0.499520  0.689670  0.645000  1.0  0.7456
  C  C195  1  0.306080  0.660740  0.654740  1.0  -0.1519
  C  C196  1  0.376570  0.656970  0.669600  1.0  -0.0026
  C  C197  1  0.424040  0.691390  0.627750  1.0  -0.1613
  C  C198  1  0.400800  0.730100  0.571300  1.0  -0.0467
  C  C199  1  0.283300  0.697700  0.597000  1.0  -0.0467
  C  C200  1  0.330700  0.732800  0.555900  1.0  -0.1051
  C  C201  1  0.244790  0.369250  0.204700  1.0  0.705
  C  C202  1  0.000480  0.310330  0.145000  1.0  0.7465
  C  C203  1  0.193920  0.339260  0.154740  1.0  -0.1505
  C  C204  1  0.123430  0.343030  0.169600  1.0  -0.0024
  C  C205  1  0.075960  0.308610  0.127750  1.0  -0.1596
  C  C206  1  0.099200  0.269900  0.071300  1.0  -0.0448
  C  C207  1  0.216700  0.302300  0.097000  1.0  -0.0465
  C  C208  1  0.169300  0.267200  0.055900  1.0  -0.1061
  C  C209  1  0.755210  0.869250  0.295300  1.0  0.7056
  C  C210  1  0.999520  0.810330  0.355000  1.0  0.7453
  C  C211  1  0.806080  0.839260  0.345260  1.0  -0.1509
  C  C212  1  0.876570  0.843030  0.330400  1.0  -0.0023
  C  C213  1  0.924040  0.808610  0.372250  1.0  -0.1601
  C  C214  1  0.900800  0.769900  0.428700  1.0  -0.0453
  C  C215  1  0.783300  0.802300  0.403000  1.0  -0.0468
  C  C216  1  0.830700  0.767200  0.444100  1.0  -0.1061
  C  C217  1  0.204700  0.255210  0.869250  1.0  0.703
  C  C218  1  0.145000  0.499520  0.810330  1.0  0.7473
  C  C219  1  0.154740  0.306080  0.839260  1.0  -0.153
  C  C220  1  0.169600  0.376570  0.843030  1.0  -0.0019
  C  C221  1  0.127750  0.424040  0.808610  1.0  -0.1596
  C  C222  1  0.071300  0.400800  0.769900  1.0  -0.043
  C  C223  1  0.097000  0.283300  0.802300  1.0  -0.0469
  C  C224  1  0.055900  0.330700  0.767200  1.0  -0.105
  C  C225  1  0.295300  0.744790  0.369250  1.0  0.7043
  C  C226  1  0.355000  0.500480  0.310330  1.0  0.7468
  C  C227  1  0.345260  0.693920  0.339260  1.0  -0.1523
  C  C228  1  0.330400  0.623430  0.343030  1.0  -0.0018
  C  C229  1  0.372250  0.575960  0.308610  1.0  -0.1608
  C  C230  1  0.428700  0.599200  0.269900  1.0  -0.0432
  C  C231  1  0.403000  0.716700  0.302300  1.0  -0.0465
  C  C232  1  0.444100  0.669300  0.267200  1.0  -0.104
  C  C233  1  0.795300  0.755210  0.630750  1.0  0.7038
  C  C234  1  0.855000  0.999520  0.689670  1.0  0.7471
  C  C235  1  0.845260  0.806080  0.660740  1.0  -0.1529
  C  C236  1  0.830400  0.876570  0.656970  1.0  -0.0011
  C  C237  1  0.872250  0.924040  0.691390  1.0  -0.1598
  C  C238  1  0.928700  0.900800  0.730100  1.0  -0.0422
  C  C239  1  0.903000  0.783300  0.697700  1.0  -0.0464
  C  C240  1  0.944100  0.830700  0.732800  1.0  -0.1039
  C  C241  1  0.704700  0.244790  0.130750  1.0  0.7031
  C  C242  1  0.645000  0.000480  0.189670  1.0  0.7473
  C  C243  1  0.654740  0.193920  0.160740  1.0  -0.1524
  C  C244  1  0.669600  0.123430  0.156970  1.0  -0.0012
  C  C245  1  0.627750  0.075960  0.191390  1.0  -0.1619
  C  C246  1  0.571300  0.099200  0.230100  1.0  -0.0434
  C  C247  1  0.597000  0.216700  0.197700  1.0  -0.0466
  C  C248  1  0.555900  0.169300  0.232800  1.0  -0.1053
  C  C249  1  0.869250  0.204700  0.255210  1.0  0.707
  C  C250  1  0.810330  0.145000  0.499520  1.0  0.7506
  C  C251  1  0.839260  0.154740  0.306080  1.0  -0.1516
  C  C252  1  0.843030  0.169600  0.376570  1.0  0.0009
  C  C253  1  0.808610  0.127750  0.424040  1.0  -0.1621
  C  C254  1  0.769900  0.071300  0.400800  1.0  -0.0427
  C  C255  1  0.802300  0.097000  0.283300  1.0  -0.0461
  C  C256  1  0.767200  0.055900  0.330700  1.0  -0.104
  C  C257  1  0.369250  0.295300  0.744790  1.0  0.7069
  C  C258  1  0.310330  0.355000  0.500480  1.0  0.7496
  C  C259  1  0.339260  0.345260  0.693920  1.0  -0.1526
  C  C260  1  0.343030  0.330400  0.623430  1.0  0.0016
  C  C261  1  0.308610  0.372250  0.575960  1.0  -0.1604
  C  C262  1  0.269900  0.428700  0.599200  1.0  -0.0425
  C  C263  1  0.302300  0.403000  0.716700  1.0  -0.0473
  C  C264  1  0.267200  0.444100  0.669300  1.0  -0.1043
  C  C265  1  0.630750  0.795300  0.755210  1.0  0.7075
  C  C266  1  0.689670  0.855000  0.999520  1.0  0.7493
  C  C267  1  0.660740  0.845260  0.806080  1.0  -0.1524
  C  C268  1  0.656970  0.830400  0.876570  1.0  0.0023
  C  C269  1  0.691390  0.872250  0.924040  1.0  -0.161
  C  C270  1  0.730100  0.928700  0.900800  1.0  -0.0417
  C  C271  1  0.697700  0.903000  0.783300  1.0  -0.0455
  C  C272  1  0.732800  0.944100  0.830700  1.0  -0.1035
  C  C273  1  0.130750  0.704700  0.244790  1.0  0.7076
  C  C274  1  0.189670  0.645000  0.000480  1.0  0.7509
  C  C275  1  0.160740  0.654740  0.193920  1.0  -0.1523
  C  C276  1  0.156970  0.669600  0.123430  1.0  0.0016
  C  C277  1  0.191390  0.627750  0.075960  1.0  -0.1619
  C  C278  1  0.230100  0.571300  0.099200  1.0  -0.0428
  C  C279  1  0.197700  0.597000  0.216700  1.0  -0.0474
  C  C280  1  0.232800  0.555900  0.169300  1.0  -0.1037
  C  C281  1  0.255210  0.869250  0.204700  1.0  0.7051
  C  C282  1  0.499520  0.810330  0.145000  1.0  0.7455
  C  C283  1  0.306080  0.839260  0.154740  1.0  -0.1513
  C  C284  1  0.376570  0.843030  0.169600  1.0  -0.0026
  C  C285  1  0.424040  0.808610  0.127750  1.0  -0.1605
  C  C286  1  0.400800  0.769900  0.071300  1.0  -0.0466
  C  C287  1  0.283300  0.802300  0.097000  1.0  -0.0464
  C  C288  1  0.330700  0.767200  0.055900  1.0  -0.1058
  C  C289  1  0.744790  0.369250  0.295300  1.0  0.7051
  C  C290  1  0.500480  0.310330  0.355000  1.0  0.7455
  C  C291  1  0.693920  0.339260  0.345260  1.0  -0.1501
  C  C292  1  0.623430  0.343030  0.330400  1.0  -0.0024
  C  C293  1  0.575960  0.308610  0.372250  1.0  -0.1594
  C  C294  1  0.599200  0.269900  0.428700  1.0  -0.0452
  C  C295  1  0.716700  0.302300  0.403000  1.0  -0.0472
  C  C296  1  0.669300  0.267200  0.444100  1.0  -0.1065
  C  C297  1  0.755210  0.630750  0.795300  1.0  0.7055
  C  C298  1  0.999520  0.689670  0.855000  1.0  0.7455
  C  C299  1  0.806080  0.660740  0.845260  1.0  -0.1515
  C  C300  1  0.876570  0.656970  0.830400  1.0  -0.0028
  C  C301  1  0.924040  0.691390  0.872250  1.0  -0.1606
  C  C302  1  0.900800  0.730100  0.928700  1.0  -0.0452
  C  C303  1  0.783300  0.697700  0.903000  1.0  -0.0465
  C  C304  1  0.830700  0.732800  0.944100  1.0  -0.105
  C  C305  1  0.244790  0.130750  0.704700  1.0  0.7049
  C  C306  1  0.000480  0.189670  0.645000  1.0  0.747
  C  C307  1  0.193920  0.160740  0.654740  1.0  -0.1507
  C  C308  1  0.123430  0.156970  0.669600  1.0  -0.0021
  C  C309  1  0.075960  0.191390  0.627750  1.0  -0.1609
  C  C310  1  0.099200  0.230100  0.571300  1.0  -0.0451
  C  C311  1  0.216700  0.197700  0.597000  1.0  -0.0474
  C  C312  1  0.169300  0.232800  0.555900  1.0  -0.1053
  O  O313  1  0.804510  0.481740  0.151480  1.0  -0.6168
  O  O314  1  0.808930  0.808640  0.137100  1.0  -0.617
  O  O315  1  0.740870  0.722060  0.102630  1.0  -0.6201
  O  O316  1  0.891150  0.459750  0.226020  1.0  -0.635
  O  O317  1  0.695490  0.518260  0.651480  1.0  -0.6171
  O  O318  1  0.691070  0.191360  0.637100  1.0  -0.6175
  O  O319  1  0.759130  0.277940  0.602630  1.0  -0.6194
  O  O320  1  0.608850  0.540250  0.726020  1.0  -0.6363
  O  O321  1  0.195490  0.981740  0.348520  1.0  -0.617
  O  O322  1  0.191070  0.308640  0.362900  1.0  -0.6184
  O  O323  1  0.259130  0.222060  0.397370  1.0  -0.6197
  O  O324  1  0.108850  0.959750  0.273980  1.0  -0.6362
  O  O325  1  0.304510  0.018260  0.848520  1.0  -0.6173
  O  O326  1  0.308930  0.691360  0.862900  1.0  -0.617
  O  O327  1  0.240870  0.777940  0.897370  1.0  -0.6192
  O  O328  1  0.391150  0.040250  0.773980  1.0  -0.6344
  O  O329  1  0.151480  0.804510  0.481740  1.0  -0.6191
  O  O330  1  0.137100  0.808930  0.808640  1.0  -0.6197
  O  O331  1  0.102630  0.740870  0.722060  1.0  -0.6201
  O  O332  1  0.226020  0.891150  0.459750  1.0  -0.634
  O  O333  1  0.651480  0.695490  0.518260  1.0  -0.6201
  O  O334  1  0.637100  0.691070  0.191360  1.0  -0.6181
  O  O335  1  0.602630  0.759130  0.277940  1.0  -0.6194
  O  O336  1  0.726020  0.608850  0.540250  1.0  -0.6339
  O  O337  1  0.348520  0.195490  0.981740  1.0  -0.6196
  O  O338  1  0.362900  0.191070  0.308640  1.0  -0.6171
  O  O339  1  0.397370  0.259130  0.222060  1.0  -0.6194
  O  O340  1  0.273980  0.108850  0.959750  1.0  -0.6341
  O  O341  1  0.848520  0.304510  0.018260  1.0  -0.6197
  O  O342  1  0.862900  0.308930  0.691360  1.0  -0.6191
  O  O343  1  0.897370  0.240870  0.777940  1.0  -0.62
  O  O344  1  0.773980  0.391150  0.040250  1.0  -0.6345
  O  O345  1  0.481740  0.151480  0.804510  1.0  -0.6169
  O  O346  1  0.808640  0.137100  0.808930  1.0  -0.6191
  O  O347  1  0.722060  0.102630  0.740870  1.0  -0.6211
  O  O348  1  0.459750  0.226020  0.891150  1.0  -0.6334
  O  O349  1  0.518260  0.651480  0.695490  1.0  -0.6182
  O  O350  1  0.191360  0.637100  0.691070  1.0  -0.6191
  O  O351  1  0.277940  0.602630  0.759130  1.0  -0.6211
  O  O352  1  0.540250  0.726020  0.608850  1.0  -0.6334
  O  O353  1  0.981740  0.348520  0.195490  1.0  -0.6173
  O  O354  1  0.308640  0.362900  0.191070  1.0  -0.6205
  O  O355  1  0.222060  0.397370  0.259130  1.0  -0.6202
  O  O356  1  0.959750  0.273980  0.108850  1.0  -0.6337
  O  O357  1  0.018260  0.848520  0.304510  1.0  -0.6181
  O  O358  1  0.691360  0.862900  0.308930  1.0  -0.6186
  O  O359  1  0.777940  0.897370  0.240870  1.0  -0.6198
  O  O360  1  0.040250  0.773980  0.391150  1.0  -0.6341
  O  O361  1  0.195490  0.518260  0.848520  1.0  -0.617
  O  O362  1  0.191070  0.191360  0.862900  1.0  -0.6172
  O  O363  1  0.259130  0.277940  0.897370  1.0  -0.6194
  O  O364  1  0.108850  0.540250  0.773980  1.0  -0.636
  O  O365  1  0.304510  0.481740  0.348520  1.0  -0.6171
  O  O366  1  0.308930  0.808640  0.362900  1.0  -0.6169
  O  O367  1  0.240870  0.722060  0.397370  1.0  -0.62
  O  O368  1  0.391150  0.459750  0.273980  1.0  -0.6348
  O  O369  1  0.804510  0.018260  0.651480  1.0  -0.6172
  O  O370  1  0.808930  0.691360  0.637100  1.0  -0.6171
  O  O371  1  0.740870  0.777940  0.602630  1.0  -0.6197
  O  O372  1  0.891150  0.040250  0.726020  1.0  -0.6351
  O  O373  1  0.695490  0.981740  0.151480  1.0  -0.6167
  O  O374  1  0.691070  0.308640  0.137100  1.0  -0.6183
  O  O375  1  0.759130  0.222060  0.102630  1.0  -0.6202
  O  O376  1  0.608850  0.959750  0.226020  1.0  -0.6361
  O  O377  1  0.848520  0.195490  0.518260  1.0  -0.6204
  O  O378  1  0.862900  0.191070  0.191360  1.0  -0.6178
  O  O379  1  0.897370  0.259130  0.277940  1.0  -0.6196
  O  O380  1  0.773980  0.108850  0.540250  1.0  -0.6343
  O  O381  1  0.348520  0.304510  0.481740  1.0  -0.619
  O  O382  1  0.362900  0.308930  0.808640  1.0  -0.6181
  O  O383  1  0.397370  0.240870  0.722060  1.0  -0.6199
  O  O384  1  0.273980  0.391150  0.459750  1.0  -0.6342
  O  O385  1  0.651480  0.804510  0.018260  1.0  -0.6197
  O  O386  1  0.637100  0.808930  0.691360  1.0  -0.6197
  O  O387  1  0.602630  0.740870  0.777940  1.0  -0.6202
  O  O388  1  0.726020  0.891150  0.040250  1.0  -0.6344
  O  O389  1  0.151480  0.695490  0.981740  1.0  -0.6196
  O  O390  1  0.137100  0.691070  0.308640  1.0  -0.6181
  O  O391  1  0.102630  0.759130  0.222060  1.0  -0.62
  O  O392  1  0.226020  0.608850  0.959750  1.0  -0.6338
  O  O393  1  0.518260  0.848520  0.195490  1.0  -0.619
  O  O394  1  0.191360  0.862900  0.191070  1.0  -0.6192
  O  O395  1  0.277940  0.897370  0.259130  1.0  -0.6197
  O  O396  1  0.540250  0.773980  0.108850  1.0  -0.6335
  O  O397  1  0.481740  0.348520  0.304510  1.0  -0.6163
  O  O398  1  0.808640  0.362900  0.308930  1.0  -0.6196
  O  O399  1  0.722060  0.397370  0.240870  1.0  -0.6203
  O  O400  1  0.459750  0.273980  0.391150  1.0  -0.6336
  O  O401  1  0.018260  0.651480  0.804510  1.0  -0.6184
  O  O402  1  0.691360  0.637100  0.808930  1.0  -0.6182
  O  O403  1  0.777940  0.602630  0.740870  1.0  -0.621
  O  O404  1  0.040250  0.726020  0.891150  1.0  -0.6341
  O  O405  1  0.981740  0.151480  0.695490  1.0  -0.6168
  O  O406  1  0.308640  0.137100  0.691070  1.0  -0.6202
  O  O407  1  0.222060  0.102630  0.759130  1.0  -0.6211
  O  O408  1  0.959750  0.226020  0.608850  1.0  -0.6333
  O  O409  1  0.834940  0.334940  0.165060  1.0  -0.9646
  O  O410  1  0.665060  0.665060  0.665060  1.0  -0.9644
  O  O411  1  0.165060  0.834940  0.334940  1.0  -0.9637
  O  O412  1  0.334940  0.165060  0.834940  1.0  -0.9648
  O  O413  1  0.165060  0.665060  0.834940  1.0  -0.9641
  O  O414  1  0.334940  0.334940  0.334940  1.0  -0.9645
  O  O415  1  0.834940  0.165060  0.665060  1.0  -0.9648
  O  O416  1  0.665060  0.834940  0.165060  1.0  -0.9639
