# generated using pymatgen
data_U2H8C16N2O13
_symmetry_space_group_name_H-M   'P 1'
_cell_length_a   10.66300000
_cell_length_b   11.09000000
_cell_length_c   14.71800000
_cell_angle_alpha   106.88000000
_cell_angle_beta   95.76000000
_cell_angle_gamma   112.99000000
_symmetry_Int_Tables_number   1
_chemical_formula_structural   U2H8C16N2O13
_chemical_formula_sum   'U4 H16 C32 N4 O26'
_cell_volume   1487.34525175
_cell_formula_units_Z   2
loop_
 _symmetry_equiv_pos_site_id
 _symmetry_equiv_pos_as_xyz
  1  'x, y, z'
loop_
 _atom_site_type_symbol
 _atom_site_label
 _atom_site_symmetry_multiplicity
 _atom_site_fract_x
 _atom_site_fract_y
 _atom_site_fract_z
 _atom_site_occupancy
 _atom_site_charge
  U  U1  1  0.608130  0.830750  0.889420  1.0  1.836
  U  U2  1  0.341010  0.351380  0.509820  1.0  1.8806
  U  U3  1  0.391870  0.169250  0.110580  1.0  1.8345
  U  U4  1  0.658990  0.648620  0.490180  1.0  1.8762
  H  H5  1  0.684900  0.431200  0.694400  1.0  0.1169
  H  H6  1  0.632100  0.081800  0.749700  1.0  0.1158
  H  H7  1  0.543100  0.375000  0.928100  1.0  0.0972
  H  H8  1  0.884000  0.138100  0.889000  1.0  0.1191
  H  H9  1  0.219800  0.418100  0.839500  1.0  0.1195
  H  H10  1  0.971200  0.049600  0.623600  1.0  0.1011
  H  H11  1  0.569000  0.571400  0.641200  1.0  0.4302
  H  H12  1  0.489000  0.626800  0.617400  1.0  0.4135
  H  H13  1  0.315100  0.568800  0.305600  1.0  0.1174
  H  H14  1  0.367900  0.918200  0.250300  1.0  0.1159
  H  H15  1  0.456900  0.625000  0.071900  1.0  0.0969
  H  H16  1  0.116000  0.861900  0.111000  1.0  0.119
  H  H17  1  0.780200  0.581900  0.160500  1.0  0.1196
  H  H18  1  0.028800  0.950400  0.376400  1.0  0.1012
  H  H19  1  0.431000  0.428600  0.358800  1.0  0.4298
  H  H20  1  0.511000  0.373200  0.382600  1.0  0.4102
  C  C21  1  0.609800  0.565600  0.843400  1.0  0.6863
  C  C22  1  0.610000  0.421500  0.815200  1.0  -0.1317
  C  C23  1  0.657000  0.376300  0.732600  1.0  -0.0935
  C  C24  1  0.661000  0.249900  0.709100  1.0  0.02
  C  C25  1  0.626200  0.166700  0.766700  1.0  -0.1223
  C  C26  1  0.582400  0.215000  0.850400  1.0  -0.1792
  C  C27  1  0.573800  0.343200  0.873000  1.0  -0.0279
  C  C28  1  0.551500  0.133300  0.915700  1.0  0.7478
  C  C29  1  0.789900  0.925100  0.715300  1.0  0.6947
  C  C30  1  0.909700  0.066900  0.751000  1.0  -0.1828
  C  C31  1  0.939900  0.161700  0.846500  1.0  -0.0696
  C  C32  1  0.054900  0.290700  0.875400  1.0  0.0172
  C  C33  1  0.141400  0.331400  0.816500  1.0  -0.0622
  C  C34  1  0.108100  0.237800  0.720100  1.0  -0.1314
  C  C35  1  0.993700  0.109600  0.688100  1.0  -0.0019
  C  C36  1  0.194500  0.279500  0.650000  1.0  0.6758
  C  C37  1  0.390200  0.434400  0.156600  1.0  0.6868
  C  C38  1  0.390000  0.578500  0.184800  1.0  -0.132
  C  C39  1  0.343000  0.623700  0.267400  1.0  -0.0935
  C  C40  1  0.339000  0.750100  0.290900  1.0  0.0205
  C  C41  1  0.373800  0.833300  0.233300  1.0  -0.1253
  C  C42  1  0.417600  0.785000  0.149600  1.0  -0.1777
  C  C43  1  0.426200  0.656800  0.127000  1.0  -0.0273
  C  C44  1  0.448500  0.866700  0.084300  1.0  0.7446
  C  C45  1  0.210100  0.074900  0.284700  1.0  0.6972
  C  C46  1  0.090300  0.933100  0.249000  1.0  -0.1807
  C  C47  1  0.060100  0.838300  0.153500  1.0  -0.0683
  C  C48  1  0.945100  0.709300  0.124600  1.0  0.0172
  C  C49  1  0.858600  0.668600  0.183500  1.0  -0.0607
  C  C50  1  0.891900  0.762200  0.279900  1.0  -0.1309
  C  C51  1  0.006300  0.890400  0.311900  1.0  -0.0029
  C  C52  1  0.805500  0.720500  0.350000  1.0  0.6758
  N  N53  1  0.700900  0.196700  0.618900  1.0  0.6343
  N  N54  1  0.085100  0.390100  0.975700  1.0  0.6045
  N  N55  1  0.299100  0.803300  0.381100  1.0  0.6343
  N  N56  1  0.914900  0.609900  0.024300  1.0  0.6015
  O  O57  1  0.647400  0.635900  0.788000  1.0  -0.6332
  O  O58  1  0.573200  0.612200  0.918100  1.0  -0.6126
  O  O59  1  0.468600  0.149800  0.968400  1.0  -0.7453
  O  O60  1  0.604200  0.049000  0.913600  1.0  -0.7679
  O  O61  1  0.684700  0.073700  0.591600  1.0  -0.4534
  O  O62  1  0.750300  0.275900  0.575600  1.0  -0.4316
  O  O63  1  0.699100  0.895700  0.764000  1.0  -0.7351
  O  O64  1  0.786800  0.836400  0.636700  1.0  -0.7457
  O  O65  1  0.148800  0.198000  0.560500  1.0  -0.6766
  O  O66  1  0.306900  0.391100  0.679100  1.0  -0.618
  O  O67  1  0.151000  0.517600  0.990100  1.0  -0.5084
  O  O68  1  0.044400  0.345400  0.038800  1.0  -0.4785
  O  O69  1  0.521000  0.573200  0.595900  1.0  -0.9003
  O  O70  1  0.352600  0.364100  0.212000  1.0  -0.6309
  O  O71  1  0.426800  0.387800  0.081900  1.0  -0.6113
  O  O72  1  0.531400  0.850200  0.031600  1.0  -0.747
  O  O73  1  0.395800  0.951000  0.086400  1.0  -0.7686
  O  O74  1  0.315300  0.926300  0.408400  1.0  -0.4511
  O  O75  1  0.249700  0.724100  0.424400  1.0  -0.4307
  O  O76  1  0.300900  0.104300  0.236000  1.0  -0.7364
  O  O77  1  0.213200  0.163600  0.363300  1.0  -0.7466
  O  O78  1  0.851200  0.802000  0.439500  1.0  -0.6748
  O  O79  1  0.693100  0.608900  0.320900  1.0  -0.6174
  O  O80  1  0.849000  0.482400  0.009900  1.0  -0.5081
  O  O81  1  0.955600  0.654600  0.961200  1.0  -0.4798
  O  O82  1  0.479000  0.426800  0.404100  1.0  -0.8985
