# generated using pymatgen
data_U2H6C16N2O13
_symmetry_space_group_name_H-M   'P 1'
_cell_length_a   10.66460000
_cell_length_b   11.08970000
_cell_length_c   14.72400000
_cell_angle_alpha   106.80600000
_cell_angle_beta   95.72700000
_cell_angle_gamma   113.00100000
_symmetry_Int_Tables_number   1
_chemical_formula_structural   U2H6C16N2O13
_chemical_formula_sum   'U4 H12 C32 N4 O26'
_cell_volume   1489.06054551
_cell_formula_units_Z   2
loop_
 _symmetry_equiv_pos_site_id
 _symmetry_equiv_pos_as_xyz
  1  'x, y, z'
loop_
 _atom_site_type_symbol
 _atom_site_label
 _atom_site_symmetry_multiplicity
 _atom_site_fract_x
 _atom_site_fract_y
 _atom_site_fract_z
 _atom_site_occupancy
 _atom_site_charge
  U  U1  1  0.107770  0.330380  0.389170  1.0  1.7023
  U  U2  1  0.840970  0.851260  0.009620  1.0  1.8838
  U  U3  1  0.892230  0.669620  0.610830  1.0  1.7051
  U  U4  1  0.159030  0.148740  0.990380  1.0  1.8846
  H  H5  1  0.718000  0.929000  0.344000  1.0  0.1166
  H  H6  1  0.470000  0.541000  0.125200  1.0  0.1186
  H  H7  1  0.391000  0.647000  0.392300  1.0  0.1235
  H  H8  1  0.041000  0.870000  0.422200  1.0  0.1764
  H  H9  1  0.132000  0.587000  0.247000  1.0  0.1672
  H  H10  1  0.181000  0.919000  0.193700  1.0  0.2039
  H  H11  1  0.282000  0.071000  0.656000  1.0  0.1161
  H  H12  1  0.530000  0.459000  0.874800  1.0  0.1178
  H  H13  1  0.609000  0.353000  0.607700  1.0  0.1237
  H  H14  1  0.959000  0.130000  0.577800  1.0  0.1753
  H  H15  1  0.868000  0.413000  0.753000  1.0  0.1659
  H  H16  1  0.819000  0.081000  0.806300  1.0  0.2041
  C  C17  1  0.108700  0.063300  0.342180  1.0  0.6798
  C  C18  1  0.112000  0.923900  0.315510  1.0  -0.1521
  C  C19  1  0.072700  0.842300  0.373280  1.0  -0.0166
  C  C20  1  0.083600  0.716500  0.350630  1.0  -0.1393
  C  C21  1  0.126900  0.668100  0.266920  1.0  -0.0434
  C  C22  1  0.161100  0.749700  0.209380  1.0  -0.0195
  C  C23  1  0.157300  0.877800  0.232580  1.0  -0.0124
  C  C24  1  0.050700  0.631700  0.415420  1.0  0.7311
  C  C25  1  0.693800  0.777900  0.149050  1.0  0.6504
  C  C26  1  0.608600  0.738600  0.220200  1.0  -0.1207
  C  C27  1  0.492600  0.607800  0.187620  1.0  -0.0224
  C  C28  1  0.410100  0.568100  0.250710  1.0  -0.1365
  C  C29  1  0.441100  0.660400  0.346240  1.0  -0.0125
  C  C30  1  0.555300  0.790100  0.375850  1.0  -0.0143
  C  C31  1  0.641900  0.832200  0.315490  1.0  -0.0169
  C  C32  1  0.290000  0.424400  0.214970  1.0  0.708
  C  C33  1  0.891300  0.936700  0.657820  1.0  0.6801
  C  C34  1  0.888000  0.076100  0.684490  1.0  -0.1534
  C  C35  1  0.927300  0.157700  0.626720  1.0  -0.0161
  C  C36  1  0.916400  0.283500  0.649370  1.0  -0.1384
  C  C37  1  0.873100  0.331900  0.733080  1.0  -0.0447
  C  C38  1  0.838900  0.250300  0.790620  1.0  -0.0181
  C  C39  1  0.842700  0.122200  0.767420  1.0  -0.0118
  C  C40  1  0.949300  0.368300  0.584580  1.0  0.732
  C  C41  1  0.306200  0.222100  0.850950  1.0  0.6502
  C  C42  1  0.391400  0.261400  0.779800  1.0  -0.119
  C  C43  1  0.507400  0.392200  0.812380  1.0  -0.023
  C  C44  1  0.589900  0.431900  0.749290  1.0  -0.1376
  C  C45  1  0.558900  0.339600  0.653760  1.0  -0.012
  C  C46  1  0.444700  0.209900  0.624150  1.0  -0.014
  C  C47  1  0.358100  0.167800  0.684510  1.0  -0.0159
  C  C48  1  0.710000  0.575600  0.785030  1.0  0.7121
  N  N49  1  0.585400  0.891000  0.475930  1.0  0.6093
  N  N50  1  0.200500  0.695400  0.118270  1.0  0.6301
  N  N51  1  0.414600  0.109000  0.524070  1.0  0.6085
  N  N52  1  0.799500  0.304600  0.881730  1.0  0.631
  O  O53  1  0.148340  0.136630  0.288430  1.0  -0.649
  O  O54  1  0.072250  0.110760  0.417910  1.0  -0.6227
  O  O55  1  0.968980  0.649020  0.468550  1.0  -0.7272
  O  O56  1  0.104710  0.548860  0.413820  1.0  -0.7498
  O  O57  1  0.199080  0.396550  0.264230  1.0  -0.7293
  O  O58  1  0.287760  0.338050  0.136840  1.0  -0.7086
  O  O59  1  0.806750  0.890820  0.178740  1.0  -0.6188
  O  O60  1  0.648350  0.698210  0.059880  1.0  -0.6042
  O  O61  1  0.978670  0.926120  0.903410  1.0  -0.6432
  O  O62  1  0.250260  0.776660  0.075590  1.0  -0.4162
  O  O63  1  0.183900  0.573940  0.091120  1.0  -0.4303
  O  O64  1  0.543000  0.844300  0.538190  1.0  -0.4519
  O  O65  1  0.650780  0.016330  0.489680  1.0  -0.454
  O  O66  1  0.851660  0.863370  0.711570  1.0  -0.6441
  O  O67  1  0.927750  0.889240  0.582090  1.0  -0.6228
  O  O68  1  0.031020  0.350980  0.531450  1.0  -0.7266
  O  O69  1  0.895290  0.451140  0.586180  1.0  -0.7507
  O  O70  1  0.800920  0.603450  0.735770  1.0  -0.7302
  O  O71  1  0.712240  0.661950  0.863160  1.0  -0.7065
  O  O72  1  0.193250  0.109180  0.821260  1.0  -0.6158
  O  O73  1  0.351650  0.301790  0.940120  1.0  -0.6025
  O  O74  1  0.021330  0.073880  0.096590  1.0  -0.6438
  O  O75  1  0.749740  0.223340  0.924410  1.0  -0.4184
  O  O76  1  0.816100  0.426060  0.908880  1.0  -0.4271
  O  O77  1  0.457000  0.155700  0.461810  1.0  -0.451
  O  O78  1  0.349220  0.983670  0.510320  1.0  -0.4523
