# generated using pymatgen
data_Ce2Cu7H28C42I6(NO2)7
_symmetry_space_group_name_H-M   'P 1'
_cell_length_a   7.10540000
_cell_length_b   18.24190000
_cell_length_c   24.94770000
_cell_angle_alpha   90.00000000
_cell_angle_beta   90.00000000
_cell_angle_gamma   99.52200000
_symmetry_Int_Tables_number   1
_chemical_formula_structural   Ce2Cu7H28C42I6(NO2)7
_chemical_formula_sum   'Ce4 Cu14 H56 C84 I12 N14 O28'
_cell_volume   3189.06866144
_cell_formula_units_Z   2
loop_
 _symmetry_equiv_pos_site_id
 _symmetry_equiv_pos_as_xyz
  1  'x, y, z'
loop_
 _atom_site_type_symbol
 _atom_site_label
 _atom_site_symmetry_multiplicity
 _atom_site_fract_x
 _atom_site_fract_y
 _atom_site_fract_z
 _atom_site_occupancy
 _atom_site_charge
  Ce  Ce1  1  0.778820  0.983800  0.598590  1.0  2.2293
  Ce  Ce2  1  0.221180  0.016200  0.098590  1.0  2.229
  Ce  Ce3  1  0.221180  0.016200  0.401410  1.0  2.2304
  Ce  Ce4  1  0.778820  0.983800  0.901410  1.0  2.231
  Cu  Cu5  1  0.251020  0.553610  0.683160  1.0  0.1377
  Cu  Cu6  1  0.173710  0.438960  0.580140  1.0  0.1638
  Cu  Cu7  1  0.378160  0.544220  0.492310  1.0  0.1364
  Cu  Cu8  1  0.748980  0.446390  0.183160  1.0  0.1387
  Cu  Cu9  1  0.826290  0.561040  0.080140  1.0  0.1633
  Cu  Cu10  1  0.621840  0.455780  0.992310  1.0  0.1358
  Cu  Cu11  1  0.748980  0.446390  0.316840  1.0  0.1389
  Cu  Cu12  1  0.826290  0.561040  0.419860  1.0  0.1632
  Cu  Cu13  1  0.621840  0.455780  0.507690  1.0  0.1356
  Cu  Cu14  1  0.251020  0.553610  0.816840  1.0  0.1381
  Cu  Cu15  1  0.173710  0.438960  0.919860  1.0  0.1636
  Cu  Cu16  1  0.378160  0.544220  0.007690  1.0  0.1361
  Cu  Cu17  1  0.230170  0.433860  0.750000  1.0  0.1108
  Cu  Cu18  1  0.769830  0.566140  0.250000  1.0  0.1126
  H  H19  1  0.298900  0.827300  0.659000  1.0  0.1174
  H  H20  1  0.404900  0.717200  0.674700  1.0  0.0755
  H  H21  1  0.894100  0.606100  0.655700  1.0  0.0572
  H  H22  1  0.774800  0.713000  0.639800  1.0  0.12
  H  H23  1  0.194200  0.217200  0.465400  1.0  0.1136
  H  H24  1  0.193700  0.339900  0.485300  1.0  0.0641
  H  H25  1  0.112600  0.293400  0.636600  1.0  0.0721
  H  H26  1  0.099900  0.169200  0.620300  1.0  0.1209
  H  H27  1  0.694800  0.195500  0.473000  1.0  0.1151
  H  H28  1  0.679500  0.317700  0.454300  1.0  0.0667
  H  H29  1  0.588000  0.358200  0.604300  1.0  0.0675
  H  H30  1  0.610000  0.238400  0.627700  1.0  0.1244
  H  H31  1  0.701100  0.172700  0.159000  1.0  0.1177
  H  H32  1  0.595100  0.282800  0.174700  1.0  0.0752
  H  H33  1  0.105900  0.393900  0.155700  1.0  0.0571
  H  H34  1  0.225200  0.287000  0.139800  1.0  0.1193
  H  H35  1  0.805800  0.782800  0.965400  1.0  0.1133
  H  H36  1  0.806300  0.660100  0.985300  1.0  0.065
  H  H37  1  0.887400  0.706600  0.136600  1.0  0.0724
  H  H38  1  0.900100  0.830800  0.120300  1.0  0.1212
  H  H39  1  0.305200  0.804500  0.973000  1.0  0.1154
  H  H40  1  0.320500  0.682300  0.954300  1.0  0.0675
  H  H41  1  0.412000  0.641800  0.104300  1.0  0.0688
  H  H42  1  0.390000  0.761600  0.127700  1.0  0.124
  H  H43  1  0.701100  0.172700  0.341000  1.0  0.1176
  H  H44  1  0.595100  0.282800  0.325300  1.0  0.0751
  H  H45  1  0.105900  0.393900  0.344300  1.0  0.057
  H  H46  1  0.225200  0.287000  0.360200  1.0  0.1188
  H  H47  1  0.805800  0.782800  0.534600  1.0  0.1132
  H  H48  1  0.806300  0.660100  0.514700  1.0  0.065
  H  H49  1  0.887400  0.706600  0.363400  1.0  0.073
  H  H50  1  0.900100  0.830800  0.379700  1.0  0.1212
  H  H51  1  0.305200  0.804500  0.527000  1.0  0.1151
  H  H52  1  0.320500  0.682300  0.545700  1.0  0.0672
  H  H53  1  0.412000  0.641800  0.395700  1.0  0.0688
  H  H54  1  0.390000  0.761600  0.372300  1.0  0.1241
  H  H55  1  0.298900  0.827300  0.841000  1.0  0.1176
  H  H56  1  0.404900  0.717200  0.825300  1.0  0.0752
  H  H57  1  0.894100  0.606100  0.844300  1.0  0.0571
  H  H58  1  0.774800  0.713000  0.860200  1.0  0.1201
  H  H59  1  0.194200  0.217200  0.034600  1.0  0.1134
  H  H60  1  0.193700  0.339900  0.014700  1.0  0.0641
  H  H61  1  0.112600  0.293400  0.863400  1.0  0.0726
  H  H62  1  0.099900  0.169200  0.879700  1.0  0.1208
  H  H63  1  0.694800  0.195500  0.027000  1.0  0.1151
  H  H64  1  0.679500  0.317700  0.045700  1.0  0.0668
  H  H65  1  0.588000  0.358200  0.895700  1.0  0.0675
  H  H66  1  0.610000  0.238400  0.872300  1.0  0.1246
  H  H67  1  0.765400  0.291200  0.750000  1.0  0.1036
  H  H68  1  0.617300  0.392700  0.750000  1.0  0.0626
  H  H69  1  0.119600  0.266700  0.750000  1.0  0.0779
  H  H70  1  0.257000  0.162000  0.750000  1.0  0.1202
  H  H71  1  0.234600  0.708800  0.250000  1.0  0.1028
  H  H72  1  0.382700  0.607300  0.250000  1.0  0.0632
  H  H73  1  0.880400  0.733300  0.250000  1.0  0.0779
  H  H74  1  0.743000  0.838000  0.250000  1.0  0.1197
  C  C75  1  0.946500  0.854200  0.637600  1.0  0.6786
  C  C76  1  0.024200  0.783000  0.648600  1.0  -0.0428
  C  C77  1  0.213100  0.782900  0.658500  1.0  -0.135
  C  C78  1  0.275900  0.716200  0.667800  1.0  0.1235
  C  C79  1  0.976900  0.651300  0.656700  1.0  0.1419
  C  C80  1  0.903900  0.715200  0.647200  1.0  -0.1392
  C  C81  1  0.144100  0.097600  0.528400  1.0  0.8042
  C  C82  1  0.146900  0.178900  0.540570  1.0  -0.0998
  C  C83  1  0.175600  0.231300  0.500500  1.0  -0.1162
  C  C84  1  0.176500  0.305100  0.512900  1.0  0.1288
  C  C85  1  0.127400  0.277800  0.601600  1.0  0.1379
  C  C86  1  0.121200  0.203100  0.592200  1.0  -0.1182
  C  C87  1  0.672500  0.124600  0.567100  1.0  0.6488
  C  C88  1  0.653900  0.203100  0.552400  1.0  -0.0345
  C  C89  1  0.673800  0.227800  0.500400  1.0  -0.1324
  C  C90  1  0.662300  0.301000  0.489400  1.0  0.1264
  C  C91  1  0.609800  0.325000  0.577700  1.0  0.1243
  C  C92  1  0.622400  0.253200  0.592000  1.0  -0.1267
  C  C93  1  0.053500  0.145800  0.137600  1.0  0.6797
  C  C94  1  0.975800  0.217000  0.148600  1.0  -0.0418
  C  C95  1  0.786900  0.217100  0.158500  1.0  -0.1354
  C  C96  1  0.724100  0.283800  0.167800  1.0  0.1218
  C  C97  1  0.023100  0.348700  0.156700  1.0  0.1429
  C  C98  1  0.096100  0.284800  0.147200  1.0  -0.1398
  C  C99  1  0.855900  0.902400  0.028400  1.0  0.8049
  C  C100  1  0.853100  0.821100  0.040570  1.0  -0.0996
  C  C101  1  0.824400  0.768700  0.000500  1.0  -0.1166
  C  C102  1  0.823500  0.694900  0.012900  1.0  0.1272
  C  C103  1  0.872600  0.722200  0.101600  1.0  0.1384
  C  C104  1  0.878800  0.796900  0.092200  1.0  -0.1183
  C  C105  1  0.327500  0.875400  0.067100  1.0  0.649
  C  C106  1  0.346100  0.796900  0.052400  1.0  -0.0355
  C  C107  1  0.326200  0.772200  0.000400  1.0  -0.1327
  C  C108  1  0.337700  0.699000  0.989400  1.0  0.1269
  C  C109  1  0.390200  0.675000  0.077700  1.0  0.1258
  C  C110  1  0.377600  0.746800  0.092000  1.0  -0.126
  C  C111  1  0.053500  0.145800  0.362400  1.0  0.679
  C  C112  1  0.975800  0.217000  0.351400  1.0  -0.0419
  C  C113  1  0.786900  0.217100  0.341500  1.0  -0.1354
  C  C114  1  0.724100  0.283800  0.332200  1.0  0.1218
  C  C115  1  0.023100  0.348700  0.343300  1.0  0.1426
  C  C116  1  0.096100  0.284800  0.352800  1.0  -0.1397
  C  C117  1  0.855900  0.902400  0.471600  1.0  0.8052
  C  C118  1  0.853100  0.821100  0.459430  1.0  -0.0993
  C  C119  1  0.824400  0.768700  0.499500  1.0  -0.1152
  C  C120  1  0.823500  0.694900  0.487100  1.0  0.1267
  C  C121  1  0.872600  0.722200  0.398400  1.0  0.1397
  C  C122  1  0.878800  0.796900  0.407800  1.0  -0.1186
  C  C123  1  0.327500  0.875400  0.432900  1.0  0.6493
  C  C124  1  0.346100  0.796900  0.447600  1.0  -0.0347
  C  C125  1  0.326200  0.772200  0.499600  1.0  -0.1332
  C  C126  1  0.337700  0.699000  0.510600  1.0  0.1261
  C  C127  1  0.390200  0.675000  0.422300  1.0  0.1252
  C  C128  1  0.377600  0.746800  0.408000  1.0  -0.1256
  C  C129  1  0.946500  0.854200  0.862400  1.0  0.68
  C  C130  1  0.024200  0.783000  0.851400  1.0  -0.043
  C  C131  1  0.213100  0.782900  0.841500  1.0  -0.1343
  C  C132  1  0.275900  0.716200  0.832200  1.0  0.1236
  C  C133  1  0.976900  0.651300  0.843300  1.0  0.1415
  C  C134  1  0.903900  0.715200  0.852800  1.0  -0.1394
  C  C135  1  0.144100  0.097600  0.971600  1.0  0.8049
  C  C136  1  0.146900  0.178900  0.959430  1.0  -0.0996
  C  C137  1  0.175600  0.231300  0.999500  1.0  -0.1142
  C  C138  1  0.176500  0.305100  0.987100  1.0  0.1276
  C  C139  1  0.127400  0.277800  0.898400  1.0  0.1397
  C  C140  1  0.121200  0.203100  0.907800  1.0  -0.1184
  C  C141  1  0.672500  0.124600  0.932900  1.0  0.648
  C  C142  1  0.653900  0.203100  0.947600  1.0  -0.0339
  C  C143  1  0.673800  0.227800  0.999600  1.0  -0.1322
  C  C144  1  0.662300  0.301000  0.010600  1.0  0.1262
  C  C145  1  0.609800  0.325000  0.922300  1.0  0.1246
  C  C146  1  0.622400  0.253200  0.908000  1.0  -0.1258
  C  C147  1  0.630100  0.145500  0.750000  1.0  0.6827
  C  C148  1  0.529100  0.213400  0.750000  1.0  -0.0062
  C  C149  1  0.632800  0.284600  0.750000  1.0  -0.1653
  C  C150  1  0.542900  0.345700  0.750000  1.0  0.1327
  C  C151  1  0.252100  0.272100  0.750000  1.0  0.1271
  C  C152  1  0.334200  0.208400  0.750000  1.0  -0.1419
  C  C153  1  0.369900  0.854500  0.250000  1.0  0.6818
  C  C154  1  0.470900  0.786600  0.250000  1.0  -0.0073
  C  C155  1  0.367200  0.715400  0.250000  1.0  -0.1662
  C  C156  1  0.457100  0.654300  0.250000  1.0  0.133
  C  C157  1  0.747900  0.727900  0.250000  1.0  0.1308
  C  C158  1  0.665800  0.791600  0.250000  1.0  -0.1429
  I  I159  1  0.981700  0.442860  0.670150  1.0  -0.1951
  I  I160  1  0.509220  0.529580  0.589240  1.0  -0.1983
  I  I161  1  0.018300  0.557140  0.170150  1.0  -0.1949
  I  I162  1  0.490780  0.470420  0.089240  1.0  -0.199
  I  I163  1  0.018300  0.557140  0.329850  1.0  -0.1948
  I  I164  1  0.490780  0.470420  0.410760  1.0  -0.1988
  I  I165  1  0.981700  0.442860  0.829850  1.0  -0.1949
  I  I166  1  0.509220  0.529580  0.910760  1.0  -0.1982
  I  I167  1  0.525230  0.558110  0.750000  1.0  -0.2249
  I  I168  1  0.474770  0.441890  0.250000  1.0  -0.2252
  I  I169  1  0.000000  0.500000  0.500000  1.0  -0.2846
  I  I170  1  0.000000  0.500000  0.000000  1.0  -0.2846
  N  N171  1  0.161600  0.650700  0.667400  1.0  -0.2166
  N  N172  1  0.153600  0.328800  0.562900  1.0  -0.2286
  N  N173  1  0.627500  0.349000  0.527280  1.0  -0.2173
  N  N174  1  0.838400  0.349300  0.167400  1.0  -0.2182
  N  N175  1  0.846400  0.671200  0.062900  1.0  -0.2274
  N  N176  1  0.372500  0.651000  0.027280  1.0  -0.2156
  N  N177  1  0.838400  0.349300  0.332600  1.0  -0.2178
  N  N178  1  0.846400  0.671200  0.437100  1.0  -0.2276
  N  N179  1  0.372500  0.651000  0.472720  1.0  -0.2155
  N  N180  1  0.161600  0.650700  0.832600  1.0  -0.2167
  N  N181  1  0.153600  0.328800  0.937100  1.0  -0.2292
  N  N182  1  0.627500  0.349000  0.972720  1.0  -0.2166
  N  N183  1  0.352000  0.340500  0.750000  1.0  -0.2356
  N  N184  1  0.648000  0.659500  0.250000  1.0  -0.2353
  O  O185  1  0.059700  0.912800  0.629700  1.0  -0.6604
  O  O186  1  0.769300  0.850800  0.635900  1.0  -0.7248
  O  O187  1  0.209200  0.083100  0.483480  1.0  -0.7497
  O  O188  1  0.079300  0.050580  0.563020  1.0  -0.7184
  O  O189  1  0.698800  0.080110  0.530450  1.0  -0.67
  O  O190  1  0.666500  0.106800  0.615520  1.0  -0.676
  O  O191  1  0.940300  0.087200  0.129700  1.0  -0.66
  O  O192  1  0.230700  0.149200  0.135900  1.0  -0.7227
  O  O193  1  0.790800  0.916900  0.983480  1.0  -0.7485
  O  O194  1  0.920700  0.949420  0.063020  1.0  -0.7187
  O  O195  1  0.301200  0.919890  0.030450  1.0  -0.6695
  O  O196  1  0.333500  0.893200  0.115520  1.0  -0.6738
  O  O197  1  0.940300  0.087200  0.370300  1.0  -0.6591
  O  O198  1  0.230700  0.149200  0.364100  1.0  -0.7242
  O  O199  1  0.790800  0.916900  0.516520  1.0  -0.7485
  O  O200  1  0.920700  0.949420  0.436980  1.0  -0.7198
  O  O201  1  0.301200  0.919890  0.469550  1.0  -0.6702
  O  O202  1  0.333500  0.893200  0.384480  1.0  -0.6751
  O  O203  1  0.059700  0.912800  0.870300  1.0  -0.6599
  O  O204  1  0.769300  0.850800  0.864100  1.0  -0.7252
  O  O205  1  0.209200  0.083100  0.016520  1.0  -0.7479
  O  O206  1  0.079300  0.050580  0.936980  1.0  -0.721
  O  O207  1  0.698800  0.080110  0.969550  1.0  -0.6696
  O  O208  1  0.666500  0.106800  0.884480  1.0  -0.675
  O  O209  1  0.805000  0.155300  0.750000  1.0  -0.6556
  O  O210  1  0.525400  0.083600  0.750000  1.0  -0.7101
  O  O211  1  0.195000  0.844700  0.250000  1.0  -0.6614
  O  O212  1  0.474600  0.916400  0.250000  1.0  -0.7041
