# generated using pymatgen
data_Sm2Cu7H28C42I6(NO2)7
_symmetry_space_group_name_H-M   'P 1'
_cell_length_a   7.08070000
_cell_length_b   18.18740000
_cell_length_c   24.82370000
_cell_angle_alpha   90.00000000
_cell_angle_beta   90.00000000
_cell_angle_gamma   99.02200000
_symmetry_Int_Tables_number   1
_chemical_formula_structural   Sm2Cu7H28C42I6(NO2)7
_chemical_formula_sum   'Sm4 Cu14 H56 C84 I12 N14 O28'
_cell_volume   3157.23427823
_cell_formula_units_Z   2
loop_
 _symmetry_equiv_pos_site_id
 _symmetry_equiv_pos_as_xyz
  1  'x, y, z'
loop_
 _atom_site_type_symbol
 _atom_site_label
 _atom_site_symmetry_multiplicity
 _atom_site_fract_x
 _atom_site_fract_y
 _atom_site_fract_z
 _atom_site_occupancy
 _atom_site_charge
  Sm  Sm1  1  0.782450  0.984330  0.597380  1.0  2.2594
  Sm  Sm2  1  0.217550  0.015670  0.097380  1.0  2.2601
  Sm  Sm3  1  0.217550  0.015670  0.402620  1.0  2.2576
  Sm  Sm4  1  0.782450  0.984330  0.902620  1.0  2.259
  Cu  Cu5  1  0.249450  0.553620  0.683510  1.0  0.1365
  Cu  Cu6  1  0.175110  0.439040  0.580430  1.0  0.1606
  Cu  Cu7  1  0.377900  0.544830  0.492160  1.0  0.1378
  Cu  Cu8  1  0.750550  0.446380  0.183510  1.0  0.1373
  Cu  Cu9  1  0.824890  0.560960  0.080430  1.0  0.1634
  Cu  Cu10  1  0.622100  0.455170  0.992160  1.0  0.1372
  Cu  Cu11  1  0.750550  0.446380  0.316490  1.0  0.1375
  Cu  Cu12  1  0.824890  0.560960  0.419570  1.0  0.1625
  Cu  Cu13  1  0.622100  0.455170  0.507840  1.0  0.1371
  Cu  Cu14  1  0.249450  0.553620  0.816490  1.0  0.1366
  Cu  Cu15  1  0.175110  0.439040  0.919570  1.0  0.1596
  Cu  Cu16  1  0.377900  0.544830  0.007840  1.0  0.1377
  Cu  Cu17  1  0.230190  0.432850  0.750000  1.0  0.1045
  Cu  Cu18  1  0.769810  0.567150  0.250000  1.0  0.1064
  H  H19  1  0.300100  0.828600  0.658300  1.0  0.1217
  H  H20  1  0.405300  0.716900  0.674700  1.0  0.0782
  H  H21  1  0.892600  0.608200  0.655900  1.0  0.0545
  H  H22  1  0.774300  0.715200  0.639900  1.0  0.1172
  H  H23  1  0.197000  0.217100  0.465100  1.0  0.1149
  H  H24  1  0.196800  0.339500  0.485300  1.0  0.062
  H  H25  1  0.112100  0.293000  0.636300  1.0  0.0671
  H  H26  1  0.100400  0.168800  0.621000  1.0  0.1284
  H  H27  1  0.697600  0.194000  0.472400  1.0  0.121
  H  H28  1  0.680800  0.316500  0.453700  1.0  0.0662
  H  H29  1  0.587400  0.356800  0.604300  1.0  0.0688
  H  H30  1  0.612500  0.236800  0.627600  1.0  0.1245
  H  H31  1  0.699900  0.171400  0.158300  1.0  0.1219
  H  H32  1  0.594700  0.283100  0.174700  1.0  0.078
  H  H33  1  0.107400  0.391800  0.155900  1.0  0.0524
  H  H34  1  0.225700  0.284800  0.139900  1.0  0.117
  H  H35  1  0.803000  0.782900  0.965100  1.0  0.1151
  H  H36  1  0.803200  0.660500  0.985300  1.0  0.0625
  H  H37  1  0.887900  0.707000  0.136300  1.0  0.067
  H  H38  1  0.899600  0.831200  0.121000  1.0  0.1283
  H  H39  1  0.302400  0.806000  0.972400  1.0  0.1213
  H  H40  1  0.319200  0.683500  0.953700  1.0  0.0674
  H  H41  1  0.412600  0.643200  0.104300  1.0  0.0699
  H  H42  1  0.387500  0.763200  0.127600  1.0  0.1244
  H  H43  1  0.699900  0.171400  0.341700  1.0  0.1217
  H  H44  1  0.594700  0.283100  0.325300  1.0  0.078
  H  H45  1  0.107400  0.391800  0.344100  1.0  0.0529
  H  H46  1  0.225700  0.284800  0.360100  1.0  0.1168
  H  H47  1  0.803000  0.782900  0.534900  1.0  0.1145
  H  H48  1  0.803200  0.660500  0.514700  1.0  0.0623
  H  H49  1  0.887900  0.707000  0.363700  1.0  0.0678
  H  H50  1  0.899600  0.831200  0.379000  1.0  0.1284
  H  H51  1  0.302400  0.806000  0.527600  1.0  0.1212
  H  H52  1  0.319200  0.683500  0.546300  1.0  0.0669
  H  H53  1  0.412600  0.643200  0.395700  1.0  0.0698
  H  H54  1  0.387500  0.763200  0.372400  1.0  0.1253
  H  H55  1  0.300100  0.828600  0.841700  1.0  0.1218
  H  H56  1  0.405300  0.716900  0.825300  1.0  0.0779
  H  H57  1  0.892600  0.608200  0.844100  1.0  0.0561
  H  H58  1  0.774300  0.715200  0.860100  1.0  0.1176
  H  H59  1  0.197000  0.217100  0.034900  1.0  0.1145
  H  H60  1  0.196800  0.339500  0.014700  1.0  0.0618
  H  H61  1  0.112100  0.293000  0.863700  1.0  0.0676
  H  H62  1  0.100400  0.168800  0.879000  1.0  0.1283
  H  H63  1  0.697600  0.194000  0.027600  1.0  0.121
  H  H64  1  0.680800  0.316500  0.046300  1.0  0.0665
  H  H65  1  0.587400  0.356800  0.895700  1.0  0.0689
  H  H66  1  0.612500  0.236800  0.872400  1.0  0.1254
  H  H67  1  0.770300  0.289400  0.750000  1.0  0.1113
  H  H68  1  0.617300  0.391300  0.750000  1.0  0.058
  H  H69  1  0.121300  0.265100  0.750000  1.0  0.0747
  H  H70  1  0.261000  0.160100  0.750000  1.0  0.1262
  H  H71  1  0.229700  0.710600  0.250000  1.0  0.11
  H  H72  1  0.382700  0.608700  0.250000  1.0  0.0588
  H  H73  1  0.878700  0.734900  0.250000  1.0  0.0752
  H  H74  1  0.739000  0.839900  0.250000  1.0  0.1262
  C  C75  1  0.947100  0.856200  0.635500  1.0  0.6789
  C  C76  1  0.024600  0.785100  0.647800  1.0  -0.0265
  C  C77  1  0.213900  0.784400  0.657900  1.0  -0.1372
  C  C78  1  0.276100  0.716600  0.667700  1.0  0.1254
  C  C79  1  0.976200  0.653000  0.656800  1.0  0.1483
  C  C80  1  0.903900  0.717100  0.647000  1.0  -0.1468
  C  C81  1  0.140500  0.096500  0.527500  1.0  0.807
  C  C82  1  0.145500  0.177800  0.540500  1.0  -0.0866
  C  C83  1  0.177000  0.231000  0.500400  1.0  -0.1287
  C  C84  1  0.178800  0.304700  0.513000  1.0  0.124
  C  C85  1  0.128100  0.277400  0.601200  1.0  0.1412
  C  C86  1  0.121100  0.202400  0.592500  1.0  -0.1226
  C  C87  1  0.673600  0.122500  0.566900  1.0  0.6578
  C  C88  1  0.654600  0.201300  0.552100  1.0  -0.0307
  C  C89  1  0.675700  0.226200  0.500000  1.0  -0.1353
  C  C90  1  0.664000  0.299700  0.489000  1.0  0.1268
  C  C91  1  0.610600  0.323700  0.577500  1.0  0.131
  C  C92  1  0.623900  0.251500  0.591800  1.0  -0.1253
  C  C93  1  0.052900  0.143800  0.135500  1.0  0.6801
  C  C94  1  0.975400  0.214900  0.147800  1.0  -0.0247
  C  C95  1  0.786100  0.215600  0.157900  1.0  -0.1375
  C  C96  1  0.723900  0.283400  0.167700  1.0  0.1289
  C  C97  1  0.023800  0.347000  0.156800  1.0  0.1429
  C  C98  1  0.096100  0.282900  0.147000  1.0  -0.1414
  C  C99  1  0.859500  0.903500  0.027500  1.0  0.828
  C  C100  1  0.854500  0.822200  0.040500  1.0  -0.0869
  C  C101  1  0.823000  0.769000  0.000400  1.0  -0.1291
  C  C102  1  0.821200  0.695300  0.013000  1.0  0.1253
  C  C103  1  0.871900  0.722600  0.101200  1.0  0.1456
  C  C104  1  0.878900  0.797600  0.092500  1.0  -0.1218
  C  C105  1  0.326400  0.877500  0.066900  1.0  0.6596
  C  C106  1  0.345400  0.798700  0.052100  1.0  -0.0305
  C  C107  1  0.324300  0.773800  0.000000  1.0  -0.136
  C  C108  1  0.336000  0.700300  0.989000  1.0  0.1268
  C  C109  1  0.389400  0.676300  0.077500  1.0  0.131
  C  C110  1  0.376100  0.748500  0.091800  1.0  -0.1247
  C  C111  1  0.052900  0.143800  0.364500  1.0  0.6801
  C  C112  1  0.975400  0.214900  0.352200  1.0  -0.0254
  C  C113  1  0.786100  0.215600  0.342100  1.0  -0.1381
  C  C114  1  0.723900  0.283400  0.332300  1.0  0.1284
  C  C115  1  0.023800  0.347000  0.343200  1.0  0.1426
  C  C116  1  0.096100  0.282900  0.353000  1.0  -0.1406
  C  C117  1  0.859500  0.903500  0.472500  1.0  0.8102
  C  C118  1  0.854500  0.822200  0.459500  1.0  -0.086
  C  C119  1  0.823000  0.769000  0.499600  1.0  -0.1394
  C  C120  1  0.821200  0.695300  0.487000  1.0  0.1251
  C  C121  1  0.871900  0.722600  0.398800  1.0  0.1481
  C  C122  1  0.878900  0.797600  0.407500  1.0  -0.1222
  C  C123  1  0.326400  0.877500  0.433100  1.0  0.6603
  C  C124  1  0.345400  0.798700  0.447900  1.0  -0.0301
  C  C125  1  0.324300  0.773800  0.500000  1.0  -0.1434
  C  C126  1  0.336000  0.700300  0.511000  1.0  0.1262
  C  C127  1  0.389400  0.676300  0.422500  1.0  0.1321
  C  C128  1  0.376100  0.748500  0.408200  1.0  -0.1247
  C  C129  1  0.947100  0.856200  0.864500  1.0  0.6802
  C  C130  1  0.024600  0.785100  0.852200  1.0  -0.0269
  C  C131  1  0.213900  0.784400  0.842100  1.0  -0.137
  C  C132  1  0.276100  0.716600  0.832300  1.0  0.125
  C  C133  1  0.976200  0.653000  0.843200  1.0  0.1478
  C  C134  1  0.903900  0.717100  0.853000  1.0  -0.1468
  C  C135  1  0.140500  0.096500  0.972500  1.0  0.8055
  C  C136  1  0.145500  0.177800  0.959500  1.0  -0.0857
  C  C137  1  0.177000  0.231000  0.999600  1.0  -0.1282
  C  C138  1  0.178800  0.304700  0.987000  1.0  0.1236
  C  C139  1  0.128100  0.277400  0.898800  1.0  0.1467
  C  C140  1  0.121100  0.202400  0.907500  1.0  -0.1224
  C  C141  1  0.673600  0.122500  0.933100  1.0  0.6618
  C  C142  1  0.654600  0.201300  0.947900  1.0  -0.0304
  C  C143  1  0.675700  0.226200  0.000000  1.0  -0.1349
  C  C144  1  0.664000  0.299700  0.011000  1.0  0.1268
  C  C145  1  0.610600  0.323700  0.922500  1.0  0.1304
  C  C146  1  0.623900  0.251500  0.908200  1.0  -0.1253
  C  C147  1  0.636200  0.143200  0.750000  1.0  0.68
  C  C148  1  0.533800  0.212200  0.750000  1.0  -0.0048
  C  C149  1  0.637400  0.282900  0.750000  1.0  -0.1588
  C  C150  1  0.544300  0.344100  0.750000  1.0  0.1288
  C  C151  1  0.254100  0.270500  0.750000  1.0  0.1395
  C  C152  1  0.337300  0.206700  0.750000  1.0  -0.1529
  C  C153  1  0.363800  0.856800  0.250000  1.0  0.6795
  C  C154  1  0.466200  0.787800  0.250000  1.0  -0.0048
  C  C155  1  0.362600  0.717100  0.250000  1.0  -0.1656
  C  C156  1  0.455700  0.655900  0.250000  1.0  0.1365
  C  C157  1  0.745900  0.729500  0.250000  1.0  0.1453
  C  C158  1  0.662700  0.793300  0.250000  1.0  -0.1511
  I  I159  1  0.980550  0.443170  0.670200  1.0  -0.1962
  I  I160  1  0.509370  0.529740  0.589470  1.0  -0.1963
  I  I161  1  0.019450  0.556830  0.170200  1.0  -0.1964
  I  I162  1  0.490630  0.470260  0.089470  1.0  -0.1964
  I  I163  1  0.019450  0.556830  0.329800  1.0  -0.1963
  I  I164  1  0.490630  0.470260  0.410530  1.0  -0.1965
  I  I165  1  0.980550  0.443170  0.829800  1.0  -0.196
  I  I166  1  0.509370  0.529740  0.910530  1.0  -0.1965
  I  I167  1  0.525860  0.557460  0.750000  1.0  -0.2232
  I  I168  1  0.474140  0.442540  0.250000  1.0  -0.2218
  I  I169  1  0.000000  0.500000  0.500000  1.0  -0.2858
  I  I170  1  0.000000  0.500000  0.000000  1.0  -0.2858
  N  N171  1  0.160500  0.651300  0.667500  1.0  -0.2317
  N  N172  1  0.155900  0.328800  0.563300  1.0  -0.2331
  N  N173  1  0.629400  0.347900  0.527200  1.0  -0.2145
  N  N174  1  0.839500  0.348700  0.167500  1.0  -0.2353
  N  N175  1  0.844100  0.671200  0.063300  1.0  -0.2324
  N  N176  1  0.370600  0.652100  0.027200  1.0  -0.2129
  N  N177  1  0.839500  0.348700  0.332500  1.0  -0.2347
  N  N178  1  0.844100  0.671200  0.436700  1.0  -0.2329
  N  N179  1  0.370600  0.652100  0.472800  1.0  -0.213
  N  N180  1  0.160500  0.651300  0.832500  1.0  -0.232
  N  N181  1  0.155900  0.328800  0.936700  1.0  -0.2331
  N  N182  1  0.629400  0.347900  0.972800  1.0  -0.2136
  N  N183  1  0.351400  0.338600  0.750000  1.0  -0.2504
  N  N184  1  0.648600  0.661400  0.250000  1.0  -0.2511
  O  O185  1  0.060500  0.914100  0.626300  1.0  -0.6602
  O  O186  1  0.769000  0.853600  0.633600  1.0  -0.7474
  O  O187  1  0.207000  0.081700  0.482680  1.0  -0.7554
  O  O188  1  0.074700  0.049700  0.562240  1.0  -0.7376
  O  O189  1  0.697900  0.077400  0.529710  1.0  -0.6869
  O  O190  1  0.673300  0.104300  0.614940  1.0  -0.6782
  O  O191  1  0.939500  0.085900  0.126300  1.0  -0.6628
  O  O192  1  0.231000  0.146400  0.133600  1.0  -0.7453
  O  O193  1  0.793000  0.918300  0.982680  1.0  -0.7548
  O  O194  1  0.925300  0.950300  0.062240  1.0  -0.7386
  O  O195  1  0.302100  0.922600  0.029710  1.0  -0.687
  O  O196  1  0.326700  0.895700  0.114940  1.0  -0.6775
  O  O197  1  0.939500  0.085900  0.373700  1.0  -0.6631
  O  O198  1  0.231000  0.146400  0.366400  1.0  -0.7462
  O  O199  1  0.793000  0.918300  0.517320  1.0  -0.7551
  O  O200  1  0.925300  0.950300  0.437760  1.0  -0.7377
  O  O201  1  0.302100  0.922600  0.470290  1.0  -0.6885
  O  O202  1  0.326700  0.895700  0.385060  1.0  -0.6778
  O  O203  1  0.060500  0.914100  0.873700  1.0  -0.6602
  O  O204  1  0.769000  0.853600  0.866400  1.0  -0.7464
  O  O205  1  0.207000  0.081700  0.017320  1.0  -0.7544
  O  O206  1  0.074700  0.049700  0.937760  1.0  -0.7391
  O  O207  1  0.697900  0.077400  0.970290  1.0  -0.687
  O  O208  1  0.673300  0.104300  0.885060  1.0  -0.6769
  O  O209  1  0.809900  0.152800  0.750000  1.0  -0.6396
  O  O210  1  0.531400  0.081600  0.750000  1.0  -0.701
  O  O211  1  0.190100  0.847200  0.250000  1.0  -0.6469
  O  O212  1  0.468600  0.918400  0.250000  1.0  -0.696
