# generated using pymatgen
data_Cd3H48C64(NO3)4
_symmetry_space_group_name_H-M   'P 1'
_cell_length_a   13.96800000
_cell_length_b   14.61100000
_cell_length_c   20.56600000
_cell_angle_alpha   75.25000000
_cell_angle_beta   85.51000000
_cell_angle_gamma   69.00000000
_symmetry_Int_Tables_number   1
_chemical_formula_structural   Cd3H48C64(NO3)4
_chemical_formula_sum   'Cd6 H96 C128 N8 O24'
_cell_volume   3788.94339285
_cell_formula_units_Z   2
loop_
 _symmetry_equiv_pos_site_id
 _symmetry_equiv_pos_as_xyz
  1  'x, y, z'
loop_
 _atom_site_type_symbol
 _atom_site_label
 _atom_site_symmetry_multiplicity
 _atom_site_fract_x
 _atom_site_fract_y
 _atom_site_fract_z
 _atom_site_occupancy
 _atom_site_charge
  Cd  Cd1  1  0.529810  0.733930  0.040550  1.0  1.02
  Cd  Cd2  1  0.470190  0.266070  0.959450  1.0  1.0181
  Cd  Cd3  1  0.990280  0.760430  0.440260  1.0  1.0237
  Cd  Cd4  1  0.500000  0.000000  0.000000  1.0  1.1773
  Cd  Cd5  1  0.009720  0.239570  0.559740  1.0  1.0239
  Cd  Cd6  1  0.000000  0.500000  0.500000  1.0  1.0303
  H  H7  1  0.719100  0.130300  0.952700  1.0  0.1006
  H  H8  1  0.598000  0.569400  0.556400  1.0  0.0931
  H  H9  1  0.621600  0.693000  0.900600  1.0  0.146
  H  H10  1  0.026300  0.710000  0.946000  1.0  0.0995
  H  H11  1  0.236800  0.890000  0.853600  1.0  0.11
  H  H12  1  0.913300  0.262000  0.279900  1.0  0.0768
  H  H13  1  0.583700  0.678100  0.835600  1.0  0.1065
  H  H14  1  0.940200  0.324200  0.775300  1.0  0.1012
  H  H15  1  0.965700  0.050000  0.325400  1.0  0.0844
  H  H16  1  0.466400  0.822900  0.415800  1.0  0.1078
  H  H17  1  0.734300  0.223200  0.664300  1.0  0.1035
  H  H18  1  0.701300  0.489500  0.088700  1.0  0.1224
  H  H19  1  0.752300  0.466000  0.899200  1.0  0.097
  H  H20  1  0.597700  0.330600  0.272700  1.0  0.0759
  H  H21  1  0.685000  0.206500  0.773200  1.0  0.0936
  H  H22  1  0.210400  0.845800  0.729000  1.0  0.072
  H  H23  1  0.753900  0.591000  0.537500  1.0  0.1029
  H  H24  1  0.092400  0.848700  0.880100  1.0  0.0951
  H  H25  1  0.916500  0.062500  0.772300  1.0  0.0952
  H  H26  1  0.847400  0.112000  0.593300  1.0  0.1086
  H  H27  1  0.643500  0.376100  0.906000  1.0  0.1084
  H  H28  1  0.378400  0.307000  0.099400  1.0  0.1465
  H  H29  1  0.246100  0.409000  0.462500  1.0  0.1029
  H  H30  1  0.416200  0.662000  0.598800  1.0  0.0996
  H  H31  1  0.726400  0.983200  0.486600  1.0  0.0942
  H  H32  1  0.402000  0.430600  0.443600  1.0  0.0934
  H  H33  1  0.071800  0.071300  0.955800  1.0  0.0761
  H  H34  1  0.727800  0.378600  0.375500  1.0  0.1215
  H  H35  1  0.966400  0.708900  0.634600  1.0  0.1294
  H  H36  1  0.388900  0.742900  0.773600  1.0  0.0855
  H  H37  1  0.611100  0.257100  0.226400  1.0  0.0845
  H  H38  1  0.152600  0.888000  0.406700  1.0  0.1093
  H  H39  1  0.825700  0.018900  0.395300  1.0  0.1244
  H  H40  1  0.227100  0.092100  0.941000  1.0  0.0891
  H  H41  1  0.907600  0.151300  0.119900  1.0  0.0958
  H  H42  1  0.132300  0.308500  0.040900  1.0  0.105
  H  H43  1  0.870300  0.040700  0.883500  1.0  0.0982
  H  H44  1  0.280900  0.869700  0.047300  1.0  0.0999
  H  H45  1  0.247700  0.534000  0.100800  1.0  0.0974
  H  H46  1  0.083500  0.937500  0.227700  1.0  0.0952
  H  H47  1  0.378000  0.152400  0.601800  1.0  0.1116
  H  H48  1  0.068900  0.807400  0.769800  1.0  0.0832
  H  H49  1  0.047400  0.103200  0.316200  1.0  0.0713
  H  H50  1  0.109500  0.230100  0.426500  1.0  0.1363
  H  H51  1  0.356500  0.623900  0.094000  1.0  0.1081
  H  H52  1  0.890500  0.769900  0.573500  1.0  0.1368
  H  H53  1  0.622000  0.847600  0.398200  1.0  0.111
  H  H54  1  0.298700  0.510500  0.911300  1.0  0.1237
  H  H55  1  0.789600  0.154200  0.271000  1.0  0.0715
  H  H56  1  0.885000  0.815200  0.635700  1.0  0.1134
  H  H57  1  0.973700  0.290000  0.054000  1.0  0.1015
  H  H58  1  0.763200  0.110000  0.146400  1.0  0.1099
  H  H59  1  0.433500  0.533400  0.827600  1.0  0.0883
  H  H60  1  0.034300  0.950000  0.674600  1.0  0.0841
  H  H61  1  0.896500  0.303200  0.886500  1.0  0.1188
  H  H62  1  0.588700  0.582100  0.283900  1.0  0.0981
  H  H63  1  0.033600  0.291100  0.365400  1.0  0.1316
  H  H64  1  0.867700  0.691500  0.959100  1.0  0.1048
  H  H65  1  0.261500  0.972200  0.414500  1.0  0.0987
  H  H66  1  0.103500  0.696800  0.113500  1.0  0.1191
  H  H67  1  0.086700  0.738000  0.720100  1.0  0.0752
  H  H68  1  0.272200  0.621400  0.624500  1.0  0.1207
  H  H69  1  0.760900  0.367100  0.567300  1.0  0.0944
  H  H70  1  0.529400  0.779000  0.858200  1.0  0.133
  H  H71  1  0.115000  0.184800  0.364300  1.0  0.1134
  H  H72  1  0.411300  0.417900  0.716100  1.0  0.0978
  H  H73  1  0.059800  0.675800  0.224700  1.0  0.1003
  H  H74  1  0.541700  0.572900  0.394900  1.0  0.095
  H  H75  1  0.786700  0.512400  0.990800  1.0  0.0932
  H  H76  1  0.533600  0.177100  0.584200  1.0  0.1075
  H  H77  1  0.738500  0.027800  0.585500  1.0  0.0987
  H  H78  1  0.273600  0.016800  0.513400  1.0  0.0932
  H  H79  1  0.520300  0.580000  0.811100  1.0  0.0707
  H  H80  1  0.470600  0.221000  0.141800  1.0  0.1331
  H  H81  1  0.771500  0.224700  0.320000  1.0  0.0737
  H  H82  1  0.258500  0.636100  0.772900  1.0  0.0767
  H  H83  1  0.245500  0.708000  0.820500  1.0  0.0699
  H  H84  1  0.952600  0.896800  0.683800  1.0  0.0729
  H  H85  1  0.174300  0.981100  0.604700  1.0  0.1232
  H  H86  1  0.754500  0.292000  0.179500  1.0  0.0709
  H  H87  1  0.402300  0.669400  0.727300  1.0  0.0767
  H  H88  1  0.928200  0.928700  0.044200  1.0  0.0764
  H  H89  1  0.458300  0.427100  0.605100  1.0  0.0939
  H  H90  1  0.416300  0.321900  0.164400  1.0  0.1071
  H  H91  1  0.931100  0.192600  0.230200  1.0  0.084
  H  H92  1  0.129700  0.959300  0.116500  1.0  0.0987
  H  H93  1  0.772900  0.907900  0.059000  1.0  0.089
  H  H94  1  0.228500  0.775300  0.680000  1.0  0.0733
  H  H95  1  0.315000  0.793500  0.226800  1.0  0.0942
  H  H96  1  0.213300  0.487600  0.009200  1.0  0.093
  H  H97  1  0.265700  0.776800  0.335700  1.0  0.1033
  H  H98  1  0.239100  0.632900  0.432700  1.0  0.0954
  H  H99  1  0.479700  0.420000  0.188900  1.0  0.0706
  H  H100  1  0.583800  0.338000  0.401200  1.0  0.0998
  H  H101  1  0.741500  0.363900  0.227100  1.0  0.0765
  H  H102  1  0.566500  0.466600  0.172400  1.0  0.0879
  C  C103  1  0.726500  0.116900  0.051700  1.0  -0.1575
  C  C104  1  0.106100  0.906700  0.561700  1.0  0.1035
  C  C105  1  0.025000  0.248900  0.031700  1.0  -0.1476
  C  C106  1  0.303800  0.362200  0.487000  1.0  -0.0567
  C  C107  1  0.803300  0.739100  0.453800  1.0  0.7029
  C  C108  1  0.996500  0.176800  0.424100  1.0  0.3774
  C  C109  1  0.360700  0.747600  0.260500  1.0  -0.034
  C  C110  1  0.823800  0.868200  0.035600  1.0  -0.0521
  C  C111  1  0.449400  0.593700  0.824600  1.0  0.0028
  C  C112  1  0.003500  0.823200  0.575900  1.0  0.3768
  C  C113  1  0.629200  0.090800  0.068600  1.0  0.6709
  C  C114  1  0.241800  0.866900  0.013700  1.0  -0.0659
  C  C115  1  0.784000  0.122200  0.102000  1.0  -0.0534
  C  C116  1  0.268400  0.697100  0.776400  1.0  -0.1379
  C  C117  1  0.093900  0.799300  0.725500  1.0  -0.1483
  C  C118  1  0.930000  0.775200  0.607700  1.0  -0.4297
  C  C119  1  0.296200  0.278400  0.534600  1.0  -0.1347
  C  C120  1  0.128800  0.854600  0.913800  1.0  -0.1012
  C  C121  1  0.524400  0.776000  0.440100  1.0  -0.0991
  C  C122  1  0.738800  0.480800  0.994700  1.0  -0.0872
  C  C123  1  0.381100  0.655600  0.564600  1.0  -0.1295
  C  C124  1  0.485900  0.702900  0.170700  1.0  0.6631
  C  C125  1  0.696200  0.637800  0.513000  1.0  -0.057
  C  C126  1  0.600100  0.327800  0.622900  1.0  0.0387
  C  C127  1  0.898000  0.120300  0.498100  1.0  0.1456
  C  C128  1  0.879000  0.169100  0.897500  1.0  0.0402
  C  C129  1  0.100000  0.745700  0.135900  1.0  -0.1742
  C  C130  1  0.067200  0.804600  0.238300  1.0  -0.1557
  C  C131  1  0.719600  0.450400  0.939500  1.0  -0.1058
  C  C132  1  0.654300  0.398500  0.942300  1.0  -0.1254
  C  C133  1  0.582100  0.327800  0.500500  1.0  0.0347
  C  C134  1  0.603100  0.624600  0.523700  1.0  -0.1325
  C  C135  1  0.244200  0.618400  0.530700  1.0  -0.171
  C  C136  1  0.514100  0.297100  0.829300  1.0  0.6629
  C  C137  1  0.102000  0.879700  0.501900  1.0  0.1446
  C  C138  1  0.176200  0.131800  0.964400  1.0  -0.053
  C  C139  1  0.884900  0.098200  0.861900  1.0  -0.1347
  C  C140  1  0.151400  0.846200  0.030600  1.0  0.0156
  C  C141  1  0.755800  0.381600  0.469300  1.0  -0.1702
  C  C142  1  0.704500  0.369700  0.419400  1.0  -0.1405
  C  C143  1  0.828900  0.039000  0.434200  1.0  -0.0975
  C  C144  1  0.196700  0.260900  0.546200  1.0  0.7012
  C  C145  1  0.222300  0.955800  0.451200  1.0  -0.0871
  C  C146  1  0.845200  0.416800  0.452500  1.0  0.6808
  C  C147  1  0.273500  0.883100  0.948300  1.0  -0.1567
  C  C148  1  0.848600  0.153800  0.969400  1.0  0.0161
  C  C149  1  0.417900  0.672200  0.499500  1.0  0.0359
  C  C150  1  0.723200  0.363100  0.533500  1.0  -0.0826
  C  C151  1  0.482700  0.308600  0.513200  1.0  0.0385
  C  C152  1  0.511000  0.337700  0.085000  1.0  0.4147
  C  C153  1  0.094100  0.839900  0.979400  1.0  0.0046
  C  C154  1  0.550600  0.406300  0.175400  1.0  0.0015
  C  C155  1  0.171100  0.961000  0.565800  1.0  -0.0977
  C  C156  1  0.195900  0.202400  0.989700  1.0  -0.1522
  C  C157  1  0.804100  0.797600  0.010300  1.0  -0.1527
  C  C158  1  0.396900  0.375400  0.476300  1.0  -0.1306
  C  C159  1  0.926300  0.266400  0.797300  1.0  -0.0377
  C  C160  1  0.364800  0.661700  0.448900  1.0  0.0109
  C  C161  1  0.932800  0.195400  0.761700  1.0  -0.1545
  C  C162  1  0.280400  0.549600  0.060500  1.0  -0.1047
  C  C163  1  0.906100  0.200700  0.274500  1.0  -0.1489
  C  C164  1  0.158100  0.905000  0.446500  1.0  -0.1077
  C  C165  1  0.900000  0.254300  0.864100  1.0  -0.1741
  C  C166  1  0.023700  0.888400  0.673300  1.0  -0.0087
  C  C167  1  0.382400  0.209200  0.570500  1.0  -0.0661
  C  C168  1  0.070000  0.224800  0.392300  1.0  -0.429
  C  C169  1  0.617600  0.790800  0.429500  1.0  -0.0655
  C  C170  1  0.777700  0.044200  0.548800  1.0  -0.089
  C  C171  1  0.115100  0.901800  0.138100  1.0  -0.1397
  C  C172  1  0.121000  0.830900  0.102500  1.0  0.0388
  C  C173  1  0.623700  0.413600  0.058300  1.0  0.085
  C  C174  1  0.399900  0.672200  0.377100  1.0  0.0392
  C  C175  1  0.731600  0.302900  0.223600  1.0  -0.1382
  C  C176  1  0.345700  0.601500  0.057700  1.0  -0.1233
  C  C177  1  0.504900  0.383700  0.639100  1.0  -0.1231
  C  C178  1  0.331600  0.738600  0.325400  1.0  -0.1602
  C  C179  1  0.297900  0.215500  0.978800  1.0  0.7121
  C  C180  1  0.960000  0.211200  0.689200  1.0  0.6989
  C  C181  1  0.216000  0.877800  0.898000  1.0  -0.0535
  C  C182  1  0.202700  0.784600  0.723900  1.0  -0.1249
  C  C183  1  0.004900  0.177100  0.007400  1.0  0.0404
  C  C184  1  0.309600  0.534200  0.947000  1.0  -0.1127
  C  C185  1  0.893900  0.093300  0.438300  1.0  0.1018
  C  C186  1  0.276800  0.636900  0.466500  1.0  -0.0847
  C  C187  1  0.379700  0.681100  0.771200  1.0  -0.1414
  C  C188  1  0.995100  0.822900  0.992600  1.0  0.0395
  C  C189  1  0.703800  0.721600  0.465400  1.0  -0.1343
  C  C190  1  0.702100  0.784500  0.021200  1.0  0.7129
  C  C191  1  0.871200  0.145400  0.086200  1.0  -0.1019
  C  C192  1  0.489000  0.662300  0.915000  1.0  0.4152
  C  C193  1  0.879700  0.739200  0.976600  1.0  -0.0393
  C  C194  1  0.083000  0.119500  0.973200  1.0  -0.121
  C  C195  1  0.524000  0.623100  0.294000  1.0  -0.0503
  C  C196  1  0.476000  0.376900  0.706000  1.0  -0.0464
  C  C197  1  0.261200  0.519200  0.005300  1.0  -0.0881
  C  C198  1  0.975000  0.751100  0.968300  1.0  -0.1497
  C  C199  1  0.912200  0.111500  0.794900  1.0  -0.0481
  C  C200  1  0.495100  0.616300  0.360900  1.0  -0.1226
  C  C201  1  0.690400  0.465800  0.053000  1.0  -0.1111
  C  C202  1  0.668400  0.261400  0.674600  1.0  -0.1639
  C  C203  1  0.120300  0.260800  0.023400  1.0  -0.0381
  C  C204  1  0.905900  0.160100  0.020600  1.0  0.0061
  C  C205  1  0.841900  0.095000  0.553500  1.0  -0.107
  C  C206  1  0.376300  0.586400  0.941700  1.0  0.0845
  C  C207  1  0.154800  0.583200  0.547500  1.0  0.6804
  C  C208  1  0.635200  0.338300  0.551100  1.0  0.0118
  C  C209  1  0.040000  0.788800  0.310800  1.0  0.699
  C  C210  1  0.295500  0.630300  0.580600  1.0  -0.1399
  C  C211  1  0.229200  0.983200  0.510900  1.0  -0.0872
  C  C212  1  0.087800  0.888500  0.205100  1.0  -0.0476
  C  C213  1  0.770800  0.016800  0.489100  1.0  -0.0866
  C  C214  1  0.620300  0.318900  0.228800  1.0  -0.14
  C  C215  1  0.541300  0.310700  0.756900  1.0  -0.0758
  C  C216  1  0.562600  0.707200  0.873600  1.0  -0.4127
  C  C217  1  0.475600  0.224000  0.559900  1.0  -0.0992
  C  C218  1  0.797300  0.215400  0.276100  1.0  -0.1274
  C  C219  1  0.917000  0.880500  0.026800  1.0  -0.1164
  C  C220  1  0.073700  0.733600  0.202700  1.0  -0.0351
  C  C221  1  0.758200  0.133100  0.986300  1.0  -0.0654
  C  C222  1  0.606600  0.382200  0.002100  1.0  0.1031
  C  C223  1  0.458700  0.689300  0.243100  1.0  -0.0767
  C  C224  1  0.437400  0.292800  0.126400  1.0  -0.4155
  C  C225  1  0.618900  0.344400  0.435400  1.0  -0.1234
  C  C226  1  0.976300  0.111600  0.326700  1.0  -0.0105
  C  C227  1  0.517300  0.691400  0.486800  1.0  0.0394
  C  C228  1  0.393400  0.617800  0.997900  1.0  0.1028
  C  C229  1  0.639300  0.252400  0.739500  1.0  -0.0333
  C  C230  1  0.370800  0.909200  0.931400  1.0  0.6709
  N  N231  1  0.533500  0.336100  0.021200  1.0  -0.4419
  N  N232  1  0.562700  0.383900  0.109900  1.0  -0.0455
  N  N233  1  0.466500  0.663900  0.978800  1.0  -0.4421
  N  N234  1  0.954000  0.129900  0.393400  1.0  0.0077
  N  N235  1  0.046000  0.870100  0.606600  1.0  0.0061
  N  N236  1  0.437300  0.616100  0.890100  1.0  -0.0479
  N  N237  1  0.037200  0.825200  0.512700  1.0  -0.4669
  N  N238  1  0.962800  0.174800  0.487300  1.0  -0.4666
  O  O239  1  0.099000  0.591800  0.497800  1.0  -0.6748
  O  O240  1  0.808500  0.821800  0.422900  1.0  -0.6001
  O  O241  1  0.572400  0.104300  0.018900  1.0  -0.7009
  O  O242  1  0.116000  0.333400  0.520900  1.0  -0.6864
  O  O243  1  0.309300  0.288100  0.993800  1.0  -0.5993
  O  O244  1  0.030800  0.855300  0.340300  1.0  -0.6035
  O  O245  1  0.427600  0.895700  0.981100  1.0  -0.7005
  O  O246  1  0.139100  0.544400  0.606900  1.0  -0.5668
  O  O247  1  0.031100  0.706600  0.341900  1.0  -0.5758
  O  O248  1  0.432900  0.780800  0.128700  1.0  -0.5854
  O  O249  1  0.969200  0.144700  0.659700  1.0  -0.6009
  O  O250  1  0.614100  0.053400  0.126400  1.0  -0.5141
  O  O251  1  0.901000  0.408200  0.502200  1.0  -0.6729
  O  O252  1  0.860900  0.455600  0.393100  1.0  -0.567
  O  O253  1  0.370700  0.154000  0.955100  1.0  -0.7263
  O  O254  1  0.563000  0.639200  0.154100  1.0  -0.5993
  O  O255  1  0.567100  0.219200  0.871300  1.0  -0.5862
  O  O256  1  0.629300  0.846000  0.044900  1.0  -0.7241
  O  O257  1  0.437000  0.360800  0.845900  1.0  -0.6006
  O  O258  1  0.385900  0.946600  0.873600  1.0  -0.512
  O  O259  1  0.968900  0.293400  0.658100  1.0  -0.577
  O  O260  1  0.884000  0.666667  0.479100  1.0  -0.6824
  O  O261  1  0.690700  0.711900  0.006200  1.0  -0.5984
  O  O262  1  0.191500  0.178200  0.577100  1.0  -0.5968
