# generated using pymatgen
data_LaCuH8C14(NO4)2
_symmetry_space_group_name_H-M   'P 1'
_cell_length_a   9.15500000
_cell_length_b   9.54540000
_cell_length_c   21.56790000
_cell_angle_alpha   90.00000000
_cell_angle_beta   90.00000000
_cell_angle_gamma   116.27800000
_symmetry_Int_Tables_number   1
_chemical_formula_structural   LaCuH8C14(NO4)2
_chemical_formula_sum   'La4 Cu4 H32 C56 N8 O32'
_cell_volume   1689.99896658
_cell_formula_units_Z   4
loop_
 _symmetry_equiv_pos_site_id
 _symmetry_equiv_pos_as_xyz
  1  'x, y, z'
loop_
 _atom_site_type_symbol
 _atom_site_label
 _atom_site_symmetry_multiplicity
 _atom_site_fract_x
 _atom_site_fract_y
 _atom_site_fract_z
 _atom_site_occupancy
 _atom_site_charge
  La  La1  1  0.121220  0.357650  0.009380  1.0  2.1193
  La  La2  1  0.378780  0.642350  0.509380  1.0  2.1255
  La  La3  1  0.878780  0.642350  0.990620  1.0  2.1199
  La  La4  1  0.621220  0.357650  0.490620  1.0  2.1206
  Cu  Cu5  1  0.451250  0.309190  0.145750  1.0  0.3921
  Cu  Cu6  1  0.048750  0.690810  0.645750  1.0  0.392
  Cu  Cu7  1  0.548750  0.690810  0.854250  1.0  0.3919
  Cu  Cu8  1  0.951250  0.309190  0.354250  1.0  0.3921
  H  H9  1  0.287800  0.021400  0.071800  1.0  0.0908
  H  H10  1  0.697500  0.199900  0.163600  1.0  0.0644
  H  H11  1  0.756700  0.002500  0.132500  1.0  0.1379
  H  H12  1  0.570700  0.802500  0.072900  1.0  0.1067
  H  H13  1  0.384100  0.587900  0.155700  1.0  0.0748
  H  H14  1  0.360800  0.741900  0.232900  1.0  0.1361
  H  H15  1  0.400500  0.691000  0.335300  1.0  0.1147
  H  H16  1  0.497700  0.346100  0.275700  1.0  0.0868
  H  H17  1  0.212200  0.978600  0.571800  1.0  0.0923
  H  H18  1  0.802500  0.800100  0.663600  1.0  0.0648
  H  H19  1  0.743300  0.997500  0.632500  1.0  0.1394
  H  H20  1  0.929300  0.197500  0.572900  1.0  0.1067
  H  H21  1  0.115900  0.412100  0.655700  1.0  0.0746
  H  H22  1  0.139200  0.258100  0.732900  1.0  0.1357
  H  H23  1  0.099500  0.309000  0.835300  1.0  0.115
  H  H24  1  0.002300  0.653900  0.775700  1.0  0.0867
  H  H25  1  0.712200  0.978600  0.928200  1.0  0.0919
  H  H26  1  0.302500  0.800100  0.836400  1.0  0.0641
  H  H27  1  0.243300  0.997500  0.867500  1.0  0.1404
  H  H28  1  0.429300  0.197500  0.927100  1.0  0.1066
  H  H29  1  0.615900  0.412100  0.844300  1.0  0.0742
  H  H30  1  0.639200  0.258100  0.767100  1.0  0.1356
  H  H31  1  0.599500  0.309000  0.664700  1.0  0.1148
  H  H32  1  0.502300  0.653900  0.724300  1.0  0.0864
  H  H33  1  0.787800  0.021400  0.428200  1.0  0.0906
  H  H34  1  0.197500  0.199900  0.336400  1.0  0.0637
  H  H35  1  0.256700  0.002500  0.367500  1.0  0.1379
  H  H36  1  0.070700  0.802500  0.427100  1.0  0.1066
  H  H37  1  0.884100  0.587900  0.344300  1.0  0.0741
  H  H38  1  0.860800  0.741900  0.267100  1.0  0.136
  H  H39  1  0.900500  0.691000  0.164700  1.0  0.1149
  H  H40  1  0.997700  0.346100  0.224300  1.0  0.0867
  C  C41  1  0.276400  0.760100  0.030400  1.0  0.7401
  C  C42  1  0.406600  0.890600  0.067000  1.0  -0.2249
  C  C43  1  0.382600  0.016900  0.084600  1.0  0.1805
  C  C44  1  0.624000  0.122900  0.137700  1.0  0.1717
  C  C45  1  0.659600  0.003300  0.120300  1.0  -0.1538
  C  C46  1  0.549900  0.885400  0.084900  1.0  0.0496
  C  C47  1  0.989100  0.992900  0.034200  1.0  0.5686
  C  C48  1  0.503400  0.477200  0.033900  1.0  0.5289
  C  C49  1  0.401000  0.567200  0.196500  1.0  0.1781
  C  C50  1  0.386900  0.660700  0.242600  1.0  -0.1932
  C  C51  1  0.412000  0.631500  0.303200  1.0  0.0586
  C  C52  1  0.454400  0.512400  0.315600  1.0  -0.2167
  C  C53  1  0.490200  0.475100  0.380100  1.0  0.7225
  C  C54  1  0.467200  0.425000  0.267000  1.0  0.1572
  C  C55  1  0.223600  0.239900  0.530400  1.0  0.7395
  C  C56  1  0.093400  0.109400  0.567000  1.0  -0.2257
  C  C57  1  0.117400  0.983100  0.584600  1.0  0.1808
  C  C58  1  0.876000  0.877100  0.637700  1.0  0.171
  C  C59  1  0.840400  0.996700  0.620300  1.0  -0.1554
  C  C60  1  0.950100  0.114600  0.584900  1.0  0.0512
  C  C61  1  0.510900  0.007100  0.534200  1.0  0.5685
  C  C62  1  0.996600  0.522800  0.533900  1.0  0.5296
  C  C63  1  0.099000  0.432800  0.696500  1.0  0.1783
  C  C64  1  0.113100  0.339300  0.742600  1.0  -0.1937
  C  C65  1  0.088000  0.368500  0.803200  1.0  0.0576
  C  C66  1  0.045600  0.487600  0.815600  1.0  -0.217
  C  C67  1  0.009800  0.524900  0.880100  1.0  0.7226
  C  C68  1  0.032800  0.575000  0.767000  1.0  0.1564
  C  C69  1  0.723600  0.239900  0.969600  1.0  0.7398
  C  C70  1  0.593400  0.109400  0.933000  1.0  -0.2259
  C  C71  1  0.617400  0.983100  0.915400  1.0  0.1801
  C  C72  1  0.376000  0.877100  0.862300  1.0  0.1709
  C  C73  1  0.340400  0.996700  0.879700  1.0  -0.1551
  C  C74  1  0.450100  0.114600  0.915100  1.0  0.0506
  C  C75  1  0.010900  0.007100  0.965800  1.0  0.5626
  C  C76  1  0.496600  0.522800  0.966100  1.0  0.5291
  C  C77  1  0.599000  0.432800  0.803500  1.0  0.1793
  C  C78  1  0.613100  0.339300  0.757400  1.0  -0.1945
  C  C79  1  0.588000  0.368500  0.696800  1.0  0.0564
  C  C80  1  0.545600  0.487600  0.684400  1.0  -0.2176
  C  C81  1  0.509800  0.524900  0.619900  1.0  0.7205
  C  C82  1  0.532800  0.575000  0.733000  1.0  0.1567
  C  C83  1  0.776400  0.760100  0.469600  1.0  0.7403
  C  C84  1  0.906600  0.890600  0.433000  1.0  -0.2254
  C  C85  1  0.882600  0.016900  0.415400  1.0  0.1802
  C  C86  1  0.124000  0.122900  0.362300  1.0  0.1713
  C  C87  1  0.159600  0.003300  0.379700  1.0  -0.1539
  C  C88  1  0.049900  0.885400  0.415100  1.0  0.049
  C  C89  1  0.489100  0.992900  0.465800  1.0  0.5624
  C  C90  1  0.003400  0.477200  0.466100  1.0  0.5282
  C  C91  1  0.901000  0.567200  0.303500  1.0  0.179
  C  C92  1  0.886900  0.660700  0.257400  1.0  -0.1938
  C  C93  1  0.912000  0.631500  0.196800  1.0  0.0577
  C  C94  1  0.954400  0.512400  0.184400  1.0  -0.2173
  C  C95  1  0.990200  0.475100  0.119900  1.0  0.7201
  C  C96  1  0.967200  0.425000  0.233000  1.0  0.1571
  N  N97  1  0.490600  0.136100  0.120000  1.0  -0.3137
  N  N98  1  0.437800  0.448000  0.207300  1.0  -0.3041
  N  N99  1  0.009400  0.863900  0.620000  1.0  -0.3142
  N  N100  1  0.062200  0.552000  0.707300  1.0  -0.3024
  N  N101  1  0.509400  0.863900  0.880000  1.0  -0.3151
  N  N102  1  0.562200  0.552000  0.792700  1.0  -0.303
  N  N103  1  0.990600  0.136100  0.380000  1.0  -0.3128
  N  N104  1  0.937800  0.448000  0.292700  1.0  -0.3031
  O  O105  1  0.286100  0.632700  0.031100  1.0  -0.705
  O  O106  1  0.168200  0.784800  0.003900  1.0  -0.7091
  O  O107  1  0.049800  0.115900  0.066200  1.0  -0.619
  O  O108  1  0.911600  0.856500  0.056500  1.0  -0.6375
  O  O109  1  0.372700  0.381000  0.058100  1.0  -0.5918
  O  O110  1  0.638600  0.539400  0.060600  1.0  -0.6051
  O  O111  1  0.557800  0.385900  0.384900  1.0  -0.656
  O  O112  1  0.451400  0.531200  0.425800  1.0  -0.7459
  O  O113  1  0.213900  0.367300  0.531100  1.0  -0.7045
  O  O114  1  0.331800  0.215200  0.503900  1.0  -0.7093
  O  O115  1  0.450200  0.884100  0.566200  1.0  -0.6188
  O  O116  1  0.588400  0.143500  0.556500  1.0  -0.6383
  O  O117  1  0.127300  0.619000  0.558100  1.0  -0.5924
  O  O118  1  0.861400  0.460600  0.560600  1.0  -0.6053
  O  O119  1  0.942200  0.614100  0.884900  1.0  -0.656
  O  O120  1  0.048600  0.468800  0.925800  1.0  -0.7449
  O  O121  1  0.713900  0.367300  0.968900  1.0  -0.7044
  O  O122  1  0.831800  0.215200  0.996100  1.0  -0.7085
  O  O123  1  0.950200  0.884100  0.933800  1.0  -0.6169
  O  O124  1  0.088400  0.143500  0.943500  1.0  -0.6391
  O  O125  1  0.627300  0.619000  0.941900  1.0  -0.5921
  O  O126  1  0.361400  0.460600  0.939400  1.0  -0.6065
  O  O127  1  0.442200  0.614100  0.615100  1.0  -0.6562
  O  O128  1  0.548600  0.468800  0.574200  1.0  -0.7449
  O  O129  1  0.786100  0.632700  0.468900  1.0  -0.7048
  O  O130  1  0.668200  0.784800  0.496100  1.0  -0.7087
  O  O131  1  0.549800  0.115900  0.433800  1.0  -0.6176
  O  O132  1  0.411600  0.856500  0.443500  1.0  -0.6377
  O  O133  1  0.872700  0.381000  0.441900  1.0  -0.5922
  O  O134  1  0.138600  0.539400  0.439400  1.0  -0.6059
  O  O135  1  0.057800  0.385900  0.115100  1.0  -0.6565
  O  O136  1  0.951400  0.531200  0.074200  1.0  -0.7452
