# generated using pymatgen
data_Zn4H6C18O13
_symmetry_space_group_name_H-M   'P 1'
_cell_length_a   10.57870000
_cell_length_b   10.57870000
_cell_length_c   15.82800000
_cell_angle_alpha   90.00000000
_cell_angle_beta   90.00000000
_cell_angle_gamma   104.37600000
_symmetry_Int_Tables_number   1
_chemical_formula_structural   Zn4H6C18O13
_chemical_formula_sum   'Zn8 H12 C36 O26'
_cell_volume   1715.82987900
_cell_formula_units_Z   2
loop_
 _symmetry_equiv_pos_site_id
 _symmetry_equiv_pos_as_xyz
  1  'x, y, z'
loop_
 _atom_site_type_symbol
 _atom_site_label
 _atom_site_symmetry_multiplicity
 _atom_site_fract_x
 _atom_site_fract_y
 _atom_site_fract_z
 _atom_site_occupancy
 _atom_site_charge
  Zn  Zn1  1  0.128860  0.237520  0.923790  1.0  1.1005
  Zn  Zn2  1  0.442070  0.278710  0.943360  1.0  1.0568
  Zn  Zn3  1  0.871140  0.762480  0.423790  1.0  1.1004
  Zn  Zn4  1  0.557930  0.721290  0.443360  1.0  1.0592
  Zn  Zn5  1  0.762480  0.871140  0.576210  1.0  1.0999
  Zn  Zn6  1  0.721290  0.557930  0.556640  1.0  1.0601
  Zn  Zn7  1  0.237520  0.128860  0.076210  1.0  1.1006
  Zn  Zn8  1  0.278710  0.442070  0.056640  1.0  1.0578
  H  H9  1  0.505700  0.080500  0.712000  1.0  0.1299
  H  H10  1  0.253900  0.829900  0.549400  1.0  0.1057
  H  H11  1  0.114600  0.046200  0.716300  1.0  0.0979
  H  H12  1  0.494300  0.919500  0.212000  1.0  0.1301
  H  H13  1  0.746100  0.170100  0.049400  1.0  0.1062
  H  H14  1  0.885400  0.953800  0.216300  1.0  0.098
  H  H15  1  0.919500  0.494300  0.788000  1.0  0.1314
  H  H16  1  0.170100  0.746100  0.950600  1.0  0.1062
  H  H17  1  0.953800  0.885400  0.783700  1.0  0.0989
  H  H18  1  0.080500  0.505700  0.288000  1.0  0.1313
  H  H19  1  0.829900  0.253900  0.450600  1.0  0.1061
  H  H20  1  0.046200  0.114600  0.283700  1.0  0.0988
  C  C21  1  0.315500  0.089100  0.719700  1.0  -0.1561
  C  C22  1  0.422300  0.050700  0.689800  1.0  0.0099
  C  C23  1  0.389300  0.952500  0.615200  1.0  -0.2045
  C  C24  1  0.267500  0.896700  0.589200  1.0  0.0392
  C  C25  1  0.154300  0.939900  0.622900  1.0  -0.156
  C  C26  1  0.184500  0.025700  0.688400  1.0  0.0293
  C  C27  1  0.329000  0.174400  0.791500  1.0  0.677
  C  C28  1  0.510000  0.901400  0.583300  1.0  0.6972
  C  C29  1  0.029000  0.896000  0.577200  1.0  0.6736
  C  C30  1  0.684500  0.910900  0.219700  1.0  -0.1551
  C  C31  1  0.577700  0.949300  0.189800  1.0  0.0086
  C  C32  1  0.610700  0.047500  0.115200  1.0  -0.2083
  C  C33  1  0.732500  0.103300  0.089200  1.0  0.0405
  C  C34  1  0.845700  0.060100  0.122900  1.0  -0.1552
  C  C35  1  0.815500  0.974300  0.188400  1.0  0.0294
  C  C36  1  0.671000  0.825600  0.291500  1.0  0.6765
  C  C37  1  0.490000  0.098600  0.083300  1.0  0.6986
  C  C38  1  0.971000  0.104000  0.077200  1.0  0.6743
  C  C39  1  0.910900  0.684500  0.780300  1.0  -0.1553
  C  C40  1  0.949300  0.577700  0.810200  1.0  0.0118
  C  C41  1  0.047500  0.610700  0.884800  1.0  -0.2059
  C  C42  1  0.103300  0.732500  0.910800  1.0  0.039
  C  C43  1  0.060100  0.845700  0.877100  1.0  -0.1541
  C  C44  1  0.974300  0.815500  0.811600  1.0  0.0284
  C  C45  1  0.825600  0.671000  0.708500  1.0  0.6775
  C  C46  1  0.098600  0.490000  0.916700  1.0  0.6992
  C  C47  1  0.104000  0.971000  0.922800  1.0  0.6736
  C  C48  1  0.089100  0.315500  0.280300  1.0  -0.1563
  C  C49  1  0.050700  0.422300  0.310200  1.0  0.0082
  C  C50  1  0.952500  0.389300  0.384800  1.0  -0.2038
  C  C51  1  0.896700  0.267500  0.410800  1.0  0.0396
  C  C52  1  0.939900  0.154300  0.377100  1.0  -0.1535
  C  C53  1  0.025700  0.184500  0.311600  1.0  0.0292
  C  C54  1  0.174400  0.329000  0.208500  1.0  0.6785
  C  C55  1  0.901400  0.510000  0.416700  1.0  0.6992
  C  C56  1  0.896000  0.029000  0.422800  1.0  0.6731
  O  O57  1  0.250910  0.246090  0.804600  1.0  -0.5956
  O  O58  1  0.431290  0.175510  0.842330  1.0  -0.6051
  O  O59  1  0.617070  0.936930  0.617700  1.0  -0.5209
  O  O60  1  0.474870  0.829130  0.518600  1.0  -0.6165
  O  O61  1  0.943660  0.953140  0.607420  1.0  -0.5883
  O  O62  1  0.011130  0.801590  0.529100  1.0  -0.5857
  O  O63  1  0.749090  0.753910  0.304600  1.0  -0.5958
  O  O64  1  0.568710  0.824490  0.342330  1.0  -0.6023
  O  O65  1  0.382930  0.063070  0.117700  1.0  -0.5225
  O  O66  1  0.525130  0.170870  0.018600  1.0  -0.6163
  O  O67  1  0.056340  0.046860  0.107420  1.0  -0.5877
  O  O68  1  0.988870  0.198410  0.029100  1.0  -0.5871
  O  O69  1  0.753910  0.749090  0.695400  1.0  -0.5961
  O  O70  1  0.824490  0.568710  0.657670  1.0  -0.6058
  O  O71  1  0.063070  0.382930  0.882300  1.0  -0.5227
  O  O72  1  0.170870  0.525130  0.981400  1.0  -0.6167
  O  O73  1  0.046860  0.056340  0.892580  1.0  -0.5863
  O  O74  1  0.198410  0.988870  0.970900  1.0  -0.5844
  O  O75  1  0.246090  0.250910  0.195400  1.0  -0.5966
  O  O76  1  0.175510  0.431290  0.157670  1.0  -0.6055
  O  O77  1  0.936930  0.617070  0.382300  1.0  -0.523
  O  O78  1  0.829130  0.474870  0.481400  1.0  -0.6171
  O  O79  1  0.953140  0.943660  0.392580  1.0  -0.5871
  O  O80  1  0.801590  0.011130  0.470900  1.0  -0.5848
  O  O81  1  0.283200  0.283200  0.000000  1.0  -1.1871
  O  O82  1  0.716800  0.716800  0.500000  1.0  -1.186
