# generated using pymatgen
data_Ag2H16RuC16(N4Cl)2
_symmetry_space_group_name_H-M   'P 1'
_cell_length_a   18.83700000
_cell_length_b   15.02100000
_cell_length_c   14.95000000
_cell_angle_alpha   90.00000000
_cell_angle_beta   109.52000000
_cell_angle_gamma   90.00000000
_symmetry_Int_Tables_number   1
_chemical_formula_structural   Ag2H16RuC16(N4Cl)2
_chemical_formula_sum   'Ag8 H64 Ru4 C64 N32 Cl8'
_cell_volume   3986.98512154
_cell_formula_units_Z   4
loop_
 _symmetry_equiv_pos_site_id
 _symmetry_equiv_pos_as_xyz
  1  'x, y, z'
loop_
 _atom_site_type_symbol
 _atom_site_label
 _atom_site_symmetry_multiplicity
 _atom_site_fract_x
 _atom_site_fract_y
 _atom_site_fract_z
 _atom_site_occupancy
 _atom_site_charge
  Ag  Ag1  1  0.870540  0.880980  0.539160  1.0  0.2484
  Ag  Ag2  1  0.625550  0.162170  0.994190  1.0  0.1419
  Ag  Ag3  1  0.129460  0.380980  0.960840  1.0  0.2497
  Ag  Ag4  1  0.374450  0.662170  0.505810  1.0  0.1395
  Ag  Ag5  1  0.129460  0.119020  0.460840  1.0  0.2507
  Ag  Ag6  1  0.374450  0.837830  0.005810  1.0  0.14
  Ag  Ag7  1  0.870540  0.619020  0.039160  1.0  0.2493
  Ag  Ag8  1  0.625550  0.337830  0.494190  1.0  0.1431
  H  H9  1  0.655100  0.816900  0.211400  1.0  0.0772
  H  H10  1  0.879500  0.863200  0.290700  1.0  0.0634
  H  H11  1  0.854000  0.054100  0.439600  1.0  0.0818
  H  H12  1  0.533200  0.772100  0.133400  1.0  0.0807
  H  H13  1  0.744700  0.773000  0.995400  1.0  0.0686
  H  H14  1  0.705100  0.892100  0.060700  1.0  0.0825
  H  H15  1  0.756600  0.190200  0.278800  1.0  0.0994
  H  H16  1  0.884000  0.033900  0.194600  1.0  0.0731
  H  H17  1  0.589900  0.064600  0.163400  1.0  0.091
  H  H18  1  0.658200  0.014600  0.388300  1.0  0.0648
  H  H19  1  0.472000  0.018300  0.091100  1.0  0.0668
  H  H20  1  0.920300  0.749100  0.218900  1.0  0.072
  H  H21  1  0.971600  0.112000  0.502400  1.0  0.0661
  H  H22  1  0.001300  0.089700  0.258900  1.0  0.0757
  H  H23  1  0.621800  0.125300  0.468700  1.0  0.0796
  H  H24  1  0.724200  0.295300  0.363400  1.0  0.0634
  H  H25  1  0.344900  0.316900  0.288600  1.0  0.0766
  H  H26  1  0.120500  0.363200  0.209300  1.0  0.0635
  H  H27  1  0.146000  0.554100  0.060400  1.0  0.0823
  H  H28  1  0.466800  0.272100  0.366600  1.0  0.081
  H  H29  1  0.255300  0.273000  0.504600  1.0  0.0685
  H  H30  1  0.294900  0.392100  0.439300  1.0  0.0824
  H  H31  1  0.243400  0.690200  0.221200  1.0  0.0995
  H  H32  1  0.116000  0.533900  0.305400  1.0  0.0731
  H  H33  1  0.410100  0.564600  0.336600  1.0  0.0911
  H  H34  1  0.341800  0.514600  0.111700  1.0  0.0649
  H  H35  1  0.528000  0.518300  0.408900  1.0  0.0664
  H  H36  1  0.079700  0.249100  0.281100  1.0  0.0721
  H  H37  1  0.028400  0.612000  0.997600  1.0  0.0665
  H  H38  1  0.998700  0.589700  0.241100  1.0  0.0764
  H  H39  1  0.378200  0.625300  0.031300  1.0  0.0793
  H  H40  1  0.275800  0.795300  0.136600  1.0  0.063
  H  H41  1  0.344900  0.183100  0.788600  1.0  0.0769
  H  H42  1  0.120500  0.136800  0.709300  1.0  0.0634
  H  H43  1  0.146000  0.945900  0.560400  1.0  0.0823
  H  H44  1  0.466800  0.227900  0.866600  1.0  0.0807
  H  H45  1  0.255300  0.227000  0.004600  1.0  0.0686
  H  H46  1  0.294900  0.107900  0.939300  1.0  0.0825
  H  H47  1  0.243400  0.809800  0.721200  1.0  0.0994
  H  H48  1  0.116000  0.966100  0.805400  1.0  0.0734
  H  H49  1  0.410100  0.935400  0.836600  1.0  0.0917
  H  H50  1  0.341800  0.985400  0.611700  1.0  0.0642
  H  H51  1  0.528000  0.981700  0.908900  1.0  0.0656
  H  H52  1  0.079700  0.250900  0.781100  1.0  0.0722
  H  H53  1  0.028400  0.888000  0.497600  1.0  0.0672
  H  H54  1  0.998700  0.910300  0.741100  1.0  0.0763
  H  H55  1  0.378200  0.874700  0.531300  1.0  0.0798
  H  H56  1  0.275800  0.704700  0.636600  1.0  0.064
  H  H57  1  0.655100  0.683100  0.711400  1.0  0.0769
  H  H58  1  0.879500  0.636800  0.790700  1.0  0.0632
  H  H59  1  0.854000  0.445900  0.939600  1.0  0.082
  H  H60  1  0.533200  0.727900  0.633400  1.0  0.0805
  H  H61  1  0.744700  0.727000  0.495400  1.0  0.0687
  H  H62  1  0.705100  0.607900  0.560700  1.0  0.0826
  H  H63  1  0.756600  0.309800  0.778800  1.0  0.099
  H  H64  1  0.884000  0.466100  0.694600  1.0  0.0727
  H  H65  1  0.589900  0.435400  0.663400  1.0  0.0909
  H  H66  1  0.658200  0.485400  0.888300  1.0  0.0649
  H  H67  1  0.472000  0.481700  0.591100  1.0  0.0665
  H  H68  1  0.920300  0.750900  0.718900  1.0  0.0718
  H  H69  1  0.971600  0.388000  0.002400  1.0  0.0667
  H  H70  1  0.001300  0.410300  0.758900  1.0  0.0758
  H  H71  1  0.621800  0.374700  0.968700  1.0  0.0795
  H  H72  1  0.724200  0.204700  0.863400  1.0  0.0635
  Ru  Ru73  1  0.747380  0.989330  0.252900  1.0  0.6557
  Ru  Ru74  1  0.252620  0.489330  0.247100  1.0  0.656
  Ru  Ru75  1  0.252620  0.010670  0.747100  1.0  0.6556
  Ru  Ru76  1  0.747380  0.510670  0.752900  1.0  0.6553
  C  C77  1  0.618300  0.859700  0.185800  1.0  0.0777
  C  C78  1  0.850200  0.846300  0.229600  1.0  0.1161
  C  C79  1  0.883500  0.060900  0.401100  1.0  0.0739
  C  C80  1  0.544300  0.832600  0.139200  1.0  0.0938
  C  C81  1  0.773400  0.791000  0.056300  1.0  0.1499
  C  C82  1  0.748600  0.862200  0.096400  1.0  0.0948
  C  C83  1  0.729500  0.174300  0.318200  1.0  0.0917
  C  C84  1  0.901200  0.049000  0.258700  1.0  0.1103
  C  C85  1  0.580100  0.003800  0.158200  1.0  0.0834
  C  C86  1  0.671900  0.073000  0.381200  1.0  0.1063
  C  C87  1  0.509400  0.975700  0.114600  1.0  0.155
  C  C88  1  0.874800  0.776700  0.186400  1.0  0.1268
  C  C89  1  0.954900  0.094400  0.439100  1.0  0.1134
  C  C90  1  0.972200  0.081800  0.297800  1.0  0.1299
  C  C91  1  0.650600  0.139900  0.431000  1.0  0.0936
  C  C92  1  0.709300  0.237100  0.369000  1.0  0.1739
  C  C93  1  0.381700  0.359700  0.314200  1.0  0.0753
  C  C94  1  0.149800  0.346300  0.270400  1.0  0.1168
  C  C95  1  0.116500  0.560900  0.098900  1.0  0.0736
  C  C96  1  0.455700  0.332600  0.360800  1.0  0.0933
  C  C97  1  0.226600  0.291000  0.443700  1.0  0.1461
  C  C98  1  0.251400  0.362200  0.403600  1.0  0.0956
  C  C99  1  0.270500  0.674300  0.181800  1.0  0.0908
  C  C100  1  0.098800  0.549000  0.241300  1.0  0.1101
  C  C101  1  0.419900  0.503800  0.341800  1.0  0.0827
  C  C102  1  0.328100  0.573000  0.118800  1.0  0.1068
  C  C103  1  0.490600  0.475700  0.385400  1.0  0.1553
  C  C104  1  0.125200  0.276700  0.313600  1.0  0.1263
  C  C105  1  0.045100  0.594400  0.060900  1.0  0.1128
  C  C106  1  0.027800  0.581800  0.202200  1.0  0.1292
  C  C107  1  0.349400  0.639900  0.069000  1.0  0.0941
  C  C108  1  0.290700  0.737100  0.131000  1.0  0.1737
  C  C109  1  0.381700  0.140300  0.814200  1.0  0.0765
  C  C110  1  0.149800  0.153700  0.770400  1.0  0.117
  C  C111  1  0.116500  0.939100  0.598900  1.0  0.0746
  C  C112  1  0.455700  0.167400  0.860800  1.0  0.0934
  C  C113  1  0.226600  0.209000  0.943700  1.0  0.1451
  C  C114  1  0.251400  0.137800  0.903600  1.0  0.0954
  C  C115  1  0.270500  0.825700  0.681800  1.0  0.0928
  C  C116  1  0.098800  0.951000  0.741300  1.0  0.1104
  C  C117  1  0.419900  0.996200  0.841800  1.0  0.0826
  C  C118  1  0.328100  0.927000  0.618800  1.0  0.1064
  C  C119  1  0.490600  0.024300  0.885400  1.0  0.1559
  C  C120  1  0.125200  0.223300  0.813600  1.0  0.1257
  C  C121  1  0.045100  0.905600  0.560900  1.0  0.1121
  C  C122  1  0.027800  0.918200  0.702200  1.0  0.1302
  C  C123  1  0.349400  0.860100  0.569000  1.0  0.0939
  C  C124  1  0.290700  0.762900  0.631000  1.0  0.1736
  C  C125  1  0.618300  0.640300  0.685800  1.0  0.0768
  C  C126  1  0.850200  0.653700  0.729600  1.0  0.1163
  C  C127  1  0.883500  0.439100  0.901100  1.0  0.0748
  C  C128  1  0.544300  0.667400  0.639200  1.0  0.0939
  C  C129  1  0.773400  0.709000  0.556300  1.0  0.1495
  C  C130  1  0.748600  0.637800  0.596400  1.0  0.0946
  C  C131  1  0.729500  0.325700  0.818200  1.0  0.0921
  C  C132  1  0.901200  0.451000  0.758700  1.0  0.1102
  C  C133  1  0.580100  0.496200  0.658200  1.0  0.0825
  C  C134  1  0.671900  0.427000  0.881200  1.0  0.1062
  C  C135  1  0.509400  0.524300  0.614600  1.0  0.1556
  C  C136  1  0.874800  0.723300  0.686400  1.0  0.1272
  C  C137  1  0.954900  0.405600  0.939100  1.0  0.113
  C  C138  1  0.972200  0.418200  0.797800  1.0  0.1293
  C  C139  1  0.650600  0.360100  0.931000  1.0  0.0939
  C  C140  1  0.709300  0.262900  0.869000  1.0  0.1738
  N  N141  1  0.489700  0.890900  0.103100  1.0  -0.3765
  N  N142  1  0.637600  0.946000  0.194800  1.0  -0.3359
  N  N143  1  0.785900  0.890000  0.186700  1.0  -0.3333
  N  N144  1  0.835100  0.748200  0.099700  1.0  -0.3901
  N  N145  1  0.855300  0.037800  0.309300  1.0  -0.3165
  N  N146  1  0.001900  0.103100  0.389200  1.0  -0.33
  N  N147  1  0.711000  0.089100  0.323800  1.0  -0.3136
  N  N148  1  0.670000  0.223100  0.426500  1.0  -0.3656
  N  N149  1  0.510300  0.390900  0.396900  1.0  -0.3759
  N  N150  1  0.362400  0.446000  0.305200  1.0  -0.3363
  N  N151  1  0.214100  0.390000  0.313300  1.0  -0.3329
  N  N152  1  0.164900  0.248200  0.400300  1.0  -0.3905
  N  N153  1  0.144700  0.537800  0.190700  1.0  -0.3158
  N  N154  1  0.998100  0.603100  0.110800  1.0  -0.3278
  N  N155  1  0.289000  0.589100  0.176200  1.0  -0.3138
  N  N156  1  0.330000  0.723100  0.073500  1.0  -0.3658
  N  N157  1  0.510300  0.109100  0.896900  1.0  -0.3757
  N  N158  1  0.362400  0.054000  0.805200  1.0  -0.3363
  N  N159  1  0.214100  0.110000  0.813300  1.0  -0.3334
  N  N160  1  0.164900  0.251800  0.900300  1.0  -0.3929
  N  N161  1  0.144700  0.962200  0.690700  1.0  -0.315
  N  N162  1  0.998100  0.896900  0.610800  1.0  -0.3296
  N  N163  1  0.289000  0.910900  0.676200  1.0  -0.3138
  N  N164  1  0.330000  0.776900  0.573500  1.0  -0.3646
  N  N165  1  0.489700  0.609100  0.603100  1.0  -0.3751
  N  N166  1  0.637600  0.554000  0.694800  1.0  -0.3361
  N  N167  1  0.785900  0.610000  0.686700  1.0  -0.3328
  N  N168  1  0.835100  0.751800  0.599700  1.0  -0.3934
  N  N169  1  0.855300  0.462200  0.809300  1.0  -0.3159
  N  N170  1  0.001900  0.396900  0.889200  1.0  -0.3294
  N  N171  1  0.711000  0.410900  0.823800  1.0  -0.3137
  N  N172  1  0.670000  0.276900  0.926500  1.0  -0.3651
  Cl  Cl173  1  0.731630  0.081000  0.116700  1.0  -0.5837
  Cl  Cl174  1  0.765640  0.889600  0.384200  1.0  -0.6936
  Cl  Cl175  1  0.268370  0.581000  0.383300  1.0  -0.5839
  Cl  Cl176  1  0.234360  0.389600  0.115800  1.0  -0.6969
  Cl  Cl177  1  0.268370  0.919000  0.883300  1.0  -0.5841
  Cl  Cl178  1  0.234360  0.110400  0.615800  1.0  -0.6976
  Cl  Cl179  1  0.731630  0.419000  0.616700  1.0  -0.5827
  Cl  Cl180  1  0.765640  0.610400  0.884200  1.0  -0.6943
