# generated using pymatgen
data_V2NiH14C10(NO)4
_symmetry_space_group_name_H-M   'P 1'
_cell_length_a   11.08600000
_cell_length_b   17.97800000
_cell_length_c   17.97800000
_cell_angle_alpha   90.00000000
_cell_angle_beta   90.00000000
_cell_angle_gamma   90.00000000
_symmetry_Int_Tables_number   1
_chemical_formula_structural   V2NiH14C10(NO)4
_chemical_formula_sum   'V16 Ni8 H112 C80 N32 O32'
_cell_volume   3583.08925362
_cell_formula_units_Z   8
loop_
 _symmetry_equiv_pos_site_id
 _symmetry_equiv_pos_as_xyz
  1  'x, y, z'
loop_
 _atom_site_type_symbol
 _atom_site_label
 _atom_site_symmetry_multiplicity
 _atom_site_fract_x
 _atom_site_fract_y
 _atom_site_fract_z
 _atom_site_occupancy
 _atom_site_charge
  V  V1  1  0.095090  0.559680  0.962670  1.0  1.1382
  V  V2  1  0.595090  0.440320  0.037330  1.0  1.1438
  V  V3  1  0.845090  0.537330  0.059680  1.0  1.1473
  V  V4  1  0.345090  0.462670  0.940320  1.0  1.1357
  V  V5  1  0.654910  0.940320  0.462670  1.0  1.1482
  V  V6  1  0.154910  0.059680  0.537330  1.0  1.1376
  V  V7  1  0.904910  0.962670  0.559680  1.0  1.14
  V  V8  1  0.404910  0.037330  0.440320  1.0  1.146
  V  V9  1  0.000000  0.960630  0.960630  1.0  2.1486
  V  V10  1  0.500000  0.039370  0.039370  1.0  2.1497
  V  V11  1  0.750000  0.539370  0.460630  1.0  2.1491
  V  V12  1  0.250000  0.460630  0.539370  1.0  2.1493
  V  V13  1  0.250000  0.067130  0.932870  1.0  0.7257
  V  V14  1  0.750000  0.932870  0.067130  1.0  0.7195
  V  V15  1  0.000000  0.567130  0.567130  1.0  0.7244
  V  V16  1  0.500000  0.432870  0.432870  1.0  0.7205
  Ni  Ni17  1  0.077690  0.764630  0.970940  1.0  0.6837
  Ni  Ni18  1  0.577690  0.235370  0.029060  1.0  0.6839
  Ni  Ni19  1  0.827690  0.529060  0.264630  1.0  0.6827
  Ni  Ni20  1  0.327690  0.470940  0.735370  1.0  0.6822
  Ni  Ni21  1  0.672310  0.735370  0.470940  1.0  0.6848
  Ni  Ni22  1  0.172310  0.264630  0.529060  1.0  0.6852
  Ni  Ni23  1  0.922310  0.970940  0.764630  1.0  0.683
  Ni  Ni24  1  0.422310  0.029060  0.235370  1.0  0.6843
  H  H25  1  0.037300  0.653500  0.109500  1.0  0.0877
  H  H26  1  0.051400  0.687300  0.240800  1.0  0.1218
  H  H27  1  0.106900  0.866200  0.118700  1.0  0.0956
  H  H28  1  0.164300  0.875000  0.261300  1.0  0.0766
  H  H29  1  0.025900  0.868000  0.277800  1.0  0.0713
  H  H30  1  0.057800  0.765400  0.352200  1.0  0.0826
  H  H31  1  0.194700  0.762900  0.329900  1.0  0.0665
  H  H32  1  0.225200  0.877800  0.389300  1.0  0.0891
  H  H33  1  0.088900  0.879800  0.411900  1.0  0.0659
  H  H34  1  0.118600  0.775900  0.489000  1.0  0.0574
  H  H35  1  0.198300  0.843200  0.514200  1.0  0.0625
  H  H36  1  0.233500  0.651400  0.465800  1.0  0.1291
  H  H37  1  0.444900  0.616400  0.461900  1.0  0.1109
  H  H38  1  0.432400  0.833300  0.474300  1.0  0.1074
  H  H39  1  0.537300  0.346500  0.890500  1.0  0.0875
  H  H40  1  0.551400  0.312700  0.759200  1.0  0.1222
  H  H41  1  0.606900  0.133800  0.881300  1.0  0.0954
  H  H42  1  0.664300  0.125000  0.738700  1.0  0.0764
  H  H43  1  0.525900  0.132000  0.722200  1.0  0.071
  H  H44  1  0.557800  0.234600  0.647800  1.0  0.0826
  H  H45  1  0.694700  0.237100  0.670100  1.0  0.0665
  H  H46  1  0.725200  0.122200  0.610700  1.0  0.0882
  H  H47  1  0.588900  0.120200  0.588100  1.0  0.0647
  H  H48  1  0.618600  0.224100  0.511000  1.0  0.0555
  H  H49  1  0.698300  0.156800  0.485800  1.0  0.0605
  H  H50  1  0.733500  0.348600  0.534200  1.0  0.1291
  H  H51  1  0.944900  0.383600  0.538100  1.0  0.1106
  H  H52  1  0.932400  0.166700  0.525700  1.0  0.1074
  H  H53  1  0.787300  0.390500  0.153500  1.0  0.0885
  H  H54  1  0.801400  0.259200  0.187300  1.0  0.1209
  H  H55  1  0.856900  0.381300  0.366200  1.0  0.095
  H  H56  1  0.914300  0.238700  0.375000  1.0  0.0767
  H  H57  1  0.775900  0.222200  0.368000  1.0  0.0709
  H  H58  1  0.807800  0.147800  0.265400  1.0  0.0829
  H  H59  1  0.944700  0.170100  0.262900  1.0  0.0668
  H  H60  1  0.975200  0.110700  0.377800  1.0  0.0888
  H  H61  1  0.838900  0.088100  0.379800  1.0  0.0663
  H  H62  1  0.868600  0.011000  0.275900  1.0  0.0587
  H  H63  1  0.948300  0.985800  0.343200  1.0  0.0648
  H  H64  1  0.983500  0.034200  0.151400  1.0  0.128
  H  H65  1  0.194900  0.038100  0.116400  1.0  0.1106
  H  H66  1  0.182400  0.025700  0.333333  1.0  0.1049
  H  H67  1  0.287300  0.609500  0.846500  1.0  0.0879
  H  H68  1  0.301400  0.740800  0.812700  1.0  0.1213
  H  H69  1  0.356900  0.618700  0.633800  1.0  0.095
  H  H70  1  0.414300  0.761300  0.625000  1.0  0.0773
  H  H71  1  0.275900  0.777800  0.632000  1.0  0.071
  H  H72  1  0.307800  0.852200  0.734600  1.0  0.0822
  H  H73  1  0.444700  0.829900  0.737100  1.0  0.0665
  H  H74  1  0.475200  0.889300  0.622200  1.0  0.0885
  H  H75  1  0.338900  0.911900  0.620200  1.0  0.0663
  H  H76  1  0.368600  0.989000  0.724100  1.0  0.0578
  H  H77  1  0.448300  0.014200  0.656800  1.0  0.0597
  H  H78  1  0.483500  0.965800  0.848600  1.0  0.1283
  H  H79  1  0.694900  0.961900  0.883600  1.0  0.1107
  H  H80  1  0.682400  0.974300  0.666667  1.0  0.1048
  H  H81  1  0.712700  0.846500  0.609500  1.0  0.0857
  H  H82  1  0.698600  0.812700  0.740800  1.0  0.1214
  H  H83  1  0.643100  0.633800  0.618700  1.0  0.0955
  H  H84  1  0.585700  0.625000  0.761300  1.0  0.0765
  H  H85  1  0.724100  0.632000  0.777800  1.0  0.0711
  H  H86  1  0.692200  0.734600  0.852200  1.0  0.0819
  H  H87  1  0.555300  0.737100  0.829900  1.0  0.0675
  H  H88  1  0.524800  0.622200  0.889300  1.0  0.0893
  H  H89  1  0.661100  0.620200  0.911900  1.0  0.0666
  H  H90  1  0.631400  0.724100  0.989000  1.0  0.0585
  H  H91  1  0.551700  0.656800  0.014200  1.0  0.0661
  H  H92  1  0.516500  0.848600  0.965800  1.0  0.1291
  H  H93  1  0.305100  0.883600  0.961900  1.0  0.1109
  H  H94  1  0.317600  0.666667  0.974300  1.0  0.1043
  H  H95  1  0.212700  0.153500  0.390500  1.0  0.0859
  H  H96  1  0.198600  0.187300  0.259200  1.0  0.1218
  H  H97  1  0.143100  0.366200  0.381300  1.0  0.0955
  H  H98  1  0.085700  0.375000  0.238700  1.0  0.0773
  H  H99  1  0.224100  0.368000  0.222200  1.0  0.071
  H  H100  1  0.192200  0.265400  0.147800  1.0  0.0814
  H  H101  1  0.055300  0.262900  0.170100  1.0  0.0665
  H  H102  1  0.024800  0.377800  0.110700  1.0  0.089
  H  H103  1  0.161100  0.379800  0.088100  1.0  0.067
  H  H104  1  0.131400  0.275900  0.011000  1.0  0.0592
  H  H105  1  0.051700  0.343200  0.985800  1.0  0.0613
  H  H106  1  0.016500  0.151400  0.034200  1.0  0.1285
  H  H107  1  0.805100  0.116400  0.038100  1.0  0.1116
  H  H108  1  0.817600  0.333333  0.025700  1.0  0.1046
  H  H109  1  0.962700  0.109500  0.653500  1.0  0.0865
  H  H110  1  0.948600  0.240800  0.687300  1.0  0.1212
  H  H111  1  0.893100  0.118700  0.866200  1.0  0.0952
  H  H112  1  0.835700  0.261300  0.875000  1.0  0.0782
  H  H113  1  0.974100  0.277800  0.868000  1.0  0.0705
  H  H114  1  0.942200  0.352200  0.765400  1.0  0.0826
  H  H115  1  0.805300  0.329900  0.762900  1.0  0.0674
  H  H116  1  0.774800  0.389300  0.877800  1.0  0.0883
  H  H117  1  0.911100  0.411900  0.879800  1.0  0.0667
  H  H118  1  0.881400  0.489000  0.775900  1.0  0.0606
  H  H119  1  0.801700  0.514200  0.843200  1.0  0.0629
  H  H120  1  0.766500  0.465800  0.651400  1.0  0.1282
  H  H121  1  0.555100  0.461900  0.616400  1.0  0.1108
  H  H122  1  0.567600  0.474300  0.833300  1.0  0.1085
  H  H123  1  0.462700  0.890500  0.346500  1.0  0.0871
  H  H124  1  0.448600  0.759200  0.312700  1.0  0.1211
  H  H125  1  0.393100  0.881300  0.133800  1.0  0.0959
  H  H126  1  0.335700  0.738700  0.125000  1.0  0.0781
  H  H127  1  0.474100  0.722200  0.132000  1.0  0.0704
  H  H128  1  0.442200  0.647800  0.234600  1.0  0.0814
  H  H129  1  0.305300  0.670100  0.237100  1.0  0.0674
  H  H130  1  0.274800  0.610700  0.122200  1.0  0.0885
  H  H131  1  0.411100  0.588100  0.120200  1.0  0.0666
  H  H132  1  0.381400  0.511000  0.224100  1.0  0.0591
  H  H133  1  0.301700  0.485800  0.156800  1.0  0.0619
  H  H134  1  0.266500  0.534200  0.348600  1.0  0.1281
  H  H135  1  0.055100  0.538100  0.383600  1.0  0.1111
  H  H136  1  0.067600  0.525700  0.166700  1.0  0.1079
  C  C137  1  0.052800  0.700950  0.127800  1.0  0.0244
  C  C138  1  0.060700  0.719180  0.200530  1.0  -0.1652
  C  C139  1  0.090900  0.817280  0.132480  1.0  0.1154
  C  C140  1  0.099400  0.839810  0.269880  1.0  -0.0222
  C  C141  1  0.127000  0.795780  0.339200  1.0  -0.1492
  C  C142  1  0.157000  0.847070  0.403230  1.0  -0.1487
  C  C143  1  0.186770  0.806720  0.475170  1.0  -0.012
  C  C144  1  0.299000  0.683630  0.466800  1.0  -0.1737
  C  C145  1  0.416000  0.664890  0.464780  1.0  0.0378
  C  C146  1  0.409870  0.783590  0.471430  1.0  0.1274
  C  C147  1  0.552800  0.299050  0.872200  1.0  0.025
  C  C148  1  0.560700  0.280820  0.799470  1.0  -0.1652
  C  C149  1  0.590900  0.182720  0.867520  1.0  0.1177
  C  C150  1  0.599400  0.160190  0.730120  1.0  -0.0231
  C  C151  1  0.627000  0.204220  0.660800  1.0  -0.15
  C  C152  1  0.657000  0.152930  0.596770  1.0  -0.149
  C  C153  1  0.686770  0.193280  0.524830  1.0  -0.0109
  C  C154  1  0.799000  0.316370  0.533200  1.0  -0.1738
  C  C155  1  0.916000  0.335110  0.535220  1.0  0.0376
  C  C156  1  0.909870  0.216410  0.528570  1.0  0.1276
  C  C157  1  0.802800  0.372200  0.200950  1.0  0.0238
  C  C158  1  0.810700  0.299470  0.219180  1.0  -0.1655
  C  C159  1  0.840900  0.367520  0.317280  1.0  0.1152
  C  C160  1  0.849400  0.230120  0.339810  1.0  -0.0197
  C  C161  1  0.877000  0.160800  0.295780  1.0  -0.1509
  C  C162  1  0.907000  0.096770  0.347070  1.0  -0.1471
  C  C163  1  0.936770  0.024830  0.306720  1.0  -0.0124
  C  C164  1  0.049000  0.033200  0.183630  1.0  -0.1724
  C  C165  1  0.166000  0.035220  0.164890  1.0  0.0399
  C  C166  1  0.159870  0.028570  0.283590  1.0  0.1274
  C  C167  1  0.302800  0.627800  0.799050  1.0  0.0239
  C  C168  1  0.310700  0.700530  0.780820  1.0  -0.1653
  C  C169  1  0.340900  0.632480  0.682720  1.0  0.115
  C  C170  1  0.349400  0.769880  0.660190  1.0  -0.0193
  C  C171  1  0.377000  0.839200  0.704220  1.0  -0.1502
  C  C172  1  0.407000  0.903230  0.652930  1.0  -0.1468
  C  C173  1  0.436770  0.975170  0.693280  1.0  -0.0119
  C  C174  1  0.549000  0.966800  0.816370  1.0  -0.1719
  C  C175  1  0.666000  0.964780  0.835110  1.0  0.0408
  C  C176  1  0.659870  0.971430  0.716410  1.0  0.1275
  C  C177  1  0.697200  0.799050  0.627800  1.0  0.0243
  C  C178  1  0.689300  0.780820  0.700530  1.0  -0.1659
  C  C179  1  0.659100  0.682720  0.632480  1.0  0.1152
  C  C180  1  0.650600  0.660190  0.769880  1.0  -0.0226
  C  C181  1  0.623000  0.704220  0.839200  1.0  -0.1485
  C  C182  1  0.593000  0.652930  0.903230  1.0  -0.1491
  C  C183  1  0.563230  0.693280  0.975170  1.0  -0.0126
  C  C184  1  0.451000  0.816370  0.966800  1.0  -0.1729
  C  C185  1  0.334000  0.835110  0.964780  1.0  0.0381
  C  C186  1  0.340130  0.716410  0.971430  1.0  0.1275
  C  C187  1  0.197200  0.200950  0.372200  1.0  0.0248
  C  C188  1  0.189300  0.219180  0.299470  1.0  -0.1659
  C  C189  1  0.159100  0.317280  0.367520  1.0  0.1153
  C  C190  1  0.150600  0.339810  0.230120  1.0  -0.0216
  C  C191  1  0.123000  0.295780  0.160800  1.0  -0.1491
  C  C192  1  0.093000  0.347070  0.096770  1.0  -0.1486
  C  C193  1  0.063230  0.306720  0.024830  1.0  -0.013
  C  C194  1  0.951000  0.183630  0.033200  1.0  -0.1728
  C  C195  1  0.834000  0.164890  0.035220  1.0  0.0376
  C  C196  1  0.840130  0.283590  0.028570  1.0  0.1268
  C  C197  1  0.947200  0.127800  0.700950  1.0  0.0229
  C  C198  1  0.939300  0.200530  0.719180  1.0  -0.1659
  C  C199  1  0.909100  0.132480  0.817280  1.0  0.1138
  C  C200  1  0.900600  0.269880  0.839810  1.0  -0.0204
  C  C201  1  0.873000  0.339200  0.795780  1.0  -0.1498
  C  C202  1  0.843000  0.403230  0.847070  1.0  -0.1471
  C  C203  1  0.813230  0.475170  0.806720  1.0  -0.0106
  C  C204  1  0.701000  0.466800  0.683630  1.0  -0.1719
  C  C205  1  0.584000  0.464780  0.664890  1.0  0.0401
  C  C206  1  0.590130  0.471430  0.783590  1.0  0.1271
  C  C207  1  0.447200  0.872200  0.299050  1.0  0.0234
  C  C208  1  0.439300  0.799470  0.280820  1.0  -0.1655
  C  C209  1  0.409100  0.867520  0.182720  1.0  0.1137
  C  C210  1  0.400600  0.730120  0.160190  1.0  -0.0197
  C  C211  1  0.373000  0.660800  0.204220  1.0  -0.1492
  C  C212  1  0.343000  0.596770  0.152930  1.0  -0.1478
  C  C213  1  0.313230  0.524830  0.193280  1.0  -0.0113
  C  C214  1  0.201000  0.533200  0.316370  1.0  -0.1703
  C  C215  1  0.084000  0.535220  0.335110  1.0  0.0402
  C  C216  1  0.090130  0.528570  0.216410  1.0  0.1272
  N  N217  1  0.071270  0.762930  0.085290  1.0  -0.3487
  N  N218  1  0.084760  0.793250  0.203360  1.0  0.0352
  N  N219  1  0.295080  0.759620  0.470600  1.0  0.0284
  N  N220  1  0.487050  0.727390  0.467590  1.0  -0.3494
  N  N221  1  0.571270  0.237070  0.914710  1.0  -0.3526
  N  N222  1  0.584760  0.206750  0.796640  1.0  0.0349
  N  N223  1  0.795080  0.240380  0.529400  1.0  0.0287
  N  N224  1  0.987050  0.272610  0.532410  1.0  -0.3503
  N  N225  1  0.821270  0.414710  0.262930  1.0  -0.3502
  N  N226  1  0.834760  0.296640  0.293250  1.0  0.036
  N  N227  1  0.045080  0.029400  0.259620  1.0  0.0277
  N  N228  1  0.237050  0.032410  0.227390  1.0  -0.3494
  N  N229  1  0.321270  0.585290  0.737070  1.0  -0.3493
  N  N230  1  0.334760  0.703360  0.706750  1.0  0.0357
  N  N231  1  0.545080  0.970600  0.740380  1.0  0.0282
  N  N232  1  0.737050  0.967590  0.772610  1.0  -0.3493
  N  N233  1  0.678730  0.737070  0.585290  1.0  -0.3515
  N  N234  1  0.665240  0.706750  0.703360  1.0  0.0356
  N  N235  1  0.454920  0.740380  0.970600  1.0  0.0293
  N  N236  1  0.262950  0.772610  0.967590  1.0  -0.3517
  N  N237  1  0.178730  0.262930  0.414710  1.0  -0.3543
  N  N238  1  0.165240  0.293250  0.296640  1.0  0.0348
  N  N239  1  0.954920  0.259620  0.029400  1.0  0.0293
  N  N240  1  0.762950  0.227390  0.032410  1.0  -0.3516
  N  N241  1  0.928730  0.085290  0.762930  1.0  -0.3493
  N  N242  1  0.915240  0.203360  0.793250  1.0  0.036
  N  N243  1  0.704920  0.470600  0.759620  1.0  0.0286
  N  N244  1  0.512950  0.467590  0.727390  1.0  -0.351
  N  N245  1  0.428730  0.914710  0.237070  1.0  -0.3525
  N  N246  1  0.415240  0.796640  0.206750  1.0  0.0363
  N  N247  1  0.204920  0.529400  0.240380  1.0  0.0286
  N  N248  1  0.012950  0.532410  0.272610  1.0  -0.3521
  O  O249  1  0.248200  0.533000  0.979390  1.0  -0.7963
  O  O250  1  0.055660  0.876840  0.970710  1.0  -0.9677
  O  O251  1  0.116990  0.027460  0.974280  1.0  -0.923
  O  O252  1  0.088750  0.650940  0.966130  1.0  -0.799
  O  O253  1  0.748200  0.467000  0.020610  1.0  -0.7963
  O  O254  1  0.555660  0.123160  0.029290  1.0  -0.9665
  O  O255  1  0.616990  0.972540  0.025720  1.0  -0.9225
  O  O256  1  0.588750  0.349060  0.033870  1.0  -0.7987
  O  O257  1  0.998200  0.520610  0.033000  1.0  -0.7973
  O  O258  1  0.805660  0.529290  0.376840  1.0  -0.9668
  O  O259  1  0.866990  0.525720  0.527460  1.0  -0.9219
  O  O260  1  0.838750  0.533870  0.150940  1.0  -0.7962
  O  O261  1  0.498200  0.479390  0.967000  1.0  -0.7977
  O  O262  1  0.305660  0.470710  0.623160  1.0  -0.9654
  O  O263  1  0.366990  0.474280  0.472540  1.0  -0.9203
  O  O264  1  0.338750  0.466130  0.849060  1.0  -0.7946
  O  O265  1  0.501800  0.967000  0.479390  1.0  -0.7996
  O  O266  1  0.694340  0.623160  0.470710  1.0  -0.967
  O  O267  1  0.633010  0.472540  0.474280  1.0  -0.9235
  O  O268  1  0.661250  0.849060  0.466130  1.0  -0.8004
  O  O269  1  0.001800  0.033000  0.520610  1.0  -0.799
  O  O270  1  0.194340  0.376840  0.529290  1.0  -0.9666
  O  O271  1  0.133010  0.527460  0.525720  1.0  -0.9227
  O  O272  1  0.161250  0.150940  0.533870  1.0  -0.799
  O  O273  1  0.751800  0.979390  0.533000  1.0  -0.7958
  O  O274  1  0.944340  0.970710  0.876840  1.0  -0.9657
  O  O275  1  0.883010  0.974280  0.027460  1.0  -0.9217
  O  O276  1  0.911250  0.966130  0.650940  1.0  -0.7962
  O  O277  1  0.251800  0.020610  0.467000  1.0  -0.7966
  O  O278  1  0.444340  0.029290  0.123160  1.0  -0.9676
  O  O279  1  0.383010  0.025720  0.972540  1.0  -0.9216
  O  O280  1  0.411250  0.033870  0.349060  1.0  -0.7966
