# generated using pymatgen
data_CuC2N
_symmetry_space_group_name_H-M   'P 1'
_cell_length_a   14.87700000
_cell_length_b   8.55450000
_cell_length_c   7.40810000
_cell_angle_alpha   90.00000000
_cell_angle_beta   118.77800000
_cell_angle_gamma   90.00000000
_symmetry_Int_Tables_number   1
_chemical_formula_structural   CuC2N
_chemical_formula_sum   'Cu8 C16 N8'
_cell_volume   826.35105505
_cell_formula_units_Z   8
loop_
 _symmetry_equiv_pos_site_id
 _symmetry_equiv_pos_as_xyz
  1  'x, y, z'
loop_
 _atom_site_type_symbol
 _atom_site_label
 _atom_site_symmetry_multiplicity
 _atom_site_fract_x
 _atom_site_fract_y
 _atom_site_fract_z
 _atom_site_occupancy
 _atom_site_charge
  Cu  Cu1  1  0.317610  0.680840  0.181840  1.0  0.502
  Cu  Cu2  1  0.817610  0.180840  0.181840  1.0  0.5021
  Cu  Cu3  1  0.682390  0.680840  0.318160  1.0  0.5007
  Cu  Cu4  1  0.182390  0.180840  0.318160  1.0  0.5007
  Cu  Cu5  1  0.682390  0.319160  0.818160  1.0  0.5001
  Cu  Cu6  1  0.182390  0.819160  0.818160  1.0  0.5001
  Cu  Cu7  1  0.317610  0.319160  0.681840  1.0  0.5024
  Cu  Cu8  1  0.817610  0.819160  0.681840  1.0  0.5017
  C  C9  1  0.458600  0.650300  0.235400  1.0  -0.0254
  C  C10  1  0.233150  0.386300  0.298800  1.0  -0.0294
  C  C11  1  0.958600  0.150300  0.235400  1.0  -0.0254
  C  C12  1  0.733150  0.886300  0.298800  1.0  -0.0294
  C  C13  1  0.541400  0.650300  0.264600  1.0  -0.0254
  C  C14  1  0.766850  0.386300  0.201200  1.0  -0.0283
  C  C15  1  0.041400  0.150300  0.264600  1.0  -0.0254
  C  C16  1  0.266850  0.886300  0.201200  1.0  -0.0283
  C  C17  1  0.541400  0.349700  0.764600  1.0  -0.0249
  C  C18  1  0.766850  0.613700  0.701200  1.0  -0.0291
  C  C19  1  0.041400  0.849700  0.764600  1.0  -0.0252
  C  C20  1  0.266850  0.113700  0.701200  1.0  -0.0291
  C  C21  1  0.458600  0.349700  0.735400  1.0  -0.0249
  C  C22  1  0.233150  0.613700  0.798800  1.0  -0.03
  C  C23  1  0.958600  0.849700  0.735400  1.0  -0.0253
  C  C24  1  0.733150  0.113700  0.798800  1.0  -0.03
  N  N25  1  0.257070  0.499300  0.252700  1.0  -0.4462
  N  N26  1  0.757070  0.999300  0.252700  1.0  -0.4462
  N  N27  1  0.742930  0.499300  0.247300  1.0  -0.4461
  N  N28  1  0.242930  0.999300  0.247300  1.0  -0.4461
  N  N29  1  0.742930  0.500700  0.747300  1.0  -0.4474
  N  N30  1  0.242930  0.000700  0.747300  1.0  -0.4474
  N  N31  1  0.257070  0.500700  0.752700  1.0  -0.4473
  N  N32  1  0.757070  0.000700  0.752700  1.0  -0.4473
