# generated using pymatgen
data_ZnPH4C7O5
_symmetry_space_group_name_H-M   'P 1'
_cell_length_a   9.86900000
_cell_length_b   17.10100000
_cell_length_c   17.32000000
_cell_angle_alpha   90.00000000
_cell_angle_beta   94.89600000
_cell_angle_gamma   90.00000000
_symmetry_Int_Tables_number   1
_chemical_formula_structural   ZnPH4C7O5
_chemical_formula_sum   'Zn8 P8 H32 C56 O40'
_cell_volume   2912.42678612
_cell_formula_units_Z   8
loop_
 _symmetry_equiv_pos_site_id
 _symmetry_equiv_pos_as_xyz
  1  'x, y, z'
loop_
 _atom_site_type_symbol
 _atom_site_label
 _atom_site_symmetry_multiplicity
 _atom_site_fract_x
 _atom_site_fract_y
 _atom_site_fract_z
 _atom_site_occupancy
 _atom_site_charge
  Zn  Zn1  1  0.062810  0.965980  0.099740  1.0  1.1318
  Zn  Zn2  1  0.550160  0.107330  0.963200  1.0  1.1723
  Zn  Zn3  1  0.937190  0.465980  0.400260  1.0  1.132
  Zn  Zn4  1  0.449840  0.607330  0.536800  1.0  1.171
  Zn  Zn5  1  0.937190  0.034020  0.900260  1.0  1.1319
  Zn  Zn6  1  0.449840  0.892670  0.036800  1.0  1.1715
  Zn  Zn7  1  0.062810  0.534020  0.599740  1.0  1.132
  Zn  Zn8  1  0.550160  0.392670  0.463200  1.0  1.1728
  P  P9  1  0.353930  0.061280  0.087670  1.0  1.536
  P  P10  1  0.853540  0.102720  0.054200  1.0  1.562
  P  P11  1  0.646070  0.561280  0.412330  1.0  1.5365
  P  P12  1  0.146460  0.602720  0.445800  1.0  1.5627
  P  P13  1  0.646070  0.938720  0.912330  1.0  1.5369
  P  P14  1  0.146460  0.897280  0.945800  1.0  1.5628
  P  P15  1  0.353930  0.438720  0.587670  1.0  1.5367
  P  P16  1  0.853540  0.397280  0.554200  1.0  1.5622
  H  H17  1  0.313100  0.044900  0.247700  1.0  0.1253
  H  H18  1  0.365800  0.118300  0.358600  1.0  0.1189
  H  H19  1  0.523800  0.285900  0.235100  1.0  0.1253
  H  H20  1  0.475900  0.212300  0.123300  1.0  0.1217
  H  H21  1  0.088100  0.147500  0.153700  1.0  0.1036
  H  H22  1  0.141400  0.246100  0.241500  1.0  0.1123
  H  H23  1  0.775300  0.341900  0.189500  1.0  0.1218
  H  H24  1  0.722500  0.244000  0.100300  1.0  0.1168
  H  H25  1  0.686900  0.544900  0.252300  1.0  0.1253
  H  H26  1  0.634200  0.618300  0.141400  1.0  0.1185
  H  H27  1  0.476200  0.785900  0.264900  1.0  0.1254
  H  H28  1  0.524100  0.712300  0.376700  1.0  0.122
  H  H29  1  0.911900  0.647500  0.346300  1.0  0.1033
  H  H30  1  0.858600  0.746100  0.258500  1.0  0.1118
  H  H31  1  0.224700  0.841900  0.310500  1.0  0.1216
  H  H32  1  0.277500  0.744000  0.399700  1.0  0.1169
  H  H33  1  0.686900  0.955100  0.752300  1.0  0.1259
  H  H34  1  0.634200  0.881700  0.641400  1.0  0.1187
  H  H35  1  0.476200  0.714100  0.764900  1.0  0.1254
  H  H36  1  0.524100  0.787700  0.876700  1.0  0.1222
  H  H37  1  0.911900  0.852500  0.846300  1.0  0.1034
  H  H38  1  0.858600  0.753900  0.758500  1.0  0.1116
  H  H39  1  0.224700  0.658100  0.810500  1.0  0.1213
  H  H40  1  0.277500  0.756000  0.899700  1.0  0.1171
  H  H41  1  0.313100  0.455100  0.747700  1.0  0.126
  H  H42  1  0.365800  0.381700  0.858600  1.0  0.1186
  H  H43  1  0.523800  0.214100  0.735100  1.0  0.1255
  H  H44  1  0.475900  0.287700  0.623300  1.0  0.1219
  H  H45  1  0.088100  0.352500  0.653700  1.0  0.1034
  H  H46  1  0.141400  0.253900  0.741500  1.0  0.1126
  H  H47  1  0.775300  0.158100  0.689500  1.0  0.1211
  H  H48  1  0.722500  0.256000  0.600300  1.0  0.1167
  C  C49  1  0.391700  0.120100  0.173500  1.0  -0.269
  C  C50  1  0.356900  0.092800  0.244500  1.0  -0.0466
  C  C51  1  0.388000  0.137500  0.311000  1.0  -0.0156
  C  C52  1  0.449900  0.208500  0.308200  1.0  -0.1444
  C  C53  1  0.482500  0.237200  0.237900  1.0  -0.0253
  C  C54  1  0.453400  0.192800  0.170600  1.0  -0.0259
  C  C55  1  0.484400  0.254600  0.381600  1.0  0.7297
  C  C56  1  0.898800  0.183400  0.118100  1.0  -0.1976
  C  C57  1  0.024200  0.186200  0.160900  1.0  -0.0354
  C  C58  1  0.056200  0.245300  0.214000  1.0  -0.0254
  C  C59  1  0.963000  0.302500  0.226300  1.0  -0.1213
  C  C60  1  0.837900  0.302400  0.182700  1.0  -0.0315
  C  C61  1  0.806400  0.243500  0.129200  1.0  -0.0403
  C  C62  1  0.992800  0.360600  0.289700  1.0  0.6899
  C  C63  1  0.608300  0.620100  0.326500  1.0  -0.2665
  C  C64  1  0.643100  0.592800  0.255500  1.0  -0.0463
  C  C65  1  0.612000  0.637500  0.189000  1.0  -0.015
  C  C66  1  0.550100  0.708500  0.191800  1.0  -0.1436
  C  C67  1  0.517500  0.737200  0.262100  1.0  -0.0246
  C  C68  1  0.546600  0.692800  0.329400  1.0  -0.0257
  C  C69  1  0.515600  0.754600  0.118400  1.0  0.729
  C  C70  1  0.101200  0.683400  0.381900  1.0  -0.1979
  C  C71  1  0.975800  0.686200  0.339100  1.0  -0.0358
  C  C72  1  0.943800  0.745300  0.286000  1.0  -0.026
  C  C73  1  0.037000  0.802500  0.273700  1.0  -0.1213
  C  C74  1  0.162100  0.802400  0.317300  1.0  -0.0311
  C  C75  1  0.193600  0.743500  0.370800  1.0  -0.0393
  C  C76  1  0.007200  0.860600  0.210300  1.0  0.6911
  C  C77  1  0.608300  0.879900  0.826500  1.0  -0.2664
  C  C78  1  0.643100  0.907200  0.755500  1.0  -0.0451
  C  C79  1  0.612000  0.862500  0.689000  1.0  -0.0152
  C  C80  1  0.550100  0.791500  0.691800  1.0  -0.1442
  C  C81  1  0.517500  0.762800  0.762100  1.0  -0.0257
  C  C82  1  0.546600  0.807200  0.829400  1.0  -0.0246
  C  C83  1  0.515600  0.745400  0.618400  1.0  0.7288
  C  C84  1  0.101200  0.816600  0.881900  1.0  -0.1976
  C  C85  1  0.975800  0.813800  0.839100  1.0  -0.0362
  C  C86  1  0.943800  0.754700  0.786000  1.0  -0.0257
  C  C87  1  0.037000  0.697500  0.773700  1.0  -0.1218
  C  C88  1  0.162100  0.697600  0.817300  1.0  -0.0301
  C  C89  1  0.193600  0.756500  0.870800  1.0  -0.0392
  C  C90  1  0.007200  0.639400  0.710300  1.0  0.6914
  C  C91  1  0.391700  0.379900  0.673500  1.0  -0.2686
  C  C92  1  0.356900  0.407200  0.744500  1.0  -0.047
  C  C93  1  0.388000  0.362500  0.811000  1.0  -0.0148
  C  C94  1  0.449900  0.291500  0.808200  1.0  -0.1438
  C  C95  1  0.482500  0.262800  0.737900  1.0  -0.0258
  C  C96  1  0.453400  0.307200  0.670600  1.0  -0.0254
  C  C97  1  0.484400  0.245400  0.881600  1.0  0.729
  C  C98  1  0.898800  0.316600  0.618100  1.0  -0.1967
  C  C99  1  0.024200  0.313800  0.660900  1.0  -0.036
  C  C100  1  0.056200  0.254700  0.714000  1.0  -0.0255
  C  C101  1  0.963000  0.197500  0.726300  1.0  -0.1218
  C  C102  1  0.837900  0.197600  0.682700  1.0  -0.03
  C  C103  1  0.806400  0.256500  0.629200  1.0  -0.0408
  C  C104  1  0.992800  0.139400  0.789700  1.0  0.6904
  O  O105  1  0.204900  0.041800  0.085800  1.0  -0.8382
  O  O106  1  0.383700  0.111100  0.017500  1.0  -0.7381
  O  O107  1  0.447700  0.990700  0.096800  1.0  -0.7422
  O  O108  1  0.514200  0.326500  0.372700  1.0  -0.5809
  O  O109  1  0.482200  0.224200  0.445300  1.0  -0.4619
  O  O110  1  0.897800  0.028600  0.097800  1.0  -0.7599
  O  O111  1  0.930000  0.113700  0.981700  1.0  -0.7321
  O  O112  1  0.701400  0.106900  0.039500  1.0  -0.851
  O  O113  1  0.900600  0.411200  0.300700  1.0  -0.5889
  O  O114  1  0.102700  0.357100  0.330100  1.0  -0.5019
  O  O115  1  0.795100  0.541800  0.414200  1.0  -0.838
  O  O116  1  0.616300  0.611100  0.482500  1.0  -0.7394
  O  O117  1  0.552300  0.490700  0.403200  1.0  -0.7426
  O  O118  1  0.485800  0.826500  0.127300  1.0  -0.5813
  O  O119  1  0.517800  0.724200  0.054700  1.0  -0.4607
  O  O120  1  0.102200  0.528600  0.402200  1.0  -0.7611
  O  O121  1  0.070000  0.613700  0.518300  1.0  -0.7306
  O  O122  1  0.298600  0.606900  0.460500  1.0  -0.8496
  O  O123  1  0.099400  0.911200  0.199300  1.0  -0.5889
  O  O124  1  0.897300  0.857100  0.169900  1.0  -0.5014
  O  O125  1  0.795100  0.958200  0.914200  1.0  -0.8379
  O  O126  1  0.616300  0.888900  0.982500  1.0  -0.7387
  O  O127  1  0.552300  0.009300  0.903200  1.0  -0.742
  O  O128  1  0.485800  0.673500  0.627300  1.0  -0.5807
  O  O129  1  0.517800  0.775800  0.554700  1.0  -0.4616
  O  O130  1  0.102200  0.971400  0.902200  1.0  -0.7607
  O  O131  1  0.070000  0.886300  0.018300  1.0  -0.7306
  O  O132  1  0.298600  0.893100  0.960500  1.0  -0.8498
  O  O133  1  0.099400  0.588800  0.699300  1.0  -0.5873
  O  O134  1  0.897300  0.642900  0.669900  1.0  -0.5019
  O  O135  1  0.204900  0.458200  0.585800  1.0  -0.8381
  O  O136  1  0.383700  0.388900  0.517500  1.0  -0.7375
  O  O137  1  0.447700  0.509300  0.596800  1.0  -0.7416
  O  O138  1  0.514200  0.173500  0.872700  1.0  -0.5798
  O  O139  1  0.482200  0.275800  0.945300  1.0  -0.4634
  O  O140  1  0.897800  0.471400  0.597800  1.0  -0.7594
  O  O141  1  0.930000  0.386300  0.481700  1.0  -0.7319
  O  O142  1  0.701400  0.393100  0.539500  1.0  -0.851
  O  O143  1  0.900600  0.088800  0.800700  1.0  -0.5882
  O  O144  1  0.102700  0.142900  0.830100  1.0  -0.5023
