# generated using pymatgen
data_ZnPH12C9NO5
_symmetry_space_group_name_H-M   'P 1'
_cell_length_a   10.07500000
_cell_length_b   13.05100000
_cell_length_c   13.24000000
_cell_angle_alpha   70.79000000
_cell_angle_beta   68.85000000
_cell_angle_gamma   70.61000000
_symmetry_Int_Tables_number   1
_chemical_formula_structural   ZnPH12C9NO5
_chemical_formula_sum   'Zn4 P4 H48 C36 N4 O20'
_cell_volume   1487.59906398
_cell_formula_units_Z   4
loop_
 _symmetry_equiv_pos_site_id
 _symmetry_equiv_pos_as_xyz
  1  'x, y, z'
loop_
 _atom_site_type_symbol
 _atom_site_label
 _atom_site_symmetry_multiplicity
 _atom_site_fract_x
 _atom_site_fract_y
 _atom_site_fract_z
 _atom_site_occupancy
 _atom_site_charge
  Zn  Zn1  1  0.566820  0.166370  0.447150  1.0  0.9748
  Zn  Zn2  1  0.162560  0.054510  0.334830  1.0  1.0122
  Zn  Zn3  1  0.433180  0.833630  0.552850  1.0  0.9737
  Zn  Zn4  1  0.837440  0.945490  0.665170  1.0  1.0142
  P  P5  1  0.870070  0.164110  0.473390  1.0  1.5436
  P  P6  1  0.492080  0.031000  0.335980  1.0  1.4882
  P  P7  1  0.129930  0.835890  0.526610  1.0  1.544
  P  P8  1  0.507920  0.969000  0.664020  1.0  1.4886
  H  H9  1  0.828600  0.392300  0.352600  1.0  0.1138
  H  H10  1  0.706300  0.563000  0.400500  1.0  0.1034
  H  H11  1  0.589300  0.405400  0.719400  1.0  0.1121
  H  H12  1  0.712200  0.236000  0.674000  1.0  0.0941
  H  H13  1  0.619700  0.133300  0.108100  1.0  0.1105
  H  H14  1  0.720400  0.078200  0.946000  1.0  0.1043
  H  H15  1  0.631000  0.781000  0.100700  1.0  0.1046
  H  H16  1  0.534800  0.834500  0.266700  1.0  0.0906
  H  H17  1  0.171400  0.607700  0.647400  1.0  0.1142
  H  H18  1  0.293700  0.437000  0.599500  1.0  0.1035
  H  H19  1  0.410700  0.594600  0.280600  1.0  0.1122
  H  H20  1  0.287800  0.764000  0.326000  1.0  0.0939
  H  H21  1  0.380300  0.866700  0.891900  1.0  0.1113
  H  H22  1  0.279600  0.921800  0.054000  1.0  0.1036
  H  H23  1  0.369000  0.219000  0.899300  1.0  0.1043
  H  H24  1  0.465200  0.165500  0.733300  1.0  0.0906
  H  H25  1  0.671300  0.736900  0.816400  1.0  0.2589
  H  H26  1  0.599600  0.714800  0.750900  1.0  0.2165
  H  H27  1  0.840700  0.670500  0.675200  1.0  0.104
  H  H28  1  0.857200  0.587400  0.789000  1.0  0.1029
  H  H29  1  0.779800  0.563100  0.718600  1.0  0.1002
  H  H30  1  0.486000  0.658000  0.932900  1.0  0.0974
  H  H31  1  0.559300  0.554800  0.879100  1.0  0.1079
  H  H32  1  0.636000  0.579000  0.950000  1.0  0.1021
  H  H33  1  0.891000  0.902500  0.428200  1.0  0.1691
  H  H34  1  0.750600  0.913600  0.413500  1.0  0.0985
  H  H35  1  0.875000  0.020000  0.266000  1.0  0.0962
  H  H36  1  0.002100  0.913400  0.246300  1.0  0.103
  H  H37  1  0.850100  0.925900  0.230600  1.0  0.1018
  H  H38  1  0.839000  0.736500  0.491400  1.0  0.1005
  H  H39  1  0.827200  0.746100  0.373600  1.0  0.0951
  H  H40  1  0.979300  0.734100  0.388800  1.0  0.1025
  H  H41  1  0.328700  0.263100  0.183600  1.0  0.2563
  H  H42  1  0.400400  0.285200  0.249100  1.0  0.216
  H  H43  1  0.159300  0.329500  0.324800  1.0  0.1034
  H  H44  1  0.142800  0.412600  0.211000  1.0  0.1031
  H  H45  1  0.220200  0.436900  0.281400  1.0  0.1019
  H  H46  1  0.514000  0.342000  0.067100  1.0  0.0972
  H  H47  1  0.440700  0.445200  0.120900  1.0  0.1083
  H  H48  1  0.364000  0.421000  0.050000  1.0  0.1025
  H  H49  1  0.109000  0.097500  0.571800  1.0  0.1681
  H  H50  1  0.249400  0.086400  0.586500  1.0  0.0949
  H  H51  1  0.125000  0.980000  0.734000  1.0  0.0956
  H  H52  1  0.997900  0.086600  0.753700  1.0  0.1013
  H  H53  1  0.149900  0.074100  0.769400  1.0  0.1006
  H  H54  1  0.161000  0.263500  0.508600  1.0  0.1
  H  H55  1  0.172800  0.253900  0.626400  1.0  0.0952
  H  H56  1  0.020700  0.265900  0.611200  1.0  0.1005
  C  C57  1  0.782300  0.296500  0.508400  1.0  -0.2211
  C  C58  1  0.780700  0.394200  0.426800  1.0  -0.0408
  C  C59  1  0.706700  0.496800  0.455800  1.0  -0.0086
  C  C60  1  0.636200  0.500300  0.562900  1.0  -0.0972
  C  C61  1  0.637600  0.402900  0.645400  1.0  -0.0405
  C  C62  1  0.710800  0.301600  0.618000  1.0  -0.025
  C  C63  1  0.552600  0.609600  0.593300  1.0  0.6693
  C  C64  1  0.567000  0.990600  0.204600  1.0  -0.2127
  C  C65  1  0.622400  0.061600  0.107500  1.0  -0.0884
  C  C66  1  0.681000  0.029000  0.010600  1.0  -0.0422
  C  C67  1  0.684000  0.924700  0.004700  1.0  -0.1503
  C  C68  1  0.629000  0.852300  0.102100  1.0  -0.0521
  C  C69  1  0.571200  0.884300  0.201400  1.0  -0.0326
  C  C70  1  0.741100  0.891800  0.897200  1.0  0.6861
  C  C71  1  0.217700  0.703500  0.491600  1.0  -0.2206
  C  C72  1  0.219300  0.605800  0.573200  1.0  -0.0381
  C  C73  1  0.293300  0.503200  0.544200  1.0  -0.0091
  C  C74  1  0.363800  0.499700  0.437100  1.0  -0.0971
  C  C75  1  0.362400  0.597100  0.354600  1.0  -0.0413
  C  C76  1  0.289200  0.698400  0.382000  1.0  -0.0247
  C  C77  1  0.447400  0.390400  0.406700  1.0  0.6681
  C  C78  1  0.433000  0.009400  0.795400  1.0  -0.2139
  C  C79  1  0.377600  0.938400  0.892500  1.0  -0.0845
  C  C80  1  0.319000  0.971000  0.989400  1.0  -0.0422
  C  C81  1  0.316000  0.075300  0.995300  1.0  -0.1491
  C  C82  1  0.371000  0.147700  0.897900  1.0  -0.051
  C  C83  1  0.428800  0.115700  0.798600  1.0  -0.0337
  C  C84  1  0.258900  0.108200  0.102800  1.0  0.6859
  C  C85  1  0.795000  0.620700  0.740300  1.0  -0.1897
  C  C86  1  0.577600  0.612400  0.898700  1.0  -0.1996
  C  C87  1  0.898000  0.940900  0.273300  1.0  -0.1851
  C  C88  1  0.875700  0.765600  0.412700  1.0  -0.1789
  C  C89  1  0.205000  0.379300  0.259700  1.0  -0.1917
  C  C90  1  0.422400  0.387600  0.101300  1.0  -0.2011
  C  C91  1  0.102000  0.059100  0.726700  1.0  -0.1887
  C  C92  1  0.124300  0.234400  0.587300  1.0  -0.1775
  N  N93  1  0.656300  0.682200  0.797600  1.0  -0.0366
  N  N94  1  0.847800  0.885600  0.388900  1.0  -0.0556
  N  N95  1  0.343700  0.317800  0.202400  1.0  -0.0413
  N  N96  1  0.152200  0.114400  0.611100  1.0  -0.0559
  O  O97  1  0.771200  0.132700  0.432100  1.0  -0.8675
  O  O98  1  0.011900  0.178000  0.384000  1.0  -0.8283
  O  O99  1  0.899000  0.083300  0.579400  1.0  -0.8062
  O  O100  1  0.553300  0.694700  0.514500  1.0  -0.5912
  O  O101  1  0.490400  0.612300  0.692800  1.0  -0.5587
  O  O102  1  0.328000  0.071200  0.362100  1.0  -0.8523
  O  O103  1  0.558600  0.125600  0.320700  1.0  -0.8166
  O  O104  1  0.541600  0.928700  0.420200  1.0  -0.7414
  O  O105  1  0.797000  0.962400  0.813500  1.0  -0.5986
  O  O106  1  0.730300  0.802000  0.892400  1.0  -0.6412
  O  O107  1  0.228800  0.867300  0.567900  1.0  -0.8683
  O  O108  1  0.988100  0.822000  0.616000  1.0  -0.8273
  O  O109  1  0.101000  0.916700  0.420600  1.0  -0.8051
  O  O110  1  0.446700  0.305300  0.485500  1.0  -0.5903
  O  O111  1  0.509600  0.387700  0.307200  1.0  -0.5599
  O  O112  1  0.672000  0.928800  0.637900  1.0  -0.8528
  O  O113  1  0.441400  0.874400  0.679300  1.0  -0.8162
  O  O114  1  0.458400  0.071300  0.579800  1.0  -0.7409
  O  O115  1  0.203000  0.037600  0.186500  1.0  -0.5978
  O  O116  1  0.269700  0.198000  0.107600  1.0  -0.6375
