# generated using pymatgen
data_CuH14C10BrN4
_symmetry_space_group_name_H-M   'P 1'
_cell_length_a   7.18100000
_cell_length_b   11.35110000
_cell_length_c   11.35110000
_cell_angle_alpha   66.32210000
_cell_angle_beta   71.56000000
_cell_angle_gamma   71.55990000
_symmetry_Int_Tables_number   1
_chemical_formula_structural   CuH14C10BrN4
_chemical_formula_sum   'Cu2 H28 C20 Br2 N8'
_cell_volume   784.54572241
_cell_formula_units_Z   2
loop_
 _symmetry_equiv_pos_site_id
 _symmetry_equiv_pos_as_xyz
  1  'x, y, z'
loop_
 _atom_site_type_symbol
 _atom_site_label
 _atom_site_symmetry_multiplicity
 _atom_site_fract_x
 _atom_site_fract_y
 _atom_site_fract_z
 _atom_site_occupancy
 _atom_site_charge
  Cu  Cu1  1  0.340520  0.888890  0.611110  1.0  0.2712
  Cu  Cu2  1  0.840520  0.111110  0.388890  1.0  0.2664
  H  H3  1  0.753900  0.848100  0.441300  1.0  0.2494
  H  H4  1  0.266200  0.628500  0.677100  1.0  0.1279
  H  H5  1  0.415500  0.493300  0.724900  1.0  0.1262
  H  H6  1  0.332000  0.529100  0.599900  1.0  0.1155
  H  H7  1  0.074900  0.755000  0.331200  1.0  0.1201
  H  H8  1  0.059100  0.649500  0.280500  1.0  0.1316
  H  H9  1  0.144700  0.604400  0.406600  1.0  0.122
  H  H10  1  0.043300  0.151900  0.558700  1.0  0.2476
  H  H11  1  0.571800  0.371500  0.322900  1.0  0.1288
  H  H12  1  0.633700  0.506700  0.275100  1.0  0.1285
  H  H13  1  0.461000  0.470900  0.400100  1.0  0.1151
  H  H14  1  0.161100  0.245000  0.668800  1.0  0.1196
  H  H15  1  0.989100  0.350500  0.719500  1.0  0.1326
  H  H16  1  0.155700  0.395600  0.593400  1.0  0.1226
  H  H17  1  0.253900  0.941300  0.348100  1.0  0.2502
  H  H18  1  0.766200  0.177100  0.128500  1.0  0.1306
  H  H19  1  0.915500  0.224900  0.993300  1.0  0.1267
  H  H20  1  0.832000  0.099900  0.029100  1.0  0.1136
  H  H21  1  0.574900  0.831200  0.255000  1.0  0.119
  H  H22  1  0.559100  0.780500  0.149500  1.0  0.132
  H  H23  1  0.644700  0.906600  0.104400  1.0  0.1209
  H  H24  1  0.543300  0.058700  0.651900  1.0  0.2496
  H  H25  1  0.071800  0.822900  0.871500  1.0  0.1281
  H  H26  1  0.133700  0.775100  0.006700  1.0  0.1274
  H  H27  1  0.961000  0.900100  0.970900  1.0  0.1145
  H  H28  1  0.661100  0.168800  0.745000  1.0  0.1175
  H  H29  1  0.489100  0.219500  0.850500  1.0  0.1318
  H  H30  1  0.655700  0.093400  0.895600  1.0  0.1216
  C  C31  1  0.737400  0.568200  0.501600  1.0  -0.1746
  C  C32  1  0.844600  0.667000  0.440000  1.0  0.1645
  C  C33  1  0.547500  0.625200  0.564600  1.0  0.2232
  C  C34  1  0.375000  0.563700  0.649100  1.0  -0.3627
  C  C35  1  0.048500  0.669100  0.357500  1.0  -0.3612
  C  C36  1  0.807200  0.431800  0.498400  1.0  -0.1748
  C  C37  1  0.951600  0.333000  0.560000  1.0  0.1653
  C  C38  1  0.737300  0.374800  0.435400  1.0  0.2218
  C  C39  1  0.587800  0.436300  0.350900  1.0  -0.3649
  C  C40  1  0.075100  0.330900  0.642500  1.0  -0.3609
  C  C41  1  0.237400  0.001600  0.068200  1.0  -0.1754
  C  C42  1  0.344600  0.940000  0.167000  1.0  0.165
  C  C43  1  0.047500  0.064600  0.125200  1.0  0.2228
  C  C44  1  0.875000  0.149100  0.063700  1.0  -0.3625
  C  C45  1  0.548500  0.857500  0.169100  1.0  -0.3615
  C  C46  1  0.307200  0.998400  0.931800  1.0  -0.177
  C  C47  1  0.451600  0.060000  0.833000  1.0  0.1653
  C  C48  1  0.237300  0.935400  0.874800  1.0  0.2232
  C  C49  1  0.087800  0.850900  0.936300  1.0  -0.3617
  C  C50  1  0.575100  0.142500  0.830900  1.0  -0.3593
  Br  Br51  1  0.493030  0.094740  0.405260  1.0  -0.5103
  Br  Br52  1  0.993030  0.905260  0.594740  1.0  -0.5108
  N  N53  1  0.541060  0.750240  0.544440  1.0  -0.2725
  N  N54  1  0.721400  0.773300  0.468500  1.0  -0.0853
  N  N55  1  0.835740  0.249760  0.455560  1.0  -0.2781
  N  N56  1  0.963200  0.226700  0.531500  1.0  -0.0863
  N  N57  1  0.041060  0.044440  0.250240  1.0  -0.2727
  N  N58  1  0.221400  0.968500  0.273300  1.0  -0.0835
  N  N59  1  0.335740  0.955560  0.749760  1.0  -0.2786
  N  N60  1  0.463200  0.031500  0.726700  1.0  -0.0848
