# generated using pymatgen
data_Sm2Zn2H15C40(BrO4)5
_symmetry_space_group_name_H-M   'P 1'
_cell_length_a   12.20690000
_cell_length_b   14.48110000
_cell_length_c   28.55000000
_cell_angle_alpha   90.00000000
_cell_angle_beta   90.00000000
_cell_angle_gamma   90.00000000
_symmetry_Int_Tables_number   1
_chemical_formula_structural   Sm2Zn2H15C40(BrO4)5
_chemical_formula_sum   'Sm8 Zn8 H60 C160 Br20 O80'
_cell_volume   5046.76464529
_cell_formula_units_Z   4
loop_
 _symmetry_equiv_pos_site_id
 _symmetry_equiv_pos_as_xyz
  1  'x, y, z'
loop_
 _atom_site_type_symbol
 _atom_site_label
 _atom_site_symmetry_multiplicity
 _atom_site_fract_x
 _atom_site_fract_y
 _atom_site_fract_z
 _atom_site_occupancy
 _atom_site_charge
  Sm  Sm1  1  0.387820  0.474300  0.707750  1.0  2.3762
  Sm  Sm2  1  0.615740  0.493000  0.605080  1.0  2.382
  Sm  Sm3  1  0.612180  0.525700  0.207750  1.0  2.3762
  Sm  Sm4  1  0.384260  0.507000  0.105080  1.0  2.3825
  Sm  Sm5  1  0.112180  0.974300  0.707750  1.0  2.3848
  Sm  Sm6  1  0.884260  0.993000  0.605080  1.0  2.3769
  Sm  Sm7  1  0.887820  0.025700  0.207750  1.0  2.3847
  Sm  Sm8  1  0.115740  0.007000  0.105080  1.0  2.376
  Zn  Zn9  1  0.174690  0.276990  0.766050  1.0  1.0897
  Zn  Zn10  1  0.668460  0.189260  0.549060  1.0  1.094
  Zn  Zn11  1  0.825310  0.723010  0.266050  1.0  1.0896
  Zn  Zn12  1  0.331540  0.810740  0.049060  1.0  1.0925
  Zn  Zn13  1  0.325310  0.776990  0.766050  1.0  1.0897
  Zn  Zn14  1  0.831540  0.689260  0.549060  1.0  1.0906
  Zn  Zn15  1  0.674690  0.223010  0.266050  1.0  1.0903
  Zn  Zn16  1  0.168460  0.310740  0.049060  1.0  1.0931
  H  H17  1  0.941700  0.301700  0.647400  1.0  0.1059
  H  H18  1  0.929100  0.455900  0.529400  1.0  0.1175
  H  H19  1  0.192000  0.477500  0.615800  1.0  0.1147
  H  H20  1  0.207000  0.739500  0.638700  1.0  0.118
  H  H21  1  0.176600  0.863500  0.510700  1.0  0.1238
  H  H22  1  0.420700  0.680400  0.532700  1.0  0.1245
  H  H23  1  0.703600  0.729400  0.677200  1.0  0.0924
  H  H24  1  0.938600  0.775600  0.775600  1.0  0.1301
  H  H25  1  0.699200  0.585100  0.797900  1.0  0.1077
  H  H26  1  0.242700  0.384500  0.906700  1.0  0.1158
  H  H27  1  0.513000  0.463000  0.833300  1.0  0.1276
  H  H28  1  0.509400  0.482600  0.975400  1.0  0.1273
  H  H29  1  0.055200  0.664500  0.668200  1.0  0.1169
  H  H30  1  0.079900  0.494500  0.781700  1.0  0.1214
  H  H31  1  0.817200  0.477100  0.694300  1.0  0.1192
  H  H32  1  0.058300  0.698300  0.147400  1.0  0.106
  H  H33  1  0.070900  0.544100  0.029400  1.0  0.1171
  H  H34  1  0.808000  0.522500  0.115800  1.0  0.1151
  H  H35  1  0.793000  0.260500  0.138700  1.0  0.1181
  H  H36  1  0.823400  0.136500  0.010700  1.0  0.1238
  H  H37  1  0.579300  0.319600  0.032700  1.0  0.1243
  H  H38  1  0.296400  0.270600  0.177200  1.0  0.0924
  H  H39  1  0.061400  0.224400  0.275600  1.0  0.1299
  H  H40  1  0.300800  0.414900  0.297900  1.0  0.1083
  H  H41  1  0.757300  0.615500  0.406700  1.0  0.1155
  H  H42  1  0.487000  0.537000  0.333333  1.0  0.1273
  H  H43  1  0.490600  0.517400  0.475400  1.0  0.1273
  H  H44  1  0.944800  0.335500  0.168200  1.0  0.1168
  H  H45  1  0.920100  0.505500  0.281700  1.0  0.121
  H  H46  1  0.182800  0.522900  0.194300  1.0  0.1191
  H  H47  1  0.558300  0.801700  0.647400  1.0  0.1065
  H  H48  1  0.570900  0.955900  0.529400  1.0  0.1173
  H  H49  1  0.308000  0.977500  0.615800  1.0  0.1152
  H  H50  1  0.293000  0.239500  0.638700  1.0  0.1181
  H  H51  1  0.323400  0.363500  0.510700  1.0  0.124
  H  H52  1  0.079300  0.180400  0.532700  1.0  0.1243
  H  H53  1  0.796400  0.229400  0.677200  1.0  0.0924
  H  H54  1  0.561400  0.275600  0.775600  1.0  0.1297
  H  H55  1  0.800800  0.085100  0.797900  1.0  0.1079
  H  H56  1  0.257300  0.884500  0.906700  1.0  0.1154
  H  H57  1  0.987000  0.963000  0.833300  1.0  0.1281
  H  H58  1  0.990600  0.982600  0.975400  1.0  0.1273
  H  H59  1  0.444800  0.164500  0.668200  1.0  0.1168
  H  H60  1  0.420100  0.994500  0.781700  1.0  0.1211
  H  H61  1  0.682800  0.977100  0.694300  1.0  0.1192
  H  H62  1  0.441700  0.198300  0.147400  1.0  0.1055
  H  H63  1  0.429100  0.044100  0.029400  1.0  0.1171
  H  H64  1  0.692000  0.022500  0.115800  1.0  0.1145
  H  H65  1  0.707000  0.760500  0.138700  1.0  0.1179
  H  H66  1  0.676600  0.636500  0.010700  1.0  0.1233
  H  H67  1  0.920700  0.819600  0.032700  1.0  0.1243
  H  H68  1  0.203600  0.770600  0.177200  1.0  0.0923
  H  H69  1  0.438600  0.724400  0.275600  1.0  0.1305
  H  H70  1  0.199200  0.914900  0.297900  1.0  0.1083
  H  H71  1  0.742700  0.115500  0.406700  1.0  0.1158
  H  H72  1  0.013000  0.037000  0.333333  1.0  0.1271
  H  H73  1  0.009400  0.017400  0.475400  1.0  0.1271
  H  H74  1  0.555200  0.835500  0.168200  1.0  0.1168
  H  H75  1  0.579900  0.005500  0.281700  1.0  0.1211
  H  H76  1  0.317200  0.022900  0.194300  1.0  0.1192
  C  C77  1  0.075900  0.387000  0.638400  1.0  -0.1443
  C  C78  1  0.973000  0.346600  0.627100  1.0  -0.0246
  C  C79  1  0.918100  0.372600  0.586500  1.0  -0.093
  C  C80  1  0.966400  0.437300  0.557000  1.0  -0.0825
  C  C81  1  0.067600  0.475000  0.567100  1.0  0.0604
  C  C82  1  0.123100  0.450600  0.608500  1.0  -0.0486
  C  C83  1  0.133700  0.362400  0.683400  1.0  0.7493
  C  C84  1  0.807500  0.333700  0.575000  1.0  0.729
  C  C85  1  0.320800  0.695000  0.588600  1.0  -0.1477
  C  C86  1  0.230700  0.746900  0.607300  1.0  -0.0347
  C  C87  1  0.179700  0.809000  0.576800  1.0  -0.1202
  C  C88  1  0.214100  0.822300  0.531000  1.0  -0.091
  C  C89  1  0.303700  0.774100  0.516200  1.0  0.0903
  C  C90  1  0.357800  0.711700  0.544200  1.0  -0.0778
  C  C91  1  0.084300  0.870400  0.592900  1.0  0.7563
  C  C92  1  0.376000  0.618200  0.616100  1.0  0.7808
  C  C93  1  0.687500  0.646900  0.734200  1.0  -0.1283
  C  C94  1  0.734600  0.715700  0.707000  1.0  -0.0297
  C  C95  1  0.824600  0.764600  0.721600  1.0  -0.1567
  C  C96  1  0.876300  0.742400  0.765000  1.0  -0.0627
  C  C97  1  0.831900  0.670200  0.791100  1.0  0.0466
  C  C98  1  0.734000  0.627600  0.777400  1.0  -0.0621
  C  C99  1  0.589100  0.594800  0.720200  1.0  0.7619
  C  C100  1  0.873000  0.845400  0.695900  1.0  0.7488
  C  C101  1  0.368700  0.431900  0.948500  1.0  -0.1477
  C  C102  1  0.315500  0.407700  0.906100  1.0  -0.0036
  C  C103  1  0.369300  0.417700  0.863800  1.0  -0.1498
  C  C104  1  0.475300  0.455200  0.862100  1.0  -0.0709
  C  C105  1  0.523000  0.480600  0.904800  1.0  0.052
  C  C106  1  0.472500  0.467300  0.947200  1.0  -0.066
  C  C107  1  0.314700  0.419400  0.995700  1.0  0.7674
  C  C108  1  0.317500  0.391500  0.817200  1.0  0.7518
  C  C109  1  0.932900  0.571200  0.674200  1.0  -0.1392
  C  C110  1  0.027800  0.614700  0.686400  1.0  -0.0247
  C  C111  1  0.084600  0.584200  0.726500  1.0  -0.101
  C  C112  1  0.041400  0.515900  0.754900  1.0  -0.0965
  C  C113  1  0.941100  0.480100  0.743000  1.0  0.0747
  C  C114  1  0.885200  0.504800  0.702300  1.0  -0.0659
  C  C115  1  0.876300  0.597700  0.630100  1.0  0.7291
  C  C116  1  0.191800  0.628800  0.741500  1.0  0.7318
  C  C117  1  0.924100  0.613000  0.138400  1.0  -0.1439
  C  C118  1  0.027000  0.653400  0.127100  1.0  -0.0252
  C  C119  1  0.081900  0.627400  0.086500  1.0  -0.0916
  C  C120  1  0.033600  0.562700  0.057000  1.0  -0.0829
  C  C121  1  0.932400  0.525000  0.067100  1.0  0.0589
  C  C122  1  0.876900  0.549400  0.108500  1.0  -0.0476
  C  C123  1  0.866300  0.637600  0.183400  1.0  0.7476
  C  C124  1  0.192500  0.666300  0.075000  1.0  0.7266
  C  C125  1  0.679200  0.305000  0.088600  1.0  -0.1474
  C  C126  1  0.769300  0.253100  0.107300  1.0  -0.0354
  C  C127  1  0.820300  0.191000  0.076800  1.0  -0.1208
  C  C128  1  0.785900  0.177700  0.031000  1.0  -0.0915
  C  C129  1  0.696300  0.225900  0.016200  1.0  0.0885
  C  C130  1  0.642200  0.288300  0.044200  1.0  -0.0784
  C  C131  1  0.915700  0.129600  0.092900  1.0  0.7549
  C  C132  1  0.624000  0.381800  0.116100  1.0  0.778
  C  C133  1  0.312500  0.353100  0.234200  1.0  -0.1279
  C  C134  1  0.265400  0.284300  0.207000  1.0  -0.0315
  C  C135  1  0.175400  0.235400  0.221600  1.0  -0.1579
  C  C136  1  0.123700  0.257600  0.265000  1.0  -0.0645
  C  C137  1  0.168100  0.329800  0.291100  1.0  0.0423
  C  C138  1  0.266000  0.372400  0.277400  1.0  -0.0616
  C  C139  1  0.410900  0.405200  0.220200  1.0  0.7642
  C  C140  1  0.127000  0.154600  0.195900  1.0  0.751
  C  C141  1  0.631300  0.568100  0.448500  1.0  -0.1489
  C  C142  1  0.684500  0.592300  0.406100  1.0  -0.0033
  C  C143  1  0.630700  0.582300  0.363800  1.0  -0.1495
  C  C144  1  0.524700  0.544800  0.362100  1.0  -0.0824
  C  C145  1  0.477000  0.519400  0.404800  1.0  0.0593
  C  C146  1  0.527500  0.532700  0.447200  1.0  -0.0653
  C  C147  1  0.685300  0.580600  0.495700  1.0  0.7674
  C  C148  1  0.682500  0.608500  0.317200  1.0  0.7492
  C  C149  1  0.067100  0.428800  0.174200  1.0  -0.139
  C  C150  1  0.972200  0.385300  0.186400  1.0  -0.0254
  C  C151  1  0.915400  0.415800  0.226500  1.0  -0.1011
  C  C152  1  0.958600  0.484100  0.254900  1.0  -0.0993
  C  C153  1  0.058900  0.519900  0.243000  1.0  0.077
  C  C154  1  0.114800  0.495200  0.202300  1.0  -0.0666
  C  C155  1  0.123700  0.402300  0.130100  1.0  0.7296
  C  C156  1  0.808200  0.371200  0.241500  1.0  0.7312
  C  C157  1  0.424100  0.887000  0.638400  1.0  -0.1443
  C  C158  1  0.527000  0.846600  0.627100  1.0  -0.0244
  C  C159  1  0.581900  0.872600  0.586500  1.0  -0.0922
  C  C160  1  0.533600  0.937300  0.557000  1.0  -0.082
  C  C161  1  0.432400  0.975000  0.567100  1.0  0.0589
  C  C162  1  0.376900  0.950600  0.608500  1.0  -0.0488
  C  C163  1  0.366300  0.862400  0.683400  1.0  0.7487
  C  C164  1  0.692500  0.833700  0.575000  1.0  0.7262
  C  C165  1  0.179200  0.195000  0.588600  1.0  -0.1479
  C  C166  1  0.269300  0.246900  0.607300  1.0  -0.0351
  C  C167  1  0.320300  0.309000  0.576800  1.0  -0.1208
  C  C168  1  0.285900  0.322300  0.531000  1.0  -0.0914
  C  C169  1  0.196300  0.274100  0.516200  1.0  0.089
  C  C170  1  0.142200  0.211700  0.544200  1.0  -0.0779
  C  C171  1  0.415700  0.370400  0.592900  1.0  0.7553
  C  C172  1  0.124000  0.118200  0.616100  1.0  0.7795
  C  C173  1  0.812500  0.146900  0.734200  1.0  -0.1278
  C  C174  1  0.765400  0.215700  0.707000  1.0  -0.0311
  C  C175  1  0.675400  0.264600  0.721600  1.0  -0.1578
  C  C176  1  0.623700  0.242400  0.765000  1.0  -0.0644
  C  C177  1  0.668100  0.170200  0.791100  1.0  0.0435
  C  C178  1  0.766000  0.127600  0.777400  1.0  -0.0615
  C  C179  1  0.910900  0.094800  0.720200  1.0  0.764
  C  C180  1  0.627000  0.345400  0.695900  1.0  0.7495
  C  C181  1  0.131300  0.931900  0.948500  1.0  -0.1488
  C  C182  1  0.184500  0.907700  0.906100  1.0  -0.0029
  C  C183  1  0.130700  0.917700  0.863800  1.0  -0.15
  C  C184  1  0.024700  0.955200  0.862100  1.0  -0.0708
  C  C185  1  0.977000  0.980600  0.904800  1.0  0.0598
  C  C186  1  0.027500  0.967300  0.947200  1.0  -0.066
  C  C187  1  0.185300  0.919400  0.995700  1.0  0.7675
  C  C188  1  0.182500  0.891500  0.817200  1.0  0.7508
  C  C189  1  0.567100  0.071200  0.674200  1.0  -0.1391
  C  C190  1  0.472200  0.114700  0.686400  1.0  -0.0245
  C  C191  1  0.415400  0.084200  0.726500  1.0  -0.102
  C  C192  1  0.458600  0.015900  0.754900  1.0  -0.0981
  C  C193  1  0.558900  0.980100  0.743000  1.0  0.0765
  C  C194  1  0.614800  0.004800  0.702300  1.0  -0.0658
  C  C195  1  0.623700  0.097700  0.630100  1.0  0.7294
  C  C196  1  0.308200  0.128800  0.741500  1.0  0.7306
  C  C197  1  0.575900  0.113000  0.138400  1.0  -0.1441
  C  C198  1  0.473000  0.153400  0.127100  1.0  -0.0253
  C  C199  1  0.418100  0.127400  0.086500  1.0  -0.0919
  C  C200  1  0.466400  0.062700  0.057000  1.0  -0.0834
  C  C201  1  0.567600  0.025000  0.067100  1.0  0.0616
  C  C202  1  0.623100  0.049400  0.108500  1.0  -0.0478
  C  C203  1  0.633700  0.137600  0.183400  1.0  0.7482
  C  C204  1  0.307500  0.166300  0.075000  1.0  0.7291
  C  C205  1  0.820800  0.805000  0.088600  1.0  -0.1472
  C  C206  1  0.730700  0.753100  0.107300  1.0  -0.0351
  C  C207  1  0.679700  0.691000  0.076800  1.0  -0.1201
  C  C208  1  0.714100  0.677700  0.031000  1.0  -0.0912
  C  C209  1  0.803700  0.725900  0.016200  1.0  0.0899
  C  C210  1  0.857800  0.788300  0.044200  1.0  -0.0781
  C  C211  1  0.584300  0.629600  0.092900  1.0  0.7562
  C  C212  1  0.876000  0.881800  0.116100  1.0  0.7796
  C  C213  1  0.187500  0.853100  0.234200  1.0  -0.1283
  C  C214  1  0.234600  0.784300  0.207000  1.0  -0.0301
  C  C215  1  0.324600  0.735400  0.221600  1.0  -0.1566
  C  C216  1  0.376300  0.757600  0.265000  1.0  -0.0626
  C  C217  1  0.331900  0.829800  0.291100  1.0  0.0458
  C  C218  1  0.234000  0.872400  0.277400  1.0  -0.0624
  C  C219  1  0.089100  0.905200  0.220200  1.0  0.7619
  C  C220  1  0.373000  0.654600  0.195900  1.0  0.7474
  C  C221  1  0.868700  0.068100  0.448500  1.0  -0.1477
  C  C222  1  0.815500  0.092300  0.406100  1.0  -0.0043
  C  C223  1  0.869300  0.082300  0.363800  1.0  -0.149
  C  C224  1  0.975300  0.044800  0.362100  1.0  -0.0826
  C  C225  1  0.023000  0.019400  0.404800  1.0  0.0522
  C  C226  1  0.972500  0.032700  0.447200  1.0  -0.0655
  C  C227  1  0.814700  0.080600  0.495700  1.0  0.7673
  C  C228  1  0.817500  0.108500  0.317200  1.0  0.7504
  C  C229  1  0.432900  0.928800  0.174200  1.0  -0.1392
  C  C230  1  0.527800  0.885300  0.186400  1.0  -0.0255
  C  C231  1  0.584600  0.915800  0.226500  1.0  -0.0999
  C  C232  1  0.541400  0.984100  0.254900  1.0  -0.0974
  C  C233  1  0.441100  0.019900  0.243000  1.0  0.0756
  C  C234  1  0.385200  0.995200  0.202300  1.0  -0.0672
  C  C235  1  0.376300  0.902300  0.130100  1.0  0.7291
  C  C236  1  0.691800  0.871200  0.241500  1.0  0.7321
  Br  Br237  1  0.132680  0.557470  0.524710  1.0  -0.0422
  Br  Br238  1  0.354000  0.790120  0.453410  1.0  -0.1199
  Br  Br239  1  0.906570  0.633300  0.845950  1.0  -0.0264
  Br  Br240  1  0.669500  0.526420  0.902760  1.0  -0.0973
  Br  Br241  1  0.876180  0.391190  0.783880  1.0  -0.0603
  Br  Br242  1  0.867320  0.442530  0.024710  1.0  -0.0426
  Br  Br243  1  0.646000  0.209880  0.953410  1.0  -0.1201
  Br  Br244  1  0.093430  0.366700  0.345950  1.0  -0.0269
  Br  Br245  1  0.330500  0.473580  0.402760  1.0  -0.097
  Br  Br246  1  0.123820  0.608810  0.283880  1.0  -0.0601
  Br  Br247  1  0.367320  0.057470  0.524710  1.0  -0.0427
  Br  Br248  1  0.146000  0.290120  0.453410  1.0  -0.12
  Br  Br249  1  0.593430  0.133300  0.845950  1.0  -0.0269
  Br  Br250  1  0.830500  0.026420  0.902760  1.0  -0.0964
  Br  Br251  1  0.623820  0.891190  0.783880  1.0  -0.0599
  Br  Br252  1  0.632680  0.942530  0.024710  1.0  -0.042
  Br  Br253  1  0.854000  0.709880  0.953410  1.0  -0.12
  Br  Br254  1  0.406570  0.866700  0.345950  1.0  -0.0262
  Br  Br255  1  0.169500  0.973580  0.402760  1.0  -0.0978
  Br  Br256  1  0.376180  0.108810  0.283880  1.0  -0.0607
  O  O257  1  0.221600  0.401600  0.692600  1.0  -0.7731
  O  O258  1  0.086200  0.305800  0.710400  1.0  -0.5974
  O  O259  1  0.802700  0.245600  0.573600  1.0  -0.5949
  O  O260  1  0.731700  0.387600  0.563400  1.0  -0.7172
  O  O261  1  0.334000  0.595100  0.655100  1.0  -0.7402
  O  O262  1  0.457300  0.585900  0.598400  1.0  -0.6976
  O  O263  1  0.080000  0.898100  0.635300  1.0  -0.8361
  O  O264  1  0.012800  0.891600  0.563300  1.0  -0.6932
  O  O265  1  0.519600  0.572900  0.751100  1.0  -0.6824
  O  O266  1  0.577400  0.569000  0.678200  1.0  -0.8346
  O  O267  1  0.829700  0.872200  0.658100  1.0  -0.7219
  O  O268  1  0.957600  0.883200  0.715300  1.0  -0.7322
  O  O269  1  0.367000  0.440300  0.030600  1.0  -0.7033
  O  O270  1  0.218600  0.383600  0.995300  1.0  -0.647
  O  O271  1  0.221200  0.353500  0.819400  1.0  -0.6422
  O  O272  1  0.368600  0.405000  0.781600  1.0  -0.6972
  O  O273  1  0.783800  0.562000  0.620700  1.0  -0.7845
  O  O274  1  0.923000  0.657200  0.603000  1.0  -0.6006
  O  O275  1  0.194100  0.714100  0.741900  1.0  -0.5824
  O  O276  1  0.272000  0.578700  0.751600  1.0  -0.7282
  O  O277  1  0.778400  0.598400  0.192600  1.0  -0.7743
  O  O278  1  0.913800  0.694200  0.210400  1.0  -0.5977
  O  O279  1  0.197300  0.754400  0.073600  1.0  -0.5951
  O  O280  1  0.268300  0.612400  0.063400  1.0  -0.7175
  O  O281  1  0.666000  0.404900  0.155100  1.0  -0.7427
  O  O282  1  0.542700  0.414100  0.098400  1.0  -0.6976
  O  O283  1  0.920000  0.101900  0.135300  1.0  -0.836
  O  O284  1  0.987200  0.108400  0.063300  1.0  -0.6923
  O  O285  1  0.480400  0.427100  0.251100  1.0  -0.6823
  O  O286  1  0.422600  0.431000  0.178200  1.0  -0.8342
  O  O287  1  0.170300  0.127800  0.158100  1.0  -0.7252
  O  O288  1  0.042400  0.116800  0.215300  1.0  -0.7328
  O  O289  1  0.633000  0.559700  0.530600  1.0  -0.7033
  O  O290  1  0.781400  0.616400  0.495300  1.0  -0.6461
  O  O291  1  0.778800  0.646500  0.319400  1.0  -0.6408
  O  O292  1  0.631400  0.595000  0.281600  1.0  -0.6968
  O  O293  1  0.216200  0.438000  0.120700  1.0  -0.7815
  O  O294  1  0.077000  0.342800  0.103000  1.0  -0.6013
  O  O295  1  0.805900  0.285900  0.241900  1.0  -0.5819
  O  O296  1  0.728000  0.421300  0.251600  1.0  -0.7275
  O  O297  1  0.278400  0.901600  0.692600  1.0  -0.7744
  O  O298  1  0.413800  0.805800  0.710400  1.0  -0.5972
  O  O299  1  0.697300  0.745600  0.573600  1.0  -0.5952
  O  O300  1  0.768300  0.887600  0.563400  1.0  -0.7174
  O  O301  1  0.166000  0.095100  0.655100  1.0  -0.7429
  O  O302  1  0.042700  0.085900  0.598400  1.0  -0.6975
  O  O303  1  0.420000  0.398100  0.635300  1.0  -0.836
  O  O304  1  0.487200  0.391600  0.563300  1.0  -0.6925
  O  O305  1  0.980400  0.072900  0.751100  1.0  -0.6828
  O  O306  1  0.922600  0.069000  0.678200  1.0  -0.8349
  O  O307  1  0.670300  0.372200  0.658100  1.0  -0.7244
  O  O308  1  0.542400  0.383200  0.715300  1.0  -0.732
  O  O309  1  0.133000  0.940300  0.030600  1.0  -0.7033
  O  O310  1  0.281400  0.883600  0.995300  1.0  -0.6465
  O  O311  1  0.278800  0.853500  0.819400  1.0  -0.6409
  O  O312  1  0.131400  0.905000  0.781600  1.0  -0.6975
  O  O313  1  0.716200  0.062000  0.620700  1.0  -0.7814
  O  O314  1  0.577000  0.157200  0.603000  1.0  -0.6008
  O  O315  1  0.305900  0.214100  0.741900  1.0  -0.5829
  O  O316  1  0.228000  0.078700  0.751600  1.0  -0.7279
  O  O317  1  0.721600  0.098400  0.192600  1.0  -0.7728
  O  O318  1  0.586200  0.194200  0.210400  1.0  -0.5976
  O  O319  1  0.302700  0.254400  0.073600  1.0  -0.5953
  O  O320  1  0.231700  0.112400  0.063400  1.0  -0.7177
  O  O321  1  0.834000  0.904900  0.155100  1.0  -0.7399
  O  O322  1  0.957300  0.914100  0.098400  1.0  -0.6975
  O  O323  1  0.580000  0.601900  0.135300  1.0  -0.836
  O  O324  1  0.512800  0.608400  0.063300  1.0  -0.6929
  O  O325  1  0.019600  0.927100  0.251100  1.0  -0.6824
  O  O326  1  0.077400  0.931000  0.178200  1.0  -0.834
  O  O327  1  0.329700  0.627800  0.158100  1.0  -0.723
  O  O328  1  0.457600  0.616800  0.215300  1.0  -0.7323
  O  O329  1  0.867000  0.059700  0.530600  1.0  -0.7034
  O  O330  1  0.718600  0.116400  0.495300  1.0  -0.6468
  O  O331  1  0.721200  0.146500  0.319400  1.0  -0.6431
  O  O332  1  0.868600  0.095000  0.281600  1.0  -0.6969
  O  O333  1  0.283800  0.938000  0.120700  1.0  -0.7842
  O  O334  1  0.423000  0.842800  0.103000  1.0  -0.6007
  O  O335  1  0.694100  0.785900  0.241900  1.0  -0.5818
  O  O336  1  0.772000  0.921300  0.251600  1.0  -0.7277
