# generated using pymatgen
data_Zn2H13C24N2O9
_symmetry_space_group_name_H-M   'P 1'
_cell_length_a   13.65700000
_cell_length_b   18.77700000
_cell_length_c   19.98300000
_cell_angle_alpha   90.00000000
_cell_angle_beta   90.00000000
_cell_angle_gamma   90.00000000
_symmetry_Int_Tables_number   1
_chemical_formula_structural   Zn2H13C24N2O9
_chemical_formula_sum   'Zn16 H104 C192 N16 O72'
_cell_volume   5124.39034269
_cell_formula_units_Z   8
loop_
 _symmetry_equiv_pos_site_id
 _symmetry_equiv_pos_as_xyz
  1  'x, y, z'
loop_
 _atom_site_type_symbol
 _atom_site_label
 _atom_site_symmetry_multiplicity
 _atom_site_fract_x
 _atom_site_fract_y
 _atom_site_fract_z
 _atom_site_occupancy
 _atom_site_charge
  Zn  Zn1  1  0.366320  0.060720  0.107270  1.0  1.0189
  Zn  Zn2  1  0.406520  0.951080  0.990300  1.0  0.9457
  Zn  Zn3  1  0.633680  0.439280  0.607270  1.0  1.0189
  Zn  Zn4  1  0.593480  0.548920  0.490300  1.0  0.9457
  Zn  Zn5  1  0.633680  0.939280  0.892730  1.0  1.0193
  Zn  Zn6  1  0.593480  0.048920  0.009700  1.0  0.9458
  Zn  Zn7  1  0.366320  0.560720  0.392730  1.0  1.0189
  Zn  Zn8  1  0.406520  0.451080  0.509700  1.0  0.9457
  Zn  Zn9  1  0.866320  0.939280  0.392730  1.0  1.0192
  Zn  Zn10  1  0.906520  0.048920  0.509700  1.0  0.9454
  Zn  Zn11  1  0.133680  0.560720  0.892730  1.0  1.0191
  Zn  Zn12  1  0.093480  0.451080  0.009700  1.0  0.9459
  Zn  Zn13  1  0.133680  0.060720  0.607270  1.0  1.0188
  Zn  Zn14  1  0.093480  0.951080  0.490300  1.0  0.9461
  Zn  Zn15  1  0.866320  0.439280  0.107270  1.0  1.0191
  Zn  Zn16  1  0.906520  0.548920  0.990300  1.0  0.9456
  H  H17  1  0.410300  0.688000  0.214800  1.0  0.1148
  H  H18  1  0.418900  0.776000  0.134700  1.0  0.0906
  H  H19  1  0.397600  0.925200  0.274500  1.0  0.1021
  H  H20  1  0.385200  0.838600  0.355000  1.0  0.0977
  H  H21  1  0.041500  0.060700  0.096100  1.0  0.1017
  H  H22  1  0.118500  0.949000  0.934400  1.0  0.097
  H  H23  1  0.399400  0.786700  0.020400  1.0  0.0824
  H  H24  1  0.381700  0.678200  0.963000  1.0  0.124
  H  H25  1  0.360200  0.681000  0.848600  1.0  0.1028
  H  H26  1  0.327600  0.999800  0.704500  1.0  0.1053
  H  H27  1  0.332100  0.096500  0.773000  1.0  0.128
  H  H28  1  0.364300  0.081700  0.885500  1.0  0.0911
  H  H29  1  0.566000  0.910000  0.995000  1.0  0.449
  H  H30  1  0.589700  0.812000  0.714800  1.0  0.1144
  H  H31  1  0.581100  0.724000  0.634700  1.0  0.0908
  H  H32  1  0.602400  0.574800  0.774500  1.0  0.1021
  H  H33  1  0.614800  0.661400  0.855000  1.0  0.0977
  H  H34  1  0.958500  0.439300  0.596100  1.0  0.1019
  H  H35  1  0.881500  0.551000  0.434400  1.0  0.0969
  H  H36  1  0.600600  0.713300  0.520400  1.0  0.0825
  H  H37  1  0.618300  0.821800  0.463000  1.0  0.1238
  H  H38  1  0.639800  0.819000  0.348600  1.0  0.103
  H  H39  1  0.672400  0.500200  0.204500  1.0  0.1048
  H  H40  1  0.667900  0.403500  0.273000  1.0  0.128
  H  H41  1  0.635700  0.418300  0.385500  1.0  0.0919
  H  H42  1  0.434000  0.590000  0.495000  1.0  0.4502
  H  H43  1  0.589700  0.312000  0.785200  1.0  0.1152
  H  H44  1  0.581100  0.224000  0.865300  1.0  0.0908
  H  H45  1  0.602400  0.074800  0.725500  1.0  0.102
  H  H46  1  0.614800  0.161400  0.645000  1.0  0.0986
  H  H47  1  0.958500  0.939300  0.903900  1.0  0.1026
  H  H48  1  0.881500  0.051000  0.065600  1.0  0.0966
  H  H49  1  0.600600  0.213300  0.979600  1.0  0.083
  H  H50  1  0.618300  0.321800  0.037000  1.0  0.1233
  H  H51  1  0.639800  0.319000  0.151400  1.0  0.1027
  H  H52  1  0.672400  0.000200  0.295500  1.0  0.1053
  H  H53  1  0.667900  0.903500  0.227000  1.0  0.128
  H  H54  1  0.635700  0.918300  0.114500  1.0  0.0915
  H  H55  1  0.434000  0.090000  0.005000  1.0  0.4504
  H  H56  1  0.410300  0.188000  0.285200  1.0  0.115
  H  H57  1  0.418900  0.276000  0.365300  1.0  0.0908
  H  H58  1  0.397600  0.425200  0.225500  1.0  0.1025
  H  H59  1  0.385200  0.338600  0.145000  1.0  0.0988
  H  H60  1  0.041500  0.560700  0.403900  1.0  0.1019
  H  H61  1  0.118500  0.449000  0.565600  1.0  0.0971
  H  H62  1  0.399400  0.286700  0.479600  1.0  0.0829
  H  H63  1  0.381700  0.178200  0.537000  1.0  0.1231
  H  H64  1  0.360200  0.181000  0.651400  1.0  0.1027
  H  H65  1  0.327600  0.499800  0.795500  1.0  0.1056
  H  H66  1  0.332100  0.596500  0.727000  1.0  0.128
  H  H67  1  0.364300  0.581700  0.614500  1.0  0.0912
  H  H68  1  0.566000  0.410000  0.505000  1.0  0.4491
  H  H69  1  0.910300  0.312000  0.285200  1.0  0.1153
  H  H70  1  0.918900  0.224000  0.365300  1.0  0.0909
  H  H71  1  0.897600  0.074800  0.225500  1.0  0.1022
  H  H72  1  0.885200  0.161400  0.145000  1.0  0.0987
  H  H73  1  0.541500  0.939300  0.403900  1.0  0.1023
  H  H74  1  0.618500  0.051000  0.565600  1.0  0.0967
  H  H75  1  0.899400  0.213300  0.479600  1.0  0.0824
  H  H76  1  0.881700  0.321800  0.537000  1.0  0.1233
  H  H77  1  0.860200  0.319000  0.651400  1.0  0.1029
  H  H78  1  0.827600  0.000200  0.795500  1.0  0.1057
  H  H79  1  0.832100  0.903500  0.727000  1.0  0.128
  H  H80  1  0.864300  0.918300  0.614500  1.0  0.0914
  H  H81  1  0.066000  0.090000  0.505000  1.0  0.4503
  H  H82  1  0.089700  0.188000  0.785200  1.0  0.1149
  H  H83  1  0.081100  0.276000  0.865300  1.0  0.0908
  H  H84  1  0.102400  0.425200  0.725500  1.0  0.1023
  H  H85  1  0.114800  0.338600  0.645000  1.0  0.0987
  H  H86  1  0.458500  0.560700  0.903900  1.0  0.1022
  H  H87  1  0.381500  0.449000  0.065600  1.0  0.0968
  H  H88  1  0.100600  0.286700  0.979600  1.0  0.0834
  H  H89  1  0.118300  0.178200  0.037000  1.0  0.123
  H  H90  1  0.139800  0.181000  0.151400  1.0  0.1028
  H  H91  1  0.172400  0.499800  0.295500  1.0  0.1052
  H  H92  1  0.167900  0.596500  0.227000  1.0  0.1278
  H  H93  1  0.135700  0.581700  0.114500  1.0  0.0914
  H  H94  1  0.934000  0.410000  0.005000  1.0  0.4486
  H  H95  1  0.089700  0.688000  0.714800  1.0  0.1148
  H  H96  1  0.081100  0.776000  0.634700  1.0  0.0905
  H  H97  1  0.102400  0.925200  0.774500  1.0  0.102
  H  H98  1  0.114800  0.838600  0.855000  1.0  0.0977
  H  H99  1  0.458500  0.060700  0.596100  1.0  0.1018
  H  H100  1  0.381500  0.949000  0.434400  1.0  0.0969
  H  H101  1  0.100600  0.786700  0.520400  1.0  0.0828
  H  H102  1  0.118300  0.678200  0.463000  1.0  0.124
  H  H103  1  0.139800  0.681000  0.348600  1.0  0.1029
  H  H104  1  0.172400  0.999800  0.204500  1.0  0.1048
  H  H105  1  0.167900  0.096500  0.273000  1.0  0.1279
  H  H106  1  0.135700  0.081700  0.385500  1.0  0.0912
  H  H107  1  0.934000  0.910000  0.495000  1.0  0.4491
  H  H108  1  0.910300  0.812000  0.214800  1.0  0.1144
  H  H109  1  0.918900  0.724000  0.134700  1.0  0.0908
  H  H110  1  0.897600  0.574800  0.274500  1.0  0.1021
  H  H111  1  0.885200  0.661400  0.355000  1.0  0.0978
  H  H112  1  0.541500  0.439300  0.096100  1.0  0.1018
  H  H113  1  0.618500  0.551000  0.934400  1.0  0.0968
  H  H114  1  0.899400  0.713300  0.020400  1.0  0.0821
  H  H115  1  0.881700  0.821800  0.963000  1.0  0.1239
  H  H116  1  0.860200  0.819000  0.848600  1.0  0.1032
  H  H117  1  0.827600  0.500200  0.704500  1.0  0.1053
  H  H118  1  0.832100  0.403500  0.773000  1.0  0.1282
  H  H119  1  0.864300  0.418300  0.885500  1.0  0.0917
  H  H120  1  0.066000  0.590000  0.995000  1.0  0.4501
  C  C121  1  0.395500  0.754100  0.293100  1.0  -0.1159
  C  C122  1  0.406500  0.735700  0.227300  1.0  -0.0693
  C  C123  1  0.411900  0.789100  0.179300  1.0  -0.0159
  C  C124  1  0.407300  0.859400  0.194400  1.0  -0.1384
  C  C125  1  0.398700  0.877500  0.262100  1.0  -0.0623
  C  C126  1  0.392100  0.825600  0.310400  1.0  -0.0804
  C  C127  1  0.385400  0.697900  0.347300  1.0  0.6488
  C  C128  1  0.409400  0.916000  0.141600  1.0  0.6759
  C  C129  1  0.204100  0.007500  0.038500  1.0  0.6903
  C  C130  1  0.097300  0.003300  0.019600  1.0  -0.124
  C  C131  1  0.024800  0.035600  0.057600  1.0  -0.0677
  C  C132  1  0.070400  0.969200  0.961300  1.0  -0.0442
  C  C133  1  0.390100  0.787100  0.974300  1.0  0.2184
  C  C134  1  0.379600  0.721200  0.940100  1.0  -0.1372
  C  C135  1  0.366500  0.723200  0.872600  1.0  0.0689
  C  C136  1  0.362400  0.787200  0.840200  1.0  -0.1762
  C  C137  1  0.351000  0.787800  0.767700  1.0  0.3552
  C  C138  1  0.348400  0.860400  0.733900  1.0  0.3222
  C  C139  1  0.351400  0.926300  0.777100  1.0  -0.1456
  C  C140  1  0.338600  0.994200  0.750200  1.0  0.0651
  C  C141  1  0.342100  0.051100  0.790300  1.0  -0.1527
  C  C142  1  0.361100  0.041700  0.858100  1.0  0.1859
  C  C143  1  0.366800  0.919200  0.844000  1.0  0.1845
  C  C144  1  0.373600  0.848500  0.877100  1.0  0.2068
  C  C145  1  0.604500  0.745900  0.793100  1.0  -0.1149
  C  C146  1  0.593500  0.764300  0.727300  1.0  -0.0704
  C  C147  1  0.588100  0.710900  0.679300  1.0  -0.0168
  C  C148  1  0.592700  0.640600  0.694400  1.0  -0.1387
  C  C149  1  0.601300  0.622500  0.762100  1.0  -0.0613
  C  C150  1  0.607900  0.674400  0.810400  1.0  -0.0798
  C  C151  1  0.614600  0.802100  0.847300  1.0  0.6487
  C  C152  1  0.590600  0.584000  0.641600  1.0  0.6754
  C  C153  1  0.795900  0.492500  0.538500  1.0  0.691
  C  C154  1  0.902700  0.496700  0.519600  1.0  -0.1249
  C  C155  1  0.975200  0.464400  0.557600  1.0  -0.069
  C  C156  1  0.929600  0.530800  0.461300  1.0  -0.0449
  C  C157  1  0.609900  0.712900  0.474300  1.0  0.2182
  C  C158  1  0.620400  0.778800  0.440100  1.0  -0.136
  C  C159  1  0.633500  0.776800  0.372600  1.0  0.0667
  C  C160  1  0.637600  0.712800  0.340200  1.0  -0.1769
  C  C161  1  0.649000  0.712200  0.267700  1.0  0.3558
  C  C162  1  0.651600  0.639600  0.233900  1.0  0.3225
  C  C163  1  0.648600  0.573700  0.277100  1.0  -0.1442
  C  C164  1  0.661400  0.505800  0.250200  1.0  0.0656
  C  C165  1  0.657900  0.448900  0.290300  1.0  -0.1516
  C  C166  1  0.638900  0.458300  0.358100  1.0  0.1878
  C  C167  1  0.633200  0.580800  0.344000  1.0  0.1847
  C  C168  1  0.626400  0.651500  0.377100  1.0  0.2068
  C  C169  1  0.604500  0.245900  0.706900  1.0  -0.1154
  C  C170  1  0.593500  0.264300  0.772700  1.0  -0.0693
  C  C171  1  0.588100  0.210900  0.820700  1.0  -0.016
  C  C172  1  0.592700  0.140600  0.805600  1.0  -0.1375
  C  C173  1  0.601300  0.122500  0.737900  1.0  -0.0618
  C  C174  1  0.607900  0.174400  0.689600  1.0  -0.0759
  C  C175  1  0.614600  0.302100  0.652700  1.0  0.6492
  C  C176  1  0.590600  0.084000  0.858400  1.0  0.6752
  C  C177  1  0.795900  0.992500  0.961500  1.0  0.6906
  C  C178  1  0.902700  0.996700  0.980400  1.0  -0.1248
  C  C179  1  0.975200  0.964400  0.942400  1.0  -0.0682
  C  C180  1  0.929600  0.030800  0.038700  1.0  -0.0456
  C  C181  1  0.609900  0.212900  0.025700  1.0  0.2179
  C  C182  1  0.620400  0.278800  0.059900  1.0  -0.1357
  C  C183  1  0.633500  0.276800  0.127400  1.0  0.0659
  C  C184  1  0.637600  0.212800  0.159800  1.0  -0.1762
  C  C185  1  0.649000  0.212200  0.232300  1.0  0.3547
  C  C186  1  0.651600  0.139600  0.266100  1.0  0.3213
  C  C187  1  0.648600  0.073700  0.222900  1.0  -0.1434
  C  C188  1  0.661400  0.005800  0.249800  1.0  0.0699
  C  C189  1  0.657900  0.948900  0.209700  1.0  -0.1514
  C  C190  1  0.638900  0.958300  0.141900  1.0  0.1873
  C  C191  1  0.633200  0.080800  0.156000  1.0  0.1846
  C  C192  1  0.626400  0.151500  0.122900  1.0  0.2071
  C  C193  1  0.395500  0.254100  0.206900  1.0  -0.1165
  C  C194  1  0.406500  0.235700  0.272700  1.0  -0.0678
  C  C195  1  0.411900  0.289100  0.320700  1.0  -0.0166
  C  C196  1  0.407300  0.359400  0.305600  1.0  -0.1378
  C  C197  1  0.398700  0.377500  0.237900  1.0  -0.0624
  C  C198  1  0.392100  0.325600  0.189600  1.0  -0.0778
  C  C199  1  0.385400  0.197900  0.152700  1.0  0.6488
  C  C200  1  0.409400  0.416000  0.358400  1.0  0.6757
  C  C201  1  0.204100  0.507500  0.461500  1.0  0.69
  C  C202  1  0.097300  0.503300  0.480400  1.0  -0.1239
  C  C203  1  0.024800  0.535600  0.442400  1.0  -0.0671
  C  C204  1  0.070400  0.469200  0.538700  1.0  -0.0446
  C  C205  1  0.390100  0.287100  0.525700  1.0  0.2188
  C  C206  1  0.379600  0.221200  0.559900  1.0  -0.1364
  C  C207  1  0.366500  0.223200  0.627400  1.0  0.0682
  C  C208  1  0.362400  0.287200  0.659800  1.0  -0.1757
  C  C209  1  0.351000  0.287800  0.732300  1.0  0.3544
  C  C210  1  0.348400  0.360400  0.766100  1.0  0.3221
  C  C211  1  0.351400  0.426300  0.722900  1.0  -0.1446
  C  C212  1  0.338600  0.494200  0.749800  1.0  0.0691
  C  C213  1  0.342100  0.551100  0.709700  1.0  -0.1526
  C  C214  1  0.361100  0.541700  0.641900  1.0  0.1855
  C  C215  1  0.366800  0.419200  0.656000  1.0  0.1844
  C  C216  1  0.373600  0.348500  0.622900  1.0  0.2069
  C  C217  1  0.895500  0.245900  0.206900  1.0  -0.1157
  C  C218  1  0.906500  0.264300  0.272700  1.0  -0.0688
  C  C219  1  0.911900  0.210900  0.320700  1.0  -0.0157
  C  C220  1  0.907300  0.140600  0.305600  1.0  -0.1375
  C  C221  1  0.898700  0.122500  0.237900  1.0  -0.0617
  C  C222  1  0.892100  0.174400  0.189600  1.0  -0.0765
  C  C223  1  0.885400  0.302100  0.152700  1.0  0.6493
  C  C224  1  0.909400  0.084000  0.358400  1.0  0.6751
  C  C225  1  0.704100  0.992500  0.461500  1.0  0.6898
  C  C226  1  0.597300  0.996700  0.480400  1.0  -0.1244
  C  C227  1  0.524800  0.964400  0.442400  1.0  -0.069
  C  C228  1  0.570400  0.030800  0.538700  1.0  -0.045
  C  C229  1  0.890100  0.212900  0.525700  1.0  0.2184
  C  C230  1  0.879600  0.278800  0.559900  1.0  -0.1356
  C  C231  1  0.866500  0.276800  0.627400  1.0  0.0683
  C  C232  1  0.862400  0.212800  0.659800  1.0  -0.1755
  C  C233  1  0.851000  0.212200  0.732300  1.0  0.3548
  C  C234  1  0.848400  0.139600  0.766100  1.0  0.3219
  C  C235  1  0.851400  0.073700  0.722900  1.0  -0.1444
  C  C236  1  0.838600  0.005800  0.749800  1.0  0.0695
  C  C237  1  0.842100  0.948900  0.709700  1.0  -0.1514
  C  C238  1  0.861100  0.958300  0.641900  1.0  0.1868
  C  C239  1  0.866800  0.080800  0.656000  1.0  0.1845
  C  C240  1  0.873600  0.151500  0.622900  1.0  0.2069
  C  C241  1  0.104500  0.254100  0.706900  1.0  -0.1164
  C  C242  1  0.093500  0.235700  0.772700  1.0  -0.0683
  C  C243  1  0.088100  0.289100  0.820700  1.0  -0.0168
  C  C244  1  0.092700  0.359400  0.805600  1.0  -0.1377
  C  C245  1  0.101300  0.377500  0.737900  1.0  -0.0624
  C  C246  1  0.107900  0.325600  0.689600  1.0  -0.0772
  C  C247  1  0.114600  0.197900  0.652700  1.0  0.6488
  C  C248  1  0.090600  0.416000  0.858400  1.0  0.6757
  C  C249  1  0.295900  0.507500  0.961500  1.0  0.6907
  C  C250  1  0.402700  0.503300  0.980400  1.0  -0.1248
  C  C251  1  0.475200  0.535600  0.942400  1.0  -0.0697
  C  C252  1  0.429600  0.469200  0.038700  1.0  -0.0451
  C  C253  1  0.109900  0.287100  0.025700  1.0  0.2182
  C  C254  1  0.120400  0.221200  0.059900  1.0  -0.1363
  C  C255  1  0.133500  0.223200  0.127400  1.0  0.0658
  C  C256  1  0.137600  0.287200  0.159800  1.0  -0.1764
  C  C257  1  0.149000  0.287800  0.232300  1.0  0.3543
  C  C258  1  0.151600  0.360400  0.266100  1.0  0.3216
  C  C259  1  0.148600  0.426300  0.222900  1.0  -0.1437
  C  C260  1  0.161400  0.494200  0.249800  1.0  0.0694
  C  C261  1  0.157900  0.551100  0.209700  1.0  -0.1518
  C  C262  1  0.138900  0.541700  0.141900  1.0  0.1857
  C  C263  1  0.133200  0.419200  0.156000  1.0  0.1847
  C  C264  1  0.126400  0.348500  0.122900  1.0  0.2072
  C  C265  1  0.104500  0.754100  0.793100  1.0  -0.1158
  C  C266  1  0.093500  0.735700  0.727300  1.0  -0.0696
  C  C267  1  0.088100  0.789100  0.679300  1.0  -0.016
  C  C268  1  0.092700  0.859400  0.694400  1.0  -0.1383
  C  C269  1  0.101300  0.877500  0.762100  1.0  -0.0621
  C  C270  1  0.107900  0.825600  0.810400  1.0  -0.0796
  C  C271  1  0.114600  0.697900  0.847300  1.0  0.6491
  C  C272  1  0.090600  0.916000  0.641600  1.0  0.6758
  C  C273  1  0.295900  0.007500  0.538500  1.0  0.6912
  C  C274  1  0.402700  0.003300  0.519600  1.0  -0.1249
  C  C275  1  0.475200  0.035600  0.557600  1.0  -0.0669
  C  C276  1  0.429600  0.969200  0.461300  1.0  -0.0446
  C  C277  1  0.109900  0.787100  0.474300  1.0  0.2178
  C  C278  1  0.120400  0.721200  0.440100  1.0  -0.1371
  C  C279  1  0.133500  0.723200  0.372600  1.0  0.0664
  C  C280  1  0.137600  0.787200  0.340200  1.0  -0.177
  C  C281  1  0.149000  0.787800  0.267700  1.0  0.3555
  C  C282  1  0.151600  0.860400  0.233900  1.0  0.3226
  C  C283  1  0.148600  0.926300  0.277100  1.0  -0.1448
  C  C284  1  0.161400  0.994200  0.250200  1.0  0.0653
  C  C285  1  0.157900  0.051100  0.290300  1.0  -0.1517
  C  C286  1  0.138900  0.041700  0.358100  1.0  0.186
  C  C287  1  0.133200  0.919200  0.344000  1.0  0.1847
  C  C288  1  0.126400  0.848500  0.377100  1.0  0.207
  C  C289  1  0.895500  0.745900  0.293100  1.0  -0.1153
  C  C290  1  0.906500  0.764300  0.227300  1.0  -0.0702
  C  C291  1  0.911900  0.710900  0.179300  1.0  -0.0169
  C  C292  1  0.907300  0.640600  0.194400  1.0  -0.1387
  C  C293  1  0.898700  0.622500  0.262100  1.0  -0.0613
  C  C294  1  0.892100  0.674400  0.310400  1.0  -0.0805
  C  C295  1  0.885400  0.802100  0.347300  1.0  0.6484
  C  C296  1  0.909400  0.584000  0.141600  1.0  0.6755
  C  C297  1  0.704100  0.492500  0.038500  1.0  0.6901
  C  C298  1  0.597300  0.496700  0.019600  1.0  -0.1245
  C  C299  1  0.524800  0.464400  0.057600  1.0  -0.0663
  C  C300  1  0.570400  0.530800  0.961300  1.0  -0.0447
  C  C301  1  0.890100  0.712900  0.974300  1.0  0.2186
  C  C302  1  0.879600  0.778800  0.940100  1.0  -0.1361
  C  C303  1  0.866500  0.776800  0.872600  1.0  0.0693
  C  C304  1  0.862400  0.712800  0.840200  1.0  -0.1762
  C  C305  1  0.851000  0.712200  0.767700  1.0  0.3556
  C  C306  1  0.848400  0.639600  0.733900  1.0  0.3221
  C  C307  1  0.851400  0.573700  0.777100  1.0  -0.1452
  C  C308  1  0.838600  0.505800  0.750200  1.0  0.0654
  C  C309  1  0.842100  0.448900  0.790300  1.0  -0.1517
  C  C310  1  0.861100  0.458300  0.858100  1.0  0.1874
  C  C311  1  0.866800  0.580800  0.844000  1.0  0.1846
  C  C312  1  0.873600  0.651500  0.877100  1.0  0.2066
  N  N313  1  0.386900  0.848800  0.942900  1.0  -0.3209
  N  N314  1  0.375100  0.976800  0.885900  1.0  -0.3499
  N  N315  1  0.613100  0.651200  0.442900  1.0  -0.3216
  N  N316  1  0.624900  0.523200  0.385900  1.0  -0.3489
  N  N317  1  0.613100  0.151200  0.057100  1.0  -0.3219
  N  N318  1  0.624900  0.023200  0.114100  1.0  -0.3492
  N  N319  1  0.386900  0.348800  0.557100  1.0  -0.3211
  N  N320  1  0.375100  0.476800  0.614100  1.0  -0.3501
  N  N321  1  0.886900  0.151200  0.557100  1.0  -0.3224
  N  N322  1  0.875100  0.023200  0.614100  1.0  -0.3497
  N  N323  1  0.113100  0.348800  0.057100  1.0  -0.3208
  N  N324  1  0.124900  0.476800  0.114100  1.0  -0.3496
  N  N325  1  0.113100  0.848800  0.442900  1.0  -0.3205
  N  N326  1  0.124900  0.976800  0.385900  1.0  -0.3493
  N  N327  1  0.886900  0.651200  0.942900  1.0  -0.3219
  N  N328  1  0.875100  0.523200  0.885900  1.0  -0.3495
  O  O329  1  0.389800  0.633400  0.327200  1.0  -0.6348
  O  O330  1  0.372000  0.717200  0.404000  1.0  -0.5924
  O  O331  1  0.424500  0.898200  0.082800  1.0  -0.5816
  O  O332  1  0.394100  0.978200  0.163700  1.0  -0.596
  O  O333  1  0.260100  0.966300  0.008700  1.0  -0.5952
  O  O334  1  0.227300  0.051200  0.083800  1.0  -0.6064
  O  O335  1  0.342200  0.735400  0.734100  1.0  -0.3675
  O  O336  1  0.342900  0.866700  0.672100  1.0  -0.3473
  O  O337  1  0.559100  0.946300  0.976500  1.0  -0.9606
  O  O338  1  0.610200  0.866600  0.827200  1.0  -0.6349
  O  O339  1  0.628000  0.782800  0.904000  1.0  -0.5911
  O  O340  1  0.575500  0.601800  0.582800  1.0  -0.5811
  O  O341  1  0.605900  0.521800  0.663700  1.0  -0.5951
  O  O342  1  0.739900  0.533700  0.508700  1.0  -0.595
  O  O343  1  0.772700  0.448800  0.583800  1.0  -0.6065
  O  O344  1  0.657800  0.764600  0.234100  1.0  -0.3675
  O  O345  1  0.657100  0.633300  0.172100  1.0  -0.349
  O  O346  1  0.440900  0.553700  0.476500  1.0  -0.9601
  O  O347  1  0.610200  0.366600  0.672800  1.0  -0.6347
  O  O348  1  0.628000  0.282800  0.596000  1.0  -0.5924
  O  O349  1  0.575500  0.101800  0.917200  1.0  -0.5813
  O  O350  1  0.605900  0.021800  0.836300  1.0  -0.5937
  O  O351  1  0.739900  0.033700  0.991300  1.0  -0.595
  O  O352  1  0.772700  0.948800  0.916200  1.0  -0.6062
  O  O353  1  0.657800  0.264600  0.265900  1.0  -0.3651
  O  O354  1  0.657100  0.133300  0.327900  1.0  -0.35
  O  O355  1  0.440900  0.053700  0.023500  1.0  -0.959
  O  O356  1  0.389800  0.133400  0.172800  1.0  -0.634
  O  O357  1  0.372000  0.217200  0.096000  1.0  -0.593
  O  O358  1  0.424500  0.398200  0.417200  1.0  -0.5811
  O  O359  1  0.394100  0.478200  0.336300  1.0  -0.5945
  O  O360  1  0.260100  0.466300  0.491300  1.0  -0.595
  O  O361  1  0.227300  0.551200  0.416200  1.0  -0.6063
  O  O362  1  0.342200  0.235400  0.765900  1.0  -0.365
  O  O363  1  0.342900  0.366700  0.827900  1.0  -0.3482
  O  O364  1  0.559100  0.446300  0.523500  1.0  -0.9597
  O  O365  1  0.889800  0.366600  0.172800  1.0  -0.6353
  O  O366  1  0.872000  0.282800  0.096000  1.0  -0.5931
  O  O367  1  0.924500  0.101800  0.417200  1.0  -0.5815
  O  O368  1  0.894100  0.021800  0.336300  1.0  -0.5955
  O  O369  1  0.760100  0.033700  0.491300  1.0  -0.5951
  O  O370  1  0.727300  0.948800  0.416200  1.0  -0.6061
  O  O371  1  0.842200  0.264600  0.765900  1.0  -0.3655
  O  O372  1  0.842900  0.133300  0.827900  1.0  -0.3493
  O  O373  1  0.059100  0.053700  0.523500  1.0  -0.9594
  O  O374  1  0.110200  0.133400  0.672800  1.0  -0.6344
  O  O375  1  0.128000  0.217200  0.596000  1.0  -0.5923
  O  O376  1  0.075500  0.398200  0.917200  1.0  -0.5811
  O  O377  1  0.105900  0.478200  0.836300  1.0  -0.5955
  O  O378  1  0.239900  0.466300  0.991300  1.0  -0.5951
  O  O379  1  0.272700  0.551200  0.916200  1.0  -0.6062
  O  O380  1  0.157800  0.235400  0.265900  1.0  -0.3646
  O  O381  1  0.157100  0.366700  0.327900  1.0  -0.3489
  O  O382  1  0.940900  0.446300  0.023500  1.0  -0.9592
  O  O383  1  0.110200  0.633400  0.827200  1.0  -0.6338
  O  O384  1  0.128000  0.717200  0.904000  1.0  -0.5911
  O  O385  1  0.075500  0.898200  0.582800  1.0  -0.5816
  O  O386  1  0.105900  0.978200  0.663700  1.0  -0.5944
  O  O387  1  0.239900  0.966300  0.508700  1.0  -0.5951
  O  O388  1  0.272700  0.051200  0.583800  1.0  -0.6064
  O  O389  1  0.157800  0.735400  0.234100  1.0  -0.3677
  O  O390  1  0.157100  0.866700  0.172100  1.0  -0.3476
  O  O391  1  0.940900  0.946300  0.476500  1.0  -0.9601
  O  O392  1  0.889800  0.866600  0.327200  1.0  -0.6347
  O  O393  1  0.872000  0.782800  0.404000  1.0  -0.5924
  O  O394  1  0.924500  0.601800  0.082800  1.0  -0.5813
  O  O395  1  0.894100  0.521800  0.163700  1.0  -0.5942
  O  O396  1  0.760100  0.533700  0.008700  1.0  -0.5954
  O  O397  1  0.727300  0.448800  0.083800  1.0  -0.6064
  O  O398  1  0.842200  0.764600  0.734100  1.0  -0.3673
  O  O399  1  0.842900  0.633300  0.672100  1.0  -0.3486
  O  O400  1  0.059100  0.553700  0.976500  1.0  -0.9605
