# generated using pymatgen
data_Co2H14C14N2O9
_symmetry_space_group_name_H-M   'P 1'
_cell_length_a   6.30290000
_cell_length_b   16.41300000
_cell_length_c   17.13900000
_cell_angle_alpha   90.00000000
_cell_angle_beta   98.63000000
_cell_angle_gamma   90.00000000
_symmetry_Int_Tables_number   1
_chemical_formula_structural   Co2H14C14N2O9
_chemical_formula_sum   'Co8 H56 C56 N8 O36'
_cell_volume   1752.94670755
_cell_formula_units_Z   4
loop_
 _symmetry_equiv_pos_site_id
 _symmetry_equiv_pos_as_xyz
  1  'x, y, z'
loop_
 _atom_site_type_symbol
 _atom_site_label
 _atom_site_symmetry_multiplicity
 _atom_site_fract_x
 _atom_site_fract_y
 _atom_site_fract_z
 _atom_site_occupancy
 _atom_site_charge
  Co  Co1  1  0.759400  0.522690  0.322690  1.0  1.157
  Co  Co2  1  0.925730  0.589520  0.507940  1.0  0.9829
  Co  Co3  1  0.740600  0.022690  0.177310  1.0  1.1583
  Co  Co4  1  0.574270  0.089520  0.992060  1.0  0.9805
  Co  Co5  1  0.240600  0.477310  0.677310  1.0  1.1569
  Co  Co6  1  0.074270  0.410480  0.492060  1.0  0.9821
  Co  Co7  1  0.259400  0.977310  0.822690  1.0  1.1554
  Co  Co8  1  0.425730  0.910480  0.007940  1.0  0.9835
  H  H9  1  0.127100  0.662400  0.631200  1.0  0.2874
  H  H10  1  0.697700  0.464500  0.462400  1.0  0.4002
  H  H11  1  0.061300  0.880900  0.583100  1.0  0.3076
  H  H12  1  0.181900  0.899200  0.653400  1.0  0.2616
  H  H13  1  0.663500  0.811300  0.381800  1.0  0.0941
  H  H14  1  0.922200  0.787800  0.282200  1.0  0.0998
  H  H15  1  0.318100  0.698400  0.536800  1.0  0.108
  H  H16  1  0.115400  0.761600  0.504800  1.0  0.0827
  H  H17  1  0.389800  0.788800  0.658400  1.0  0.112
  H  H18  1  0.390600  0.844300  0.568600  1.0  0.1263
  H  H19  1  0.084800  0.789000  0.718400  1.0  0.0982
  H  H20  1  0.874100  0.852100  0.690400  1.0  0.1481
  H  H21  1  0.793600  0.716100  0.644500  1.0  0.0999
  H  H22  1  0.790700  0.762900  0.565600  1.0  0.0738
  H  H23  1  0.372900  0.162400  0.868800  1.0  0.2862
  H  H24  1  0.802300  0.964500  0.037600  1.0  0.4007
  H  H25  1  0.438700  0.380900  0.916900  1.0  0.3075
  H  H26  1  0.318100  0.399200  0.846600  1.0  0.2644
  H  H27  1  0.836500  0.311300  0.118200  1.0  0.0957
  H  H28  1  0.577800  0.287800  0.217800  1.0  0.0988
  H  H29  1  0.181900  0.198400  0.963200  1.0  0.1073
  H  H30  1  0.384600  0.261600  0.995200  1.0  0.0825
  H  H31  1  0.110200  0.288800  0.841600  1.0  0.1129
  H  H32  1  0.109400  0.344300  0.931400  1.0  0.126
  H  H33  1  0.415200  0.289000  0.781600  1.0  0.0927
  H  H34  1  0.625900  0.352100  0.809600  1.0  0.1483
  H  H35  1  0.706400  0.216100  0.855500  1.0  0.1005
  H  H36  1  0.709300  0.262900  0.934400  1.0  0.0734
  H  H37  1  0.872900  0.337600  0.368800  1.0  0.2856
  H  H38  1  0.302300  0.535500  0.537600  1.0  0.4009
  H  H39  1  0.938700  0.119100  0.416900  1.0  0.3078
  H  H40  1  0.818100  0.100800  0.346600  1.0  0.2662
  H  H41  1  0.336500  0.188700  0.618200  1.0  0.0956
  H  H42  1  0.077800  0.212200  0.717800  1.0  0.0988
  H  H43  1  0.681900  0.301600  0.463200  1.0  0.1074
  H  H44  1  0.884600  0.238400  0.495200  1.0  0.0826
  H  H45  1  0.610200  0.211200  0.341600  1.0  0.1129
  H  H46  1  0.609400  0.155700  0.431400  1.0  0.1265
  H  H47  1  0.915200  0.211000  0.281600  1.0  0.0927
  H  H48  1  0.125900  0.147900  0.309600  1.0  0.1477
  H  H49  1  0.206400  0.283900  0.355500  1.0  0.1012
  H  H50  1  0.209300  0.237100  0.434400  1.0  0.0733
  H  H51  1  0.627100  0.837600  0.131200  1.0  0.2855
  H  H52  1  0.197700  0.035500  0.962400  1.0  0.4011
  H  H53  1  0.561300  0.619100  0.083100  1.0  0.3076
  H  H54  1  0.681900  0.600800  0.153400  1.0  0.265
  H  H55  1  0.163500  0.688700  0.881800  1.0  0.0944
  H  H56  1  0.422200  0.712200  0.782200  1.0  0.0999
  H  H57  1  0.818100  0.801600  0.036800  1.0  0.1079
  H  H58  1  0.615400  0.738400  0.004800  1.0  0.0821
  H  H59  1  0.889800  0.711200  0.158400  1.0  0.1124
  H  H60  1  0.890600  0.655700  0.068600  1.0  0.125
  H  H61  1  0.584800  0.711000  0.218400  1.0  0.0976
  H  H62  1  0.374100  0.647900  0.190400  1.0  0.1478
  H  H63  1  0.293600  0.783900  0.144500  1.0  0.0996
  H  H64  1  0.290700  0.737100  0.065600  1.0  0.0737
  C  C65  1  0.559000  0.662100  0.395930  1.0  0.689
  C  C66  1  0.079500  0.649500  0.356400  1.0  0.6917
  C  C67  1  0.522900  0.950400  0.305800  1.0  0.7072
  C  C68  1  0.419400  0.734900  0.369770  1.0  -0.1041
  C  C69  1  0.516700  0.810200  0.362480  1.0  -0.0913
  C  C70  1  0.403400  0.875600  0.325650  1.0  -0.0602
  C  C71  1  0.185300  0.866100  0.298380  1.0  -0.0813
  C  C72  1  0.085000  0.792000  0.307360  1.0  -0.1002
  C  C73  1  0.200200  0.725900  0.342080  1.0  -0.1098
  C  C74  1  0.049100  0.934200  0.260200  1.0  0.6793
  C  C75  1  0.209800  0.738900  0.552600  1.0  -0.0157
  C  C76  1  0.306300  0.809500  0.603200  1.0  -0.1079
  C  C77  1  0.985700  0.812600  0.668500  1.0  -0.1377
  C  C78  1  0.895000  0.741800  0.618000  1.0  0.0119
  C  C79  1  0.941000  0.162100  0.104070  1.0  0.6884
  C  C80  1  0.420500  0.149500  0.143600  1.0  0.6924
  C  C81  1  0.977100  0.450400  0.194200  1.0  0.7073
  C  C82  1  0.080600  0.234900  0.130230  1.0  -0.1042
  C  C83  1  0.983300  0.310200  0.137520  1.0  -0.0929
  C  C84  1  0.096600  0.375600  0.174350  1.0  -0.0605
  C  C85  1  0.314700  0.366100  0.201620  1.0  -0.0822
  C  C86  1  0.415000  0.292000  0.192640  1.0  -0.0975
  C  C87  1  0.299800  0.225900  0.157920  1.0  -0.1096
  C  C88  1  0.450900  0.434200  0.239800  1.0  0.6787
  C  C89  1  0.290200  0.238900  0.947400  1.0  -0.0167
  C  C90  1  0.193700  0.309500  0.896800  1.0  -0.1067
  C  C91  1  0.514300  0.312600  0.831500  1.0  -0.1376
  C  C92  1  0.605000  0.241800  0.882000  1.0  0.0119
  C  C93  1  0.441000  0.337900  0.604070  1.0  0.6885
  C  C94  1  0.920500  0.350500  0.643600  1.0  0.6934
  C  C95  1  0.477100  0.049600  0.694200  1.0  0.7069
  C  C96  1  0.580600  0.265100  0.630230  1.0  -0.1039
  C  C97  1  0.483300  0.189800  0.637520  1.0  -0.0925
  C  C98  1  0.596600  0.124400  0.674350  1.0  -0.0603
  C  C99  1  0.814700  0.133900  0.701620  1.0  -0.0838
  C  C100  1  0.915000  0.208000  0.692640  1.0  -0.0973
  C  C101  1  0.799800  0.274100  0.657920  1.0  -0.1096
  C  C102  1  0.950900  0.065800  0.739800  1.0  0.6792
  C  C103  1  0.790200  0.261100  0.447400  1.0  -0.0171
  C  C104  1  0.693700  0.190500  0.396800  1.0  -0.1071
  C  C105  1  0.014300  0.187400  0.331500  1.0  -0.137
  C  C106  1  0.105000  0.258200  0.382000  1.0  0.0124
  C  C107  1  0.059000  0.837900  0.895930  1.0  0.6889
  C  C108  1  0.579500  0.850500  0.856400  1.0  0.6925
  C  C109  1  0.022900  0.549600  0.805800  1.0  0.7068
  C  C110  1  0.919400  0.765100  0.869770  1.0  -0.1038
  C  C111  1  0.016700  0.689800  0.862480  1.0  -0.0912
  C  C112  1  0.903400  0.624400  0.825650  1.0  -0.0597
  C  C113  1  0.685300  0.633900  0.798380  1.0  -0.0831
  C  C114  1  0.585000  0.708000  0.807360  1.0  -0.0999
  C  C115  1  0.700200  0.774100  0.842080  1.0  -0.1096
  C  C116  1  0.549100  0.565800  0.760200  1.0  0.6798
  C  C117  1  0.709800  0.761100  0.052600  1.0  -0.0159
  C  C118  1  0.806300  0.690500  0.103200  1.0  -0.1088
  C  C119  1  0.485700  0.687400  0.168500  1.0  -0.1373
  C  C120  1  0.395000  0.758200  0.118000  1.0  0.012
  N  N121  1  0.056200  0.689360  0.589180  1.0  -0.4478
  N  N122  1  0.129200  0.861300  0.625200  1.0  -0.0907
  N  N123  1  0.443800  0.189360  0.910820  1.0  -0.4461
  N  N124  1  0.370800  0.361300  0.874800  1.0  -0.0904
  N  N125  1  0.943800  0.310640  0.410820  1.0  -0.4455
  N  N126  1  0.870800  0.138700  0.374800  1.0  -0.089
  N  N127  1  0.556200  0.810640  0.089180  1.0  -0.4475
  N  N128  1  0.629200  0.638700  0.125200  1.0  -0.0908
  O  O129  1  0.526600  0.599830  0.354240  1.0  -0.5928
  O  O130  1  0.835100  0.487210  0.438070  1.0  -0.9165
  O  O131  1  0.926800  0.628010  0.304930  1.0  -0.5996
  O  O132  1  0.533700  0.957520  0.234010  1.0  -0.6245
  O  O133  1  0.942000  0.918610  0.192210  1.0  -0.6359
  O  O134  1  0.703500  0.672100  0.454690  1.0  -0.6283
  O  O135  1  0.135300  0.615080  0.422830  1.0  -0.6262
  O  O136  1  0.035000  0.999190  0.294000  1.0  -0.6055
  O  O137  1  0.607200  0.995450  0.359500  1.0  -0.6434
  O  O138  1  0.973400  0.099830  0.145760  1.0  -0.5933
  O  O139  1  0.664900  0.987210  0.061930  1.0  -0.9167
  O  O140  1  0.573200  0.128010  0.195070  1.0  -0.5976
  O  O141  1  0.966300  0.457520  0.265990  1.0  -0.625
  O  O142  1  0.558000  0.418610  0.307790  1.0  -0.6372
  O  O143  1  0.796500  0.172100  0.045310  1.0  -0.6292
  O  O144  1  0.364700  0.115080  0.077170  1.0  -0.6265
  O  O145  1  0.465000  0.499190  0.206000  1.0  -0.6059
  O  O146  1  0.892800  0.495450  0.140500  1.0  -0.6428
  O  O147  1  0.473400  0.400170  0.645760  1.0  -0.5933
  O  O148  1  0.164900  0.512790  0.561930  1.0  -0.9175
  O  O149  1  0.073200  0.371990  0.695070  1.0  -0.5967
  O  O150  1  0.466300  0.042480  0.765990  1.0  -0.6249
  O  O151  1  0.058000  0.081390  0.807790  1.0  -0.6366
  O  O152  1  0.296500  0.327900  0.545310  1.0  -0.6287
  O  O153  1  0.864700  0.384920  0.577170  1.0  -0.6271
  O  O154  1  0.965000  0.000810  0.706000  1.0  -0.6061
  O  O155  1  0.392800  0.004550  0.640500  1.0  -0.6402
  O  O156  1  0.026600  0.900170  0.854240  1.0  -0.5924
  O  O157  1  0.335100  0.012790  0.938070  1.0  -0.9172
  O  O158  1  0.426800  0.871990  0.804930  1.0  -0.5986
  O  O159  1  0.033700  0.542480  0.734010  1.0  -0.6254
  O  O160  1  0.442000  0.581390  0.692210  1.0  -0.6362
  O  O161  1  0.203500  0.827900  0.954690  1.0  -0.628
  O  O162  1  0.635300  0.884920  0.922830  1.0  -0.6259
  O  O163  1  0.535000  0.500810  0.794000  1.0  -0.6059
  O  O164  1  0.107200  0.504550  0.859500  1.0  -0.6408
