# generated using pymatgen
data_CoH21C31N5O4
_symmetry_space_group_name_H-M   'P 1'
_cell_length_a   20.36500000
_cell_length_b   20.11900000
_cell_length_c   17.31100000
_cell_angle_alpha   90.00000000
_cell_angle_beta   103.16600000
_cell_angle_gamma   90.00000000
_symmetry_Int_Tables_number   1
_chemical_formula_structural   CoH21C31N5O4
_chemical_formula_sum   'Co8 H168 C248 N40 O32'
_cell_volume   6906.28476782
_cell_formula_units_Z   8
loop_
 _symmetry_equiv_pos_site_id
 _symmetry_equiv_pos_as_xyz
  1  'x, y, z'
loop_
 _atom_site_type_symbol
 _atom_site_label
 _atom_site_symmetry_multiplicity
 _atom_site_fract_x
 _atom_site_fract_y
 _atom_site_fract_z
 _atom_site_occupancy
 _atom_site_charge
  Co  Co1  1  0.875100  0.135500  0.263280  1.0  0.9107
  Co  Co2  1  0.384090  0.128160  0.255810  1.0  0.8928
  Co  Co3  1  0.124900  0.635500  0.236720  1.0  0.91
  Co  Co4  1  0.615910  0.628160  0.244190  1.0  0.8932
  Co  Co5  1  0.124900  0.864500  0.736720  1.0  0.9099
  Co  Co6  1  0.615910  0.871840  0.744190  1.0  0.8925
  Co  Co7  1  0.875100  0.364500  0.763280  1.0  0.9104
  Co  Co8  1  0.384090  0.371840  0.755810  1.0  0.892
  H  H9  1  0.840200  0.233900  0.400000  1.0  0.0891
  H  H10  1  0.905100  0.245600  0.537500  1.0  0.1314
  H  H11  1  0.986000  0.105500  0.428300  1.0  0.0948
  H  H12  1  0.022900  0.256600  0.611900  1.0  0.1304
  H  H13  1  0.104800  0.241700  0.725500  1.0  0.1043
  H  H14  1  0.109600  0.046700  0.680500  1.0  0.1148
  H  H15  1  0.025000  0.061200  0.569100  1.0  0.1085
  H  H16  1  0.215800  0.223500  0.781400  1.0  0.1064
  H  H17  1  0.298000  0.215100  0.896100  1.0  0.0935
  H  H18  1  0.226200  0.037500  0.939200  1.0  0.1063
  H  H19  1  0.143600  0.045500  0.823800  1.0  0.1014
  H  H20  1  0.270600  0.104700  0.086800  1.0  0.0924
  H  H21  1  0.460900  0.146800  0.110300  1.0  0.1083
  H  H22  1  0.408700  0.149600  0.968800  1.0  0.1324
  H  H23  1  0.759300  0.157600  0.100000  1.0  0.0876
  H  H24  1  0.932400  0.077500  0.113800  1.0  0.1042
  H  H25  1  0.871200  0.068700  0.977300  1.0  0.1245
  H  H26  1  0.735300  0.224200  0.939100  1.0  0.1088
  H  H27  1  0.653300  0.230800  0.823800  1.0  0.107
  H  H28  1  0.652400  0.033400  0.805200  1.0  0.1076
  H  H29  1  0.736500  0.027100  0.919200  1.0  0.1087
  H  H30  1  0.552900  0.224300  0.740300  1.0  0.1073
  H  H31  1  0.471800  0.227500  0.624500  1.0  0.1114
  H  H32  1  0.535000  0.051000  0.562300  1.0  0.1211
  H  H33  1  0.616900  0.048700  0.679100  1.0  0.1115
  H  H34  1  0.358600  0.176800  0.537700  1.0  0.125
  H  H35  1  0.307300  0.167200  0.397400  1.0  0.104
  H  H36  1  0.494400  0.111000  0.426400  1.0  0.0974
  H  H37  1  0.638100  0.131500  0.277800  1.0  0.1
  H  H38  1  0.732300  0.957100  0.274400  1.0  0.0975
  H  H39  1  0.534100  0.961200  0.262900  1.0  0.0978
  H  H40  1  0.709900  0.852200  0.351900  1.0  0.1281
  H  H41  1  0.701500  0.739800  0.341500  1.0  0.0686
  H  H42  1  0.545300  0.752900  0.163700  1.0  0.0869
  H  H43  1  0.548100  0.865900  0.171700  1.0  0.1176
  H  H44  1  0.228000  0.969600  0.264700  1.0  0.1106
  H  H45  1  0.036100  0.968800  0.285600  1.0  0.1193
  H  H46  1  0.128000  0.141000  0.262200  1.0  0.0995
  H  H47  1  0.231000  0.867700  0.282400  1.0  0.1083
  H  H48  1  0.228200  0.755800  0.275900  1.0  0.0711
  H  H49  1  0.037000  0.755300  0.257200  1.0  0.0812
  H  H50  1  0.035200  0.867500  0.268100  1.0  0.1066
  H  H51  1  0.159800  0.733900  0.100000  1.0  0.0884
  H  H52  1  0.094900  0.745600  0.962500  1.0  0.1314
  H  H53  1  0.014000  0.605500  0.071700  1.0  0.0938
  H  H54  1  0.977100  0.756600  0.888100  1.0  0.1305
  H  H55  1  0.895200  0.741700  0.774500  1.0  0.1039
  H  H56  1  0.890400  0.546700  0.819500  1.0  0.1151
  H  H57  1  0.975000  0.561200  0.930900  1.0  0.1085
  H  H58  1  0.784200  0.723500  0.718600  1.0  0.1065
  H  H59  1  0.702000  0.715100  0.603900  1.0  0.0939
  H  H60  1  0.773800  0.537500  0.560800  1.0  0.1063
  H  H61  1  0.856400  0.545500  0.676200  1.0  0.1013
  H  H62  1  0.729400  0.604700  0.413200  1.0  0.0916
  H  H63  1  0.539100  0.646800  0.389700  1.0  0.11
  H  H64  1  0.591300  0.649600  0.531200  1.0  0.1316
  H  H65  1  0.240700  0.657600  0.400000  1.0  0.0882
  H  H66  1  0.067600  0.577500  0.386200  1.0  0.1062
  H  H67  1  0.128800  0.568700  0.522700  1.0  0.1248
  H  H68  1  0.264700  0.724200  0.560900  1.0  0.1088
  H  H69  1  0.346700  0.730800  0.676200  1.0  0.107
  H  H70  1  0.347600  0.533400  0.694800  1.0  0.107
  H  H71  1  0.263500  0.527100  0.580800  1.0  0.1086
  H  H72  1  0.447100  0.724300  0.759700  1.0  0.1068
  H  H73  1  0.528200  0.727500  0.875500  1.0  0.112
  H  H74  1  0.465000  0.551000  0.937700  1.0  0.1216
  H  H75  1  0.383100  0.548700  0.820900  1.0  0.1122
  H  H76  1  0.641400  0.676800  0.962300  1.0  0.1242
  H  H77  1  0.692700  0.667200  0.102600  1.0  0.1044
  H  H78  1  0.505600  0.611000  0.073600  1.0  0.0971
  H  H79  1  0.361900  0.631500  0.222200  1.0  0.1004
  H  H80  1  0.267700  0.457100  0.225600  1.0  0.0977
  H  H81  1  0.465900  0.461200  0.237100  1.0  0.0981
  H  H82  1  0.290100  0.352200  0.148100  1.0  0.1284
  H  H83  1  0.298500  0.239800  0.158500  1.0  0.0691
  H  H84  1  0.454700  0.252900  0.336300  1.0  0.0869
  H  H85  1  0.451900  0.365900  0.328300  1.0  0.1178
  H  H86  1  0.772000  0.469600  0.235300  1.0  0.1106
  H  H87  1  0.963900  0.468800  0.214400  1.0  0.1186
  H  H88  1  0.872000  0.641000  0.237800  1.0  0.0996
  H  H89  1  0.769000  0.367700  0.217600  1.0  0.1081
  H  H90  1  0.771800  0.255800  0.224100  1.0  0.071
  H  H91  1  0.963000  0.255300  0.242800  1.0  0.0817
  H  H92  1  0.964800  0.367500  0.231900  1.0  0.1067
  H  H93  1  0.159800  0.766100  0.600000  1.0  0.0896
  H  H94  1  0.094900  0.754400  0.462500  1.0  0.1315
  H  H95  1  0.014000  0.894500  0.571700  1.0  0.094
  H  H96  1  0.977100  0.743400  0.388100  1.0  0.13
  H  H97  1  0.895200  0.758300  0.274500  1.0  0.1036
  H  H98  1  0.890400  0.953300  0.319500  1.0  0.1149
  H  H99  1  0.975000  0.938800  0.430900  1.0  0.1083
  H  H100  1  0.784200  0.776500  0.218600  1.0  0.1065
  H  H101  1  0.702000  0.784900  0.103900  1.0  0.0939
  H  H102  1  0.773800  0.962500  0.060800  1.0  0.1067
  H  H103  1  0.856400  0.954500  0.176200  1.0  0.1012
  H  H104  1  0.729400  0.895300  0.913200  1.0  0.0915
  H  H105  1  0.539100  0.853200  0.889700  1.0  0.1102
  H  H106  1  0.591300  0.850400  0.031200  1.0  0.1312
  H  H107  1  0.240700  0.842400  0.900000  1.0  0.0878
  H  H108  1  0.067600  0.922500  0.886200  1.0  0.1064
  H  H109  1  0.128800  0.931300  0.022700  1.0  0.1246
  H  H110  1  0.264700  0.775800  0.060900  1.0  0.109
  H  H111  1  0.346700  0.769200  0.176200  1.0  0.107
  H  H112  1  0.347600  0.966600  0.194800  1.0  0.1072
  H  H113  1  0.263500  0.972900  0.080800  1.0  0.1088
  H  H114  1  0.447100  0.775700  0.259700  1.0  0.1065
  H  H115  1  0.528200  0.772500  0.375500  1.0  0.1122
  H  H116  1  0.465000  0.949000  0.437700  1.0  0.12
  H  H117  1  0.383100  0.951300  0.320900  1.0  0.1119
  H  H118  1  0.641400  0.823200  0.462300  1.0  0.1243
  H  H119  1  0.692700  0.832800  0.602600  1.0  0.1041
  H  H120  1  0.505600  0.889000  0.573600  1.0  0.097
  H  H121  1  0.361900  0.868500  0.722200  1.0  0.0999
  H  H122  1  0.267700  0.042900  0.725600  1.0  0.0976
  H  H123  1  0.465900  0.038800  0.737100  1.0  0.0979
  H  H124  1  0.290100  0.147800  0.648100  1.0  0.1285
  H  H125  1  0.298500  0.260200  0.658500  1.0  0.068
  H  H126  1  0.454700  0.247100  0.836300  1.0  0.0869
  H  H127  1  0.451900  0.134100  0.828300  1.0  0.1179
  H  H128  1  0.772000  0.030400  0.735300  1.0  0.1108
  H  H129  1  0.963900  0.031200  0.714400  1.0  0.1187
  H  H130  1  0.872000  0.859000  0.737800  1.0  0.0996
  H  H131  1  0.769000  0.132300  0.717600  1.0  0.1081
  H  H132  1  0.771800  0.244200  0.724100  1.0  0.0715
  H  H133  1  0.963000  0.244700  0.742800  1.0  0.0815
  H  H134  1  0.964800  0.132500  0.731900  1.0  0.1064
  H  H135  1  0.840200  0.266100  0.900000  1.0  0.0895
  H  H136  1  0.905100  0.254400  0.037500  1.0  0.132
  H  H137  1  0.986000  0.394500  0.928300  1.0  0.0946
  H  H138  1  0.022900  0.243400  0.111900  1.0  0.13
  H  H139  1  0.104800  0.258300  0.225500  1.0  0.1042
  H  H140  1  0.109600  0.453300  0.180500  1.0  0.1152
  H  H141  1  0.025000  0.438800  0.069100  1.0  0.1086
  H  H142  1  0.215800  0.276500  0.281400  1.0  0.1056
  H  H143  1  0.298000  0.284900  0.396100  1.0  0.0936
  H  H144  1  0.226200  0.462500  0.439200  1.0  0.1061
  H  H145  1  0.143600  0.454500  0.323800  1.0  0.1013
  H  H146  1  0.270600  0.395300  0.586800  1.0  0.0922
  H  H147  1  0.460900  0.353200  0.610300  1.0  0.1081
  H  H148  1  0.408700  0.350400  0.468800  1.0  0.1323
  H  H149  1  0.759300  0.342400  0.600000  1.0  0.088
  H  H150  1  0.932400  0.422500  0.613800  1.0  0.1052
  H  H151  1  0.871200  0.431300  0.477300  1.0  0.125
  H  H152  1  0.735300  0.275800  0.439100  1.0  0.109
  H  H153  1  0.653300  0.269200  0.323800  1.0  0.1072
  H  H154  1  0.652400  0.466600  0.305200  1.0  0.1076
  H  H155  1  0.736500  0.472900  0.419200  1.0  0.1082
  H  H156  1  0.552900  0.275700  0.240300  1.0  0.1067
  H  H157  1  0.471800  0.272500  0.124500  1.0  0.1113
  H  H158  1  0.535000  0.449000  0.062300  1.0  0.1199
  H  H159  1  0.616900  0.451300  0.179100  1.0  0.1116
  H  H160  1  0.358600  0.323200  0.037700  1.0  0.1247
  H  H161  1  0.307300  0.332800  0.897400  1.0  0.1044
  H  H162  1  0.494400  0.389000  0.926400  1.0  0.0974
  H  H163  1  0.638100  0.368500  0.777800  1.0  0.0999
  H  H164  1  0.732300  0.542900  0.774400  1.0  0.0975
  H  H165  1  0.534100  0.538800  0.762900  1.0  0.0977
  H  H166  1  0.709900  0.647800  0.851900  1.0  0.1283
  H  H167  1  0.701500  0.760200  0.841500  1.0  0.0695
  H  H168  1  0.545300  0.747100  0.663700  1.0  0.0867
  H  H169  1  0.548100  0.634100  0.671700  1.0  0.1174
  H  H170  1  0.228000  0.530400  0.764700  1.0  0.1107
  H  H171  1  0.036100  0.531200  0.785600  1.0  0.1194
  H  H172  1  0.128000  0.359000  0.762200  1.0  0.1
  H  H173  1  0.231000  0.632300  0.782400  1.0  0.1084
  H  H174  1  0.228200  0.744200  0.775900  1.0  0.0708
  H  H175  1  0.037000  0.744700  0.757200  1.0  0.0819
  H  H176  1  0.035200  0.632500  0.768100  1.0  0.1062
  C  C177  1  0.877800  0.208800  0.423300  1.0  0.0424
  C  C178  1  0.913400  0.215800  0.499700  1.0  -0.1296
  C  C179  1  0.957090  0.138440  0.438400  1.0  0.153
  C  C180  1  0.016460  0.159680  0.578400  1.0  0.1581
  C  C181  1  0.040180  0.214390  0.626000  1.0  -0.2138
  C  C182  1  0.089270  0.205180  0.693700  1.0  -0.1476
  C  C183  1  0.116660  0.142980  0.716500  1.0  0.0393
  C  C184  1  0.091960  0.088930  0.667400  1.0  -0.1167
  C  C185  1  0.041900  0.097770  0.600200  1.0  -0.1897
  C  C186  1  0.170160  0.135570  0.790400  1.0  0.0517
  C  C187  1  0.217520  0.186000  0.813200  1.0  -0.122
  C  C188  1  0.266600  0.181140  0.881900  1.0  -0.1793
  C  C189  1  0.269510  0.126100  0.930100  1.0  0.169
  C  C190  1  0.223800  0.075210  0.907600  1.0  -0.1849
  C  C191  1  0.174340  0.080000  0.838300  1.0  -0.1007
  C  C192  1  0.311950  0.114640  0.075300  1.0  0.1812
  C  C193  1  0.415700  0.138000  0.087900  1.0  0.0168
  C  C194  1  0.387300  0.139500  0.009400  1.0  -0.124
  C  C195  1  0.795400  0.136300  0.086000  1.0  0.1949
  C  C196  1  0.888600  0.092500  0.094100  1.0  0.0142
  C  C197  1  0.855600  0.088600  0.018300  1.0  -0.119
  C  C198  1  0.743340  0.124680  0.941300  1.0  0.1466
  C  C199  1  0.718900  0.185600  0.911900  1.0  -0.1822
  C  C200  1  0.670100  0.189500  0.842600  1.0  -0.1132
  C  C201  1  0.645470  0.132380  0.799700  1.0  0.0044
  C  C202  1  0.669700  0.072300  0.831000  1.0  -0.1373
  C  C203  1  0.719400  0.068300  0.900400  1.0  -0.1563
  C  C204  1  0.594170  0.135770  0.723200  1.0  0.0013
  C  C205  1  0.549600  0.189300  0.704600  1.0  -0.1046
  C  C206  1  0.501300  0.191600  0.635300  1.0  -0.1738
  C  C207  1  0.496540  0.140020  0.581300  1.0  0.1333
  C  C208  1  0.539000  0.086100  0.598000  1.0  -0.2119
  C  C209  1  0.587700  0.084900  0.668400  1.0  -0.107
  C  C210  1  0.379800  0.162400  0.498500  1.0  -0.142
  C  C211  1  0.352000  0.157200  0.420900  1.0  0.0099
  C  C212  1  0.454030  0.126410  0.436300  1.0  0.1711
  C  C213  1  0.511500  0.090300  0.269100  1.0  0.6566
  C  C214  1  0.575890  0.052250  0.271300  1.0  -0.1462
  C  C215  1  0.636920  0.085300  0.275500  1.0  0.0236
  C  C216  1  0.760820  0.085190  0.275000  1.0  0.6746
  C  C217  1  0.696070  0.050140  0.276400  1.0  -0.1705
  C  C218  1  0.693090  0.981130  0.273000  1.0  -0.0582
  C  C219  1  0.632890  0.947380  0.267690  1.0  0.0217
  C  C220  1  0.574730  0.983570  0.266700  1.0  -0.0398
  C  C221  1  0.630110  0.873510  0.262300  1.0  0.1101
  C  C222  1  0.675730  0.833270  0.313300  1.0  -0.1976
  C  C223  1  0.670260  0.765570  0.306700  1.0  0.1725
  C  C224  1  0.578420  0.773060  0.202600  1.0  0.1689
  C  C225  1  0.580410  0.841120  0.206600  1.0  -0.1822
  C  C226  1  0.246790  0.100470  0.247000  1.0  0.7011
  C  C227  1  0.187460  0.061670  0.260990  1.0  -0.1475
  C  C228  1  0.188590  0.992260  0.266480  1.0  -0.0517
  C  C229  1  0.132280  0.956500  0.274490  1.0  -0.0267
  C  C230  1  0.074020  0.991800  0.278860  1.0  -0.0533
  C  C231  1  0.071910  0.060830  0.273270  1.0  -0.1578
  C  C232  1  0.007250  0.099210  0.270900  1.0  0.6861
  C  C233  1  0.129030  0.094860  0.265060  1.0  0.0314
  C  C234  1  0.132950  0.882870  0.274000  1.0  0.0841
  C  C235  1  0.189800  0.846080  0.276800  1.0  -0.2182
  C  C236  1  0.187700  0.778360  0.271600  1.0  0.1673
  C  C237  1  0.077380  0.778120  0.261400  1.0  0.1644
  C  C238  1  0.075680  0.846310  0.267900  1.0  -0.1907
  C  C239  1  0.122200  0.708800  0.076700  1.0  0.0425
  C  C240  1  0.086600  0.715800  0.000300  1.0  -0.1289
  C  C241  1  0.042910  0.638440  0.061600  1.0  0.1536
  C  C242  1  0.983540  0.659680  0.921600  1.0  0.1578
  C  C243  1  0.959820  0.714390  0.874000  1.0  -0.2128
  C  C244  1  0.910730  0.705180  0.806300  1.0  -0.1476
  C  C245  1  0.883340  0.642980  0.783500  1.0  0.0397
  C  C246  1  0.908040  0.588930  0.832600  1.0  -0.1174
  C  C247  1  0.958100  0.597770  0.899800  1.0  -0.1912
  C  C248  1  0.829840  0.635570  0.709600  1.0  0.0519
  C  C249  1  0.782480  0.686000  0.686800  1.0  -0.1229
  C  C250  1  0.733400  0.681140  0.618100  1.0  -0.1791
  C  C251  1  0.730490  0.626100  0.569900  1.0  0.1692
  C  C252  1  0.776200  0.575210  0.592400  1.0  -0.1853
  C  C253  1  0.825660  0.580000  0.661700  1.0  -0.1013
  C  C254  1  0.688050  0.614640  0.424700  1.0  0.1793
  C  C255  1  0.584300  0.638000  0.412100  1.0  0.0175
  C  C256  1  0.612700  0.639500  0.490600  1.0  -0.123
  C  C257  1  0.204600  0.636300  0.414000  1.0  0.1951
  C  C258  1  0.111400  0.592500  0.405900  1.0  0.015
  C  C259  1  0.144400  0.588600  0.481700  1.0  -0.1193
  C  C260  1  0.256660  0.624680  0.558700  1.0  0.1478
  C  C261  1  0.281100  0.685600  0.588100  1.0  -0.1818
  C  C262  1  0.329900  0.689500  0.657400  1.0  -0.1129
  C  C263  1  0.354530  0.632380  0.700300  1.0  0.0048
  C  C264  1  0.330300  0.572300  0.669000  1.0  -0.137
  C  C265  1  0.280600  0.568300  0.599600  1.0  -0.1574
  C  C266  1  0.405830  0.635770  0.776800  1.0  0.0006
  C  C267  1  0.450400  0.689300  0.795400  1.0  -0.1039
  C  C268  1  0.498700  0.691600  0.864700  1.0  -0.1744
  C  C269  1  0.503460  0.640020  0.918700  1.0  0.132
  C  C270  1  0.461000  0.586100  0.902000  1.0  -0.2126
  C  C271  1  0.412300  0.584900  0.831600  1.0  -0.1072
  C  C272  1  0.620200  0.662400  0.001500  1.0  -0.1416
  C  C273  1  0.648000  0.657200  0.079100  1.0  0.0099
  C  C274  1  0.545970  0.626410  0.063700  1.0  0.1725
  C  C275  1  0.488500  0.590300  0.230900  1.0  0.6576
  C  C276  1  0.424110  0.552250  0.228700  1.0  -0.1461
  C  C277  1  0.363080  0.585300  0.224500  1.0  0.024
  C  C278  1  0.239180  0.585190  0.225000  1.0  0.6736
  C  C279  1  0.303930  0.550140  0.223600  1.0  -0.1705
  C  C280  1  0.306910  0.481130  0.227000  1.0  -0.0582
  C  C281  1  0.367110  0.447380  0.232310  1.0  0.0216
  C  C282  1  0.425270  0.483570  0.233300  1.0  -0.0387
  C  C283  1  0.369890  0.373510  0.237700  1.0  0.1096
  C  C284  1  0.324270  0.333270  0.186700  1.0  -0.1977
  C  C285  1  0.329740  0.265570  0.193300  1.0  0.1732
  C  C286  1  0.421580  0.273060  0.297400  1.0  0.1694
  C  C287  1  0.419590  0.341120  0.293400  1.0  -0.1824
  C  C288  1  0.753210  0.600470  0.253000  1.0  0.7004
  C  C289  1  0.812540  0.561670  0.239010  1.0  -0.1475
  C  C290  1  0.811410  0.492260  0.233520  1.0  -0.0532
  C  C291  1  0.867720  0.456500  0.225510  1.0  -0.0274
  C  C292  1  0.925980  0.491800  0.221140  1.0  -0.0534
  C  C293  1  0.928090  0.560830  0.226730  1.0  -0.1576
  C  C294  1  0.992750  0.599210  0.229100  1.0  0.6875
  C  C295  1  0.870970  0.594860  0.234940  1.0  0.031
  C  C296  1  0.867050  0.382870  0.226000  1.0  0.0845
  C  C297  1  0.810200  0.346080  0.223200  1.0  -0.2175
  C  C298  1  0.812300  0.278360  0.228400  1.0  0.1668
  C  C299  1  0.922620  0.278120  0.238600  1.0  0.1644
  C  C300  1  0.924320  0.346310  0.232100  1.0  -0.1916
  C  C301  1  0.122200  0.791200  0.576700  1.0  0.0425
  C  C302  1  0.086600  0.784200  0.500300  1.0  -0.1285
  C  C303  1  0.042910  0.861560  0.561600  1.0  0.1538
  C  C304  1  0.983540  0.840320  0.421600  1.0  0.158
  C  C305  1  0.959820  0.785610  0.374000  1.0  -0.21
  C  C306  1  0.910730  0.794820  0.306300  1.0  -0.1473
  C  C307  1  0.883340  0.857020  0.283500  1.0  0.0395
  C  C308  1  0.908040  0.911070  0.332600  1.0  -0.1194
  C  C309  1  0.958100  0.902230  0.399800  1.0  -0.1921
  C  C310  1  0.829840  0.864430  0.209600  1.0  0.0521
  C  C311  1  0.782480  0.814000  0.186800  1.0  -0.1232
  C  C312  1  0.733400  0.818860  0.118100  1.0  -0.1787
  C  C313  1  0.730490  0.873900  0.069900  1.0  0.1692
  C  C314  1  0.776200  0.924790  0.092400  1.0  -0.1854
  C  C315  1  0.825660  0.920000  0.161700  1.0  -0.1011
  C  C316  1  0.688050  0.885360  0.924700  1.0  0.1797
  C  C317  1  0.584300  0.862000  0.912100  1.0  0.0169
  C  C318  1  0.612700  0.860500  0.990600  1.0  -0.1228
  C  C319  1  0.204600  0.863700  0.914000  1.0  0.1958
  C  C320  1  0.111400  0.907500  0.905900  1.0  0.015
  C  C321  1  0.144400  0.911400  0.981700  1.0  -0.1204
  C  C322  1  0.256660  0.875320  0.058700  1.0  0.1483
  C  C323  1  0.281100  0.814400  0.088100  1.0  -0.1815
  C  C324  1  0.329900  0.810500  0.157400  1.0  -0.1132
  C  C325  1  0.354530  0.867620  0.200300  1.0  0.0052
  C  C326  1  0.330300  0.927700  0.169000  1.0  -0.1376
  C  C327  1  0.280600  0.931700  0.099600  1.0  -0.1561
  C  C328  1  0.405830  0.864230  0.276800  1.0  0.0008
  C  C329  1  0.450400  0.810700  0.295400  1.0  -0.1048
  C  C330  1  0.498700  0.808400  0.364700  1.0  -0.1743
  C  C331  1  0.503460  0.859980  0.418700  1.0  0.1323
  C  C332  1  0.461000  0.913900  0.402000  1.0  -0.2133
  C  C333  1  0.412300  0.915100  0.331600  1.0  -0.1069
  C  C334  1  0.620200  0.837600  0.501500  1.0  -0.1412
  C  C335  1  0.648000  0.842800  0.579100  1.0  0.0104
  C  C336  1  0.545970  0.873590  0.563700  1.0  0.1723
  C  C337  1  0.488500  0.909700  0.730900  1.0  0.6576
  C  C338  1  0.424110  0.947750  0.728700  1.0  -0.1472
  C  C339  1  0.363080  0.914700  0.724500  1.0  0.0274
  C  C340  1  0.239180  0.914810  0.725000  1.0  0.6732
  C  C341  1  0.303930  0.949860  0.723600  1.0  -0.1717
  C  C342  1  0.306910  0.018870  0.727000  1.0  -0.0581
  C  C343  1  0.367110  0.052620  0.732310  1.0  0.0218
  C  C344  1  0.425270  0.016430  0.733300  1.0  -0.0384
  C  C345  1  0.369890  0.126490  0.737700  1.0  0.1098
  C  C346  1  0.324270  0.166730  0.686700  1.0  -0.1977
  C  C347  1  0.329740  0.234430  0.693300  1.0  0.1732
  C  C348  1  0.421580  0.226940  0.797400  1.0  0.1694
  C  C349  1  0.419590  0.158880  0.793400  1.0  -0.1818
  C  C350  1  0.753210  0.899530  0.753000  1.0  0.7006
  C  C351  1  0.812540  0.938330  0.739010  1.0  -0.1477
  C  C352  1  0.811410  0.007740  0.733520  1.0  -0.0533
  C  C353  1  0.867720  0.043500  0.725510  1.0  -0.0276
  C  C354  1  0.925980  0.008200  0.721140  1.0  -0.0532
  C  C355  1  0.928090  0.939170  0.726730  1.0  -0.1576
  C  C356  1  0.992750  0.900790  0.729100  1.0  0.6875
  C  C357  1  0.870970  0.905140  0.734940  1.0  0.0321
  C  C358  1  0.867050  0.117130  0.726000  1.0  0.0841
  C  C359  1  0.810200  0.153920  0.723200  1.0  -0.2177
  C  C360  1  0.812300  0.221640  0.728400  1.0  0.1673
  C  C361  1  0.922620  0.221880  0.738600  1.0  0.1645
  C  C362  1  0.924320  0.153690  0.732100  1.0  -0.1905
  C  C363  1  0.877800  0.291200  0.923300  1.0  0.0426
  C  C364  1  0.913400  0.284200  0.999700  1.0  -0.1289
  C  C365  1  0.957090  0.361560  0.938400  1.0  0.1544
  C  C366  1  0.016460  0.340320  0.078400  1.0  0.1582
  C  C367  1  0.040180  0.285610  0.126000  1.0  -0.2124
  C  C368  1  0.089270  0.294820  0.193700  1.0  -0.1463
  C  C369  1  0.116660  0.357020  0.216500  1.0  0.0393
  C  C370  1  0.091960  0.411070  0.167400  1.0  -0.1184
  C  C371  1  0.041900  0.402230  0.100200  1.0  -0.1892
  C  C372  1  0.170160  0.364430  0.290400  1.0  0.0517
  C  C373  1  0.217520  0.314000  0.313200  1.0  -0.1231
  C  C374  1  0.266600  0.318860  0.381900  1.0  -0.1785
  C  C375  1  0.269510  0.373900  0.430100  1.0  0.1689
  C  C376  1  0.223800  0.424790  0.407600  1.0  -0.1849
  C  C377  1  0.174340  0.420000  0.338300  1.0  -0.1006
  C  C378  1  0.311950  0.385360  0.575300  1.0  0.1806
  C  C379  1  0.415700  0.362000  0.587900  1.0  0.0175
  C  C380  1  0.387300  0.360500  0.509400  1.0  -0.1231
  C  C381  1  0.795400  0.363700  0.586000  1.0  0.196
  C  C382  1  0.888600  0.407500  0.594100  1.0  0.0143
  C  C383  1  0.855600  0.411400  0.518300  1.0  -0.1194
  C  C384  1  0.743340  0.375320  0.441300  1.0  0.147
  C  C385  1  0.718900  0.314400  0.411900  1.0  -0.1816
  C  C386  1  0.670100  0.310500  0.342600  1.0  -0.1126
  C  C387  1  0.645470  0.367620  0.299700  1.0  0.0046
  C  C388  1  0.669700  0.427700  0.331000  1.0  -0.1374
  C  C389  1  0.719400  0.431700  0.400400  1.0  -0.156
  C  C390  1  0.594170  0.364230  0.223200  1.0  0.0017
  C  C391  1  0.549600  0.310700  0.204600  1.0  -0.1051
  C  C392  1  0.501300  0.308400  0.135300  1.0  -0.1745
  C  C393  1  0.496540  0.359980  0.081300  1.0  0.1334
  C  C394  1  0.539000  0.413900  0.098000  1.0  -0.2121
  C  C395  1  0.587700  0.415100  0.168400  1.0  -0.1069
  C  C396  1  0.379800  0.337600  0.998500  1.0  -0.1419
  C  C397  1  0.352000  0.342800  0.920900  1.0  0.0093
  C  C398  1  0.454030  0.373590  0.936300  1.0  0.1713
  C  C399  1  0.511500  0.409700  0.769100  1.0  0.6569
  C  C400  1  0.575890  0.447750  0.771300  1.0  -0.147
  C  C401  1  0.636920  0.414700  0.775500  1.0  0.0269
  C  C402  1  0.760820  0.414810  0.775000  1.0  0.674
  C  C403  1  0.696070  0.449860  0.776400  1.0  -0.171
  C  C404  1  0.693090  0.518870  0.773000  1.0  -0.059
  C  C405  1  0.632890  0.552620  0.767690  1.0  0.022
  C  C406  1  0.574730  0.516430  0.766700  1.0  -0.0393
  C  C407  1  0.630110  0.626490  0.762300  1.0  0.1112
  C  C408  1  0.675730  0.666667  0.813300  1.0  -0.1928
  C  C409  1  0.670260  0.734430  0.806700  1.0  0.1714
  C  C410  1  0.578420  0.726940  0.702600  1.0  0.1691
  C  C411  1  0.580410  0.658880  0.706600  1.0  -0.1822
  C  C412  1  0.246790  0.399530  0.747000  1.0  0.7011
  C  C413  1  0.187460  0.438330  0.760990  1.0  -0.1476
  C  C414  1  0.188590  0.507740  0.766480  1.0  -0.0517
  C  C415  1  0.132280  0.543500  0.774490  1.0  -0.0271
  C  C416  1  0.074020  0.508200  0.778860  1.0  -0.0531
  C  C417  1  0.071910  0.439170  0.773270  1.0  -0.1578
  C  C418  1  0.007250  0.400790  0.770900  1.0  0.6862
  C  C419  1  0.129030  0.405140  0.765060  1.0  0.0322
  C  C420  1  0.132950  0.617130  0.774000  1.0  0.0839
  C  C421  1  0.189800  0.653920  0.776800  1.0  -0.218
  C  C422  1  0.187700  0.721640  0.771600  1.0  0.1677
  C  C423  1  0.077380  0.721880  0.761400  1.0  0.1644
  C  C424  1  0.075680  0.653690  0.767900  1.0  -0.1901
  N  N425  1  0.904680  0.160270  0.385840  1.0  -0.3652
  N  N426  1  0.964090  0.169330  0.508870  1.0  0.0398
  N  N427  1  0.320610  0.123230  0.001500  1.0  0.0288
  N  N428  1  0.368570  0.121870  0.129830  1.0  -0.3816
  N  N429  1  0.850640  0.120670  0.137100  1.0  -0.3675
  N  N430  1  0.795450  0.118910  0.011980  1.0  0.0177
  N  N431  1  0.445930  0.142460  0.508900  1.0  0.031
  N  N432  1  0.398760  0.134820  0.380840  1.0  -0.3746
  N  N433  1  0.622290  0.734180  0.252680  1.0  -0.3315
  N  N434  1  0.131480  0.742640  0.260730  1.0  -0.3224
  N  N435  1  0.095320  0.660270  0.114160  1.0  -0.3642
  N  N436  1  0.035910  0.669330  0.991130  1.0  0.0392
  N  N437  1  0.679390  0.623230  0.498500  1.0  0.0288
  N  N438  1  0.631430  0.621870  0.370170  1.0  -0.3817
  N  N439  1  0.149360  0.620670  0.362900  1.0  -0.3686
  N  N440  1  0.204550  0.618910  0.488020  1.0  0.0191
  N  N441  1  0.554070  0.642460  0.991100  1.0  0.031
  N  N442  1  0.601240  0.634820  0.119160  1.0  -0.3755
  N  N443  1  0.377710  0.234180  0.247320  1.0  -0.3311
  N  N444  1  0.868520  0.242640  0.239270  1.0  -0.3227
  N  N445  1  0.095320  0.839730  0.614160  1.0  -0.3642
  N  N446  1  0.035910  0.830670  0.491130  1.0  0.0389
  N  N447  1  0.679390  0.876770  0.998500  1.0  0.0285
  N  N448  1  0.631430  0.878130  0.870170  1.0  -0.3811
  N  N449  1  0.149360  0.879330  0.862900  1.0  -0.3689
  N  N450  1  0.204550  0.881090  0.988020  1.0  0.0189
  N  N451  1  0.554070  0.857540  0.491100  1.0  0.0308
  N  N452  1  0.601240  0.865180  0.619160  1.0  -0.3755
  N  N453  1  0.377710  0.265820  0.747320  1.0  -0.3317
  N  N454  1  0.868520  0.257360  0.739270  1.0  -0.3237
  N  N455  1  0.904680  0.339730  0.885840  1.0  -0.3647
  N  N456  1  0.964090  0.330670  0.008870  1.0  0.0396
  N  N457  1  0.320610  0.376770  0.501500  1.0  0.0287
  N  N458  1  0.368570  0.378130  0.629830  1.0  -0.3814
  N  N459  1  0.850640  0.379330  0.637100  1.0  -0.3679
  N  N460  1  0.795450  0.381090  0.511980  1.0  0.0176
  N  N461  1  0.445930  0.357540  0.008900  1.0  0.0309
  N  N462  1  0.398760  0.365180  0.880840  1.0  -0.3743
  N  N463  1  0.622290  0.765820  0.752680  1.0  -0.3323
  N  N464  1  0.131480  0.757360  0.760730  1.0  -0.3235
  O  O465  1  0.458350  0.057630  0.264190  1.0  -0.5919
  O  O466  1  0.511870  0.151240  0.271900  1.0  -0.584
  O  O467  1  0.760350  0.146350  0.264230  1.0  -0.6128
  O  O468  1  0.813660  0.052740  0.282710  1.0  -0.5862
  O  O469  1  0.302320  0.069870  0.256370  1.0  -0.5868
  O  O470  1  0.238600  0.158850  0.226600  1.0  -0.5725
  O  O471  1  0.955510  0.068290  0.276580  1.0  -0.6047
  O  O472  1  0.007970  0.159590  0.262300  1.0  -0.6273
  O  O473  1  0.541650  0.557630  0.235810  1.0  -0.5934
  O  O474  1  0.488130  0.651240  0.228100  1.0  -0.5854
  O  O475  1  0.239650  0.646350  0.235770  1.0  -0.6127
  O  O476  1  0.186340  0.552740  0.217290  1.0  -0.5869
  O  O477  1  0.697680  0.569870  0.243630  1.0  -0.5873
  O  O478  1  0.761400  0.658850  0.273400  1.0  -0.5725
  O  O479  1  0.044490  0.568290  0.223420  1.0  -0.605
  O  O480  1  0.992030  0.659590  0.237700  1.0  -0.6279
  O  O481  1  0.541650  0.942370  0.735810  1.0  -0.5938
  O  O482  1  0.488130  0.848760  0.728100  1.0  -0.5834
  O  O483  1  0.239650  0.853650  0.735770  1.0  -0.6135
  O  O484  1  0.186340  0.947260  0.717290  1.0  -0.5862
  O  O485  1  0.697680  0.930130  0.743630  1.0  -0.5878
  O  O486  1  0.761400  0.841150  0.773400  1.0  -0.5721
  O  O487  1  0.044490  0.931710  0.723420  1.0  -0.6066
  O  O488  1  0.992030  0.840410  0.737700  1.0  -0.6275
  O  O489  1  0.458350  0.442370  0.764190  1.0  -0.5916
  O  O490  1  0.511870  0.348760  0.771900  1.0  -0.5862
  O  O491  1  0.760350  0.353650  0.764230  1.0  -0.6133
  O  O492  1  0.813660  0.447260  0.782710  1.0  -0.586
  O  O493  1  0.302320  0.430130  0.756370  1.0  -0.5874
  O  O494  1  0.238600  0.341150  0.726600  1.0  -0.5697
  O  O495  1  0.955510  0.431710  0.776580  1.0  -0.6061
  O  O496  1  0.007970  0.340410  0.762300  1.0  -0.6275
