# generated using pymatgen
data_Ni6H53C83N7O27
_symmetry_space_group_name_H-M   'P 1'
_cell_length_a   10.94950000
_cell_length_b   22.08560000
_cell_length_c   28.33140000
_cell_angle_alpha   100.49600000
_cell_angle_beta   99.54200000
_cell_angle_gamma   101.67400000
_symmetry_Int_Tables_number   1
_chemical_formula_structural   Ni6H53C83N7O27
_chemical_formula_sum   'Ni12 H106 C166 N14 O54'
_cell_volume   6449.56681135
_cell_formula_units_Z   2
loop_
 _symmetry_equiv_pos_site_id
 _symmetry_equiv_pos_as_xyz
  1  'x, y, z'
loop_
 _atom_site_type_symbol
 _atom_site_label
 _atom_site_symmetry_multiplicity
 _atom_site_fract_x
 _atom_site_fract_y
 _atom_site_fract_z
 _atom_site_occupancy
 _atom_site_charge
  Ni  Ni1  1  0.399040  0.893030  0.192190  1.0  0.8223
  Ni  Ni2  1  0.311820  0.026890  0.161410  1.0  0.841
  Ni  Ni3  1  0.343700  0.200960  0.522020  1.0  0.8417
  Ni  Ni4  1  0.265860  0.339150  0.497640  1.0  0.8541
  Ni  Ni5  1  0.211970  0.650380  0.834890  1.0  0.8266
  Ni  Ni6  1  0.286980  0.509000  0.854530  1.0  0.8453
  Ni  Ni7  1  0.600960  0.106970  0.807810  1.0  0.8219
  Ni  Ni8  1  0.688180  0.973110  0.838590  1.0  0.8324
  Ni  Ni9  1  0.656300  0.799040  0.477980  1.0  0.8394
  Ni  Ni10  1  0.734140  0.660850  0.502360  1.0  0.8497
  Ni  Ni11  1  0.788030  0.349620  0.165110  1.0  0.8259
  Ni  Ni12  1  0.713020  0.491000  0.145470  1.0  0.8454
  H  H13  1  0.932300  0.967300  0.199800  1.0  0.1225
  H  H14  1  0.046600  0.804700  0.190100  1.0  0.1133
  H  H15  1  0.677000  0.805100  0.187300  1.0  0.1091
  H  H16  1  0.902100  0.604500  0.217500  1.0  0.0886
  H  H17  1  0.956000  0.713300  0.235400  1.0  0.1373
  H  H18  1  0.674400  0.707100  0.122800  1.0  0.1191
  H  H19  1  0.622900  0.600700  0.109300  1.0  0.1016
  H  H20  1  0.437600  0.579500  0.152800  1.0  0.0977
  H  H21  1  0.080400  0.582800  0.170500  1.0  0.1061
  H  H22  1  0.180500  0.415500  0.141500  1.0  0.1228
  H  H23  1  0.456100  0.779600  0.131500  1.0  0.1033
  H  H24  1  0.409700  0.668500  0.120800  1.0  0.116
  H  H25  1  0.204600  0.682100  0.224700  1.0  0.1148
  H  H26  1  0.248900  0.790100  0.232600  1.0  0.0913
  H  H27  1  0.345900  0.800000  0.032400  1.0  0.1061
  H  H28  1  0.107500  0.795000  0.906500  1.0  0.1052
  H  H29  1  0.159300  0.937600  0.022700  1.0  0.1074
  H  H30  1  0.743700  0.849300  0.854900  1.0  0.092
  H  H31  1  0.888900  0.810800  0.898900  1.0  0.1084
  H  H32  1  0.108200  0.990400  0.950300  1.0  0.1311
  H  H33  1  0.943800  0.021300  0.909500  1.0  0.0692
  H  H34  1  0.225300  0.177900  0.232100  1.0  0.102
  H  H35  1  0.151300  0.267000  0.355700  1.0  0.1028
  H  H36  1  0.362600  0.138300  0.359500  1.0  0.1062
  H  H37  1  0.030100  0.304800  0.159600  1.0  0.101
  H  H38  1  0.172000  0.259100  0.203100  1.0  0.1269
  H  H39  1  0.970600  0.270800  0.310000  1.0  0.1337
  H  H40  1  0.834400  0.311400  0.261900  1.0  0.0673
  H  H41  1  0.627400  0.115100  0.528200  1.0  0.101
  H  H42  1  0.986100  0.113500  0.512500  1.0  0.0999
  H  H43  1  0.876400  0.280600  0.532600  1.0  0.1242
  H  H44  1  0.606300  0.913900  0.545100  1.0  0.1022
  H  H45  1  0.655900  0.024000  0.559000  1.0  0.1289
  H  H46  1  0.876100  0.015500  0.459300  1.0  0.1234
  H  H47  1  0.817300  0.905600  0.442000  1.0  0.1164
  H  H48  1  0.333000  0.458200  0.695800  1.0  0.1127
  H  H49  1  0.119500  0.585200  0.691800  1.0  0.1
  H  H50  1  0.177300  0.489600  0.566200  1.0  0.1079
  H  H51  1  0.784500  0.625400  0.599900  1.0  0.0919
  H  H52  1  0.918700  0.576800  0.644800  1.0  0.1324
  H  H53  1  0.118300  0.569700  0.536500  1.0  0.1299
  H  H54  1  0.977500  0.618100  0.495200  1.0  0.0972
  H  H55  1  0.099200  0.454800  0.910000  1.0  0.1017
  H  H56  1  0.075200  0.453900  0.990200  1.0  0.1162
  H  H57  1  0.242800  0.508600  0.055700  1.0  0.0997
  H  H58  1  0.432800  0.564500  0.040300  1.0  0.1075
  H  H59  1  0.453700  0.563200  0.960100  1.0  0.1067
  H  H60  1  0.525900  0.005200  0.195700  1.0  0.4401
  H  H61  1  0.463800  0.010800  0.234200  1.0  0.4135
  H  H62  1  0.473600  0.314200  0.533700  1.0  0.423
  H  H63  1  0.405500  0.316000  0.570500  1.0  0.4299
  H  H64  1  0.351200  0.624900  0.906700  1.0  0.44
  H  H65  1  0.421200  0.625200  0.870500  1.0  0.3966
  H  H66  1  0.067700  0.032700  0.800200  1.0  0.1223
  H  H67  1  0.953400  0.195300  0.809900  1.0  0.1132
  H  H68  1  0.323000  0.194900  0.812700  1.0  0.1089
  H  H69  1  0.097900  0.395500  0.782500  1.0  0.089
  H  H70  1  0.044000  0.286700  0.764600  1.0  0.1371
  H  H71  1  0.325600  0.292900  0.877200  1.0  0.1197
  H  H72  1  0.377100  0.399300  0.890700  1.0  0.1014
  H  H73  1  0.562400  0.420500  0.847200  1.0  0.0978
  H  H74  1  0.919600  0.417200  0.829500  1.0  0.1067
  H  H75  1  0.819500  0.584500  0.858500  1.0  0.1225
  H  H76  1  0.543900  0.220400  0.868500  1.0  0.1028
  H  H77  1  0.590300  0.331500  0.879200  1.0  0.116
  H  H78  1  0.795400  0.317900  0.775300  1.0  0.115
  H  H79  1  0.751100  0.209900  0.767400  1.0  0.0908
  H  H80  1  0.654100  0.200000  0.967600  1.0  0.1065
  H  H81  1  0.892500  0.205000  0.093500  1.0  0.1043
  H  H82  1  0.840700  0.062400  0.977300  1.0  0.108
  H  H83  1  0.256300  0.150700  0.145100  1.0  0.0924
  H  H84  1  0.111100  0.189200  0.101100  1.0  0.1088
  H  H85  1  0.891800  0.009600  0.049700  1.0  0.1309
  H  H86  1  0.056200  0.978700  0.090500  1.0  0.0689
  H  H87  1  0.774700  0.822100  0.767900  1.0  0.1015
  H  H88  1  0.848700  0.733000  0.644300  1.0  0.1027
  H  H89  1  0.637400  0.861700  0.640500  1.0  0.1069
  H  H90  1  0.969900  0.695200  0.840400  1.0  0.1011
  H  H91  1  0.828000  0.740900  0.796900  1.0  0.126
  H  H92  1  0.029400  0.729200  0.690000  1.0  0.1335
  H  H93  1  0.165600  0.688600  0.738100  1.0  0.0667
  H  H94  1  0.372600  0.884900  0.471800  1.0  0.1008
  H  H95  1  0.013900  0.886500  0.487500  1.0  0.1007
  H  H96  1  0.123600  0.719400  0.467400  1.0  0.1242
  H  H97  1  0.393700  0.086100  0.454900  1.0  0.1018
  H  H98  1  0.344100  0.976000  0.441000  1.0  0.1286
  H  H99  1  0.123900  0.984500  0.540700  1.0  0.124
  H  H100  1  0.182700  0.094400  0.558000  1.0  0.1164
  H  H101  1  0.667000  0.541800  0.304200  1.0  0.113
  H  H102  1  0.880500  0.414800  0.308200  1.0  0.1004
  H  H103  1  0.822700  0.510400  0.433800  1.0  0.1077
  H  H104  1  0.215500  0.374600  0.400100  1.0  0.0916
  H  H105  1  0.081300  0.423200  0.355200  1.0  0.1327
  H  H106  1  0.881700  0.430300  0.463500  1.0  0.1296
  H  H107  1  0.022500  0.381900  0.504800  1.0  0.0974
  H  H108  1  0.900800  0.545200  0.090000  1.0  0.1016
  H  H109  1  0.924800  0.546100  0.009800  1.0  0.1156
  H  H110  1  0.757200  0.491400  0.944300  1.0  0.0997
  H  H111  1  0.567200  0.435500  0.959700  1.0  0.1076
  H  H112  1  0.546300  0.436800  0.039900  1.0  0.1064
  H  H113  1  0.474100  0.994800  0.804300  1.0  0.4404
  H  H114  1  0.536200  0.989200  0.765800  1.0  0.4131
  H  H115  1  0.526400  0.685800  0.466300  1.0  0.4231
  H  H116  1  0.594500  0.684000  0.429500  1.0  0.4287
  H  H117  1  0.648800  0.375100  0.093300  1.0  0.4418
  H  H118  1  0.578800  0.374800  0.129500  1.0  0.3971
  C  C119  1  0.788400  0.890520  0.192290  1.0  -0.1127
  C  C120  1  0.913100  0.923500  0.196150  1.0  -0.0404
  C  C121  1  0.008600  0.891470  0.194540  1.0  -0.139
  C  C122  1  0.981700  0.826090  0.190310  1.0  -0.0702
  C  C123  1  0.856500  0.793130  0.186380  1.0  0.0312
  C  C124  1  0.760200  0.826640  0.188490  1.0  -0.1194
  C  C125  1  0.677700  0.921990  0.194160  1.0  0.7024
  C  C126  1  0.132400  0.926360  0.189590  1.0  0.4971
  C  C127  1  0.855300  0.625690  0.198600  1.0  0.1816
  C  C128  1  0.889400  0.690960  0.209300  1.0  -0.2208
  C  C129  1  0.822500  0.722830  0.180300  1.0  0.0728
  C  C130  1  0.721300  0.686880  0.142530  1.0  -0.1769
  C  C131  1  0.691200  0.623640  0.134520  1.0  0.1618
  C  C132  1  0.329300  0.494300  0.149070  1.0  -0.1549
  C  C133  1  0.356200  0.558280  0.154200  1.0  -0.1458
  C  C134  1  0.263700  0.593810  0.161580  1.0  0.0188
  C  C135  1  0.142100  0.560740  0.164270  1.0  -0.0694
  C  C136  1  0.112800  0.493020  0.157500  1.0  -0.1345
  C  C137  1  0.201700  0.459600  0.148200  1.0  -0.0121
  C  C138  1  0.403700  0.759750  0.149730  1.0  0.1226
  C  C139  1  0.375200  0.692880  0.142960  1.0  -0.1378
  C  C140  1  0.292400  0.663500  0.170680  1.0  0.0907
  C  C141  1  0.252400  0.700280  0.204430  1.0  -0.1548
  C  C142  1  0.281500  0.765850  0.209610  1.0  0.1771
  C  C143  1  0.432600  0.461980  0.138840  1.0  0.6894
  C  C144  1  0.975100  0.462320  0.155130  1.0  0.6929
  C  C145  1  0.254000  0.871560  0.036860  1.0  -0.1299
  C  C146  1  0.288200  0.817030  0.014280  1.0  0.004
  C  C147  1  0.236300  0.788110  0.964760  1.0  -0.1105
  C  C148  1  0.145400  0.814470  0.939090  1.0  -0.0578
  C  C149  1  0.111000  0.867730  0.960450  1.0  0.0002
  C  C150  1  0.173000  0.898580  0.009100  1.0  -0.0669
  C  C151  1  0.815900  0.877610  0.875280  1.0  0.1564
  C  C152  1  0.903600  0.854400  0.901640  1.0  -0.1443
  C  C153  1  0.014300  0.893100  0.932510  1.0  0.0697
  C  C154  1  0.033700  0.960980  0.933080  1.0  -0.2003
  C  C155  1  0.936000  0.978000  0.906860  1.0  0.1736
  C  C156  1  0.307000  0.903780  0.090040  1.0  0.7323
  C  C157  1  0.267800  0.731560  0.937400  1.0  0.6993
  C  C158  1  0.299500  0.150410  0.290760  1.0  -0.1632
  C  C159  1  0.231600  0.183710  0.265870  1.0  -0.0873
  C  C160  1  0.171100  0.226150  0.288970  1.0  -0.0079
  C  C161  1  0.189700  0.237850  0.339690  1.0  -0.0848
  C  C162  1  0.264500  0.207230  0.367730  1.0  -0.1364
  C  C163  1  0.316600  0.161440  0.342330  1.0  0.0156
  C  C164  1  0.016900  0.296040  0.189470  1.0  0.1508
  C  C165  1  0.103700  0.269150  0.215740  1.0  -0.1707
  C  C166  1  0.085900  0.257880  0.260550  1.0  0.0743
  C  C167  1  0.983200  0.275630  0.279130  1.0  -0.2045
  C  C168  1  0.902600  0.300390  0.249700  1.0  0.18
  C  C169  1  0.360200  0.105180  0.261790  1.0  0.69
  C  C170  1  0.281800  0.225430  0.421970  1.0  0.7369
  C  C171  1  0.732800  0.199960  0.529560  1.0  -0.1442
  C  C172  1  0.708000  0.136440  0.525980  1.0  -0.0697
  C  C173  1  0.800800  0.101860  0.518970  1.0  0.0189
  C  C174  1  0.923700  0.135680  0.517130  1.0  -0.0622
  C  C175  1  0.954200  0.201420  0.522090  1.0  -0.1258
  C  C176  1  0.858600  0.236750  0.528860  1.0  -0.0379
  C  C177  1  0.659400  0.934140  0.527320  1.0  0.1585
  C  C178  1  0.689300  0.000430  0.535950  1.0  -0.1267
  C  C179  1  0.768400  0.030210  0.509950  1.0  0.068
  C  C180  1  0.819700  0.994900  0.475730  1.0  -0.1189
  C  C181  1  0.786800  0.929120  0.466130  1.0  0.156
  C  C182  1  0.626500  0.233740  0.533540  1.0  0.6811
  C  C183  1  0.084700  0.233230  0.519400  1.0  0.6999
  C  C184  1  0.262300  0.465490  0.627640  1.0  -0.1375
  C  C185  1  0.282500  0.479090  0.678050  1.0  0.0165
  C  C186  1  0.227900  0.524100  0.703090  1.0  -0.1508
  C  C187  1  0.153000  0.554040  0.675520  1.0  -0.0802
  C  C188  1  0.125200  0.539230  0.623400  1.0  0.0007
  C  C189  1  0.186300  0.497110  0.600130  1.0  -0.0863
  C  C190  1  0.850300  0.612710  0.586940  1.0  0.1507
  C  C191  1  0.932600  0.584680  0.614720  1.0  -0.1529
  C  C192  1  0.036500  0.568790  0.596090  1.0  0.0597
  C  C193  1  0.051800  0.580390  0.550040  1.0  -0.1533
  C  C194  1  0.965100  0.608350  0.524900  1.0  0.1549
  C  C195  1  0.316600  0.417510  0.599090  1.0  0.6829
  C  C196  1  0.249800  0.542430  0.757350  1.0  0.7222
  C  C197  1  0.165900  0.476500  0.936240  1.0  0.1593
  C  C198  1  0.151200  0.475970  0.984410  1.0  -0.1008
  C  C199  1  0.251400  0.508770  0.023560  1.0  -0.0777
  C  C200  1  0.365800  0.542180  0.014330  1.0  -0.0698
  C  C201  1  0.378000  0.541550  0.966260  1.0  0.1421
  C  C202  1  0.211600  0.109480  0.807710  1.0  -0.1121
  C  C203  1  0.086900  0.076500  0.803850  1.0  -0.0386
  C  C204  1  0.991400  0.108530  0.805460  1.0  -0.1406
  C  C205  1  0.018300  0.173910  0.809690  1.0  -0.0715
  C  C206  1  0.143500  0.206870  0.813620  1.0  0.0319
  C  C207  1  0.239800  0.173360  0.811510  1.0  -0.1187
  C  C208  1  0.322300  0.078010  0.805840  1.0  0.7018
  C  C209  1  0.867600  0.073640  0.810410  1.0  0.4968
  C  C210  1  0.144700  0.374310  0.801400  1.0  0.1829
  C  C211  1  0.110600  0.309040  0.790700  1.0  -0.2201
  C  C212  1  0.177500  0.277170  0.819700  1.0  0.0718
  C  C213  1  0.278700  0.313120  0.857470  1.0  -0.1765
  C  C214  1  0.308800  0.376360  0.865480  1.0  0.1619
  C  C215  1  0.670700  0.505700  0.850930  1.0  -0.1535
  C  C216  1  0.643800  0.441720  0.845800  1.0  -0.1457
  C  C217  1  0.736300  0.406190  0.838420  1.0  0.0176
  C  C218  1  0.857900  0.439260  0.835730  1.0  -0.0696
  C  C219  1  0.887200  0.506980  0.842500  1.0  -0.1327
  C  C220  1  0.798300  0.540400  0.851800  1.0  -0.0143
  C  C221  1  0.596300  0.240250  0.850270  1.0  0.1217
  C  C222  1  0.624800  0.307120  0.857040  1.0  -0.1378
  C  C223  1  0.707600  0.336500  0.829320  1.0  0.0911
  C  C224  1  0.747600  0.299720  0.795570  1.0  -0.155
  C  C225  1  0.718500  0.234150  0.790390  1.0  0.1773
  C  C226  1  0.567400  0.538020  0.861160  1.0  0.6893
  C  C227  1  0.024900  0.537680  0.844870  1.0  0.693
  C  C228  1  0.746000  0.128440  0.963140  1.0  -0.1293
  C  C229  1  0.711800  0.182970  0.985720  1.0  0.0023
  C  C230  1  0.763700  0.211890  0.035240  1.0  -0.1096
  C  C231  1  0.854600  0.185530  0.060910  1.0  -0.0573
  C  C232  1  0.889000  0.132270  0.039550  1.0  -0.0005
  C  C233  1  0.827000  0.101420  0.990900  1.0  -0.0662
  C  C234  1  0.184100  0.122390  0.124720  1.0  0.1567
  C  C235  1  0.096400  0.145600  0.098360  1.0  -0.1464
  C  C236  1  0.985700  0.106900  0.067490  1.0  0.0694
  C  C237  1  0.966300  0.039020  0.066920  1.0  -0.1986
  C  C238  1  0.064000  0.022000  0.093140  1.0  0.1745
  C  C239  1  0.693000  0.096220  0.909960  1.0  0.7321
  C  C240  1  0.732200  0.268440  0.062600  1.0  0.6993
  C  C241  1  0.700500  0.849590  0.709240  1.0  -0.1631
  C  C242  1  0.768400  0.816290  0.734130  1.0  -0.0863
  C  C243  1  0.828900  0.773850  0.711030  1.0  -0.0075
  C  C244  1  0.810300  0.762150  0.660310  1.0  -0.0835
  C  C245  1  0.735500  0.792770  0.632270  1.0  -0.1351
  C  C246  1  0.683400  0.838560  0.657670  1.0  0.0153
  C  C247  1  0.983100  0.703960  0.810530  1.0  0.1511
  C  C248  1  0.896300  0.730850  0.784260  1.0  -0.1708
  C  C249  1  0.914100  0.742120  0.739450  1.0  0.0753
  C  C250  1  0.016800  0.724370  0.720870  1.0  -0.204
  C  C251  1  0.097400  0.699610  0.750300  1.0  0.1813
  C  C252  1  0.639800  0.894820  0.738210  1.0  0.6907
  C  C253  1  0.718200  0.774570  0.578030  1.0  0.7366
  C  C254  1  0.267200  0.800040  0.470440  1.0  -0.1438
  C  C255  1  0.292000  0.863560  0.474020  1.0  -0.0689
  C  C256  1  0.199200  0.898140  0.481030  1.0  0.0191
  C  C257  1  0.076300  0.864320  0.482870  1.0  -0.0632
  C  C258  1  0.045800  0.798580  0.477910  1.0  -0.1279
  C  C259  1  0.141400  0.763250  0.471140  1.0  -0.0341
  C  C260  1  0.340600  0.065860  0.472680  1.0  0.1588
  C  C261  1  0.310700  0.999570  0.464050  1.0  -0.1253
  C  C262  1  0.231600  0.969790  0.490050  1.0  0.0679
  C  C263  1  0.180300  0.005100  0.524270  1.0  -0.1189
  C  C264  1  0.213200  0.070880  0.533870  1.0  0.1516
  C  C265  1  0.373500  0.766260  0.466460  1.0  0.6808
  C  C266  1  0.915300  0.766770  0.480600  1.0  0.7002
  C  C267  1  0.737700  0.534510  0.372360  1.0  -0.1367
  C  C268  1  0.717500  0.520910  0.321950  1.0  0.0156
  C  C269  1  0.772100  0.475900  0.296910  1.0  -0.1512
  C  C270  1  0.847000  0.445960  0.324480  1.0  -0.081
  C  C271  1  0.874800  0.460770  0.376600  1.0  0.0007
  C  C272  1  0.813700  0.502890  0.399870  1.0  -0.0851
  C  C273  1  0.149700  0.387290  0.413060  1.0  0.1494
  C  C274  1  0.067400  0.415320  0.385280  1.0  -0.1532
  C  C275  1  0.963500  0.431210  0.403910  1.0  0.0596
  C  C276  1  0.948200  0.419610  0.449960  1.0  -0.1531
  C  C277  1  0.034900  0.391650  0.475100  1.0  0.1545
  C  C278  1  0.683400  0.582490  0.400910  1.0  0.6845
  C  C279  1  0.750200  0.457570  0.242650  1.0  0.7201
  C  C280  1  0.834100  0.523500  0.063760  1.0  0.1598
  C  C281  1  0.848800  0.524030  0.015590  1.0  -0.1
  C  C282  1  0.748600  0.491230  0.976440  1.0  -0.0777
  C  C283  1  0.634200  0.457820  0.985670  1.0  -0.0696
  C  C284  1  0.622000  0.458450  0.033740  1.0  0.142
  N  N285  1  0.758600  0.591340  0.162550  1.0  -0.337
  N  N286  1  0.353600  0.795550  0.183360  1.0  -0.3286
  N  N287  1  0.829300  0.939230  0.877490  1.0  -0.3103
  N  N288  1  0.913100  0.309850  0.206470  1.0  -0.3139
  N  N289  1  0.707400  0.898320  0.492960  1.0  -0.3329
  N  N290  1  0.864200  0.621570  0.542630  1.0  -0.3088
  N  N291  1  0.278700  0.509010  0.927560  1.0  -0.333
  N  N292  1  0.241400  0.408660  0.837450  1.0  -0.3378
  N  N293  1  0.646400  0.204450  0.816640  1.0  -0.3288
  N  N294  1  0.170700  0.060770  0.122510  1.0  -0.3097
  N  N295  1  0.086900  0.690150  0.793530  1.0  -0.3146
  N  N296  1  0.292600  0.101680  0.507040  1.0  -0.3323
  N  N297  1  0.135800  0.378430  0.457370  1.0  -0.3099
  N  N298  1  0.721300  0.490990  0.072440  1.0  -0.3324
  O  O299  1  0.593400  0.895190  0.212520  1.0  -0.5533
  O  O300  1  0.679500  0.972660  0.179580  1.0  -0.5282
  O  O301  1  0.172400  0.984000  0.187780  1.0  -0.607
  O  O302  1  0.220400  0.889540  0.195640  1.0  -0.6306
  O  O303  1  0.529600  0.493400  0.131390  1.0  -0.5697
  O  O304  1  0.419500  0.402670  0.140910  1.0  -0.5552
  O  O305  1  0.947200  0.406260  0.151430  1.0  -0.5574
  O  O306  1  0.900900  0.498410  0.161190  1.0  -0.5971
  O  O307  1  0.278300  0.955950  0.102620  1.0  -0.6383
  O  O308  1  0.367200  0.876430  0.116890  1.0  -0.5985
  O  O309  1  0.336600  0.701990  0.958660  1.0  -0.5557
  O  O310  1  0.214700  0.716440  0.892470  1.0  -0.6113
  O  O311  1  0.341200  0.102270  0.216670  1.0  -0.5764
  O  O312  1  0.410900  0.066950  0.283050  1.0  -0.4976
  O  O313  1  0.342700  0.196840  0.447840  1.0  -0.5783
  O  O314  1  0.238100  0.270340  0.437740  1.0  -0.597
  O  O315  1  0.524300  0.195600  0.533780  1.0  -0.6236
  O  O316  1  0.642600  0.290760  0.532880  1.0  -0.5222
  O  O317  1  0.156700  0.196050  0.513000  1.0  -0.597
  O  O318  1  0.119000  0.293130  0.523400  1.0  -0.6025
  O  O319  1  0.300800  0.416410  0.553060  1.0  -0.6165
  O  O320  1  0.372200  0.384040  0.618920  1.0  -0.4873
  O  O321  1  0.295800  0.508190  0.782730  1.0  -0.594
  O  O322  1  0.211100  0.589800  0.772340  1.0  -0.6355
  O  O323  1  0.454900  0.994170  0.203960  1.0  -0.8219
  O  O324  1  0.400400  0.302180  0.540000  1.0  -0.8223
  O  O325  1  0.347600  0.612470  0.876190  1.0  -0.8797
  O  O326  1  0.406600  0.104810  0.787480  1.0  -0.5547
  O  O327  1  0.320500  0.027340  0.820420  1.0  -0.5302
  O  O328  1  0.827600  0.016000  0.812220  1.0  -0.6073
  O  O329  1  0.779600  0.110460  0.804360  1.0  -0.6304
  O  O330  1  0.470400  0.506600  0.868610  1.0  -0.5696
  O  O331  1  0.580500  0.597330  0.859090  1.0  -0.5587
  O  O332  1  0.052800  0.593740  0.848570  1.0  -0.5586
  O  O333  1  0.099100  0.501590  0.838810  1.0  -0.5981
  O  O334  1  0.721700  0.044050  0.897380  1.0  -0.6378
  O  O335  1  0.632800  0.123570  0.883110  1.0  -0.5974
  O  O336  1  0.663400  0.298010  0.041340  1.0  -0.5568
  O  O337  1  0.785300  0.283560  0.107530  1.0  -0.6102
  O  O338  1  0.658800  0.897730  0.783330  1.0  -0.5756
  O  O339  1  0.589100  0.933050  0.716950  1.0  -0.4973
  O  O340  1  0.657300  0.803160  0.552160  1.0  -0.5787
  O  O341  1  0.761900  0.729660  0.562260  1.0  -0.5974
  O  O342  1  0.475700  0.804400  0.466220  1.0  -0.6233
  O  O343  1  0.357400  0.709240  0.467120  1.0  -0.5221
  O  O344  1  0.843300  0.803950  0.487000  1.0  -0.5965
  O  O345  1  0.881000  0.706870  0.476600  1.0  -0.6028
  O  O346  1  0.699200  0.583590  0.446940  1.0  -0.6155
  O  O347  1  0.627800  0.615960  0.381080  1.0  -0.4826
  O  O348  1  0.704200  0.491810  0.217270  1.0  -0.5942
  O  O349  1  0.788900  0.410200  0.227660  1.0  -0.6349
  O  O350  1  0.545100  0.005830  0.796040  1.0  -0.8196
  O  O351  1  0.599600  0.697820  0.460000  1.0  -0.8222
  O  O352  1  0.652400  0.387530  0.123810  1.0  -0.876
