# generated using pymatgen
data_Ag3H40C44(N3O)4
_symmetry_space_group_name_H-M   'P 1'
_cell_length_a   15.82500000
_cell_length_b   15.82500000
_cell_length_c   43.70300000
_cell_angle_alpha   90.00000000
_cell_angle_beta   90.00000000
_cell_angle_gamma   120.00000000
_symmetry_Int_Tables_number   1
_chemical_formula_structural   Ag3H40C44(N3O)4
_chemical_formula_sum   'Ag18 H240 C264 N72 O24'
_cell_volume   9478.27531088
_cell_formula_units_Z   6
loop_
 _symmetry_equiv_pos_site_id
 _symmetry_equiv_pos_as_xyz
  1  'x, y, z'
loop_
 _atom_site_type_symbol
 _atom_site_label
 _atom_site_symmetry_multiplicity
 _atom_site_fract_x
 _atom_site_fract_y
 _atom_site_fract_z
 _atom_site_occupancy
 _atom_site_charge
  Ag  Ag1  1  0.413160  0.586840  0.083330  1.0  0.4089
  Ag  Ag2  1  0.247570  0.752430  0.083330  1.0  0.4081
  Ag  Ag3  1  0.413160  0.826330  0.750000  1.0  0.4074
  Ag  Ag4  1  0.247570  0.495150  0.750000  1.0  0.4076
  Ag  Ag5  1  0.173670  0.586840  0.416670  1.0  0.4097
  Ag  Ag6  1  0.504850  0.752430  0.416670  1.0  0.408
  Ag  Ag7  1  0.546260  0.773130  0.916670  1.0  0.5191
  Ag  Ag8  1  0.226870  0.773130  0.583330  1.0  0.52
  Ag  Ag9  1  0.226870  0.453740  0.250000  1.0  0.5172
  Ag  Ag10  1  0.586840  0.413160  0.583330  1.0  0.4098
  Ag  Ag11  1  0.752430  0.247570  0.583330  1.0  0.4077
  Ag  Ag12  1  0.586840  0.173670  0.250000  1.0  0.4068
  Ag  Ag13  1  0.752430  0.504850  0.250000  1.0  0.4076
  Ag  Ag14  1  0.826330  0.413160  0.916670  1.0  0.4084
  Ag  Ag15  1  0.495150  0.247570  0.916670  1.0  0.4091
  Ag  Ag16  1  0.453740  0.226870  0.416670  1.0  0.5232
  Ag  Ag17  1  0.773130  0.226870  0.083330  1.0  0.5227
  Ag  Ag18  1  0.773130  0.546260  0.750000  1.0  0.5179
  H  H19  1  0.607900  0.624900  0.077900  1.0  0.1191
  H  H20  1  0.767300  0.661400  0.070600  1.0  0.0977
  H  H21  1  0.850900  0.736100  0.024500  1.0  0.1061
  H  H22  1  0.771500  0.768800  0.985300  1.0  0.1267
  H  H23  1  0.460900  0.708400  0.971900  1.0  0.1176
  H  H24  1  0.354000  0.736700  0.986200  1.0  0.0862
  H  H25  1  0.257500  0.694900  0.006800  1.0  0.1053
  H  H26  1  0.294400  0.577200  0.965300  1.0  0.1178
  H  H27  1  0.222500  0.618400  0.958000  1.0  0.1157
  H  H28  1  0.196100  0.539800  0.984600  1.0  0.117
  H  H29  1  0.184700  0.409000  0.090800  1.0  0.1189
  H  H30  1  0.133500  0.314700  0.069200  1.0  0.1254
  H  H31  1  0.068200  0.346700  0.088600  1.0  0.1073
  H  H32  1  0.182900  0.442700  0.036000  1.0  0.0886
  H  H33  1  0.068000  0.399900  0.039600  1.0  0.0879
  H  H34  1  0.962500  0.403200  0.068400  1.0  0.1073
  H  H35  1  0.786400  0.524100  0.114700  1.0  0.1175
  H  H36  1  0.828200  0.673300  0.136100  1.0  0.0943
  H  H37  1  0.991500  0.801700  0.137000  1.0  0.1204
  H  H38  1  0.111400  0.780600  0.115700  1.0  0.108
  H  H39  1  0.375100  0.983000  0.744570  1.0  0.1187
  H  H40  1  0.338600  0.105900  0.737270  1.0  0.0984
  H  H41  1  0.263900  0.114800  0.691170  1.0  0.1063
  H  H42  1  0.231200  0.002700  0.651970  1.0  0.1252
  H  H43  1  0.291600  0.752500  0.638570  1.0  0.1155
  H  H44  1  0.263300  0.617300  0.652870  1.0  0.0866
  H  H45  1  0.305100  0.562600  0.673470  1.0  0.105
  H  H46  1  0.422800  0.717200  0.631970  1.0  0.1205
  H  H47  1  0.381600  0.604100  0.624670  1.0  0.1172
  H  H48  1  0.460200  0.656300  0.651270  1.0  0.1144
  H  H49  1  0.591000  0.775700  0.757470  1.0  0.1198
  H  H50  1  0.685300  0.818800  0.735870  1.0  0.1257
  H  H51  1  0.653300  0.721500  0.755270  1.0  0.107
  H  H52  1  0.557300  0.740200  0.702670  1.0  0.0885
  H  H53  1  0.600100  0.668100  0.706270  1.0  0.0878
  H  H54  1  0.596800  0.559300  0.735070  1.0  0.1065
  H  H55  1  0.475900  0.262300  0.781370  1.0  0.1176
  H  H56  1  0.326700  0.154900  0.802770  1.0  0.094
  H  H57  1  0.198300  0.189800  0.803670  1.0  0.1204
  H  H58  1  0.219400  0.330800  0.782370  1.0  0.1076
  H  H59  1  0.017000  0.392100  0.411230  1.0  0.1193
  H  H60  1  0.894100  0.232700  0.403930  1.0  0.0991
  H  H61  1  0.885200  0.149100  0.357830  1.0  0.1068
  H  H62  1  0.997300  0.228500  0.318630  1.0  0.1256
  H  H63  1  0.247500  0.539100  0.305230  1.0  0.1168
  H  H64  1  0.382700  0.646000  0.319530  1.0  0.089
  H  H65  1  0.437400  0.742500  0.340130  1.0  0.1066
  H  H66  1  0.282800  0.705600  0.298630  1.0  0.1183
  H  H67  1  0.395900  0.777500  0.291330  1.0  0.1158
  H  H68  1  0.343700  0.803900  0.317930  1.0  0.1166
  H  H69  1  0.224300  0.815300  0.424130  1.0  0.1176
  H  H70  1  0.181200  0.866500  0.402530  1.0  0.1288
  H  H71  1  0.278500  0.931800  0.421930  1.0  0.1069
  H  H72  1  0.259800  0.817100  0.369330  1.0  0.0883
  H  H73  1  0.331900  0.932000  0.372930  1.0  0.0886
  H  H74  1  0.440700  0.037500  0.401730  1.0  0.1065
  H  H75  1  0.737700  0.213600  0.448030  1.0  0.1177
  H  H76  1  0.845100  0.171800  0.469430  1.0  0.0946
  H  H77  1  0.810200  0.008500  0.470330  1.0  0.1204
  H  H78  1  0.669200  0.888600  0.449030  1.0  0.108
  H  H79  1  0.375100  0.392100  0.088770  1.0  0.1202
  H  H80  1  0.338600  0.232700  0.096070  1.0  0.0977
  H  H81  1  0.263900  0.149100  0.142170  1.0  0.107
  H  H82  1  0.231200  0.228500  0.181370  1.0  0.1261
  H  H83  1  0.291600  0.539100  0.194770  1.0  0.1173
  H  H84  1  0.263300  0.646000  0.180470  1.0  0.088
  H  H85  1  0.305100  0.742500  0.159870  1.0  0.1072
  H  H86  1  0.422800  0.705600  0.201370  1.0  0.1177
  H  H87  1  0.381600  0.777500  0.208670  1.0  0.1176
  H  H88  1  0.460200  0.803900  0.182070  1.0  0.1169
  H  H89  1  0.591000  0.815300  0.075870  1.0  0.1193
  H  H90  1  0.685300  0.866500  0.097470  1.0  0.1274
  H  H91  1  0.653300  0.931800  0.078070  1.0  0.1091
  H  H92  1  0.557300  0.817100  0.130670  1.0  0.088
  H  H93  1  0.600100  0.932000  0.127070  1.0  0.0873
  H  H94  1  0.596800  0.037500  0.098270  1.0  0.1065
  H  H95  1  0.475900  0.213600  0.051970  1.0  0.1181
  H  H96  1  0.326700  0.171800  0.030570  1.0  0.0944
  H  H97  1  0.198300  0.008500  0.029670  1.0  0.1205
  H  H98  1  0.219400  0.888600  0.050970  1.0  0.1081
  H  H99  1  0.017000  0.624900  0.422100  1.0  0.1204
  H  H100  1  0.894100  0.661400  0.429400  1.0  0.0982
  H  H101  1  0.885200  0.736100  0.475500  1.0  0.1064
  H  H102  1  0.997300  0.768800  0.514700  1.0  0.127
  H  H103  1  0.247500  0.708400  0.528100  1.0  0.1166
  H  H104  1  0.382700  0.736700  0.513800  1.0  0.0866
  H  H105  1  0.437400  0.694900  0.493200  1.0  0.1067
  H  H106  1  0.282800  0.577200  0.534700  1.0  0.1184
  H  H107  1  0.395900  0.618400  0.542000  1.0  0.1173
  H  H108  1  0.343700  0.539800  0.515400  1.0  0.1173
  H  H109  1  0.224300  0.409000  0.409200  1.0  0.1194
  H  H110  1  0.181200  0.314700  0.430800  1.0  0.1248
  H  H111  1  0.278500  0.346700  0.411400  1.0  0.1062
  H  H112  1  0.259800  0.442700  0.464000  1.0  0.0882
  H  H113  1  0.331900  0.399900  0.460400  1.0  0.0865
  H  H114  1  0.440700  0.403200  0.431600  1.0  0.1067
  H  H115  1  0.737700  0.524100  0.385300  1.0  0.118
  H  H116  1  0.845100  0.673300  0.363900  1.0  0.094
  H  H117  1  0.810200  0.801700  0.363000  1.0  0.1196
  H  H118  1  0.669200  0.780600  0.384300  1.0  0.1083
  H  H119  1  0.607900  0.983000  0.755430  1.0  0.1196
  H  H120  1  0.767300  0.105900  0.762730  1.0  0.0983
  H  H121  1  0.850900  0.114800  0.808830  1.0  0.1062
  H  H122  1  0.771500  0.002700  0.848030  1.0  0.1257
  H  H123  1  0.460900  0.752500  0.861430  1.0  0.1158
  H  H124  1  0.354000  0.617300  0.847130  1.0  0.0874
  H  H125  1  0.257500  0.562600  0.826530  1.0  0.1038
  H  H126  1  0.294400  0.717200  0.868030  1.0  0.1189
  H  H127  1  0.222500  0.604100  0.875330  1.0  0.1183
  H  H128  1  0.196100  0.656300  0.848730  1.0  0.1156
  H  H129  1  0.184700  0.775700  0.742530  1.0  0.1191
  H  H130  1  0.133500  0.818800  0.764130  1.0  0.1263
  H  H131  1  0.068200  0.721500  0.744730  1.0  0.1074
  H  H132  1  0.182900  0.740200  0.797330  1.0  0.0875
  H  H133  1  0.068000  0.668100  0.793730  1.0  0.0865
  H  H134  1  0.962500  0.559300  0.764930  1.0  0.107
  H  H135  1  0.786400  0.262300  0.718630  1.0  0.1177
  H  H136  1  0.828200  0.154900  0.697230  1.0  0.0936
  H  H137  1  0.991500  0.189800  0.696330  1.0  0.12
  H  H138  1  0.111400  0.330800  0.717630  1.0  0.109
  H  H139  1  0.392100  0.375100  0.577900  1.0  0.1194
  H  H140  1  0.232700  0.338600  0.570600  1.0  0.0987
  H  H141  1  0.149100  0.263900  0.524500  1.0  0.1066
  H  H142  1  0.228500  0.231200  0.485300  1.0  0.1251
  H  H143  1  0.539100  0.291600  0.471900  1.0  0.1167
  H  H144  1  0.646000  0.263300  0.486200  1.0  0.0843
  H  H145  1  0.742500  0.305100  0.506800  1.0  0.106
  H  H146  1  0.705600  0.422800  0.465300  1.0  0.1193
  H  H147  1  0.777500  0.381600  0.458000  1.0  0.1165
  H  H148  1  0.803900  0.460200  0.484600  1.0  0.1169
  H  H149  1  0.815300  0.591000  0.590800  1.0  0.1187
  H  H150  1  0.866500  0.685300  0.569200  1.0  0.1264
  H  H151  1  0.931800  0.653300  0.588600  1.0  0.106
  H  H152  1  0.817100  0.557300  0.536000  1.0  0.0887
  H  H153  1  0.932000  0.600100  0.539600  1.0  0.0876
  H  H154  1  0.037500  0.596800  0.568400  1.0  0.1069
  H  H155  1  0.213600  0.475900  0.614700  1.0  0.1174
  H  H156  1  0.171800  0.326700  0.636100  1.0  0.0942
  H  H157  1  0.008500  0.198300  0.637000  1.0  0.1201
  H  H158  1  0.888600  0.219400  0.615700  1.0  0.1078
  H  H159  1  0.624900  0.017000  0.244570  1.0  0.1191
  H  H160  1  0.661400  0.894100  0.237270  1.0  0.0989
  H  H161  1  0.736100  0.885200  0.191170  1.0  0.1064
  H  H162  1  0.768800  0.997300  0.151970  1.0  0.1259
  H  H163  1  0.708400  0.247500  0.138570  1.0  0.1158
  H  H164  1  0.736700  0.382700  0.152870  1.0  0.0869
  H  H165  1  0.694900  0.437400  0.173470  1.0  0.1055
  H  H166  1  0.577200  0.282800  0.131970  1.0  0.1172
  H  H167  1  0.618400  0.395900  0.124670  1.0  0.1163
  H  H168  1  0.539800  0.343700  0.151270  1.0  0.1153
  H  H169  1  0.409000  0.224300  0.257470  1.0  0.1196
  H  H170  1  0.314700  0.181200  0.235870  1.0  0.1252
  H  H171  1  0.346700  0.278500  0.255270  1.0  0.1064
  H  H172  1  0.442700  0.259800  0.202670  1.0  0.0889
  H  H173  1  0.399900  0.331900  0.206270  1.0  0.0876
  H  H174  1  0.403200  0.440700  0.235070  1.0  0.107
  H  H175  1  0.524100  0.737700  0.281370  1.0  0.1173
  H  H176  1  0.673300  0.845100  0.302770  1.0  0.0952
  H  H177  1  0.801700  0.810200  0.303670  1.0  0.1202
  H  H178  1  0.780600  0.669200  0.282370  1.0  0.1088
  H  H179  1  0.983000  0.607900  0.911230  1.0  0.1189
  H  H180  1  0.105900  0.767300  0.903930  1.0  0.0977
  H  H181  1  0.114800  0.850900  0.857830  1.0  0.1072
  H  H182  1  0.002700  0.771500  0.818630  1.0  0.1266
  H  H183  1  0.752500  0.460900  0.805230  1.0  0.117
  H  H184  1  0.617300  0.354000  0.819530  1.0  0.0881
  H  H185  1  0.562600  0.257500  0.840130  1.0  0.1068
  H  H186  1  0.717200  0.294400  0.798630  1.0  0.1187
  H  H187  1  0.604100  0.222500  0.791330  1.0  0.1158
  H  H188  1  0.656300  0.196100  0.817930  1.0  0.1171
  H  H189  1  0.775700  0.184700  0.924130  1.0  0.1194
  H  H190  1  0.818800  0.133500  0.902530  1.0  0.127
  H  H191  1  0.721500  0.068200  0.921930  1.0  0.1078
  H  H192  1  0.740200  0.182900  0.869330  1.0  0.088
  H  H193  1  0.668100  0.068000  0.872930  1.0  0.0891
  H  H194  1  0.559300  0.962500  0.901730  1.0  0.1065
  H  H195  1  0.262300  0.786400  0.948030  1.0  0.1178
  H  H196  1  0.154900  0.828200  0.969430  1.0  0.0945
  H  H197  1  0.189800  0.991500  0.970330  1.0  0.1204
  H  H198  1  0.330800  0.111400  0.949030  1.0  0.1081
  H  H199  1  0.624900  0.607900  0.588770  1.0  0.1199
  H  H200  1  0.661400  0.767300  0.596070  1.0  0.0988
  H  H201  1  0.736100  0.850900  0.642170  1.0  0.1069
  H  H202  1  0.768800  0.771500  0.681370  1.0  0.126
  H  H203  1  0.708400  0.460900  0.694770  1.0  0.1162
  H  H204  1  0.736700  0.354000  0.680470  1.0  0.088
  H  H205  1  0.694900  0.257500  0.659870  1.0  0.1066
  H  H206  1  0.577200  0.294400  0.701370  1.0  0.1177
  H  H207  1  0.618400  0.222500  0.708670  1.0  0.1171
  H  H208  1  0.539800  0.196100  0.682070  1.0  0.1172
  H  H209  1  0.409000  0.184700  0.575870  1.0  0.1189
  H  H210  1  0.314700  0.133500  0.597470  1.0  0.1285
  H  H211  1  0.346700  0.068200  0.578070  1.0  0.1075
  H  H212  1  0.442700  0.182900  0.630670  1.0  0.0875
  H  H213  1  0.399900  0.068000  0.627070  1.0  0.0879
  H  H214  1  0.403200  0.962500  0.598270  1.0  0.106
  H  H215  1  0.524100  0.786400  0.551970  1.0  0.1178
  H  H216  1  0.673300  0.828200  0.530570  1.0  0.0943
  H  H217  1  0.801700  0.991500  0.529670  1.0  0.1205
  H  H218  1  0.780600  0.111400  0.550970  1.0  0.1077
  H  H219  1  0.983000  0.375100  0.922100  1.0  0.1198
  H  H220  1  0.105900  0.338600  0.929400  1.0  0.0977
  H  H221  1  0.114800  0.263900  0.975500  1.0  0.1056
  H  H222  1  0.002700  0.231200  0.014700  1.0  0.1255
  H  H223  1  0.752500  0.291600  0.028100  1.0  0.1173
  H  H224  1  0.617300  0.263300  0.013800  1.0  0.0841
  H  H225  1  0.562600  0.305100  0.993200  1.0  0.105
  H  H226  1  0.717200  0.422800  0.034700  1.0  0.1172
  H  H227  1  0.604100  0.381600  0.042000  1.0  0.118
  H  H228  1  0.656300  0.460200  0.015400  1.0  0.1174
  H  H229  1  0.775700  0.591000  0.909200  1.0  0.118
  H  H230  1  0.818800  0.685300  0.930800  1.0  0.1258
  H  H231  1  0.721500  0.653300  0.911400  1.0  0.1081
  H  H232  1  0.740200  0.557300  0.964000  1.0  0.0877
  H  H233  1  0.668100  0.600100  0.960400  1.0  0.0872
  H  H234  1  0.559300  0.596800  0.931600  1.0  0.1073
  H  H235  1  0.262300  0.475900  0.885300  1.0  0.1175
  H  H236  1  0.154900  0.326700  0.863900  1.0  0.0938
  H  H237  1  0.189800  0.198300  0.863000  1.0  0.1203
  H  H238  1  0.330800  0.219400  0.884300  1.0  0.1075
  H  H239  1  0.392100  0.017000  0.255430  1.0  0.1196
  H  H240  1  0.232700  0.894100  0.262730  1.0  0.0985
  H  H241  1  0.149100  0.885200  0.308830  1.0  0.1066
  H  H242  1  0.228500  0.997300  0.348030  1.0  0.1255
  H  H243  1  0.539100  0.247500  0.361430  1.0  0.1159
  H  H244  1  0.646000  0.382700  0.347130  1.0  0.0861
  H  H245  1  0.742500  0.437400  0.326530  1.0  0.1052
  H  H246  1  0.705600  0.282800  0.368030  1.0  0.1185
  H  H247  1  0.777500  0.395900  0.375330  1.0  0.1181
  H  H248  1  0.803900  0.343700  0.348730  1.0  0.1146
  H  H249  1  0.815300  0.224300  0.242530  1.0  0.1201
  H  H250  1  0.866500  0.181200  0.264130  1.0  0.1257
  H  H251  1  0.931800  0.278500  0.244730  1.0  0.1075
  H  H252  1  0.817100  0.259800  0.297330  1.0  0.0884
  H  H253  1  0.932000  0.331900  0.293730  1.0  0.0867
  H  H254  1  0.037500  0.440700  0.264930  1.0  0.1068
  H  H255  1  0.213600  0.737700  0.218630  1.0  0.1176
  H  H256  1  0.171800  0.845100  0.197230  1.0  0.0941
  H  H257  1  0.008500  0.810200  0.196330  1.0  0.1209
  H  H258  1  0.888600  0.669200  0.217630  1.0  0.1073
  C  C259  1  0.587770  0.667650  0.035110  1.0  0.1762
  C  C260  1  0.639500  0.651740  0.058930  1.0  -0.1722
  C  C261  1  0.734370  0.674800  0.054790  1.0  -0.1038
  C  C262  1  0.784560  0.719200  0.026890  1.0  -0.1074
  C  C263  1  0.737900  0.737470  0.003520  1.0  -0.2273
  C  C264  1  0.640030  0.708770  0.007380  1.0  0.0852
  C  C265  1  0.496100  0.699650  0.988000  1.0  0.0163
  C  C266  1  0.451100  0.664880  0.016760  1.0  0.131
  C  C267  1  0.351990  0.650860  0.021490  1.0  0.1936
  C  C268  1  0.303870  0.678160  0.997150  1.0  -0.1733
  C  C269  1  0.249400  0.596100  0.974220  1.0  -0.3207
  C  C270  1  0.129200  0.370400  0.077190  1.0  -0.3257
  C  C271  1  0.131250  0.434020  0.050540  1.0  -0.1701
  C  C272  1  0.149460  0.531430  0.060480  1.0  0.1918
  C  C273  1  0.071750  0.541930  0.076090  1.0  0.1053
  C  C274  1  0.976620  0.463890  0.077070  1.0  0.0405
  C  C275  1  0.925710  0.561400  0.103470  1.0  0.1006
  C  C276  1  0.852590  0.575040  0.115220  1.0  -0.1207
  C  C277  1  0.877660  0.663200  0.127510  1.0  -0.0663
  C  C278  1  0.975700  0.740900  0.127960  1.0  -0.1174
  C  C279  1  0.046010  0.727960  0.115590  1.0  -0.1184
  C  C280  1  0.025170  0.637370  0.102320  1.0  0.1619
  C  C281  1  0.332350  0.920120  0.701780  1.0  0.1752
  C  C282  1  0.348260  0.987760  0.725600  1.0  -0.171
  C  C283  1  0.325200  0.059570  0.721460  1.0  -0.105
  C  C284  1  0.280800  0.065360  0.693560  1.0  -0.1068
  C  C285  1  0.262530  0.000430  0.670190  1.0  -0.2305
  C  C286  1  0.291230  0.931260  0.674050  1.0  0.0844
  C  C287  1  0.300350  0.796450  0.654670  1.0  0.0153
  C  C288  1  0.335120  0.786220  0.683430  1.0  0.1317
  C  C289  1  0.349140  0.701130  0.688160  1.0  0.1919
  C  C290  1  0.321840  0.625710  0.663820  1.0  -0.1729
  C  C291  1  0.403900  0.653300  0.640890  1.0  -0.3205
  C  C292  1  0.629600  0.758800  0.743860  1.0  -0.3245
  C  C293  1  0.565980  0.697230  0.717210  1.0  -0.1709
  C  C294  1  0.468570  0.618030  0.727150  1.0  0.1942
  C  C295  1  0.458070  0.529820  0.742760  1.0  0.1046
  C  C296  1  0.536110  0.512730  0.743740  1.0  0.0421
  C  C297  1  0.438600  0.364310  0.770140  1.0  0.0992
  C  C298  1  0.424960  0.277550  0.781890  1.0  -0.12
  C  C299  1  0.336800  0.214460  0.794180  1.0  -0.0688
  C  C300  1  0.259100  0.234800  0.794630  1.0  -0.1208
  C  C301  1  0.272040  0.318050  0.782260  1.0  -0.115
  C  C302  1  0.362630  0.387800  0.768990  1.0  0.1636
  C  C303  1  0.079880  0.412230  0.368440  1.0  0.1762
  C  C304  1  0.012240  0.360500  0.392260  1.0  -0.171
  C  C305  1  0.940430  0.265630  0.388120  1.0  -0.1049
  C  C306  1  0.934640  0.215440  0.360220  1.0  -0.1009
  C  C307  1  0.999570  0.262100  0.336850  1.0  -0.2285
  C  C308  1  0.068740  0.359970  0.340710  1.0  0.0848
  C  C309  1  0.203550  0.503900  0.321330  1.0  0.0165
  C  C310  1  0.213780  0.548900  0.350090  1.0  0.1319
  C  C311  1  0.298870  0.648010  0.354820  1.0  0.1931
  C  C312  1  0.374290  0.696130  0.330480  1.0  -0.1667
  C  C313  1  0.346700  0.750600  0.307550  1.0  -0.3205
  C  C314  1  0.241200  0.870800  0.410520  1.0  -0.3243
  C  C315  1  0.302770  0.868750  0.383870  1.0  -0.1696
  C  C316  1  0.381970  0.850540  0.393810  1.0  0.1929
  C  C317  1  0.470180  0.928250  0.409420  1.0  0.1048
  C  C318  1  0.487270  0.023380  0.410400  1.0  0.0418
  C  C319  1  0.635690  0.074290  0.436800  1.0  0.1006
  C  C320  1  0.722450  0.147410  0.448550  1.0  -0.1228
  C  C321  1  0.785540  0.122340  0.460840  1.0  -0.0654
  C  C322  1  0.765200  0.024300  0.461290  1.0  -0.1208
  C  C323  1  0.681950  0.953990  0.448920  1.0  -0.1193
  C  C324  1  0.612200  0.974830  0.435650  1.0  0.1636
  C  C325  1  0.332350  0.412230  0.131560  1.0  0.1762
  C  C326  1  0.348260  0.360500  0.107740  1.0  -0.1715
  C  C327  1  0.325200  0.265630  0.111880  1.0  -0.1076
  C  C328  1  0.280800  0.215440  0.139780  1.0  -0.1008
  C  C329  1  0.262530  0.262100  0.163150  1.0  -0.2277
  C  C330  1  0.291230  0.359970  0.159290  1.0  0.0837
  C  C331  1  0.300350  0.503900  0.178670  1.0  0.0157
  C  C332  1  0.335120  0.548900  0.149910  1.0  0.1339
  C  C333  1  0.349140  0.648010  0.145180  1.0  0.1938
  C  C334  1  0.321840  0.696130  0.169520  1.0  -0.1684
  C  C335  1  0.403900  0.750600  0.192450  1.0  -0.3192
  C  C336  1  0.629600  0.870800  0.089480  1.0  -0.3251
  C  C337  1  0.565980  0.868750  0.116130  1.0  -0.1693
  C  C338  1  0.468570  0.850540  0.106190  1.0  0.1942
  C  C339  1  0.458070  0.928250  0.090580  1.0  0.1046
  C  C340  1  0.536110  0.023380  0.089600  1.0  0.041
  C  C341  1  0.438600  0.074290  0.063200  1.0  0.1005
  C  C342  1  0.424960  0.147410  0.051450  1.0  -0.1232
  C  C343  1  0.336800  0.122340  0.039160  1.0  -0.0656
  C  C344  1  0.259100  0.024300  0.038710  1.0  -0.1219
  C  C345  1  0.272040  0.953990  0.051080  1.0  -0.1183
  C  C346  1  0.362630  0.974830  0.064350  1.0  0.1637
  C  C347  1  0.079880  0.667650  0.464890  1.0  0.1756
  C  C348  1  0.012240  0.651740  0.441070  1.0  -0.1707
  C  C349  1  0.940430  0.674800  0.445210  1.0  -0.1069
  C  C350  1  0.934640  0.719200  0.473110  1.0  -0.1075
  C  C351  1  0.999570  0.737470  0.496480  1.0  -0.2277
  C  C352  1  0.068740  0.708770  0.492620  1.0  0.0843
  C  C353  1  0.203550  0.699650  0.512000  1.0  0.0171
  C  C354  1  0.213780  0.664880  0.483240  1.0  0.1327
  C  C355  1  0.298870  0.650860  0.478510  1.0  0.1934
  C  C356  1  0.374290  0.678160  0.502850  1.0  -0.1714
  C  C357  1  0.346700  0.596100  0.525780  1.0  -0.3203
  C  C358  1  0.241200  0.370400  0.422810  1.0  -0.3247
  C  C359  1  0.302770  0.434020  0.449460  1.0  -0.1707
  C  C360  1  0.381970  0.531430  0.439520  1.0  0.1921
  C  C361  1  0.470180  0.541930  0.423910  1.0  0.1049
  C  C362  1  0.487270  0.463890  0.422930  1.0  0.0401
  C  C363  1  0.635690  0.561400  0.396530  1.0  0.1003
  C  C364  1  0.722450  0.575040  0.384780  1.0  -0.1194
  C  C365  1  0.785540  0.663200  0.372490  1.0  -0.0657
  C  C366  1  0.765200  0.740900  0.372040  1.0  -0.1171
  C  C367  1  0.681950  0.727960  0.384410  1.0  -0.1179
  C  C368  1  0.612200  0.637370  0.397680  1.0  0.1615
  C  C369  1  0.587770  0.920120  0.798220  1.0  0.1767
  C  C370  1  0.639500  0.987760  0.774400  1.0  -0.1725
  C  C371  1  0.734370  0.059570  0.778540  1.0  -0.1056
  C  C372  1  0.784560  0.065360  0.806440  1.0  -0.1049
  C  C373  1  0.737900  0.000430  0.829810  1.0  -0.2281
  C  C374  1  0.640030  0.931260  0.825950  1.0  0.0864
  C  C375  1  0.496100  0.796450  0.845330  1.0  0.0147
  C  C376  1  0.451100  0.786220  0.816570  1.0  0.1338
  C  C377  1  0.351990  0.701130  0.811840  1.0  0.1932
  C  C378  1  0.303870  0.625710  0.836180  1.0  -0.1736
  C  C379  1  0.249400  0.653300  0.859110  1.0  -0.3195
  C  C380  1  0.129200  0.758800  0.756140  1.0  -0.324
  C  C381  1  0.131250  0.697230  0.782790  1.0  -0.1712
  C  C382  1  0.149460  0.618030  0.772850  1.0  0.1927
  C  C383  1  0.071750  0.529820  0.757240  1.0  0.1071
  C  C384  1  0.976620  0.512730  0.756260  1.0  0.0414
  C  C385  1  0.925710  0.364310  0.729860  1.0  0.0999
  C  C386  1  0.852590  0.277550  0.718110  1.0  -0.12
  C  C387  1  0.877660  0.214460  0.705820  1.0  -0.0689
  C  C388  1  0.975700  0.234800  0.705370  1.0  -0.1193
  C  C389  1  0.046010  0.318050  0.717740  1.0  -0.1161
  C  C390  1  0.025170  0.387800  0.731010  1.0  0.1625
  C  C391  1  0.412230  0.332350  0.535110  1.0  0.1752
  C  C392  1  0.360500  0.348260  0.558930  1.0  -0.1711
  C  C393  1  0.265630  0.325200  0.554790  1.0  -0.106
  C  C394  1  0.215440  0.280800  0.526890  1.0  -0.1048
  C  C395  1  0.262100  0.262530  0.503520  1.0  -0.2274
  C  C396  1  0.359970  0.291230  0.507380  1.0  0.0839
  C  C397  1  0.503900  0.300350  0.488000  1.0  0.0175
  C  C398  1  0.548900  0.335120  0.516760  1.0  0.1315
  C  C399  1  0.648010  0.349140  0.521490  1.0  0.1923
  C  C400  1  0.696130  0.321840  0.497150  1.0  -0.173
  C  C401  1  0.750600  0.403900  0.474220  1.0  -0.3215
  C  C402  1  0.870800  0.629600  0.577190  1.0  -0.3258
  C  C403  1  0.868750  0.565980  0.550540  1.0  -0.1704
  C  C404  1  0.850540  0.468570  0.560480  1.0  0.1927
  C  C405  1  0.928250  0.458070  0.576090  1.0  0.1052
  C  C406  1  0.023380  0.536110  0.577070  1.0  0.0407
  C  C407  1  0.074290  0.438600  0.603470  1.0  0.1006
  C  C408  1  0.147410  0.424960  0.615220  1.0  -0.1195
  C  C409  1  0.122340  0.336800  0.627510  1.0  -0.0656
  C  C410  1  0.024300  0.259100  0.627960  1.0  -0.1188
  C  C411  1  0.953990  0.272040  0.615590  1.0  -0.1181
  C  C412  1  0.974830  0.362630  0.602320  1.0  0.1618
  C  C413  1  0.667650  0.079880  0.201780  1.0  0.1762
  C  C414  1  0.651740  0.012240  0.225600  1.0  -0.1728
  C  C415  1  0.674800  0.940430  0.221460  1.0  -0.1037
  C  C416  1  0.719200  0.934640  0.193560  1.0  -0.1034
  C  C417  1  0.737470  0.999570  0.170190  1.0  -0.2283
  C  C418  1  0.708770  0.068740  0.174050  1.0  0.086
  C  C419  1  0.699650  0.203550  0.154670  1.0  0.0157
  C  C420  1  0.664880  0.213780  0.183430  1.0  0.1319
  C  C421  1  0.650860  0.298870  0.188160  1.0  0.1923
  C  C422  1  0.678160  0.374290  0.163820  1.0  -0.1734
  C  C423  1  0.596100  0.346700  0.140890  1.0  -0.3201
  C  C424  1  0.370400  0.241200  0.243860  1.0  -0.3239
  C  C425  1  0.434020  0.302770  0.217210  1.0  -0.1694
  C  C426  1  0.531430  0.381970  0.227150  1.0  0.1929
  C  C427  1  0.541930  0.470180  0.242760  1.0  0.1065
  C  C428  1  0.463890  0.487270  0.243740  1.0  0.0419
  C  C429  1  0.561400  0.635690  0.270140  1.0  0.0999
  C  C430  1  0.575040  0.722450  0.281890  1.0  -0.1196
  C  C431  1  0.663200  0.785540  0.294180  1.0  -0.0658
  C  C432  1  0.740900  0.765200  0.294630  1.0  -0.1197
  C  C433  1  0.727960  0.681950  0.282260  1.0  -0.1164
  C  C434  1  0.637370  0.612200  0.268990  1.0  0.1635
  C  C435  1  0.920120  0.587770  0.868440  1.0  0.1755
  C  C436  1  0.987760  0.639500  0.892260  1.0  -0.1693
  C  C437  1  0.059570  0.734370  0.888120  1.0  -0.1059
  C  C438  1  0.065360  0.784560  0.860220  1.0  -0.0984
  C  C439  1  0.000430  0.737900  0.836850  1.0  -0.2284
  C  C440  1  0.931260  0.640030  0.840710  1.0  0.0838
  C  C441  1  0.796450  0.496100  0.821330  1.0  0.0149
  C  C442  1  0.786220  0.451100  0.850090  1.0  0.1322
  C  C443  1  0.701130  0.351990  0.854820  1.0  0.193
  C  C444  1  0.625710  0.303870  0.830480  1.0  -0.1684
  C  C445  1  0.653300  0.249400  0.807550  1.0  -0.3208
  C  C446  1  0.758800  0.129200  0.910520  1.0  -0.3241
  C  C447  1  0.697230  0.131250  0.883870  1.0  -0.1694
  C  C448  1  0.618030  0.149460  0.893810  1.0  0.1949
  C  C449  1  0.529820  0.071750  0.909420  1.0  0.1047
  C  C450  1  0.512730  0.976620  0.910400  1.0  0.0417
  C  C451  1  0.364310  0.925710  0.936800  1.0  0.1005
  C  C452  1  0.277550  0.852590  0.948550  1.0  -0.1231
  C  C453  1  0.214460  0.877660  0.960840  1.0  -0.0667
  C  C454  1  0.234800  0.975700  0.961290  1.0  -0.1232
  C  C455  1  0.318050  0.046010  0.948920  1.0  -0.119
  C  C456  1  0.387800  0.025170  0.935650  1.0  0.1639
  C  C457  1  0.667650  0.587770  0.631560  1.0  0.1762
  C  C458  1  0.651740  0.639500  0.607740  1.0  -0.1703
  C  C459  1  0.674800  0.734370  0.611880  1.0  -0.1058
  C  C460  1  0.719200  0.784560  0.639780  1.0  -0.0992
  C  C461  1  0.737470  0.737900  0.663150  1.0  -0.2272
  C  C462  1  0.708770  0.640030  0.659290  1.0  0.0848
  C  C463  1  0.699650  0.496100  0.678670  1.0  0.0158
  C  C464  1  0.664880  0.451100  0.649910  1.0  0.1335
  C  C465  1  0.650860  0.351990  0.645180  1.0  0.1939
  C  C466  1  0.678160  0.303870  0.669520  1.0  -0.1655
  C  C467  1  0.596100  0.249400  0.692450  1.0  -0.3203
  C  C468  1  0.370400  0.129200  0.589480  1.0  -0.3254
  C  C469  1  0.434020  0.131250  0.616130  1.0  -0.1701
  C  C470  1  0.531430  0.149460  0.606190  1.0  0.1938
  C  C471  1  0.541930  0.071750  0.590580  1.0  0.1054
  C  C472  1  0.463890  0.976620  0.589600  1.0  0.0414
  C  C473  1  0.561400  0.925710  0.563200  1.0  0.1006
  C  C474  1  0.575040  0.852590  0.551450  1.0  -0.1232
  C  C475  1  0.663200  0.877660  0.539160  1.0  -0.0657
  C  C476  1  0.740900  0.975700  0.538710  1.0  -0.121
  C  C477  1  0.727960  0.046010  0.551080  1.0  -0.1201
  C  C478  1  0.637370  0.025170  0.564350  1.0  0.1628
  C  C479  1  0.920120  0.332350  0.964890  1.0  0.1763
  C  C480  1  0.987760  0.348260  0.941070  1.0  -0.1739
  C  C481  1  0.059570  0.325200  0.945210  1.0  -0.1059
  C  C482  1  0.065360  0.280800  0.973110  1.0  -0.1063
  C  C483  1  0.000430  0.262530  0.996480  1.0  -0.2275
  C  C484  1  0.931260  0.291230  0.992620  1.0  0.0849
  C  C485  1  0.796450  0.300350  0.012000  1.0  0.0164
  C  C486  1  0.786220  0.335120  0.983240  1.0  0.1327
  C  C487  1  0.701130  0.349140  0.978510  1.0  0.1941
  C  C488  1  0.625710  0.321840  0.002850  1.0  -0.1731
  C  C489  1  0.653300  0.403900  0.025780  1.0  -0.3199
  C  C490  1  0.758800  0.629600  0.922810  1.0  -0.3261
  C  C491  1  0.697230  0.565980  0.949460  1.0  -0.1697
  C  C492  1  0.618030  0.468570  0.939520  1.0  0.192
  C  C493  1  0.529820  0.458070  0.923910  1.0  0.106
  C  C494  1  0.512730  0.536110  0.922930  1.0  0.0395
  C  C495  1  0.364310  0.438600  0.896530  1.0  0.1009
  C  C496  1  0.277550  0.424960  0.884780  1.0  -0.1208
  C  C497  1  0.214460  0.336800  0.872490  1.0  -0.0669
  C  C498  1  0.234800  0.259100  0.872040  1.0  -0.1175
  C  C499  1  0.318050  0.272040  0.884410  1.0  -0.118
  C  C500  1  0.387800  0.362630  0.897680  1.0  0.1616
  C  C501  1  0.412230  0.079880  0.298220  1.0  0.1757
  C  C502  1  0.360500  0.012240  0.274400  1.0  -0.1716
  C  C503  1  0.265630  0.940430  0.278540  1.0  -0.1062
  C  C504  1  0.215440  0.934640  0.306440  1.0  -0.106
  C  C505  1  0.262100  0.999570  0.329810  1.0  -0.2299
  C  C506  1  0.359970  0.068740  0.325950  1.0  0.0843
  C  C507  1  0.503900  0.203550  0.345330  1.0  0.0159
  C  C508  1  0.548900  0.213780  0.316570  1.0  0.1332
  C  C509  1  0.648010  0.298870  0.311840  1.0  0.1924
  C  C510  1  0.696130  0.374290  0.336180  1.0  -0.1722
  C  C511  1  0.750600  0.346700  0.359110  1.0  -0.3198
  C  C512  1  0.870800  0.241200  0.256140  1.0  -0.3252
  C  C513  1  0.868750  0.302770  0.282790  1.0  -0.1697
  C  C514  1  0.850540  0.381970  0.272850  1.0  0.1934
  C  C515  1  0.928250  0.470180  0.257240  1.0  0.1047
  C  C516  1  0.023380  0.487270  0.256260  1.0  0.0416
  C  C517  1  0.074290  0.635690  0.229860  1.0  0.0991
  C  C518  1  0.147410  0.722450  0.218110  1.0  -0.1202
  C  C519  1  0.122340  0.785540  0.205820  1.0  -0.0659
  C  C520  1  0.024300  0.765200  0.205370  1.0  -0.1202
  C  C521  1  0.953990  0.681950  0.217740  1.0  -0.1162
  C  C522  1  0.974830  0.612200  0.231010  1.0  0.1637
  N  N523  1  0.586330  0.719860  0.983520  1.0  0.2593
  N  N524  1  0.496020  0.647930  0.039760  1.0  -0.3597
  N  N525  1  0.312570  0.612220  0.047120  1.0  -0.2485
  N  N526  1  0.228640  0.611220  0.056700  1.0  -0.264
  N  N527  1  0.096570  0.628560  0.089270  1.0  -0.4021
  N  N528  1  0.905370  0.472250  0.089820  1.0  0.2749
  N  N529  1  0.280140  0.866470  0.650190  1.0  0.2596
  N  N530  1  0.352070  0.848090  0.706430  1.0  -0.3567
  N  N531  1  0.387780  0.700350  0.713790  1.0  -0.2505
  N  N532  1  0.388780  0.617420  0.723370  1.0  -0.2638
  N  N533  1  0.371440  0.468010  0.755940  1.0  -0.4045
  N  N534  1  0.527750  0.433120  0.756490  1.0  0.2763
  N  N535  1  0.133530  0.413670  0.316850  1.0  0.2585
  N  N536  1  0.151910  0.503980  0.373090  1.0  -0.3596
  N  N537  1  0.299650  0.687430  0.380450  1.0  -0.251
  N  N538  1  0.382580  0.771360  0.390030  1.0  -0.2636
  N  N539  1  0.531990  0.903430  0.422600  1.0  -0.4031
  N  N540  1  0.566880  0.094630  0.423150  1.0  0.2738
  N  N541  1  0.280140  0.413670  0.183150  1.0  0.2604
  N  N542  1  0.352070  0.503980  0.126910  1.0  -0.361
  N  N543  1  0.387780  0.687430  0.119550  1.0  -0.2507
  N  N544  1  0.388780  0.771360  0.109970  1.0  -0.2622
  N  N545  1  0.371440  0.903430  0.077400  1.0  -0.4035
  N  N546  1  0.527750  0.094630  0.076850  1.0  0.2757
  N  N547  1  0.133530  0.719860  0.516480  1.0  0.2596
  N  N548  1  0.151910  0.647930  0.460240  1.0  -0.3621
  N  N549  1  0.299650  0.612220  0.452880  1.0  -0.2481
  N  N550  1  0.382580  0.611220  0.443300  1.0  -0.2641
  N  N551  1  0.531990  0.628560  0.410730  1.0  -0.4028
  N  N552  1  0.566880  0.472250  0.410180  1.0  0.2752
  N  N553  1  0.586330  0.866470  0.849810  1.0  0.2591
  N  N554  1  0.496020  0.848090  0.793570  1.0  -0.3588
  N  N555  1  0.312570  0.700350  0.786210  1.0  -0.25
  N  N556  1  0.228640  0.617420  0.776630  1.0  -0.2653
  N  N557  1  0.096570  0.468010  0.744060  1.0  -0.4047
  N  N558  1  0.905370  0.433120  0.743510  1.0  0.2764
  N  N559  1  0.413670  0.280140  0.483520  1.0  0.2586
  N  N560  1  0.503980  0.352070  0.539760  1.0  -0.3608
  N  N561  1  0.687430  0.387780  0.547120  1.0  -0.2488
  N  N562  1  0.771360  0.388780  0.556700  1.0  -0.2627
  N  N563  1  0.903430  0.371440  0.589270  1.0  -0.4024
  N  N564  1  0.094630  0.527750  0.589820  1.0  0.2754
  N  N565  1  0.719860  0.133530  0.150190  1.0  0.258
  N  N566  1  0.647930  0.151910  0.206430  1.0  -0.3571
  N  N567  1  0.612220  0.299650  0.213790  1.0  -0.25
  N  N568  1  0.611220  0.382580  0.223370  1.0  -0.266
  N  N569  1  0.628560  0.531990  0.255940  1.0  -0.406
  N  N570  1  0.472250  0.566880  0.256490  1.0  0.2761
  N  N571  1  0.866470  0.586330  0.816850  1.0  0.2597
  N  N572  1  0.848090  0.496020  0.873090  1.0  -0.3593
  N  N573  1  0.700350  0.312570  0.880450  1.0  -0.2521
  N  N574  1  0.617420  0.228640  0.890030  1.0  -0.2619
  N  N575  1  0.468010  0.096570  0.922600  1.0  -0.4034
  N  N576  1  0.433120  0.905370  0.923150  1.0  0.2744
  N  N577  1  0.719860  0.586330  0.683150  1.0  0.2587
  N  N578  1  0.647930  0.496020  0.626910  1.0  -0.3618
  N  N579  1  0.612220  0.312570  0.619550  1.0  -0.2511
  N  N580  1  0.611220  0.228640  0.609970  1.0  -0.2638
  N  N581  1  0.628560  0.096570  0.577400  1.0  -0.4039
  N  N582  1  0.472250  0.905370  0.576850  1.0  0.2732
  N  N583  1  0.866470  0.280140  0.016480  1.0  0.2602
  N  N584  1  0.848090  0.352070  0.960240  1.0  -0.3613
  N  N585  1  0.700350  0.387780  0.952880  1.0  -0.248
  N  N586  1  0.617420  0.388780  0.943300  1.0  -0.2625
  N  N587  1  0.468010  0.371440  0.910730  1.0  -0.4007
  N  N588  1  0.433120  0.527750  0.910180  1.0  0.2757
  N  N589  1  0.413670  0.133530  0.349810  1.0  0.2606
  N  N590  1  0.503980  0.151910  0.293570  1.0  -0.3578
  N  N591  1  0.687430  0.299650  0.286210  1.0  -0.249
  N  N592  1  0.771360  0.382580  0.276630  1.0  -0.264
  N  N593  1  0.903430  0.531990  0.244060  1.0  -0.4058
  N  N594  1  0.094630  0.566880  0.243510  1.0  0.277
  O  O595  1  0.815560  0.398570  0.090330  1.0  -0.6543
  O  O596  1  0.629520  0.749150  0.956750  1.0  -0.6446
  O  O597  1  0.601430  0.416990  0.757000  1.0  -0.6536
  O  O598  1  0.250850  0.880370  0.623420  1.0  -0.6407
  O  O599  1  0.583010  0.184440  0.423660  1.0  -0.6542
  O  O600  1  0.119630  0.370480  0.290080  1.0  -0.6422
  O  O601  1  0.601430  0.184440  0.076340  1.0  -0.6548
  O  O602  1  0.250850  0.370480  0.209920  1.0  -0.6436
  O  O603  1  0.583010  0.398570  0.409670  1.0  -0.6539
  O  O604  1  0.119630  0.749150  0.543250  1.0  -0.647
  O  O605  1  0.815560  0.416990  0.743000  1.0  -0.6541
  O  O606  1  0.629520  0.880370  0.876580  1.0  -0.6402
  O  O607  1  0.184440  0.601430  0.590330  1.0  -0.6543
  O  O608  1  0.370480  0.250850  0.456750  1.0  -0.6441
  O  O609  1  0.398570  0.583010  0.257000  1.0  -0.6541
  O  O610  1  0.749150  0.119630  0.123420  1.0  -0.6389
  O  O611  1  0.416990  0.815560  0.923660  1.0  -0.6541
  O  O612  1  0.880370  0.629520  0.790080  1.0  -0.6433
  O  O613  1  0.398570  0.815560  0.576340  1.0  -0.6534
  O  O614  1  0.749150  0.629520  0.709920  1.0  -0.6455
  O  O615  1  0.416990  0.601430  0.909670  1.0  -0.6554
  O  O616  1  0.880370  0.250850  0.043250  1.0  -0.6454
  O  O617  1  0.184440  0.583010  0.243000  1.0  -0.6538
  O  O618  1  0.370480  0.119630  0.376580  1.0  -0.6417
