# generated using pymatgen
data_CrAgH18C18(NO2)3
_symmetry_space_group_name_H-M   'P 1'
_cell_length_a   21.50120000
_cell_length_b   11.72510000
_cell_length_c   25.76060000
_cell_angle_alpha   90.00000000
_cell_angle_beta   103.49200000
_cell_angle_gamma   90.00000000
_symmetry_Int_Tables_number   1
_chemical_formula_structural   CrAgH18C18(NO2)3
_chemical_formula_sum   'Cr8 Ag8 H144 C144 N24 O48'
_cell_volume   6315.11549826
_cell_formula_units_Z   8
loop_
 _symmetry_equiv_pos_site_id
 _symmetry_equiv_pos_as_xyz
  1  'x, y, z'
loop_
 _atom_site_type_symbol
 _atom_site_label
 _atom_site_symmetry_multiplicity
 _atom_site_fract_x
 _atom_site_fract_y
 _atom_site_fract_z
 _atom_site_occupancy
 _atom_site_charge
  Cr  Cr1  1  0.230330  0.362630  0.337520  1.0  1.2647
  Cr  Cr2  1  0.730330  0.862630  0.337520  1.0  1.2647
  Cr  Cr3  1  0.230330  0.637370  0.837520  1.0  1.2631
  Cr  Cr4  1  0.730330  0.137370  0.837520  1.0  1.2631
  Cr  Cr5  1  0.769670  0.362630  0.162480  1.0  1.2625
  Cr  Cr6  1  0.269670  0.862630  0.162480  1.0  1.2625
  Cr  Cr7  1  0.769670  0.637370  0.662480  1.0  1.2606
  Cr  Cr8  1  0.269670  0.137370  0.662480  1.0  1.2606
  Ag  Ag9  1  0.053990  0.304080  0.030520  1.0  0.3243
  Ag  Ag10  1  0.553990  0.804080  0.030520  1.0  0.3243
  Ag  Ag11  1  0.053990  0.695920  0.530520  1.0  0.3247
  Ag  Ag12  1  0.553990  0.195920  0.530520  1.0  0.3247
  Ag  Ag13  1  0.946010  0.304080  0.469480  1.0  0.3239
  Ag  Ag14  1  0.446010  0.804080  0.469480  1.0  0.3239
  Ag  Ag15  1  0.946010  0.695920  0.969480  1.0  0.325
  Ag  Ag16  1  0.446010  0.195920  0.969480  1.0  0.325
  H  H17  1  0.159800  0.058100  0.245900  1.0  0.1424
  H  H18  1  0.177000  0.101900  0.192100  1.0  0.1403
  H  H19  1  0.105900  0.117000  0.200400  1.0  0.1352
  H  H20  1  0.111300  0.566400  0.192600  1.0  0.14
  H  H21  1  0.160300  0.523300  0.158600  1.0  0.1239
  H  H22  1  0.184300  0.607200  0.208200  1.0  0.1321
  H  H23  1  0.313700  0.349800  0.935600  1.0  0.1464
  H  H24  1  0.275200  0.366300  0.981300  1.0  0.1374
  H  H25  1  0.248000  0.282600  0.932200  1.0  0.1398
  H  H26  1  0.036600  0.509600  0.871200  1.0  0.1418
  H  H27  1  0.062600  0.557100  0.930600  1.0  0.1388
  H  H28  1  0.047000  0.643700  0.881200  1.0  0.1428
  H  H29  1  0.836800  0.306500  0.003200  1.0  0.1363
  H  H30  1  0.827400  0.419100  0.967100  1.0  0.1401
  H  H31  1  0.766300  0.352700  0.977400  1.0  0.1379
  H  H32  1  0.919700  0.131100  0.808900  1.0  0.1357
  H  H33  1  0.946400  0.248100  0.837600  1.0  0.1331
  H  H34  1  0.956600  0.131100  0.870500  1.0  0.1399
  H  H35  1  0.659800  0.558100  0.245900  1.0  0.1424
  H  H36  1  0.677000  0.601900  0.192100  1.0  0.1403
  H  H37  1  0.605900  0.617000  0.200400  1.0  0.1352
  H  H38  1  0.611300  0.066400  0.192600  1.0  0.14
  H  H39  1  0.660300  0.023300  0.158600  1.0  0.1239
  H  H40  1  0.684300  0.107200  0.208200  1.0  0.1321
  H  H41  1  0.813700  0.849800  0.935600  1.0  0.1464
  H  H42  1  0.775200  0.866300  0.981300  1.0  0.1374
  H  H43  1  0.748000  0.782600  0.932200  1.0  0.1398
  H  H44  1  0.536600  0.009600  0.871200  1.0  0.1418
  H  H45  1  0.562600  0.057100  0.930600  1.0  0.1388
  H  H46  1  0.547000  0.143700  0.881200  1.0  0.1428
  H  H47  1  0.336800  0.806500  0.003200  1.0  0.1363
  H  H48  1  0.327400  0.919100  0.967100  1.0  0.1401
  H  H49  1  0.266300  0.852700  0.977400  1.0  0.1379
  H  H50  1  0.419700  0.631100  0.808900  1.0  0.1357
  H  H51  1  0.446400  0.748100  0.837600  1.0  0.1331
  H  H52  1  0.456600  0.631100  0.870500  1.0  0.1399
  H  H53  1  0.159800  0.941900  0.745900  1.0  0.142
  H  H54  1  0.177000  0.898100  0.692100  1.0  0.1401
  H  H55  1  0.105900  0.883000  0.700400  1.0  0.1351
  H  H56  1  0.111300  0.433600  0.692600  1.0  0.1401
  H  H57  1  0.160300  0.476700  0.658600  1.0  0.1237
  H  H58  1  0.184300  0.392800  0.708200  1.0  0.1317
  H  H59  1  0.313700  0.650200  0.435600  1.0  0.1468
  H  H60  1  0.275200  0.633700  0.481300  1.0  0.1373
  H  H61  1  0.248000  0.717400  0.432200  1.0  0.1404
  H  H62  1  0.036600  0.490400  0.371200  1.0  0.1423
  H  H63  1  0.062600  0.442900  0.430600  1.0  0.1386
  H  H64  1  0.047000  0.356300  0.381200  1.0  0.141
  H  H65  1  0.836800  0.693500  0.503200  1.0  0.1358
  H  H66  1  0.827400  0.580900  0.467100  1.0  0.1409
  H  H67  1  0.766300  0.647300  0.477400  1.0  0.1371
  H  H68  1  0.919700  0.868900  0.308900  1.0  0.1362
  H  H69  1  0.946400  0.751900  0.337600  1.0  0.1331
  H  H70  1  0.956600  0.868900  0.370500  1.0  0.1412
  H  H71  1  0.659800  0.441900  0.745900  1.0  0.142
  H  H72  1  0.677000  0.398100  0.692100  1.0  0.1401
  H  H73  1  0.605900  0.383000  0.700400  1.0  0.1351
  H  H74  1  0.611300  0.933600  0.692600  1.0  0.1401
  H  H75  1  0.660300  0.976700  0.658600  1.0  0.1237
  H  H76  1  0.684300  0.892800  0.708200  1.0  0.1317
  H  H77  1  0.813700  0.150200  0.435600  1.0  0.1468
  H  H78  1  0.775200  0.133700  0.481300  1.0  0.1373
  H  H79  1  0.748000  0.217400  0.432200  1.0  0.1404
  H  H80  1  0.536600  0.990400  0.371200  1.0  0.1423
  H  H81  1  0.562600  0.942900  0.430600  1.0  0.1386
  H  H82  1  0.547000  0.856300  0.381200  1.0  0.141
  H  H83  1  0.336800  0.193500  0.503200  1.0  0.1358
  H  H84  1  0.327400  0.080900  0.467100  1.0  0.1409
  H  H85  1  0.266300  0.147300  0.477400  1.0  0.1371
  H  H86  1  0.419700  0.368900  0.308900  1.0  0.1362
  H  H87  1  0.446400  0.251900  0.337600  1.0  0.1331
  H  H88  1  0.456600  0.368900  0.370500  1.0  0.1412
  H  H89  1  0.840200  0.058100  0.254100  1.0  0.1417
  H  H90  1  0.823000  0.101900  0.307900  1.0  0.1394
  H  H91  1  0.894100  0.117000  0.299600  1.0  0.1356
  H  H92  1  0.888700  0.566400  0.307400  1.0  0.1403
  H  H93  1  0.839700  0.523300  0.341400  1.0  0.1238
  H  H94  1  0.815700  0.607200  0.291800  1.0  0.1318
  H  H95  1  0.686300  0.349800  0.564400  1.0  0.1445
  H  H96  1  0.724800  0.366300  0.518700  1.0  0.1371
  H  H97  1  0.752000  0.282600  0.567800  1.0  0.1391
  H  H98  1  0.963400  0.509600  0.628800  1.0  0.1422
  H  H99  1  0.937400  0.557100  0.569400  1.0  0.139
  H  H100  1  0.953000  0.643700  0.618800  1.0  0.1434
  H  H101  1  0.163200  0.306500  0.496800  1.0  0.1361
  H  H102  1  0.172600  0.419100  0.532900  1.0  0.1395
  H  H103  1  0.233700  0.352700  0.522600  1.0  0.1367
  H  H104  1  0.080300  0.131100  0.691100  1.0  0.1352
  H  H105  1  0.053600  0.248100  0.662400  1.0  0.1329
  H  H106  1  0.043400  0.131100  0.629500  1.0  0.1412
  H  H107  1  0.340200  0.558100  0.254100  1.0  0.1417
  H  H108  1  0.323000  0.601900  0.307900  1.0  0.1394
  H  H109  1  0.394100  0.617000  0.299600  1.0  0.1356
  H  H110  1  0.388700  0.066400  0.307400  1.0  0.1403
  H  H111  1  0.339700  0.023300  0.341400  1.0  0.1238
  H  H112  1  0.315700  0.107200  0.291800  1.0  0.1318
  H  H113  1  0.186300  0.849800  0.564400  1.0  0.1445
  H  H114  1  0.224800  0.866300  0.518700  1.0  0.1371
  H  H115  1  0.252000  0.782600  0.567800  1.0  0.1391
  H  H116  1  0.463400  0.009600  0.628800  1.0  0.1422
  H  H117  1  0.437400  0.057100  0.569400  1.0  0.139
  H  H118  1  0.453000  0.143700  0.618800  1.0  0.1434
  H  H119  1  0.663200  0.806500  0.496800  1.0  0.1361
  H  H120  1  0.672600  0.919100  0.532900  1.0  0.1395
  H  H121  1  0.733700  0.852700  0.522600  1.0  0.1367
  H  H122  1  0.580300  0.631100  0.691100  1.0  0.1352
  H  H123  1  0.553600  0.748100  0.662400  1.0  0.1329
  H  H124  1  0.543400  0.631100  0.629500  1.0  0.1412
  H  H125  1  0.840200  0.941900  0.754100  1.0  0.1418
  H  H126  1  0.823000  0.898100  0.807900  1.0  0.1395
  H  H127  1  0.894100  0.883000  0.799600  1.0  0.1357
  H  H128  1  0.888700  0.433600  0.807400  1.0  0.14
  H  H129  1  0.839700  0.476700  0.841400  1.0  0.1238
  H  H130  1  0.815700  0.392800  0.791800  1.0  0.1308
  H  H131  1  0.686300  0.650200  0.064400  1.0  0.1445
  H  H132  1  0.724800  0.633700  0.018700  1.0  0.1371
  H  H133  1  0.752000  0.717400  0.067800  1.0  0.1395
  H  H134  1  0.963400  0.490400  0.128800  1.0  0.1414
  H  H135  1  0.937400  0.442900  0.069400  1.0  0.1384
  H  H136  1  0.953000  0.356300  0.118800  1.0  0.1424
  H  H137  1  0.163200  0.693500  0.996800  1.0  0.136
  H  H138  1  0.172600  0.580900  0.032900  1.0  0.1404
  H  H139  1  0.233700  0.647300  0.022600  1.0  0.136
  H  H140  1  0.080300  0.868900  0.191100  1.0  0.1351
  H  H141  1  0.053600  0.751900  0.162400  1.0  0.1329
  H  H142  1  0.043400  0.868900  0.129500  1.0  0.1423
  H  H143  1  0.340200  0.441900  0.754100  1.0  0.1418
  H  H144  1  0.323000  0.398100  0.807900  1.0  0.1395
  H  H145  1  0.394100  0.383000  0.799600  1.0  0.1357
  H  H146  1  0.388700  0.933600  0.807400  1.0  0.14
  H  H147  1  0.339700  0.976700  0.841400  1.0  0.1238
  H  H148  1  0.315700  0.892800  0.791800  1.0  0.1308
  H  H149  1  0.186300  0.150200  0.064400  1.0  0.1445
  H  H150  1  0.224800  0.133700  0.018700  1.0  0.1371
  H  H151  1  0.252000  0.217400  0.067800  1.0  0.1395
  H  H152  1  0.463400  0.990400  0.128800  1.0  0.1414
  H  H153  1  0.437400  0.942900  0.069400  1.0  0.1384
  H  H154  1  0.453000  0.856300  0.118800  1.0  0.1424
  H  H155  1  0.663200  0.193500  0.996800  1.0  0.136
  H  H156  1  0.672600  0.080900  0.032900  1.0  0.1404
  H  H157  1  0.733700  0.147300  0.022600  1.0  0.136
  H  H158  1  0.580300  0.368900  0.191100  1.0  0.1351
  H  H159  1  0.553600  0.251900  0.162400  1.0  0.1329
  H  H160  1  0.543400  0.368900  0.129500  1.0  0.1423
  C  C161  1  0.151460  0.117200  0.218290  1.0  -0.3999
  C  C162  1  0.169270  0.231240  0.243350  1.0  0.3725
  C  C163  1  0.152210  0.332100  0.213000  1.0  -0.0437
  C  C164  1  0.172390  0.442700  0.230870  1.0  0.3926
  C  C165  1  0.155610  0.543700  0.194420  1.0  -0.3841
  C  C166  1  0.115280  0.319800  0.159780  1.0  0.3211
  C  C167  1  0.271030  0.354100  0.943020  1.0  -0.3909
  C  C168  1  0.234750  0.451000  0.912430  1.0  0.3548
  C  C169  1  0.172480  0.476000  0.918070  1.0  0.033
  C  C170  1  0.130250  0.556700  0.886980  1.0  0.3681
  C  C171  1  0.063410  0.567700  0.893000  1.0  -0.4073
  C  C172  1  0.148930  0.412600  0.956560  1.0  0.3532
  C  C173  1  0.809690  0.343800  0.972000  1.0  -0.4018
  C  C174  1  0.807530  0.272200  0.923200  1.0  0.3767
  C  C175  1  0.863680  0.251100  0.905590  1.0  0.037
  C  C176  1  0.865790  0.191990  0.857900  1.0  0.3698
  C  C177  1  0.927370  0.174100  0.842420  1.0  -0.3865
  C  C178  1  0.921820  0.290900  0.938400  1.0  0.3448
  C  C179  1  0.651460  0.617200  0.218290  1.0  -0.3999
  C  C180  1  0.669270  0.731240  0.243350  1.0  0.3725
  C  C181  1  0.652210  0.832100  0.213000  1.0  -0.0437
  C  C182  1  0.672390  0.942700  0.230870  1.0  0.3926
  C  C183  1  0.655610  0.043700  0.194420  1.0  -0.3841
  C  C184  1  0.615280  0.819800  0.159780  1.0  0.3211
  C  C185  1  0.771030  0.854100  0.943020  1.0  -0.3909
  C  C186  1  0.734750  0.951000  0.912430  1.0  0.3548
  C  C187  1  0.672480  0.976000  0.918070  1.0  0.033
  C  C188  1  0.630250  0.056700  0.886980  1.0  0.3681
  C  C189  1  0.563410  0.067700  0.893000  1.0  -0.4073
  C  C190  1  0.648930  0.912600  0.956560  1.0  0.3532
  C  C191  1  0.309690  0.843800  0.972000  1.0  -0.4018
  C  C192  1  0.307530  0.772200  0.923200  1.0  0.3767
  C  C193  1  0.363680  0.751100  0.905590  1.0  0.037
  C  C194  1  0.365790  0.691990  0.857900  1.0  0.3698
  C  C195  1  0.427370  0.674100  0.842420  1.0  -0.3865
  C  C196  1  0.421820  0.790900  0.938400  1.0  0.3448
  C  C197  1  0.151460  0.882800  0.718290  1.0  -0.3981
  C  C198  1  0.169270  0.768760  0.743350  1.0  0.3717
  C  C199  1  0.152210  0.667900  0.713000  1.0  -0.0437
  C  C200  1  0.172390  0.557300  0.730870  1.0  0.393
  C  C201  1  0.155610  0.456300  0.694420  1.0  -0.3844
  C  C202  1  0.115280  0.680200  0.659780  1.0  0.3217
  C  C203  1  0.271030  0.645900  0.443020  1.0  -0.3906
  C  C204  1  0.234750  0.549000  0.412430  1.0  0.354
  C  C205  1  0.172480  0.524000  0.418070  1.0  0.0336
  C  C206  1  0.130250  0.443300  0.386980  1.0  0.3679
  C  C207  1  0.063410  0.432300  0.393000  1.0  -0.4071
  C  C208  1  0.148930  0.587400  0.456560  1.0  0.3532
  C  C209  1  0.809690  0.656200  0.472000  1.0  -0.4021
  C  C210  1  0.807530  0.727800  0.423200  1.0  0.3772
  C  C211  1  0.863680  0.748900  0.405590  1.0  0.037
  C  C212  1  0.865790  0.808010  0.357900  1.0  0.3703
  C  C213  1  0.927370  0.825900  0.342420  1.0  -0.3865
  C  C214  1  0.921820  0.709100  0.438400  1.0  0.345
  C  C215  1  0.651460  0.382800  0.718290  1.0  -0.3981
  C  C216  1  0.669270  0.268760  0.743350  1.0  0.3717
  C  C217  1  0.652210  0.167900  0.713000  1.0  -0.0437
  C  C218  1  0.672390  0.057300  0.730870  1.0  0.393
  C  C219  1  0.655610  0.956300  0.694420  1.0  -0.3844
  C  C220  1  0.615280  0.180200  0.659780  1.0  0.3217
  C  C221  1  0.771030  0.145900  0.443020  1.0  -0.3906
  C  C222  1  0.734750  0.049000  0.412430  1.0  0.354
  C  C223  1  0.672480  0.024000  0.418070  1.0  0.0336
  C  C224  1  0.630250  0.943300  0.386980  1.0  0.3679
  C  C225  1  0.563410  0.932300  0.393000  1.0  -0.4071
  C  C226  1  0.648930  0.087400  0.456560  1.0  0.3532
  C  C227  1  0.309690  0.156200  0.472000  1.0  -0.4021
  C  C228  1  0.307530  0.227800  0.423200  1.0  0.3772
  C  C229  1  0.363680  0.248900  0.405590  1.0  0.037
  C  C230  1  0.365790  0.308010  0.357900  1.0  0.3703
  C  C231  1  0.427370  0.325900  0.342420  1.0  -0.3865
  C  C232  1  0.421820  0.209100  0.438400  1.0  0.345
  C  C233  1  0.848540  0.117200  0.281710  1.0  -0.3986
  C  C234  1  0.830730  0.231240  0.256650  1.0  0.3731
  C  C235  1  0.847790  0.332100  0.287000  1.0  -0.0445
  C  C236  1  0.827610  0.442700  0.269130  1.0  0.3936
  C  C237  1  0.844390  0.543700  0.305580  1.0  -0.3846
  C  C238  1  0.884720  0.319800  0.340220  1.0  0.323
  C  C239  1  0.728970  0.354100  0.556980  1.0  -0.3913
  C  C240  1  0.765250  0.451000  0.587570  1.0  0.3536
  C  C241  1  0.827520  0.476000  0.581930  1.0  0.0334
  C  C242  1  0.869750  0.556700  0.613020  1.0  0.3675
  C  C243  1  0.936590  0.567700  0.607000  1.0  -0.4053
  C  C244  1  0.851070  0.412600  0.543440  1.0  0.3526
  C  C245  1  0.190310  0.343800  0.528000  1.0  -0.4014
  C  C246  1  0.192470  0.272200  0.576800  1.0  0.3756
  C  C247  1  0.136320  0.251100  0.594410  1.0  0.0383
  C  C248  1  0.134210  0.191990  0.642100  1.0  0.3696
  C  C249  1  0.072630  0.174100  0.657580  1.0  -0.3865
  C  C250  1  0.078180  0.290900  0.561600  1.0  0.3437
  C  C251  1  0.348540  0.617200  0.281710  1.0  -0.3986
  C  C252  1  0.330730  0.731240  0.256650  1.0  0.3731
  C  C253  1  0.347790  0.832100  0.287000  1.0  -0.0445
  C  C254  1  0.327610  0.942700  0.269130  1.0  0.3936
  C  C255  1  0.344390  0.043700  0.305580  1.0  -0.3846
  C  C256  1  0.384720  0.819800  0.340220  1.0  0.323
  C  C257  1  0.228970  0.854100  0.556980  1.0  -0.3913
  C  C258  1  0.265250  0.951000  0.587570  1.0  0.3536
  C  C259  1  0.327520  0.976000  0.581930  1.0  0.0334
  C  C260  1  0.369750  0.056700  0.613020  1.0  0.3675
  C  C261  1  0.436590  0.067700  0.607000  1.0  -0.4053
  C  C262  1  0.351070  0.912600  0.543440  1.0  0.3526
  C  C263  1  0.690310  0.843800  0.528000  1.0  -0.4014
  C  C264  1  0.692470  0.772200  0.576800  1.0  0.3756
  C  C265  1  0.636320  0.751100  0.594410  1.0  0.0383
  C  C266  1  0.634210  0.691990  0.642100  1.0  0.3696
  C  C267  1  0.572630  0.674100  0.657580  1.0  -0.3865
  C  C268  1  0.578180  0.790900  0.561600  1.0  0.3437
  C  C269  1  0.848540  0.882800  0.781710  1.0  -0.3978
  C  C270  1  0.830730  0.768760  0.756650  1.0  0.3727
  C  C271  1  0.847790  0.667900  0.787000  1.0  -0.0447
  C  C272  1  0.827610  0.557300  0.769130  1.0  0.3938
  C  C273  1  0.844390  0.456300  0.805580  1.0  -0.3843
  C  C274  1  0.884720  0.680200  0.840220  1.0  0.3227
  C  C275  1  0.728970  0.645900  0.056980  1.0  -0.3902
  C  C276  1  0.765250  0.549000  0.087570  1.0  0.3522
  C  C277  1  0.827520  0.524000  0.081930  1.0  0.0337
  C  C278  1  0.869750  0.443300  0.113020  1.0  0.3674
  C  C279  1  0.936590  0.432300  0.107000  1.0  -0.405
  C  C280  1  0.851070  0.587400  0.043440  1.0  0.3533
  C  C281  1  0.190310  0.656200  0.028000  1.0  -0.4013
  C  C282  1  0.192470  0.727800  0.076800  1.0  0.3759
  C  C283  1  0.136320  0.748900  0.094410  1.0  0.0388
  C  C284  1  0.134210  0.808010  0.142100  1.0  0.3703
  C  C285  1  0.072630  0.825900  0.157580  1.0  -0.3867
  C  C286  1  0.078180  0.709100  0.061600  1.0  0.3434
  C  C287  1  0.348540  0.382800  0.781710  1.0  -0.3978
  C  C288  1  0.330730  0.268760  0.756650  1.0  0.3727
  C  C289  1  0.347790  0.167900  0.787000  1.0  -0.0447
  C  C290  1  0.327610  0.057300  0.769130  1.0  0.3938
  C  C291  1  0.344390  0.956300  0.805580  1.0  -0.3843
  C  C292  1  0.384720  0.180200  0.840220  1.0  0.3227
  C  C293  1  0.228970  0.145900  0.056980  1.0  -0.3902
  C  C294  1  0.265250  0.049000  0.087570  1.0  0.3522
  C  C295  1  0.327520  0.024000  0.081930  1.0  0.0337
  C  C296  1  0.369750  0.943300  0.113020  1.0  0.3674
  C  C297  1  0.436590  0.932300  0.107000  1.0  -0.405
  C  C298  1  0.351070  0.087400  0.043440  1.0  0.3533
  C  C299  1  0.690310  0.156200  0.028000  1.0  -0.4013
  C  C300  1  0.692470  0.227800  0.076800  1.0  0.3759
  C  C301  1  0.636320  0.248900  0.094410  1.0  0.0388
  C  C302  1  0.634210  0.308010  0.142100  1.0  0.3703
  C  C303  1  0.572630  0.325900  0.157580  1.0  -0.3867
  C  C304  1  0.578180  0.209100  0.061600  1.0  0.3434
  N  N305  1  0.086510  0.311200  0.116580  1.0  -0.5387
  N  N306  1  0.129750  0.364300  0.988160  1.0  -0.4829
  N  N307  1  0.967200  0.326900  0.965870  1.0  -0.4923
  N  N308  1  0.586510  0.811200  0.116580  1.0  -0.5387
  N  N309  1  0.629750  0.864300  0.988160  1.0  -0.4829
  N  N310  1  0.467200  0.826900  0.965870  1.0  -0.4923
  N  N311  1  0.086510  0.688800  0.616580  1.0  -0.5381
  N  N312  1  0.129750  0.635700  0.488160  1.0  -0.4868
  N  N313  1  0.967200  0.673100  0.465870  1.0  -0.4921
  N  N314  1  0.586510  0.188800  0.616580  1.0  -0.5381
  N  N315  1  0.629750  0.135700  0.488160  1.0  -0.4868
  N  N316  1  0.467200  0.173100  0.465870  1.0  -0.4921
  N  N317  1  0.913490  0.311200  0.383420  1.0  -0.5402
  N  N318  1  0.870250  0.364300  0.511840  1.0  -0.4823
  N  N319  1  0.032800  0.326900  0.534130  1.0  -0.4906
  N  N320  1  0.413490  0.811200  0.383420  1.0  -0.5402
  N  N321  1  0.370250  0.864300  0.511840  1.0  -0.4823
  N  N322  1  0.532800  0.826900  0.534130  1.0  -0.4906
  N  N323  1  0.913490  0.688800  0.883420  1.0  -0.5409
  N  N324  1  0.870250  0.635700  0.011840  1.0  -0.4851
  N  N325  1  0.032800  0.673100  0.034130  1.0  -0.4906
  N  N326  1  0.413490  0.188800  0.883420  1.0  -0.5409
  N  N327  1  0.370250  0.135700  0.011840  1.0  -0.4851
  N  N328  1  0.532800  0.173100  0.034130  1.0  -0.4906
  O  O329  1  0.201320  0.232240  0.291120  1.0  -0.5841
  O  O330  1  0.206060  0.463940  0.276610  1.0  -0.5703
  O  O331  1  0.261700  0.505920  0.881810  1.0  -0.5734
  O  O332  1  0.146580  0.620800  0.852970  1.0  -0.5924
  O  O333  1  0.816330  0.153690  0.826000  1.0  -0.5737
  O  O334  1  0.752920  0.237210  0.899140  1.0  -0.5719
  O  O335  1  0.701320  0.732240  0.291120  1.0  -0.5841
  O  O336  1  0.706060  0.963940  0.276610  1.0  -0.5703
  O  O337  1  0.761700  0.005920  0.881810  1.0  -0.5734
  O  O338  1  0.646580  0.120800  0.852970  1.0  -0.5924
  O  O339  1  0.316330  0.653690  0.826000  1.0  -0.5737
  O  O340  1  0.252920  0.737210  0.899140  1.0  -0.5719
  O  O341  1  0.201320  0.767760  0.791120  1.0  -0.5836
  O  O342  1  0.206060  0.536060  0.776610  1.0  -0.5713
  O  O343  1  0.261700  0.494080  0.381810  1.0  -0.5733
  O  O344  1  0.146580  0.379200  0.352970  1.0  -0.5933
  O  O345  1  0.816330  0.846310  0.326000  1.0  -0.5734
  O  O346  1  0.752920  0.762790  0.399140  1.0  -0.5715
  O  O347  1  0.701320  0.267760  0.791120  1.0  -0.5836
  O  O348  1  0.706060  0.036060  0.776610  1.0  -0.5713
  O  O349  1  0.761700  0.994080  0.381810  1.0  -0.5733
  O  O350  1  0.646580  0.879200  0.352970  1.0  -0.5933
  O  O351  1  0.316330  0.346310  0.326000  1.0  -0.5734
  O  O352  1  0.252920  0.262790  0.399140  1.0  -0.5715
  O  O353  1  0.798680  0.232240  0.208880  1.0  -0.5842
  O  O354  1  0.793940  0.463940  0.223390  1.0  -0.5693
  O  O355  1  0.738300  0.505920  0.618190  1.0  -0.5735
  O  O356  1  0.853420  0.620800  0.647030  1.0  -0.5908
  O  O357  1  0.183670  0.153690  0.674000  1.0  -0.5741
  O  O358  1  0.247080  0.237210  0.600860  1.0  -0.5717
  O  O359  1  0.298680  0.732240  0.208880  1.0  -0.5842
  O  O360  1  0.293940  0.963940  0.223390  1.0  -0.5693
  O  O361  1  0.238300  0.005920  0.618190  1.0  -0.5735
  O  O362  1  0.353420  0.120800  0.647030  1.0  -0.5908
  O  O363  1  0.683670  0.653690  0.674000  1.0  -0.5741
  O  O364  1  0.747080  0.737210  0.600860  1.0  -0.5717
  O  O365  1  0.798680  0.767760  0.708880  1.0  -0.5834
  O  O366  1  0.793940  0.536060  0.723390  1.0  -0.5708
  O  O367  1  0.738300  0.494080  0.118190  1.0  -0.5734
  O  O368  1  0.853420  0.379200  0.147030  1.0  -0.5908
  O  O369  1  0.183670  0.846310  0.174000  1.0  -0.5738
  O  O370  1  0.247080  0.762790  0.100860  1.0  -0.5716
  O  O371  1  0.298680  0.267760  0.708880  1.0  -0.5834
  O  O372  1  0.293940  0.036060  0.723390  1.0  -0.5708
  O  O373  1  0.238300  0.994080  0.118190  1.0  -0.5734
  O  O374  1  0.353420  0.879200  0.147030  1.0  -0.5908
  O  O375  1  0.683670  0.346310  0.174000  1.0  -0.5738
  O  O376  1  0.747080  0.262790  0.100860  1.0  -0.5716
