# generated using pymatgen
data_ErH32C44N(ClO3)3
_symmetry_space_group_name_H-M   'P 1'
_cell_length_a   12.77600000
_cell_length_b   18.30010000
_cell_length_c   24.72400000
_cell_angle_alpha   90.00000000
_cell_angle_beta   90.00000000
_cell_angle_gamma   110.43000000
_symmetry_Int_Tables_number   1
_chemical_formula_structural   ErH32C44N(ClO3)3
_chemical_formula_sum   'Er4 H128 C176 N4 Cl12 O36'
_cell_volume   5416.92393473
_cell_formula_units_Z   4
loop_
 _symmetry_equiv_pos_site_id
 _symmetry_equiv_pos_as_xyz
  1  'x, y, z'
loop_
 _atom_site_type_symbol
 _atom_site_label
 _atom_site_symmetry_multiplicity
 _atom_site_fract_x
 _atom_site_fract_y
 _atom_site_fract_z
 _atom_site_occupancy
 _atom_site_charge
  Er  Er1  1  0.230210  0.769480  0.785650  1.0  1.4403
  Er  Er2  1  0.769790  0.230520  0.285650  1.0  1.4399
  Er  Er3  1  0.539270  0.769480  0.714350  1.0  1.44
  Er  Er4  1  0.460730  0.230520  0.214350  1.0  1.4394
  H  H5  1  0.072900  0.888600  0.762100  1.0  0.0974
  H  H6  1  0.030800  0.991400  0.799300  1.0  0.0991
  H  H7  1  0.124400  0.054200  0.876000  1.0  0.0875
  H  H8  1  0.260200  0.014200  0.915400  1.0  0.1095
  H  H9  1  0.302200  0.911200  0.878300  1.0  0.0727
  H  H10  1  0.071200  0.546200  0.902900  1.0  0.1226
  H  H11  1  0.064700  0.796600  0.934800  1.0  0.1204
  H  H12  1  0.918600  0.782200  0.079500  1.0  0.1052
  H  H13  1  0.901900  0.653000  0.088100  1.0  0.1137
  H  H14  1  0.987900  0.420200  0.907000  1.0  0.0499
  H  H15  1  0.098900  0.429800  0.938800  1.0  0.0587
  H  H16  1  0.992800  0.295800  0.928800  1.0  0.1142
  H  H17  1  0.003100  0.317800  0.990400  1.0  0.124
  H  H18  1  0.892500  0.308400  0.959000  1.0  0.113
  H  H19  1  0.677700  0.366600  0.092000  1.0  0.1109
  H  H20  1  0.918000  0.439800  0.241200  1.0  0.1297
  H  H21  1  0.179900  0.620000  0.185800  1.0  0.1185
  H  H22  1  0.093400  0.616600  0.105100  1.0  0.0919
  H  H23  1  0.721200  0.340400  0.000900  1.0  0.0608
  H  H24  1  0.615600  0.365400  0.995000  1.0  0.0469
  H  H25  1  0.668800  0.334600  0.909000  1.0  0.1142
  H  H26  1  0.683000  0.423200  0.910600  1.0  0.1178
  H  H27  1  0.787700  0.397800  0.916500  1.0  0.1152
  H  H28  1  0.403900  0.840000  0.909300  1.0  0.1189
  H  H29  1  0.709400  0.977600  0.801800  1.0  0.1205
  H  H30  1  0.910400  0.138800  0.900400  1.0  0.1123
  H  H31  1  0.789000  0.092600  0.971700  1.0  0.1045
  H  H32  1  0.275000  0.848200  0.980500  1.0  0.0495
  H  H33  1  0.334700  0.787200  0.989800  1.0  0.0415
  H  H34  1  0.203700  0.773600  0.055900  1.0  0.1136
  H  H35  1  0.323000  0.801600  0.082000  1.0  0.1116
  H  H36  1  0.261700  0.861200  0.072300  1.0  0.1169
  H  H37  1  0.927100  0.111400  0.262100  1.0  0.0976
  H  H38  1  0.969200  0.008600  0.299300  1.0  0.0988
  H  H39  1  0.875600  0.945800  0.376000  1.0  0.0872
  H  H40  1  0.739800  0.985800  0.415400  1.0  0.1093
  H  H41  1  0.697800  0.088800  0.378300  1.0  0.0721
  H  H42  1  0.928800  0.453800  0.402900  1.0  0.1223
  H  H43  1  0.935300  0.203400  0.434800  1.0  0.1202
  H  H44  1  0.081400  0.217800  0.579500  1.0  0.1048
  H  H45  1  0.098100  0.347000  0.588100  1.0  0.1137
  H  H46  1  0.012100  0.579800  0.407000  1.0  0.0502
  H  H47  1  0.901100  0.570200  0.438800  1.0  0.0644
  H  H48  1  0.007200  0.704200  0.428800  1.0  0.1153
  H  H49  1  0.996900  0.682200  0.490400  1.0  0.1243
  H  H50  1  0.107500  0.691600  0.459000  1.0  0.1133
  H  H51  1  0.322300  0.633400  0.592000  1.0  0.1121
  H  H52  1  0.082000  0.560200  0.741200  1.0  0.1293
  H  H53  1  0.820100  0.380000  0.685800  1.0  0.1188
  H  H54  1  0.906600  0.383400  0.605100  1.0  0.0918
  H  H55  1  0.278800  0.659600  0.500900  1.0  0.0612
  H  H56  1  0.384400  0.634600  0.495000  1.0  0.0459
  H  H57  1  0.331200  0.665400  0.409000  1.0  0.1147
  H  H58  1  0.317000  0.576800  0.410600  1.0  0.1166
  H  H59  1  0.212300  0.602200  0.416500  1.0  0.1147
  H  H60  1  0.596100  0.160000  0.409300  1.0  0.1206
  H  H61  1  0.290600  0.022400  0.301800  1.0  0.1206
  H  H62  1  0.089600  0.861200  0.400400  1.0  0.112
  H  H63  1  0.211000  0.907400  0.471700  1.0  0.1049
  H  H64  1  0.725000  0.151800  0.480500  1.0  0.0494
  H  H65  1  0.665300  0.212800  0.489800  1.0  0.0418
  H  H66  1  0.796300  0.226400  0.555900  1.0  0.1119
  H  H67  1  0.677000  0.198400  0.582000  1.0  0.1126
  H  H68  1  0.738300  0.138800  0.572300  1.0  0.1153
  H  H69  1  0.815700  0.888600  0.737900  1.0  0.0971
  H  H70  1  0.960600  0.991400  0.700700  1.0  0.0987
  H  H71  1  0.929800  0.054200  0.624000  1.0  0.0873
  H  H72  1  0.754000  0.014200  0.584600  1.0  0.1087
  H  H73  1  0.609000  0.911200  0.621700  1.0  0.0729
  H  H74  1  0.475000  0.546200  0.597100  1.0  0.1218
  H  H75  1  0.731900  0.796600  0.565200  1.0  0.1195
  H  H76  1  0.863600  0.782200  0.420500  1.0  0.1052
  H  H77  1  0.751100  0.653000  0.411900  1.0  0.1147
  H  H78  1  0.432300  0.420200  0.593000  1.0  0.0507
  H  H79  1  0.330900  0.429800  0.561200  1.0  0.0623
  H  H80  1  0.303000  0.295800  0.571200  1.0  0.1154
  H  H81  1  0.314700  0.317800  0.509600  1.0  0.1247
  H  H82  1  0.415900  0.308400  0.541000  1.0  0.113
  H  H83  1  0.688900  0.366600  0.408000  1.0  0.1119
  H  H84  1  0.521800  0.439800  0.258800  1.0  0.1291
  H  H85  1  0.440100  0.620000  0.314200  1.0  0.1194
  H  H86  1  0.523200  0.616600  0.394900  1.0  0.0921
  H  H87  1  0.619200  0.340400  0.499100  1.0  0.0619
  H  H88  1  0.749800  0.365400  0.505000  1.0  0.0453
  H  H89  1  0.665800  0.334600  0.591000  1.0  0.1156
  H  H90  1  0.740200  0.423200  0.589400  1.0  0.117
  H  H91  1  0.610100  0.397800  0.583500  1.0  0.1154
  H  H92  1  0.436100  0.840000  0.590700  1.0  0.1204
  H  H93  1  0.268200  0.977600  0.698200  1.0  0.1206
  H  H94  1  0.228400  0.138800  0.599600  1.0  0.1124
  H  H95  1  0.303600  0.092600  0.528300  1.0  0.1052
  H  H96  1  0.573200  0.848200  0.519500  1.0  0.0494
  H  H97  1  0.452500  0.787200  0.510200  1.0  0.0418
  H  H98  1  0.569900  0.773600  0.444100  1.0  0.1132
  H  H99  1  0.478600  0.801600  0.418000  1.0  0.1119
  H  H100  1  0.599500  0.861200  0.427700  1.0  0.1158
  H  H101  1  0.184300  0.111400  0.237900  1.0  0.0973
  H  H102  1  0.039400  0.008600  0.200700  1.0  0.0989
  H  H103  1  0.070200  0.945800  0.124000  1.0  0.0872
  H  H104  1  0.246000  0.985800  0.084600  1.0  0.1089
  H  H105  1  0.391000  0.088800  0.121700  1.0  0.0728
  H  H106  1  0.525000  0.453800  0.097100  1.0  0.1215
  H  H107  1  0.268100  0.203400  0.065200  1.0  0.121
  H  H108  1  0.136400  0.217800  0.920500  1.0  0.1055
  H  H109  1  0.248900  0.347000  0.911900  1.0  0.1144
  H  H110  1  0.567700  0.579800  0.093000  1.0  0.0508
  H  H111  1  0.669100  0.570200  0.061200  1.0  0.0578
  H  H112  1  0.697000  0.704200  0.071200  1.0  0.115
  H  H113  1  0.685300  0.682200  0.009600  1.0  0.1241
  H  H114  1  0.584100  0.691600  0.041000  1.0  0.1129
  H  H115  1  0.311100  0.633400  0.908000  1.0  0.1116
  H  H116  1  0.478200  0.560200  0.758800  1.0  0.1295
  H  H117  1  0.559900  0.380000  0.814200  1.0  0.1185
  H  H118  1  0.476800  0.383400  0.894900  1.0  0.0921
  H  H119  1  0.380800  0.659600  0.999100  1.0  0.0605
  H  H120  1  0.250200  0.634600  0.005000  1.0  0.0466
  H  H121  1  0.334200  0.665400  0.091000  1.0  0.1141
  H  H122  1  0.259800  0.576800  0.089400  1.0  0.117
  H  H123  1  0.389900  0.602200  0.083500  1.0  0.1156
  H  H124  1  0.563900  0.160000  0.090700  1.0  0.1198
  H  H125  1  0.731800  0.022400  0.198200  1.0  0.1204
  H  H126  1  0.771600  0.861200  0.099600  1.0  0.1126
  H  H127  1  0.696400  0.907400  0.028300  1.0  0.1049
  H  H128  1  0.426800  0.151800  0.019500  1.0  0.0493
  H  H129  1  0.547500  0.212800  0.010200  1.0  0.0415
  H  H130  1  0.430100  0.226400  0.944100  1.0  0.1132
  H  H131  1  0.521400  0.198400  0.918000  1.0  0.1115
  H  H132  1  0.400500  0.138800  0.927700  1.0  0.1153
  C  C133  1  0.110500  0.913800  0.792900  1.0  0.1503
  C  C134  1  0.085200  0.975400  0.815100  1.0  -0.1662
  C  C135  1  0.141300  0.013000  0.861100  1.0  -0.0075
  C  C136  1  0.222600  0.989000  0.884700  1.0  -0.1818
  C  C137  1  0.247900  0.927400  0.862400  1.0  0.1875
  C  C138  1  0.963200  0.564400  0.019300  1.0  -0.0612
  C  C139  1  0.000200  0.529400  0.977000  1.0  0.2311
  C  C140  1  0.047900  0.571000  0.930800  1.0  -0.2033
  C  C141  1  0.060900  0.649800  0.926300  1.0  -0.0565
  C  C142  1  0.032300  0.767000  0.965000  1.0  -0.1393
  C  C143  1  0.992100  0.799600  0.005500  1.0  0.128
  C  C144  1  0.944100  0.758000  0.052000  1.0  -0.1412
  C  C145  1  0.934400  0.680800  0.057200  1.0  -0.109
  C  C146  1  0.974260  0.643520  0.015200  1.0  0.0139
  C  C147  1  0.025100  0.687600  0.968500  1.0  0.0442
  C  C148  1  0.116900  0.693000  0.876200  1.0  0.6385
  C  C149  1  0.018100  0.411600  0.941500  1.0  0.1656
  C  C150  1  0.972400  0.325400  0.956300  1.0  -0.3654
  C  C151  1  0.905930  0.514260  0.066700  1.0  -0.0573
  C  C152  1  0.801800  0.457600  0.057400  1.0  0.2243
  C  C153  1  0.747500  0.404000  0.098700  1.0  -0.1817
  C  C154  1  0.795790  0.406380  0.147700  1.0  -0.0625
  C  C155  1  0.953000  0.473000  0.213000  1.0  -0.1303
  C  C156  1  0.054400  0.530600  0.221000  1.0  0.1481
  C  C157  1  0.109400  0.583000  0.179800  1.0  -0.144
  C  C158  1  0.058900  0.579200  0.131100  1.0  -0.0879
  C  C159  1  0.954300  0.519800  0.118400  1.0  0.014
  C  C160  1  0.900860  0.464320  0.160200  1.0  0.0479
  C  C161  1  0.735400  0.341800  0.188000  1.0  0.6929
  C  C162  1  0.694100  0.379400  0.985900  1.0  0.1669
  C  C163  1  0.709800  0.384200  0.924900  1.0  -0.3666
  C  C164  1  0.593500  0.979600  0.973400  1.0  -0.0556
  C  C165  1  0.496600  0.918200  0.965000  1.0  0.2325
  C  C166  1  0.470600  0.881600  0.914100  1.0  -0.1904
  C  C167  1  0.544400  0.907600  0.871300  1.0  -0.0805
  C  C168  1  0.724300  0.999200  0.836300  1.0  -0.1359
  C  C169  1  0.819800  0.060000  0.846100  1.0  0.1452
  C  C170  1  0.844800  0.096400  0.895600  1.0  -0.153
  C  C171  1  0.771400  0.069200  0.937900  1.0  -0.0816
  C  C172  1  0.668400  0.005400  0.930900  1.0  0.005
  C  C173  1  0.647800  0.968600  0.878600  1.0  0.0604
  C  C174  1  0.503500  0.866000  0.818900  1.0  0.7101
  C  C175  1  0.324000  0.833200  0.004600  1.0  0.1826
  C  C176  1  0.273800  0.816000  0.058300  1.0  -0.373
  C  C177  1  0.889500  0.086200  0.292900  1.0  0.1515
  C  C178  1  0.914800  0.024600  0.315100  1.0  -0.1666
  C  C179  1  0.858700  0.987000  0.361100  1.0  -0.0091
  C  C180  1  0.777400  0.011000  0.384700  1.0  -0.1822
  C  C181  1  0.752100  0.072600  0.362400  1.0  0.1875
  C  C182  1  0.036800  0.435600  0.519300  1.0  -0.0611
  C  C183  1  0.999800  0.470600  0.477000  1.0  0.2309
  C  C184  1  0.952100  0.429000  0.430800  1.0  -0.2037
  C  C185  1  0.939100  0.350200  0.426300  1.0  -0.0559
  C  C186  1  0.967700  0.233000  0.465000  1.0  -0.1426
  C  C187  1  0.007900  0.200400  0.505500  1.0  0.1277
  C  C188  1  0.055900  0.242000  0.552000  1.0  -0.1393
  C  C189  1  0.065600  0.319200  0.557200  1.0  -0.1083
  C  C190  1  0.025740  0.356480  0.515200  1.0  0.0141
  C  C191  1  0.974900  0.312400  0.468500  1.0  0.0445
  C  C192  1  0.883100  0.307000  0.376200  1.0  0.6399
  C  C193  1  0.981900  0.588400  0.441500  1.0  0.1652
  C  C194  1  0.027600  0.674600  0.456300  1.0  -0.3652
  C  C195  1  0.094070  0.485740  0.566700  1.0  -0.0572
  C  C196  1  0.198200  0.542400  0.557400  1.0  0.2244
  C  C197  1  0.252500  0.596000  0.598700  1.0  -0.1822
  C  C198  1  0.204210  0.593620  0.647700  1.0  -0.0627
  C  C199  1  0.047000  0.527000  0.713000  1.0  -0.1276
  C  C200  1  0.945600  0.469400  0.721000  1.0  0.1488
  C  C201  1  0.890600  0.417000  0.679800  1.0  -0.1429
  C  C202  1  0.941100  0.420800  0.631100  1.0  -0.088
  C  C203  1  0.045700  0.480200  0.618400  1.0  0.014
  C  C204  1  0.099140  0.535680  0.660200  1.0  0.0479
  C  C205  1  0.264600  0.658200  0.688000  1.0  0.6913
  C  C206  1  0.305900  0.620600  0.485900  1.0  0.1663
  C  C207  1  0.290200  0.615800  0.424900  1.0  -0.3657
  C  C208  1  0.406500  0.020400  0.473400  1.0  -0.0555
  C  C209  1  0.503400  0.081800  0.465000  1.0  0.2323
  C  C210  1  0.529400  0.118400  0.414100  1.0  -0.1898
  C  C211  1  0.455600  0.092400  0.371300  1.0  -0.0803
  C  C212  1  0.275700  0.000800  0.336300  1.0  -0.1351
  C  C213  1  0.180200  0.940000  0.346100  1.0  0.1439
  C  C214  1  0.155200  0.903600  0.395600  1.0  -0.1494
  C  C215  1  0.228600  0.930800  0.437900  1.0  -0.0807
  C  C216  1  0.331600  0.994600  0.430900  1.0  0.0046
  C  C217  1  0.352200  0.031400  0.378600  1.0  0.0602
  C  C218  1  0.496500  0.134000  0.318900  1.0  0.7103
  C  C219  1  0.676000  0.166800  0.504600  1.0  0.1823
  C  C220  1  0.726200  0.184000  0.558300  1.0  -0.372
  C  C221  1  0.803300  0.913800  0.707100  1.0  0.1509
  C  C222  1  0.890200  0.975400  0.684900  1.0  -0.1667
  C  C223  1  0.871700  0.013000  0.638900  1.0  -0.01
  C  C224  1  0.766400  0.989000  0.615300  1.0  -0.1812
  C  C225  1  0.679500  0.927400  0.637600  1.0  0.1874
  C  C226  1  0.601200  0.564400  0.480700  1.0  -0.0613
  C  C227  1  0.529200  0.529400  0.523000  1.0  0.2317
  C  C228  1  0.523100  0.571000  0.569200  1.0  -0.2034
  C  C229  1  0.588900  0.649800  0.573700  1.0  -0.0521
  C  C230  1  0.734700  0.767000  0.535000  1.0  -0.1439
  C  C231  1  0.807500  0.799600  0.494500  1.0  0.1263
  C  C232  1  0.813900  0.758000  0.448000  1.0  -0.1405
  C  C233  1  0.746400  0.680800  0.442800  1.0  -0.1098
  C  C234  1  0.669260  0.643520  0.484800  1.0  0.0137
  C  C235  1  0.662500  0.687600  0.531500  1.0  0.0427
  C  C236  1  0.576100  0.693000  0.623800  1.0  0.642
  C  C237  1  0.393500  0.411600  0.558500  1.0  0.1651
  C  C238  1  0.353000  0.325400  0.543700  1.0  -0.3658
  C  C239  1  0.608330  0.514260  0.433300  1.0  -0.056
  C  C240  1  0.655800  0.457600  0.442600  1.0  0.2238
  C  C241  1  0.656500  0.404000  0.401300  1.0  -0.1862
  C  C242  1  0.610590  0.406380  0.352300  1.0  -0.0641
  C  C243  1  0.520000  0.473000  0.287000  1.0  -0.1272
  C  C244  1  0.476200  0.530600  0.279000  1.0  0.1443
  C  C245  1  0.473600  0.583000  0.320200  1.0  -0.1442
  C  C246  1  0.520300  0.579200  0.368900  1.0  -0.0864
  C  C247  1  0.565500  0.519800  0.381600  1.0  0.0136
  C  C248  1  0.563460  0.464320  0.339800  1.0  0.0464
  C  C249  1  0.606400  0.341800  0.312000  1.0  0.6912
  C  C250  1  0.685300  0.379400  0.514100  1.0  0.1655
  C  C251  1  0.674400  0.384200  0.575100  1.0  -0.3685
  C  C252  1  0.386100  0.979600  0.526600  1.0  -0.056
  C  C253  1  0.421600  0.918200  0.535000  1.0  0.2317
  C  C254  1  0.411000  0.881600  0.585900  1.0  -0.1888
  C  C255  1  0.363200  0.907600  0.628700  1.0  -0.0789
  C  C256  1  0.274900  0.999200  0.663700  1.0  -0.137
  C  C257  1  0.240200  0.060000  0.653900  1.0  0.1486
  C  C258  1  0.251600  0.096400  0.604400  1.0  -0.1527
  C  C259  1  0.297800  0.069200  0.562100  1.0  -0.0816
  C  C260  1  0.337000  0.005400  0.569100  1.0  0.0055
  C  C261  1  0.320800  0.968600  0.621400  1.0  0.0608
  C  C262  1  0.362500  0.866000  0.681100  1.0  0.7105
  C  C263  1  0.509200  0.833200  0.495400  1.0  0.1808
  C  C264  1  0.542200  0.816000  0.441700  1.0  -0.3725
  C  C265  1  0.196700  0.086200  0.207100  1.0  0.1504
  C  C266  1  0.109800  0.024600  0.184900  1.0  -0.1672
  C  C267  1  0.128300  0.987000  0.138900  1.0  -0.0075
  C  C268  1  0.233600  0.011000  0.115300  1.0  -0.1816
  C  C269  1  0.320500  0.072600  0.137600  1.0  0.1874
  C  C270  1  0.398800  0.435600  0.980700  1.0  -0.0614
  C  C271  1  0.470800  0.470600  0.023000  1.0  0.2316
  C  C272  1  0.476900  0.429000  0.069200  1.0  -0.203
  C  C273  1  0.411100  0.350200  0.073700  1.0  -0.0529
  C  C274  1  0.265300  0.233000  0.035000  1.0  -0.1399
  C  C275  1  0.192500  0.200400  0.994500  1.0  0.1272
  C  C276  1  0.186100  0.242000  0.948000  1.0  -0.1402
  C  C277  1  0.253600  0.319200  0.942800  1.0  -0.1095
  C  C278  1  0.330740  0.356480  0.984800  1.0  0.014
  C  C279  1  0.337500  0.312400  0.031500  1.0  0.0436
  C  C280  1  0.423900  0.307000  0.123800  1.0  0.6392
  C  C281  1  0.606500  0.588400  0.058500  1.0  0.165
  C  C282  1  0.647000  0.674600  0.043700  1.0  -0.3656
  C  C283  1  0.391670  0.485740  0.933300  1.0  -0.0566
  C  C284  1  0.344200  0.542400  0.942600  1.0  0.2241
  C  C285  1  0.343500  0.596000  0.901300  1.0  -0.1848
  C  C286  1  0.389410  0.593620  0.852300  1.0  -0.0632
  C  C287  1  0.480000  0.527000  0.787000  1.0  -0.1295
  C  C288  1  0.523800  0.469400  0.779000  1.0  0.1442
  C  C289  1  0.526400  0.417000  0.820200  1.0  -0.1436
  C  C290  1  0.479700  0.420800  0.868900  1.0  -0.0869
  C  C291  1  0.434500  0.480200  0.881600  1.0  0.0138
  C  C292  1  0.436540  0.535680  0.839800  1.0  0.0464
  C  C293  1  0.393600  0.658200  0.812000  1.0  0.6922
  C  C294  1  0.314700  0.620600  0.014100  1.0  0.1676
  C  C295  1  0.325600  0.615800  0.075100  1.0  -0.368
  C  C296  1  0.613900  0.020400  0.026600  1.0  -0.0562
  C  C297  1  0.578400  0.081800  0.035000  1.0  0.2323
  C  C298  1  0.589000  0.118400  0.085900  1.0  -0.1908
  C  C299  1  0.636800  0.092400  0.128700  1.0  -0.0791
  C  C300  1  0.725100  0.000800  0.163700  1.0  -0.1368
  C  C301  1  0.759800  0.940000  0.153900  1.0  0.1486
  C  C302  1  0.748400  0.903600  0.104400  1.0  -0.1508
  C  C303  1  0.702200  0.930800  0.062100  1.0  -0.0809
  C  C304  1  0.663000  0.994600  0.069100  1.0  0.0055
  C  C305  1  0.679200  0.031400  0.121400  1.0  0.0606
  C  C306  1  0.637500  0.134000  0.181100  1.0  0.7109
  C  C307  1  0.490800  0.166800  0.995400  1.0  0.1834
  C  C308  1  0.457800  0.184000  0.941700  1.0  -0.373
  N  N309  1  0.191760  0.889720  0.816500  1.0  -0.4113
  N  N310  1  0.808240  0.110280  0.316500  1.0  -0.4111
  N  N311  1  0.697960  0.889720  0.683500  1.0  -0.409
  N  N312  1  0.302040  0.110280  0.183500  1.0  -0.4114
  Cl  Cl313  1  0.997380  0.896360  0.000270  1.0  -0.1078
  Cl  Cl314  1  0.118300  0.538200  0.284850  1.0  -0.1142
  Cl  Cl315  1  0.916340  0.098280  0.793270  1.0  -0.1199
  Cl  Cl316  1  0.002620  0.103640  0.500270  1.0  -0.1081
  Cl  Cl317  1  0.881700  0.461800  0.784850  1.0  -0.1128
  Cl  Cl318  1  0.083660  0.901720  0.293270  1.0  -0.1185
  Cl  Cl319  1  0.898980  0.896360  0.499730  1.0  -0.1069
  Cl  Cl320  1  0.419900  0.538200  0.215150  1.0  -0.1124
  Cl  Cl321  1  0.181940  0.098280  0.706730  1.0  -0.1212
  Cl  Cl322  1  0.101020  0.103640  0.999730  1.0  -0.1067
  Cl  Cl323  1  0.580100  0.461800  0.715150  1.0  -0.1131
  Cl  Cl324  1  0.818060  0.901720  0.206730  1.0  -0.1211
  O  O325  1  0.193850  0.756900  0.880330  1.0  -0.615
  O  O326  1  0.084910  0.662820  0.830620  1.0  -0.604
  O  O327  1  0.984170  0.451740  0.983800  1.0  -0.2587
  O  O328  1  0.631850  0.319300  0.187300  1.0  -0.6069
  O  O329  1  0.794950  0.314500  0.215800  1.0  -0.6338
  O  O330  1  0.757180  0.455360  0.007000  1.0  -0.2613
  O  O331  1  0.402500  0.844000  0.810000  1.0  -0.628
  O  O332  1  0.575230  0.855460  0.787900  1.0  -0.6479
  O  O333  1  0.426000  0.893600  0.009000  1.0  -0.2729
  O  O334  1  0.806150  0.243100  0.380330  1.0  -0.6148
  O  O335  1  0.915090  0.337180  0.330620  1.0  -0.6039
  O  O336  1  0.015830  0.548260  0.483800  1.0  -0.2591
  O  O337  1  0.368150  0.680700  0.687300  1.0  -0.6062
  O  O338  1  0.205050  0.685500  0.715800  1.0  -0.6338
  O  O339  1  0.242820  0.544640  0.507000  1.0  -0.2627
  O  O340  1  0.597500  0.156000  0.310000  1.0  -0.629
  O  O341  1  0.424770  0.144540  0.287900  1.0  -0.6487
  O  O342  1  0.574000  0.106400  0.509000  1.0  -0.2732
  O  O343  1  0.563050  0.756900  0.619670  1.0  -0.6142
  O  O344  1  0.577910  0.662820  0.669380  1.0  -0.6061
  O  O345  1  0.467570  0.451740  0.516200  1.0  -0.2588
  O  O346  1  0.687450  0.319300  0.312700  1.0  -0.6069
  O  O347  1  0.519550  0.314500  0.284200  1.0  -0.6341
  O  O348  1  0.698180  0.455360  0.493000  1.0  -0.2616
  O  O349  1  0.441500  0.844000  0.690000  1.0  -0.629
  O  O350  1  0.280230  0.855460  0.712100  1.0  -0.6476
  O  O351  1  0.467600  0.893600  0.491000  1.0  -0.2744
  O  O352  1  0.436950  0.243100  0.119670  1.0  -0.615
  O  O353  1  0.422090  0.337180  0.169380  1.0  -0.6065
  O  O354  1  0.532430  0.548260  0.016200  1.0  -0.258
  O  O355  1  0.312550  0.680700  0.812700  1.0  -0.6071
  O  O356  1  0.480450  0.685500  0.784200  1.0  -0.6342
  O  O357  1  0.301820  0.544640  0.993000  1.0  -0.2623
  O  O358  1  0.558500  0.156000  0.190000  1.0  -0.6279
  O  O359  1  0.719770  0.144540  0.212100  1.0  -0.6474
  O  O360  1  0.532400  0.106400  0.991000  1.0  -0.2749
