# generated using pymatgen
data_GdH32C44N(ClO3)3
_symmetry_space_group_name_H-M   'P 1'
_cell_length_a   12.81600000
_cell_length_b   18.39290000
_cell_length_c   24.81600000
_cell_angle_alpha   90.00000000
_cell_angle_beta   90.00000000
_cell_angle_gamma   110.38900000
_symmetry_Int_Tables_number   1
_chemical_formula_structural   GdH32C44N(ClO3)3
_chemical_formula_sum   'Gd4 H128 C176 N4 Cl12 O36'
_cell_volume   5483.22111890
_cell_formula_units_Z   4
loop_
 _symmetry_equiv_pos_site_id
 _symmetry_equiv_pos_as_xyz
  1  'x, y, z'
loop_
 _atom_site_type_symbol
 _atom_site_label
 _atom_site_symmetry_multiplicity
 _atom_site_fract_x
 _atom_site_fract_y
 _atom_site_fract_z
 _atom_site_occupancy
 _atom_site_charge
  Gd  Gd1  1  0.231050  0.770080  0.785720  1.0  2.181
  Gd  Gd2  1  0.768950  0.229920  0.285720  1.0  2.1801
  Gd  Gd3  1  0.539030  0.770080  0.714280  1.0  2.1788
  Gd  Gd4  1  0.460970  0.229920  0.214280  1.0  2.1795
  H  H5  1  0.073700  0.890200  0.765000  1.0  0.0979
  H  H6  1  0.042700  0.997800  0.800100  1.0  0.0945
  H  H7  1  0.143400  0.061600  0.874300  1.0  0.0957
  H  H8  1  0.275000  0.017800  0.913500  1.0  0.0992
  H  H9  1  0.306000  0.910200  0.878300  1.0  0.0894
  H  H10  1  0.069700  0.548000  0.903500  1.0  0.1144
  H  H11  1  0.064600  0.794600  0.935000  1.0  0.0988
  H  H12  1  0.916300  0.781800  0.078900  1.0  0.1028
  H  H13  1  0.903400  0.654400  0.088100  1.0  0.1105
  H  H14  1  0.988200  0.421400  0.908400  1.0  0.0582
  H  H15  1  0.099400  0.431600  0.939700  1.0  0.0596
  H  H16  1  0.995000  0.298000  0.930300  1.0  0.109
  H  H17  1  0.005200  0.320200  0.991600  1.0  0.1177
  H  H18  1  0.894600  0.310000  0.960300  1.0  0.1106
  H  H19  1  0.679800  0.369600  0.092300  1.0  0.0998
  H  H20  1  0.921500  0.439000  0.240100  1.0  0.1077
  H  H21  1  0.180500  0.619600  0.186300  1.0  0.1138
  H  H22  1  0.094300  0.617200  0.106100  1.0  0.0864
  H  H23  1  0.724400  0.344400  0.000400  1.0  0.0639
  H  H24  1  0.618000  0.368000  0.994700  1.0  0.0566
  H  H25  1  0.672400  0.339200  0.909800  1.0  0.1129
  H  H26  1  0.683700  0.426800  0.911900  1.0  0.1053
  H  H27  1  0.789700  0.403400  0.917600  1.0  0.116
  H  H28  1  0.407100  0.840400  0.908800  1.0  0.0993
  H  H29  1  0.712300  0.980800  0.803200  1.0  0.1097
  H  H30  1  0.906600  0.141800  0.903500  1.0  0.114
  H  H31  1  0.786000  0.093400  0.973200  1.0  0.0971
  H  H32  1  0.279500  0.837400  0.977900  1.0  0.0546
  H  H33  1  0.348100  0.783400  0.990600  1.0  0.0553
  H  H34  1  0.209100  0.763400  0.051700  1.0  0.1041
  H  H35  1  0.324700  0.797600  0.080600  1.0  0.1004
  H  H36  1  0.255900  0.851200  0.067800  1.0  0.0935
  H  H37  1  0.926300  0.109800  0.265000  1.0  0.0984
  H  H38  1  0.957300  0.002200  0.300100  1.0  0.0946
  H  H39  1  0.856600  0.938400  0.374300  1.0  0.0956
  H  H40  1  0.725000  0.982200  0.413500  1.0  0.1
  H  H41  1  0.694000  0.089800  0.378300  1.0  0.0889
  H  H42  1  0.930300  0.452000  0.403500  1.0  0.1147
  H  H43  1  0.935400  0.205400  0.435000  1.0  0.0988
  H  H44  1  0.083700  0.218200  0.578900  1.0  0.1024
  H  H45  1  0.096600  0.345600  0.588100  1.0  0.11
  H  H46  1  0.011800  0.578600  0.408400  1.0  0.0585
  H  H47  1  0.900600  0.568400  0.439700  1.0  0.0657
  H  H48  1  0.005000  0.702000  0.430300  1.0  0.1102
  H  H49  1  0.994800  0.679800  0.491600  1.0  0.1179
  H  H50  1  0.105400  0.690000  0.460300  1.0  0.111
  H  H51  1  0.320200  0.630400  0.592300  1.0  0.1
  H  H52  1  0.078500  0.561000  0.740100  1.0  0.1074
  H  H53  1  0.819500  0.380400  0.686300  1.0  0.1139
  H  H54  1  0.905700  0.382800  0.606100  1.0  0.0864
  H  H55  1  0.275600  0.655600  0.500400  1.0  0.0638
  H  H56  1  0.382000  0.632000  0.494700  1.0  0.0545
  H  H57  1  0.327600  0.660800  0.409800  1.0  0.1126
  H  H58  1  0.316300  0.573200  0.411900  1.0  0.1043
  H  H59  1  0.210300  0.596600  0.417600  1.0  0.1147
  H  H60  1  0.592900  0.159600  0.408800  1.0  0.1001
  H  H61  1  0.287700  0.019200  0.303200  1.0  0.1103
  H  H62  1  0.093400  0.858200  0.403500  1.0  0.1137
  H  H63  1  0.214000  0.906600  0.473200  1.0  0.0975
  H  H64  1  0.720500  0.162600  0.477900  1.0  0.0544
  H  H65  1  0.651900  0.216600  0.490600  1.0  0.0549
  H  H66  1  0.790900  0.236600  0.551700  1.0  0.1034
  H  H67  1  0.675300  0.202400  0.580600  1.0  0.1013
  H  H68  1  0.744100  0.148800  0.567800  1.0  0.0929
  H  H69  1  0.816500  0.890200  0.735000  1.0  0.0981
  H  H70  1  0.955100  0.997800  0.699900  1.0  0.095
  H  H71  1  0.918200  0.061600  0.625700  1.0  0.0958
  H  H72  1  0.742800  0.017800  0.586500  1.0  0.0989
  H  H73  1  0.604200  0.910200  0.621700  1.0  0.0892
  H  H74  1  0.478300  0.548000  0.596500  1.0  0.1139
  H  H75  1  0.730000  0.794600  0.565000  1.0  0.0977
  H  H76  1  0.865500  0.781800  0.421100  1.0  0.1026
  H  H77  1  0.751000  0.654400  0.411900  1.0  0.1111
  H  H78  1  0.433200  0.421400  0.591600  1.0  0.0595
  H  H79  1  0.332200  0.431600  0.560300  1.0  0.0645
  H  H80  1  0.303000  0.298000  0.569700  1.0  0.1099
  H  H81  1  0.315000  0.320200  0.508400  1.0  0.1187
  H  H82  1  0.415400  0.310000  0.539700  1.0  0.1101
  H  H83  1  0.689800  0.369600  0.407700  1.0  0.1007
  H  H84  1  0.517500  0.439000  0.259900  1.0  0.1076
  H  H85  1  0.439100  0.619600  0.313700  1.0  0.1146
  H  H86  1  0.522900  0.617200  0.393900  1.0  0.0863
  H  H87  1  0.620000  0.344400  0.499600  1.0  0.0639
  H  H88  1  0.750000  0.368000  0.505300  1.0  0.0542
  H  H89  1  0.666800  0.339200  0.590200  1.0  0.1123
  H  H90  1  0.743100  0.426800  0.588100  1.0  0.1044
  H  H91  1  0.613700  0.403400  0.582400  1.0  0.1161
  H  H92  1  0.433300  0.840400  0.591200  1.0  0.1005
  H  H93  1  0.268500  0.980800  0.696800  1.0  0.11
  H  H94  1  0.235200  0.141800  0.596500  1.0  0.1143
  H  H95  1  0.307400  0.093400  0.526800  1.0  0.0977
  H  H96  1  0.557900  0.837400  0.522100  1.0  0.0546
  H  H97  1  0.435300  0.783400  0.509400  1.0  0.0548
  H  H98  1  0.554300  0.763400  0.448300  1.0  0.1031
  H  H99  1  0.472900  0.797600  0.419400  1.0  0.1013
  H  H100  1  0.595300  0.851200  0.432200  1.0  0.0917
  H  H101  1  0.183500  0.109800  0.235000  1.0  0.0981
  H  H102  1  0.044900  0.002200  0.199900  1.0  0.0949
  H  H103  1  0.081800  0.938400  0.125700  1.0  0.0956
  H  H104  1  0.257200  0.982200  0.086500  1.0  0.0988
  H  H105  1  0.395800  0.089800  0.121700  1.0  0.0897
  H  H106  1  0.521700  0.452000  0.096500  1.0  0.1135
  H  H107  1  0.270000  0.205400  0.065000  1.0  0.0996
  H  H108  1  0.134500  0.218200  0.921100  1.0  0.1028
  H  H109  1  0.249000  0.345600  0.911900  1.0  0.1108
  H  H110  1  0.566800  0.578600  0.091600  1.0  0.0597
  H  H111  1  0.667800  0.568400  0.060300  1.0  0.0595
  H  H112  1  0.697000  0.702000  0.069700  1.0  0.1097
  H  H113  1  0.685000  0.679800  0.008400  1.0  0.1182
  H  H114  1  0.584600  0.690000  0.039700  1.0  0.1107
  H  H115  1  0.310200  0.630400  0.907700  1.0  0.1007
  H  H116  1  0.482500  0.561000  0.759900  1.0  0.1073
  H  H117  1  0.560900  0.380400  0.813700  1.0  0.114
  H  H118  1  0.477100  0.382800  0.893900  1.0  0.0866
  H  H119  1  0.380000  0.655600  0.999600  1.0  0.0636
  H  H120  1  0.250000  0.632000  0.005300  1.0  0.0562
  H  H121  1  0.333200  0.660800  0.090200  1.0  0.1115
  H  H122  1  0.256900  0.573200  0.088100  1.0  0.1053
  H  H123  1  0.386300  0.596600  0.082400  1.0  0.1169
  H  H124  1  0.566700  0.159600  0.091200  1.0  0.1004
  H  H125  1  0.731500  0.019200  0.196800  1.0  0.1094
  H  H126  1  0.764800  0.858200  0.096500  1.0  0.1143
  H  H127  1  0.692600  0.906600  0.026800  1.0  0.0979
  H  H128  1  0.442100  0.162600  0.022100  1.0  0.0557
  H  H129  1  0.564700  0.216600  0.009400  1.0  0.0555
  H  H130  1  0.445700  0.236600  0.948300  1.0  0.1045
  H  H131  1  0.527100  0.202400  0.919400  1.0  0.1003
  H  H132  1  0.404700  0.148800  0.932200  1.0  0.0907
  C  C133  1  0.114100  0.915800  0.794700  1.0  0.131
  C  C134  1  0.095500  0.980200  0.815800  1.0  -0.1273
  C  C135  1  0.155700  0.018400  0.860300  1.0  -0.0488
  C  C136  1  0.234600  0.992200  0.883700  1.0  -0.1127
  C  C137  1  0.253200  0.927800  0.862600  1.0  0.1439
  C  C138  1  0.963930  0.565060  0.020300  1.0  -0.1018
  C  C139  1  0.000860  0.530720  0.978600  1.0  0.2074
  C  C140  1  0.048050  0.572700  0.931800  1.0  -0.1869
  C  C141  1  0.062150  0.650500  0.927900  1.0  -0.0903
  C  C142  1  0.025750  0.687900  0.969400  1.0  0.0123
  C  C143  1  0.032510  0.765820  0.965300  1.0  -0.0822
  C  C144  1  0.991930  0.799460  0.005900  1.0  -0.0006
  C  C145  1  0.943290  0.757980  0.051900  1.0  -0.0894
  C  C146  1  0.935270  0.681740  0.057200  1.0  -0.0963
  C  C147  1  0.975250  0.644300  0.016100  1.0  0.0248
  C  C148  1  0.117900  0.693200  0.877800  1.0  0.6829
  C  C149  1  0.018800  0.413200  0.942600  1.0  0.1344
  C  C150  1  0.974300  0.327400  0.957600  1.0  -0.3706
  C  C151  1  0.906540  0.515880  0.067200  1.0  -0.0722
  C  C152  1  0.802950  0.459500  0.058400  1.0  0.2058
  C  C153  1  0.749520  0.406440  0.099100  1.0  -0.1778
  C  C154  1  0.797210  0.407620  0.147900  1.0  -0.0918
  C  C155  1  0.902000  0.465800  0.160300  1.0  0.0342
  C  C156  1  0.955410  0.473020  0.212400  1.0  -0.1087
  C  C157  1  0.055600  0.530000  0.220500  1.0  0.1429
  C  C158  1  0.110400  0.582800  0.180000  1.0  -0.1541
  C  C159  1  0.060000  0.579600  0.131700  1.0  -0.0871
  C  C160  1  0.955560  0.520520  0.118400  1.0  0.0295
  C  C161  1  0.738180  0.343760  0.187500  1.0  0.6983
  C  C162  1  0.696400  0.383000  0.985800  1.0  0.1586
  C  C163  1  0.712000  0.388600  0.925900  1.0  -0.3709
  C  C164  1  0.591700  0.979800  0.973300  1.0  -0.0639
  C  C165  1  0.496500  0.917800  0.964900  1.0  0.247
  C  C166  1  0.472500  0.882400  0.914000  1.0  -0.2163
  C  C167  1  0.545410  0.909420  0.871700  1.0  -0.0731
  C  C168  1  0.646700  0.971200  0.879400  1.0  0.0268
  C  C169  1  0.725000  0.001800  0.837700  1.0  -0.1267
  C  C170  1  0.818200  0.061800  0.848800  1.0  0.0848
  C  C171  1  0.842300  0.099000  0.898500  1.0  -0.1532
  C  C172  1  0.769200  0.070800  0.939300  1.0  -0.0883
  C  C173  1  0.666667  0.007200  0.931800  1.0  -0.0052
  C  C174  1  0.509100  0.868200  0.818900  1.0  0.7345
  C  C175  1  0.329500  0.827000  0.003700  1.0  0.1435
  C  C176  1  0.275300  0.808200  0.055200  1.0  -0.356
  C  C177  1  0.885900  0.084200  0.294700  1.0  0.1325
  C  C178  1  0.904500  0.019800  0.315800  1.0  -0.1269
  C  C179  1  0.844300  0.981600  0.360300  1.0  -0.0498
  C  C180  1  0.765400  0.007800  0.383700  1.0  -0.111
  C  C181  1  0.746800  0.072200  0.362600  1.0  0.1429
  C  C182  1  0.036070  0.434940  0.520300  1.0  -0.1012
  C  C183  1  0.999140  0.469280  0.478600  1.0  0.2072
  C  C184  1  0.951950  0.427300  0.431800  1.0  -0.1863
  C  C185  1  0.937850  0.349500  0.427900  1.0  -0.089
  C  C186  1  0.974250  0.312100  0.469400  1.0  0.0133
  C  C187  1  0.967490  0.234180  0.465300  1.0  -0.0869
  C  C188  1  0.008070  0.200540  0.505900  1.0  0.0044
  C  C189  1  0.056710  0.242020  0.551900  1.0  -0.0901
  C  C190  1  0.064730  0.318260  0.557200  1.0  -0.0968
  C  C191  1  0.024750  0.355700  0.516100  1.0  0.0237
  C  C192  1  0.882100  0.306800  0.377800  1.0  0.684
  C  C193  1  0.981200  0.586800  0.442600  1.0  0.1338
  C  C194  1  0.025700  0.672600  0.457600  1.0  -0.37
  C  C195  1  0.093460  0.484120  0.567200  1.0  -0.0725
  C  C196  1  0.197050  0.540500  0.558400  1.0  0.2064
  C  C197  1  0.250480  0.593560  0.599100  1.0  -0.1785
  C  C198  1  0.202790  0.592380  0.647900  1.0  -0.0919
  C  C199  1  0.098000  0.534200  0.660300  1.0  0.0343
  C  C200  1  0.044590  0.526980  0.712400  1.0  -0.1072
  C  C201  1  0.944400  0.470000  0.720500  1.0  0.1428
  C  C202  1  0.889600  0.417200  0.680000  1.0  -0.1526
  C  C203  1  0.940000  0.420400  0.631700  1.0  -0.0863
  C  C204  1  0.044440  0.479480  0.618400  1.0  0.0293
  C  C205  1  0.261820  0.656240  0.687500  1.0  0.6976
  C  C206  1  0.303600  0.617000  0.485800  1.0  0.1598
  C  C207  1  0.288000  0.611400  0.425900  1.0  -0.3703
  C  C208  1  0.408300  0.020200  0.473300  1.0  -0.0651
  C  C209  1  0.503500  0.082200  0.464900  1.0  0.2474
  C  C210  1  0.527500  0.117600  0.414000  1.0  -0.2146
  C  C211  1  0.454590  0.090580  0.371700  1.0  -0.0728
  C  C212  1  0.353300  0.028800  0.379400  1.0  0.0267
  C  C213  1  0.275000  0.998200  0.337700  1.0  -0.126
  C  C214  1  0.181800  0.938200  0.348800  1.0  0.0835
  C  C215  1  0.157700  0.901000  0.398500  1.0  -0.153
  C  C216  1  0.230800  0.929200  0.439300  1.0  -0.0873
  C  C217  1  0.333400  0.992800  0.431800  1.0  -0.0013
  C  C218  1  0.490900  0.131800  0.318900  1.0  0.7342
  C  C219  1  0.670500  0.173000  0.503700  1.0  0.1451
  C  C220  1  0.724700  0.191800  0.555200  1.0  -0.3549
  C  C221  1  0.801700  0.915800  0.705300  1.0  0.1307
  C  C222  1  0.884700  0.980200  0.684200  1.0  -0.127
  C  C223  1  0.862700  0.018400  0.639700  1.0  -0.0499
  C  C224  1  0.757600  0.992200  0.616300  1.0  -0.1118
  C  C225  1  0.674600  0.927800  0.637400  1.0  0.1428
  C  C226  1  0.601130  0.565060  0.479700  1.0  -0.1013
  C  C227  1  0.529860  0.530720  0.521400  1.0  0.2082
  C  C228  1  0.524650  0.572700  0.568200  1.0  -0.1853
  C  C229  1  0.588350  0.650500  0.572100  1.0  -0.0844
  C  C230  1  0.662150  0.687900  0.530600  1.0  0.0118
  C  C231  1  0.733310  0.765820  0.534700  1.0  -0.0856
  C  C232  1  0.807530  0.799460  0.494100  1.0  -0.0013
  C  C233  1  0.814690  0.757980  0.448100  1.0  -0.0909
  C  C234  1  0.746470  0.681740  0.442800  1.0  -0.0958
  C  C235  1  0.669050  0.644300  0.483900  1.0  0.0236
  C  C236  1  0.575300  0.693200  0.622200  1.0  0.6859
  C  C237  1  0.394400  0.413200  0.557400  1.0  0.1325
  C  C238  1  0.353100  0.327400  0.542400  1.0  -0.3706
  C  C239  1  0.609340  0.515880  0.432800  1.0  -0.072
  C  C240  1  0.656550  0.459500  0.441600  1.0  0.2055
  C  C241  1  0.656920  0.406440  0.400900  1.0  -0.18
  C  C242  1  0.610410  0.407620  0.352100  1.0  -0.0916
  C  C243  1  0.563800  0.465800  0.339700  1.0  0.0332
  C  C244  1  0.517610  0.473020  0.287600  1.0  -0.1054
  C  C245  1  0.474400  0.530000  0.279500  1.0  0.1404
  C  C246  1  0.472400  0.582800  0.320000  1.0  -0.1536
  C  C247  1  0.519600  0.579600  0.368300  1.0  -0.0868
  C  C248  1  0.564960  0.520520  0.381600  1.0  0.0291
  C  C249  1  0.605580  0.343760  0.312500  1.0  0.6974
  C  C250  1  0.686600  0.383000  0.514200  1.0  0.1588
  C  C251  1  0.676600  0.388600  0.574100  1.0  -0.3713
  C  C252  1  0.388100  0.979800  0.526700  1.0  -0.0659
  C  C253  1  0.421300  0.917800  0.535100  1.0  0.2472
  C  C254  1  0.409900  0.882400  0.586000  1.0  -0.2147
  C  C255  1  0.364010  0.909420  0.628300  1.0  -0.0715
  C  C256  1  0.324500  0.971200  0.620600  1.0  0.0284
  C  C257  1  0.276800  0.001800  0.662300  1.0  -0.1264
  C  C258  1  0.243600  0.061800  0.651200  1.0  0.0927
  C  C259  1  0.256700  0.099000  0.601500  1.0  -0.1523
  C  C260  1  0.301600  0.070800  0.560700  1.0  -0.0877
  C  C261  1  0.340600  0.007200  0.568200  1.0  -0.0004
  C  C262  1  0.359100  0.868200  0.681100  1.0  0.7342
  C  C263  1  0.497500  0.827000  0.496300  1.0  0.1441
  C  C264  1  0.532900  0.808200  0.444800  1.0  -0.354
  C  C265  1  0.198300  0.084200  0.205300  1.0  0.1313
  C  C266  1  0.115300  0.019800  0.184200  1.0  -0.1283
  C  C267  1  0.137300  0.981600  0.139700  1.0  -0.0486
  C  C268  1  0.242400  0.007800  0.116300  1.0  -0.1125
  C  C269  1  0.325400  0.072200  0.137400  1.0  0.1437
  C  C270  1  0.398870  0.434940  0.979700  1.0  -0.1016
  C  C271  1  0.470140  0.469280  0.021400  1.0  0.2079
  C  C272  1  0.475350  0.427300  0.068200  1.0  -0.1857
  C  C273  1  0.411650  0.349500  0.072100  1.0  -0.0855
  C  C274  1  0.337850  0.312100  0.030600  1.0  0.0116
  C  C275  1  0.266690  0.234180  0.034700  1.0  -0.082
  C  C276  1  0.192470  0.200540  0.994100  1.0  0.0026
  C  C277  1  0.185310  0.242020  0.948100  1.0  -0.0894
  C  C278  1  0.253530  0.318260  0.942800  1.0  -0.0949
  C  C279  1  0.330950  0.355700  0.983900  1.0  0.0243
  C  C280  1  0.424700  0.306800  0.122200  1.0  0.6826
  C  C281  1  0.605600  0.586800  0.057400  1.0  0.1324
  C  C282  1  0.646900  0.672600  0.042400  1.0  -0.3697
  C  C283  1  0.390660  0.484120  0.932800  1.0  -0.0723
  C  C284  1  0.343450  0.540500  0.941600  1.0  0.2059
  C  C285  1  0.343080  0.593560  0.900900  1.0  -0.1785
  C  C286  1  0.389590  0.592380  0.852100  1.0  -0.0913
  C  C287  1  0.436200  0.534200  0.839700  1.0  0.0336
  C  C288  1  0.482390  0.526980  0.787600  1.0  -0.1073
  C  C289  1  0.525600  0.470000  0.779500  1.0  0.1405
  C  C290  1  0.527600  0.417200  0.820000  1.0  -0.1525
  C  C291  1  0.480400  0.420400  0.868300  1.0  -0.0862
  C  C292  1  0.435040  0.479480  0.881600  1.0  0.0293
  C  C293  1  0.394420  0.656240  0.812500  1.0  0.6977
  C  C294  1  0.313400  0.617000  0.014200  1.0  0.16
  C  C295  1  0.323400  0.611400  0.074100  1.0  -0.3709
  C  C296  1  0.611900  0.020200  0.026700  1.0  -0.0648
  C  C297  1  0.578700  0.082200  0.035100  1.0  0.2475
  C  C298  1  0.590100  0.117600  0.086000  1.0  -0.2159
  C  C299  1  0.635990  0.090580  0.128300  1.0  -0.0722
  C  C300  1  0.675500  0.028800  0.120600  1.0  0.028
  C  C301  1  0.723200  0.998200  0.162300  1.0  -0.125
  C  C302  1  0.756400  0.938200  0.151200  1.0  0.0943
  C  C303  1  0.743300  0.901000  0.101500  1.0  -0.1528
  C  C304  1  0.698400  0.929200  0.060700  1.0  -0.0885
  C  C305  1  0.659400  0.992800  0.068200  1.0  -0.0009
  C  C306  1  0.640900  0.131800  0.181100  1.0  0.7353
  C  C307  1  0.502500  0.173000  0.996300  1.0  0.1433
  C  C308  1  0.467100  0.191800  0.944800  1.0  -0.3546
  N  N309  1  0.192880  0.889560  0.818200  1.0  -0.402
  N  N310  1  0.807120  0.110440  0.318200  1.0  -0.4015
  N  N311  1  0.696680  0.889560  0.681800  1.0  -0.4003
  N  N312  1  0.303320  0.110440  0.181800  1.0  -0.4023
  Cl  Cl313  1  0.995810  0.895420  0.000220  1.0  -0.1088
  Cl  Cl314  1  0.119740  0.536440  0.283930  1.0  -0.1324
  Cl  Cl315  1  0.915570  0.101540  0.796500  1.0  -0.1363
  Cl  Cl316  1  0.004190  0.104580  0.500220  1.0  -0.1085
  Cl  Cl317  1  0.880260  0.463560  0.783930  1.0  -0.1311
  Cl  Cl318  1  0.084430  0.898460  0.296500  1.0  -0.1364
  Cl  Cl319  1  0.899610  0.895420  0.499780  1.0  -0.1069
  Cl  Cl320  1  0.416700  0.536440  0.216070  1.0  -0.131
  Cl  Cl321  1  0.185970  0.101540  0.703500  1.0  -0.1358
  Cl  Cl322  1  0.100390  0.104580  0.999780  1.0  -0.1082
  Cl  Cl323  1  0.583300  0.463560  0.716070  1.0  -0.1315
  Cl  Cl324  1  0.814030  0.898460  0.203500  1.0  -0.1361
  O  O325  1  0.195030  0.756460  0.882420  1.0  -0.639
  O  O326  1  0.083690  0.663780  0.832610  1.0  -0.6378
  O  O327  1  0.985330  0.453660  0.984900  1.0  -0.2698
  O  O328  1  0.634530  0.321060  0.187500  1.0  -0.7008
  O  O329  1  0.798170  0.315540  0.214900  1.0  -0.6788
  O  O330  1  0.757270  0.458140  0.008030  1.0  -0.2674
  O  O331  1  0.406560  0.843520  0.809900  1.0  -0.6804
  O  O332  1  0.580620  0.859240  0.788200  1.0  -0.7117
  O  O333  1  0.425880  0.891760  0.008200  1.0  -0.2738
  O  O334  1  0.804970  0.243540  0.382420  1.0  -0.6385
  O  O335  1  0.916310  0.336220  0.332610  1.0  -0.637
  O  O336  1  0.014670  0.546340  0.484900  1.0  -0.2707
  O  O337  1  0.365470  0.678940  0.687500  1.0  -0.7003
  O  O338  1  0.201830  0.684460  0.714900  1.0  -0.6775
  O  O339  1  0.242730  0.541860  0.508030  1.0  -0.2692
  O  O340  1  0.593440  0.156480  0.309900  1.0  -0.6816
  O  O341  1  0.419380  0.140760  0.288200  1.0  -0.711
  O  O342  1  0.574120  0.108240  0.508200  1.0  -0.2753
  O  O343  1  0.561430  0.756460  0.617580  1.0  -0.6387
  O  O344  1  0.580090  0.663780  0.667390  1.0  -0.638
  O  O345  1  0.468330  0.453660  0.515100  1.0  -0.2705
  O  O346  1  0.686530  0.321060  0.312500  1.0  -0.7007
  O  O347  1  0.517370  0.315540  0.285100  1.0  -0.6783
  O  O348  1  0.700870  0.458140  0.491970  1.0  -0.2671
  O  O349  1  0.436960  0.843520  0.690100  1.0  -0.6812
  O  O350  1  0.278620  0.859240  0.711800  1.0  -0.7106
  O  O351  1  0.465880  0.891760  0.491800  1.0  -0.2743
  O  O352  1  0.438570  0.243540  0.117580  1.0  -0.6386
  O  O353  1  0.419910  0.336220  0.167390  1.0  -0.6393
  O  O354  1  0.531670  0.546340  0.015100  1.0  -0.2692
  O  O355  1  0.313470  0.678940  0.812500  1.0  -0.7014
  O  O356  1  0.482630  0.684460  0.785100  1.0  -0.6789
  O  O357  1  0.299130  0.541860  0.991970  1.0  -0.2686
  O  O358  1  0.563040  0.156480  0.190100  1.0  -0.6803
  O  O359  1  0.721380  0.140760  0.211800  1.0  -0.7106
  O  O360  1  0.534120  0.108240  0.991800  1.0  -0.2762
