# generated using pymatgen
data_Eu2NiH32C56(N2O5)4
_symmetry_space_group_name_H-M   'P 1'
_cell_length_a   10.13400000
_cell_length_b   10.83600000
_cell_length_c   13.74100000
_cell_angle_alpha   79.15300000
_cell_angle_beta   78.78600000
_cell_angle_gamma   86.27600000
_symmetry_Int_Tables_number   1
_chemical_formula_structural   Eu2NiH32C56(N2O5)4
_chemical_formula_sum   'Eu2 Ni1 H32 C56 N8 O20'
_cell_volume   1453.04343515
_cell_formula_units_Z   1
loop_
 _symmetry_equiv_pos_site_id
 _symmetry_equiv_pos_as_xyz
  1  'x, y, z'
loop_
 _atom_site_type_symbol
 _atom_site_label
 _atom_site_symmetry_multiplicity
 _atom_site_fract_x
 _atom_site_fract_y
 _atom_site_fract_z
 _atom_site_occupancy
 _atom_site_charge
  Eu  Eu1  1  0.681020  0.077480  0.703120  1.0  2.0643
  Eu  Eu2  1  0.318980  0.922520  0.296880  1.0  2.0656
  Ni  Ni3  1  0.000000  0.500000  0.500000  1.0  0.4609
  H  H4  1  0.672900  0.330800  0.846900  1.0  0.1234
  H  H5  1  0.653500  0.671000  0.923500  1.0  0.1268
  H  H6  1  0.718400  0.639200  0.632100  1.0  0.1178
  H  H7  1  0.654600  0.226100  0.149200  1.0  0.1325
  H  H8  1  0.645300  0.118900  0.310100  1.0  0.0806
  H  H9  1  0.634600  0.428700  0.414700  1.0  0.0952
  H  H10  1  0.643000  0.545100  0.257400  1.0  0.1258
  H  H11  1  0.176700  0.085900  0.718400  1.0  0.1192
  H  H12  1  0.910500  0.161400  0.959000  1.0  0.1228
  H  H13  1  0.304800  0.146600  0.963700  1.0  0.1315
  H  H14  1  0.983000  0.170900  0.284000  1.0  0.1322
  H  H15  1  0.967700  0.251000  0.428600  1.0  0.094
  H  H16  1  0.986800  0.592500  0.277100  1.0  0.0829
  H  H17  1  0.991500  0.522500  0.129200  1.0  0.1356
  H  H18  1  0.620200  0.354000  0.018000  1.0  0.3238
  H  H19  1  0.119000  0.156900  0.118900  1.0  0.3043
  H  H20  1  0.327100  0.669200  0.153100  1.0  0.1226
  H  H21  1  0.346500  0.329000  0.076500  1.0  0.1264
  H  H22  1  0.281600  0.360800  0.367900  1.0  0.1171
  H  H23  1  0.345400  0.773900  0.850800  1.0  0.1326
  H  H24  1  0.354700  0.881100  0.689900  1.0  0.0813
  H  H25  1  0.365400  0.571300  0.585300  1.0  0.0947
  H  H26  1  0.357000  0.454900  0.742600  1.0  0.1266
  H  H27  1  0.823300  0.914100  0.281600  1.0  0.1194
  H  H28  1  0.089500  0.838600  0.041000  1.0  0.1237
  H  H29  1  0.695200  0.853400  0.036300  1.0  0.131
  H  H30  1  0.017000  0.829100  0.716000  1.0  0.1326
  H  H31  1  0.032300  0.749000  0.571400  1.0  0.0945
  H  H32  1  0.013200  0.407500  0.722900  1.0  0.0831
  H  H33  1  0.008500  0.477500  0.870800  1.0  0.1354
  H  H34  1  0.379800  0.646000  0.982000  1.0  0.3225
  H  H35  1  0.881000  0.843100  0.881100  1.0  0.3036
  C  C36  1  0.701800  0.472200  0.726800  1.0  -0.1432
  C  C37  1  0.678500  0.417700  0.828500  1.0  -0.1221
  C  C38  1  0.663600  0.490500  0.902400  1.0  0.2073
  C  C39  1  0.665000  0.620800  0.874500  1.0  -0.1308
  C  C40  1  0.683700  0.675200  0.773600  1.0  -0.1212
  C  C41  1  0.703700  0.601700  0.699900  1.0  -0.0118
  C  C42  1  0.687000  0.814900  0.747500  1.0  0.6789
  C  C43  1  0.732600  0.394100  0.646200  1.0  0.7784
  C  C44  1  0.665800  0.482300  0.082100  1.0  0.5104
  C  C45  1  0.651600  0.400300  0.183900  1.0  -0.0254
  C  C46  1  0.651200  0.269700  0.201900  1.0  -0.182
  C  C47  1  0.645700  0.206200  0.299100  1.0  0.2094
  C  C48  1  0.639300  0.387400  0.360600  1.0  0.1854
  C  C49  1  0.644400  0.457800  0.266100  1.0  -0.1378
  C  C50  1  0.262500  0.114000  0.832100  1.0  -0.1314
  C  C51  1  0.158600  0.103700  0.783400  1.0  -0.0115
  C  C52  1  0.025900  0.120200  0.831700  1.0  -0.1433
  C  C53  1  0.999000  0.149800  0.927100  1.0  -0.117
  C  C54  1  0.104100  0.162400  0.975500  1.0  0.1983
  C  C55  1  0.234700  0.141900  0.929800  1.0  -0.0797
  C  C56  1  0.406700  0.098000  0.784900  1.0  0.6719
  C  C57  1  0.909200  0.109700  0.782200  1.0  0.6662
  C  C58  1  0.993600  0.295600  0.092000  1.0  0.5039
  C  C59  1  0.990300  0.338100  0.190500  1.0  0.0211
  C  C60  1  0.983000  0.257400  0.281000  1.0  -0.1675
  C  C61  1  0.975500  0.306300  0.367400  1.0  0.1787
  C  C62  1  0.985200  0.506400  0.278600  1.0  0.1738
  C  C63  1  0.989400  0.465500  0.189200  1.0  -0.1396
  C  C64  1  0.298200  0.527800  0.273200  1.0  -0.1483
  C  C65  1  0.321500  0.582300  0.171500  1.0  -0.1226
  C  C66  1  0.336400  0.509500  0.097600  1.0  0.2076
  C  C67  1  0.335000  0.379200  0.125500  1.0  -0.1303
  C  C68  1  0.316300  0.324800  0.226400  1.0  -0.1199
  C  C69  1  0.296300  0.398300  0.300100  1.0  -0.0137
  C  C70  1  0.313000  0.185100  0.252500  1.0  0.6772
  C  C71  1  0.267400  0.605900  0.353800  1.0  0.7756
  C  C72  1  0.334200  0.517700  0.917900  1.0  0.5104
  C  C73  1  0.348400  0.599700  0.816100  1.0  -0.0261
  C  C74  1  0.348800  0.730300  0.798100  1.0  -0.1844
  C  C75  1  0.354300  0.793800  0.700900  1.0  0.2068
  C  C76  1  0.360700  0.612600  0.639400  1.0  0.1857
  C  C77  1  0.355600  0.542200  0.733900  1.0  -0.1373
  C  C78  1  0.737500  0.886000  0.167900  1.0  -0.1299
  C  C79  1  0.841400  0.896300  0.216600  1.0  -0.0122
  C  C80  1  0.974100  0.879800  0.168300  1.0  -0.1436
  C  C81  1  0.001000  0.850200  0.072900  1.0  -0.1173
  C  C82  1  0.895900  0.837600  0.024500  1.0  0.199
  C  C83  1  0.765300  0.858100  0.070200  1.0  -0.0802
  C  C84  1  0.593300  0.902000  0.215100  1.0  0.671
  C  C85  1  0.090800  0.890300  0.217800  1.0  0.668
  C  C86  1  0.006400  0.704400  0.908000  1.0  0.5037
  C  C87  1  0.009700  0.661900  0.809500  1.0  0.0198
  C  C88  1  0.017000  0.742600  0.719000  1.0  -0.17
  C  C89  1  0.024500  0.693700  0.632600  1.0  0.1789
  C  C90  1  0.014800  0.493600  0.721400  1.0  0.1753
  C  C91  1  0.010600  0.534500  0.810800  1.0  -0.138
  N  N92  1  0.645900  0.430400  0.004300  1.0  -0.4072
  N  N93  1  0.640800  0.261100  0.378300  1.0  -0.407
  N  N94  1  0.079200  0.197900  0.072300  1.0  -0.4042
  N  N95  1  0.979100  0.429600  0.367700  1.0  -0.3654
  N  N96  1  0.354100  0.569600  0.995700  1.0  -0.4076
  N  N97  1  0.359200  0.738900  0.621700  1.0  -0.4111
  N  N98  1  0.920800  0.802100  0.927700  1.0  -0.4048
  N  N99  1  0.020900  0.570400  0.632300  1.0  -0.363
  O  O100  1  0.807000  0.435600  0.564800  1.0  -0.5975
  O  O101  1  0.679800  0.287100  0.664300  1.0  -0.7453
  O  O102  1  0.670800  0.871000  0.661000  1.0  -0.6815
  O  O103  1  0.705800  0.877100  0.810700  1.0  -0.6312
  O  O104  1  0.691400  0.591800  0.074500  1.0  -0.4674
  O  O105  1  0.441000  0.099000  0.690700  1.0  -0.6897
  O  O106  1  0.496300  0.084000  0.837300  1.0  -0.6379
  O  O107  1  0.926900  0.095000  0.690500  1.0  -0.6908
  O  O108  1  0.791500  0.114700  0.832800  1.0  -0.6438
  O  O109  1  0.924300  0.351100  0.033200  1.0  -0.4859
  O  O110  1  0.193000  0.564400  0.435200  1.0  -0.5954
  O  O111  1  0.320200  0.712900  0.335700  1.0  -0.7438
  O  O112  1  0.329200  0.129000  0.339000  1.0  -0.6808
  O  O113  1  0.294200  0.122900  0.189300  1.0  -0.6327
  O  O114  1  0.308600  0.408200  0.925500  1.0  -0.4667
  O  O115  1  0.559000  0.901000  0.309300  1.0  -0.6902
  O  O116  1  0.503700  0.916000  0.162700  1.0  -0.6362
  O  O117  1  0.073100  0.905000  0.309500  1.0  -0.6928
  O  O118  1  0.208500  0.885300  0.167200  1.0  -0.6459
  O  O119  1  0.075700  0.648900  0.966800  1.0  -0.4854
