# generated using pymatgen
data_K2Cr3CoH18W12(C6O23)2
_symmetry_space_group_name_H-M   'P 1'
_cell_length_a   16.15800000
_cell_length_b   22.45610000
_cell_length_c   26.48070000
_cell_angle_alpha   74.61960000
_cell_angle_beta   72.23640000
_cell_angle_gamma   68.91410000
_symmetry_Int_Tables_number   1
_chemical_formula_structural   K2Cr3CoH18W12(C6O23)2
_chemical_formula_sum   'K8 Cr12 Co4 H72 W48 C48 O184'
_cell_volume   8405.93256113
_cell_formula_units_Z   4
loop_
 _symmetry_equiv_pos_site_id
 _symmetry_equiv_pos_as_xyz
  1  'x, y, z'
loop_
 _atom_site_type_symbol
 _atom_site_label
 _atom_site_symmetry_multiplicity
 _atom_site_fract_x
 _atom_site_fract_y
 _atom_site_fract_z
 _atom_site_occupancy
 _atom_site_charge
  K  K1  1  0.574800  0.084200  0.834600  1.0  0.9906
  K  K2  1  0.747400  0.521500  0.879500  1.0  1.0436
  K  K3  1  0.493600  0.415800  0.665400  1.0  0.9937
  K  K4  1  0.148400  0.978500  0.620500  1.0  1.033
  K  K5  1  0.425200  0.915800  0.165400  1.0  0.9914
  K  K6  1  0.252600  0.478500  0.120500  1.0  1.0406
  K  K7  1  0.506400  0.584200  0.334600  1.0  0.9974
  K  K8  1  0.851600  0.021500  0.379500  1.0  1.032
  Cr  Cr9  1  0.793910  0.966680  0.778900  1.0  1.4049
  Cr  Cr10  1  0.979000  0.008700  0.747700  1.0  1.5824
  Cr  Cr11  1  0.950120  0.889560  0.847800  1.0  1.4608
  Cr  Cr12  1  0.539490  0.533320  0.721100  1.0  1.4036
  Cr  Cr13  1  0.735400  0.491300  0.752300  1.0  1.582
  Cr  Cr14  1  0.687480  0.610440  0.652200  1.0  1.4697
  Cr  Cr15  1  0.206090  0.033320  0.221100  1.0  1.4009
  Cr  Cr16  1  0.021000  0.991300  0.252300  1.0  1.5832
  Cr  Cr17  1  0.049880  0.110440  0.152200  1.0  1.466
  Cr  Cr18  1  0.460510  0.466680  0.278900  1.0  1.402
  Cr  Cr19  1  0.264600  0.508700  0.247700  1.0  1.5844
  Cr  Cr20  1  0.312520  0.389560  0.347800  1.0  1.4643
  Co  Co21  1  0.394620  0.789060  0.964100  1.0  0.8958
  Co  Co22  1  0.147780  0.710940  0.535900  1.0  0.8955
  Co  Co23  1  0.605380  0.210940  0.035900  1.0  0.8951
  Co  Co24  1  0.852220  0.289060  0.464100  1.0  0.8946
  H  H25  1  0.782300  0.199200  0.744000  1.0  0.1192
  H  H26  1  0.700200  0.181300  0.787700  1.0  0.1459
  H  H27  1  0.708300  0.184500  0.726500  1.0  0.1489
  H  H28  1  0.232900  0.803800  0.767000  1.0  0.1252
  H  H29  1  0.259300  0.866900  0.736700  1.0  0.147
  H  H30  1  0.218800  0.834300  0.708500  1.0  0.1414
  H  H31  1  0.917800  0.726900  0.800500  1.0  0.1577
  H  H32  1  0.888700  0.768000  0.747400  1.0  0.1502
  H  H33  1  0.814100  0.756600  0.799800  1.0  0.1124
  H  H34  1  0.012100  0.077300  0.874100  1.0  0.1569
  H  H35  1  0.947600  0.048200  0.924200  1.0  0.1595
  H  H36  1  0.052900  0.013300  0.911700  1.0  0.1624
  H  H37  1  0.865800  0.972800  0.605600  1.0  0.1621
  H  H38  1  0.972100  0.955100  0.594500  1.0  0.1581
  H  H39  1  0.912000  0.028000  0.587600  1.0  0.1599
  H  H40  1  0.703700  0.924600  0.981400  1.0  0.1651
  H  H41  1  0.630700  0.929400  0.951600  1.0  0.1604
  H  H42  1  0.648900  0.992500  0.954100  1.0  0.1608
  H  H43  1  0.725500  0.300800  0.756000  1.0  0.1186
  H  H44  1  0.669200  0.318700  0.712300  1.0  0.1431
  H  H45  1  0.619300  0.315500  0.773500  1.0  0.15
  H  H46  1  0.803700  0.696200  0.733000  1.0  0.1263
  H  H47  1  0.862900  0.633100  0.763300  1.0  0.1454
  H  H48  1  0.761600  0.665700  0.791500  1.0  0.1449
  H  H49  1  0.445200  0.773100  0.699500  1.0  0.1557
  H  H50  1  0.404100  0.732000  0.752600  1.0  0.149
  H  H51  1  0.370500  0.743400  0.700200  1.0  0.112
  H  H52  1  0.963500  0.422700  0.625900  1.0  0.1569
  H  H53  1  0.920000  0.451800  0.575800  1.0  0.1578
  H  H54  1  0.977900  0.486700  0.588300  1.0  0.1626
  H  H55  1  0.444200  0.527200  0.894400  1.0  0.1625
  H  H56  1  0.521700  0.544900  0.905500  1.0  0.1574
  H  H57  1  0.527600  0.472000  0.912400  1.0  0.1569
  H  H58  1  0.609700  0.575400  0.518600  1.0  0.1634
  H  H59  1  0.511700  0.570600  0.548400  1.0  0.1607
  H  H60  1  0.595500  0.507500  0.545900  1.0  0.159
  H  H61  1  0.217700  0.800800  0.256000  1.0  0.1203
  H  H62  1  0.299800  0.818700  0.212300  1.0  0.1452
  H  H63  1  0.291700  0.815500  0.273500  1.0  0.149
  H  H64  1  0.767100  0.196200  0.233000  1.0  0.1261
  H  H65  1  0.740700  0.133100  0.263300  1.0  0.147
  H  H66  1  0.781200  0.165700  0.291500  1.0  0.1425
  H  H67  1  0.082200  0.273100  0.199500  1.0  0.157
  H  H68  1  0.111300  0.232000  0.252600  1.0  0.15
  H  H69  1  0.185900  0.243400  0.200200  1.0  0.1119
  H  H70  1  0.987900  0.922700  0.125900  1.0  0.1551
  H  H71  1  0.052400  0.951800  0.075800  1.0  0.1577
  H  H72  1  0.947100  0.986700  0.088300  1.0  0.1611
  H  H73  1  0.134200  0.027200  0.394400  1.0  0.1632
  H  H74  1  0.027900  0.044900  0.405500  1.0  0.1589
  H  H75  1  0.088000  0.972000  0.412400  1.0  0.1566
  H  H76  1  0.296300  0.075400  0.018600  1.0  0.1631
  H  H77  1  0.369300  0.070600  0.048400  1.0  0.1589
  H  H78  1  0.351100  0.007500  0.045900  1.0  0.158
  H  H79  1  0.274500  0.699200  0.244000  1.0  0.1194
  H  H80  1  0.330800  0.681300  0.287700  1.0  0.143
  H  H81  1  0.380700  0.684500  0.226500  1.0  0.152
  H  H82  1  0.196300  0.303800  0.267000  1.0  0.1248
  H  H83  1  0.137100  0.366900  0.236700  1.0  0.146
  H  H84  1  0.238400  0.334300  0.208500  1.0  0.1429
  H  H85  1  0.554800  0.226900  0.300500  1.0  0.1541
  H  H86  1  0.595900  0.268000  0.247400  1.0  0.1505
  H  H87  1  0.629500  0.256600  0.299800  1.0  0.1116
  H  H88  1  0.036500  0.577300  0.374100  1.0  0.1558
  H  H89  1  0.080000  0.548200  0.424200  1.0  0.157
  H  H90  1  0.022100  0.513300  0.411700  1.0  0.162
  H  H91  1  0.555800  0.472800  0.105600  1.0  0.1625
  H  H92  1  0.478300  0.455100  0.094500  1.0  0.159
  H  H93  1  0.472400  0.528000  0.087600  1.0  0.1604
  H  H94  1  0.390300  0.424600  0.481400  1.0  0.1643
  H  H95  1  0.488300  0.429400  0.451600  1.0  0.1588
  H  H96  1  0.404500  0.492500  0.454100  1.0  0.1611
  W  W97  1  0.452520  0.933300  0.911980  1.0  2.26
  W  W98  1  0.492280  0.834480  0.043600  1.0  2.2885
  W  W99  1  0.429230  0.702180  0.091720  1.0  1.3589
  W  W100  1  0.286100  0.738150  0.894530  1.0  1.3819
  W  W101  1  0.234910  0.944600  0.953620  1.0  1.2982
  W  W102  1  0.565380  0.639940  0.965460  1.0  2.3662
  W  W103  1  0.274620  0.845690  0.085870  1.0  1.264
  W  W104  1  0.629960  0.771880  0.917620  1.0  1.321
  W  W105  1  0.165050  0.795560  0.006060  1.0  1.4932
  W  W106  1  0.354860  0.888020  0.842140  1.0  1.3851
  W  W107  1  0.532360  0.726090  0.847990  1.0  1.2863
  W  W108  1  0.320330  0.651610  0.011750  1.0  2.3157
  W  W109  1  0.297800  0.566700  0.588020  1.0  2.2602
  W  W110  1  0.370360  0.665520  0.456400  1.0  2.2985
  W  W111  1  0.223130  0.797820  0.408280  1.0  1.3643
  W  W112  1  0.918780  0.761850  0.605470  1.0  1.3764
  W  W113  1  0.133130  0.555400  0.546380  1.0  1.2914
  W  W114  1  0.170780  0.860060  0.534540  1.0  2.3664
  W  W115  1  0.206180  0.654310  0.414130  1.0  1.263
  W  W116  1  0.319460  0.728120  0.582380  1.0  1.3218
  W  W117  1  0.966670  0.704440  0.493940  1.0  1.4925
  W  W118  1  0.085020  0.611980  0.657860  1.0  1.3782
  W  W119  1  0.106440  0.773910  0.652010  1.0  1.2831
  W  W120  1  0.983690  0.848390  0.488250  1.0  2.3154
  W  W121  1  0.547480  0.066700  0.088020  1.0  2.2606
  W  W122  1  0.507720  0.165520  0.956400  1.0  2.2955
  W  W123  1  0.570770  0.297820  0.908280  1.0  1.3637
  W  W124  1  0.713900  0.261850  0.105470  1.0  1.3799
  W  W125  1  0.765090  0.055400  0.046380  1.0  1.2924
  W  W126  1  0.434620  0.360060  0.034540  1.0  2.3662
  W  W127  1  0.725380  0.154310  0.914130  1.0  1.2625
  W  W128  1  0.370040  0.228120  0.082380  1.0  1.3215
  W  W129  1  0.834950  0.204440  0.993940  1.0  1.4948
  W  W130  1  0.645140  0.111980  0.157860  1.0  1.378
  W  W131  1  0.467640  0.273910  0.152010  1.0  1.2839
  W  W132  1  0.679670  0.348390  0.988250  1.0  2.3146
  W  W133  1  0.702200  0.433300  0.411980  1.0  2.2587
  W  W134  1  0.629640  0.334480  0.543600  1.0  2.2991
  W  W135  1  0.776870  0.202180  0.591720  1.0  1.3608
  W  W136  1  0.081220  0.238150  0.394530  1.0  1.3789
  W  W137  1  0.866870  0.444600  0.453620  1.0  1.2965
  W  W138  1  0.829220  0.139940  0.465460  1.0  2.3682
  W  W139  1  0.793820  0.345690  0.585870  1.0  1.2609
  W  W140  1  0.680540  0.271880  0.417620  1.0  1.322
  W  W141  1  0.033330  0.295560  0.506060  1.0  1.4932
  W  W142  1  0.914980  0.388020  0.342140  1.0  1.3844
  W  W143  1  0.893560  0.226090  0.347990  1.0  1.2847
  W  W144  1  0.016310  0.151610  0.511750  1.0  2.3153
  C  C145  1  0.123500  0.883600  0.764800  1.0  0.7275
  C  C146  1  0.906200  0.985800  0.667800  1.0  0.7207
  C  C147  1  0.990000  0.998600  0.861400  1.0  0.6778
  C  C148  1  0.741500  0.173200  0.753800  1.0  -0.3903
  C  C149  1  0.751000  0.940300  0.897700  1.0  0.7427
  C  C150  1  0.217100  0.843600  0.742200  1.0  -0.3598
  C  C151  1  0.873400  0.763300  0.785900  1.0  -0.3499
  C  C152  1  0.869600  0.823300  0.801500  1.0  0.7243
  C  C153  1  0.002000  0.037900  0.896100  1.0  -0.404
  C  C154  1  0.796400  0.102600  0.758600  1.0  0.754
  C  C155  1  0.915200  0.985400  0.608200  1.0  -0.4722
  C  C156  1  0.676600  0.947400  0.951400  1.0  -0.476
  C  C157  1  0.771900  0.616400  0.735200  1.0  0.7294
  C  C158  1  0.559800  0.514200  0.832200  1.0  0.7243
  C  C159  1  0.850000  0.501400  0.638600  1.0  0.6787
  C  C160  1  0.668500  0.326800  0.746200  1.0  -0.3937
  C  C161  1  0.589000  0.559700  0.602300  1.0  0.7432
  C  C162  1  0.802900  0.656400  0.757800  1.0  -0.3592
  C  C163  1  0.422600  0.736700  0.714100  1.0  -0.3486
  C  C164  1  0.494400  0.676700  0.698500  1.0  0.7236
  C  C165  1  0.936000  0.462100  0.603900  1.0  -0.4036
  C  C166  1  0.657600  0.397400  0.741400  1.0  0.7546
  C  C167  1  0.508800  0.514600  0.891800  1.0  -0.4687
  C  C168  1  0.575400  0.552600  0.548600  1.0  -0.4807
  C  C169  1  0.876500  0.116400  0.235200  1.0  0.7285
  C  C170  1  0.093800  0.014200  0.332200  1.0  0.722
  C  C171  1  0.010000  0.001400  0.138600  1.0  0.6783
  C  C172  1  0.258500  0.826800  0.246200  1.0  -0.3942
  C  C173  1  0.249000  0.059700  0.102300  1.0  0.7441
  C  C174  1  0.782900  0.156400  0.257800  1.0  -0.358
  C  C175  1  0.126600  0.236700  0.214100  1.0  -0.3486
  C  C176  1  0.130400  0.176700  0.198500  1.0  0.7236
  C  C177  1  0.998000  0.962100  0.103900  1.0  -0.4028
  C  C178  1  0.203600  0.897400  0.241400  1.0  0.7554
  C  C179  1  0.084800  0.014600  0.391800  1.0  -0.4731
  C  C180  1  0.323400  0.052600  0.048600  1.0  -0.4756
  C  C181  1  0.228100  0.383600  0.264800  1.0  0.7299
  C  C182  1  0.440200  0.485800  0.167800  1.0  0.7249
  C  C183  1  0.150000  0.498600  0.361400  1.0  0.6794
  C  C184  1  0.331500  0.673200  0.253800  1.0  -0.3908
  C  C185  1  0.411000  0.440300  0.397700  1.0  0.7416
  C  C186  1  0.197100  0.343600  0.242200  1.0  -0.3606
  C  C187  1  0.577400  0.263300  0.285900  1.0  -0.3494
  C  C188  1  0.505600  0.323300  0.301500  1.0  0.7249
  C  C189  1  0.064000  0.537900  0.396100  1.0  -0.4022
  C  C190  1  0.342400  0.602600  0.258600  1.0  0.753
  C  C191  1  0.491200  0.485400  0.108200  1.0  -0.4702
  C  C192  1  0.424600  0.447400  0.451400  1.0  -0.476
  O  O193  1  0.501700  0.993700  0.894300  1.0  -0.8321
  O  O194  1  0.752100  0.062000  0.771200  1.0  -0.6323
  O  O195  1  0.179700  0.875900  0.969100  1.0  -0.6719
  O  O196  1  0.305100  0.578600  0.043400  1.0  -0.7827
  O  O197  1  0.881400  0.088600  0.747600  1.0  -0.5973
  O  O198  1  0.554400  0.858300  0.897300  1.0  -0.6772
  O  O199  1  0.836900  0.972700  0.700300  1.0  -0.5946
  O  O200  1  0.321200  0.761000  0.127800  1.0  -0.6588
  O  O201  1  0.966000  0.000300  0.678100  1.0  -0.6193
  O  O202  1  0.255700  0.911500  0.024300  1.0  -0.6221
  O  O203  1  0.814100  0.874500  0.783100  1.0  -0.5924
  O  O204  1  0.925800  0.820700  0.826700  1.0  -0.5979
  O  O205  1  0.208600  0.807500  0.061300  1.0  -0.7139
  O  O206  1  0.633500  0.562200  0.979200  1.0  -0.7217
  O  O207  1  0.328900  0.985000  0.936000  1.0  -0.6997
  O  O208  1  0.295800  0.658400  0.942600  1.0  -0.6989
  O  O209  1  0.524300  0.664500  0.033500  1.0  -0.7281
  O  O210  1  0.635600  0.752900  0.850300  1.0  -0.6686
  O  O211  1  0.416300  0.712900  0.868700  1.0  -0.6314
  O  O212  1  0.429300  0.939300  0.843500  1.0  -0.7428
  O  O213  1  0.194600  0.704200  0.035600  1.0  -0.7348
  O  O214  1  0.458600  0.901700  0.986300  1.0  -0.6823
  O  O215  1  0.581500  0.789200  0.989800  1.0  -0.7031
  O  O216  1  0.247700  0.949200  0.877400  1.0  -0.714
  O  O217  1  0.307400  0.753400  0.966800  1.0  -0.8759
  O  O218  1  0.506400  0.741200  0.931000  1.0  -0.8471
  O  O219  1  0.094300  0.937000  0.736800  1.0  -0.6344
  O  O220  1  0.292900  0.823100  0.864500  1.0  -0.6801
  O  O221  1  0.552200  0.864000  0.069000  1.0  -0.7192
  O  O222  1  0.975600  0.947200  0.879000  1.0  -0.5523
  O  O223  1  0.076700  0.862300  0.807700  1.0  -0.5949
  O  O224  1  0.166300  0.776100  0.938700  1.0  -0.7166
  O  O225  1  0.374700  0.870100  0.091300  1.0  -0.7269
  O  O226  1  0.464000  0.817200  0.832200  1.0  -0.6375
  O  O227  1  0.446700  0.630200  0.978400  1.0  -0.7001
  O  O228  1  0.398600  0.791100  0.031700  1.0  -0.8041
  O  O229  1  0.833400  0.905300  0.900300  1.0  -0.6397
  O  O230  1  0.059200  0.065600  0.700000  1.0  -0.6516
  O  O231  1  0.585200  0.643400  0.889000  1.0  -0.7675
  O  O232  1  0.662400  0.680200  0.946800  1.0  -0.7012
  O  O233  1  0.728100  0.965700  0.855100  1.0  -0.6169
  O  O234  1  0.363600  0.872000  0.924400  1.0  -0.8675
  O  O235  1  0.908200  0.954000  0.792600  1.0  -0.9671
  O  O236  1  0.353400  0.675100  0.065100  1.0  -0.6951
  O  O237  1  0.005000  0.025900  0.810900  1.0  -0.5999
  O  O238  1  0.501600  0.751600  0.094000  1.0  -0.6785
  O  O239  1  0.389700  0.506300  0.605700  1.0  -0.8294
  O  O240  1  0.585300  0.438000  0.728800  1.0  -0.63
  O  O241  1  0.024700  0.624100  0.530900  1.0  -0.6747
  O  O242  1  0.927100  0.921400  0.456600  1.0  -0.7829
  O  O243  1  0.717600  0.411400  0.752400  1.0  -0.5928
  O  O244  1  0.310000  0.641700  0.602700  1.0  -0.6822
  O  O245  1  0.509900  0.527300  0.799700  1.0  -0.5947
  O  O246  1  0.210000  0.739000  0.372200  1.0  -0.6592
  O  O247  1  0.644400  0.499700  0.821900  1.0  -0.6193
  O  O248  1  0.191500  0.588500  0.475700  1.0  -0.6222
  O  O249  1  0.471700  0.625500  0.716900  1.0  -0.5929
  O  O250  1  0.573200  0.679300  0.673300  1.0  -0.5983
  O  O251  1  0.077400  0.692500  0.438700  1.0  -0.7215
  O  O252  1  0.174900  0.937800  0.520800  1.0  -0.717
  O  O253  1  0.249900  0.515000  0.564000  1.0  -0.702
  O  O254  1  0.896800  0.841600  0.557400  1.0  -0.6965
  O  O255  1  0.222300  0.835500  0.466500  1.0  -0.7257
  O  O256  1  0.238800  0.747100  0.649700  1.0  -0.669
  O  O257  1  0.997900  0.787100  0.631300  1.0  -0.6289
  O  O258  1  0.212100  0.560700  0.656500  1.0  -0.7411
  O  O259  1  0.934400  0.795800  0.464400  1.0  -0.7414
  O  O260  1  0.346600  0.598300  0.513700  1.0  -0.6796
  O  O261  1  0.360500  0.710800  0.510200  1.0  -0.7004
  O  O262  1  0.074300  0.550800  0.622600  1.0  -0.7139
  O  O263  1  0.027600  0.746600  0.533200  1.0  -0.8748
  O  O264  1  0.178600  0.758800  0.569000  1.0  -0.8471
  O  O265  1  0.768100  0.563000  0.763200  1.0  -0.6338
  O  O266  1  0.980500  0.676900  0.635500  1.0  -0.6756
  O  O267  1  0.485200  0.636000  0.431000  1.0  -0.7157
  O  O268  1  0.801800  0.552800  0.621000  1.0  -0.5537
  O  O269  1  0.746700  0.637700  0.692300  1.0  -0.5952
  O  O270  1  0.881100  0.723900  0.561300  1.0  -0.7092
  O  O271  1  0.336100  0.629900  0.408700  1.0  -0.7271
  O  O272  1  0.113400  0.682800  0.667800  1.0  -0.6414
  O  O273  1  0.055300  0.869800  0.521600  1.0  -0.703
  O  O274  1  0.221400  0.708900  0.468300  1.0  -0.8049
  O  O275  1  0.639000  0.594700  0.599700  1.0  -0.6382
  O  O276  1  0.824800  0.434400  0.800000  1.0  -0.6558
  O  O277  1  0.117600  0.856600  0.611000  1.0  -0.7677
  O  O278  1  0.289400  0.819800  0.553200  1.0  -0.6938
  O  O279  1  0.548900  0.534300  0.644900  1.0  -0.6176
  O  O280  1  0.160000  0.628000  0.575600  1.0  -0.8681
  O  O281  1  0.654800  0.546000  0.707400  1.0  -0.9671
  O  O282  1  0.093600  0.824900  0.434900  1.0  -0.6982
  O  O283  1  0.841800  0.474100  0.689100  1.0  -0.599
  O  O284  1  0.347200  0.748400  0.406000  1.0  -0.6744
  O  O285  1  0.498300  0.006300  0.105700  1.0  -0.8301
  O  O286  1  0.247900  0.938000  0.228800  1.0  -0.6312
  O  O287  1  0.820300  0.124100  0.030900  1.0  -0.6717
  O  O288  1  0.694900  0.421400  0.956600  1.0  -0.7783
  O  O289  1  0.118600  0.911400  0.252400  1.0  -0.5966
  O  O290  1  0.445600  0.141700  0.102700  1.0  -0.6801
  O  O291  1  0.163100  0.027300  0.299700  1.0  -0.5928
  O  O292  1  0.678800  0.239000  0.872200  1.0  -0.6607
  O  O293  1  0.034000  0.999700  0.321900  1.0  -0.6176
  O  O294  1  0.744300  0.088500  0.975700  1.0  -0.6208
  O  O295  1  0.185900  0.125500  0.216900  1.0  -0.5897
  O  O296  1  0.074200  0.179300  0.173300  1.0  -0.5971
  O  O297  1  0.791400  0.192500  0.938700  1.0  -0.715
  O  O298  1  0.366500  0.437800  0.020800  1.0  -0.7216
  O  O299  1  0.671100  0.015000  0.064000  1.0  -0.7026
  O  O300  1  0.704200  0.341600  0.057400  1.0  -0.6952
  O  O301  1  0.475700  0.335500  0.966500  1.0  -0.7317
  O  O302  1  0.364400  0.247100  0.149700  1.0  -0.6694
  O  O303  1  0.583700  0.287100  0.131300  1.0  -0.6318
  O  O304  1  0.570700  0.060700  0.156500  1.0  -0.7446
  O  O305  1  0.805400  0.295800  0.964400  1.0  -0.7342
  O  O306  1  0.541400  0.098300  0.013700  1.0  -0.682
  O  O307  1  0.418500  0.210800  0.010200  1.0  -0.7085
  O  O308  1  0.752300  0.050800  0.122600  1.0  -0.7136
  O  O309  1  0.692600  0.246600  0.033200  1.0  -0.8744
  O  O310  1  0.493600  0.258800  0.069000  1.0  -0.8472
  O  O311  1  0.905700  0.063000  0.263200  1.0  -0.6333
  O  O312  1  0.707100  0.176900  0.135500  1.0  -0.6781
  O  O313  1  0.447800  0.136000  0.931000  1.0  -0.719
  O  O314  1  0.024400  0.052800  0.121000  1.0  -0.5523
  O  O315  1  0.923300  0.137700  0.192300  1.0  -0.5958
  O  O316  1  0.833700  0.223900  0.061300  1.0  -0.7135
  O  O317  1  0.625300  0.129900  0.908700  1.0  -0.7302
  O  O318  1  0.536000  0.182800  0.167800  1.0  -0.6418
  O  O319  1  0.553300  0.369800  0.021600  1.0  -0.7012
  O  O320  1  0.601400  0.208900  0.968300  1.0  -0.8038
  O  O321  1  0.166600  0.094700  0.099700  1.0  -0.6362
  O  O322  1  0.940800  0.934400  0.300000  1.0  -0.6524
  O  O323  1  0.414800  0.356600  0.111000  1.0  -0.7672
  O  O324  1  0.337600  0.319800  0.053200  1.0  -0.6995
  O  O325  1  0.271900  0.034300  0.144900  1.0  -0.6176
  O  O326  1  0.636400  0.128000  0.075600  1.0  -0.8678
  O  O327  1  0.091800  0.046000  0.207400  1.0  -0.9674
  O  O328  1  0.646600  0.324900  0.934900  1.0  -0.695
  O  O329  1  0.995000  0.974100  0.189100  1.0  -0.5985
  O  O330  1  0.498400  0.248400  0.906000  1.0  -0.6752
  O  O331  1  0.610300  0.493700  0.394300  1.0  -0.8312
  O  O332  1  0.414700  0.562000  0.271200  1.0  -0.631
  O  O333  1  0.975300  0.375900  0.469100  1.0  -0.6724
  O  O334  1  0.072900  0.078600  0.543400  1.0  -0.7821
  O  O335  1  0.282400  0.588600  0.247600  1.0  -0.5935
  O  O336  1  0.690000  0.358300  0.397300  1.0  -0.6829
  O  O337  1  0.490100  0.472700  0.200300  1.0  -0.593
  O  O338  1  0.790000  0.261000  0.627800  1.0  -0.6586
  O  O339  1  0.355600  0.500300  0.178100  1.0  -0.6187
  O  O340  1  0.808500  0.411500  0.524300  1.0  -0.6219
  O  O341  1  0.528300  0.374500  0.283100  1.0  -0.5926
  O  O342  1  0.426800  0.320700  0.326700  1.0  -0.5978
  O  O343  1  0.922600  0.307500  0.561300  1.0  -0.7224
  O  O344  1  0.825100  0.062200  0.479200  1.0  -0.7168
  O  O345  1  0.750100  0.485000  0.436000  1.0  -0.699
  O  O346  1  0.103200  0.158400  0.442600  1.0  -0.692
  O  O347  1  0.777700  0.164500  0.533500  1.0  -0.7295
  O  O348  1  0.761200  0.252900  0.350300  1.0  -0.67
  O  O349  1  0.002100  0.212900  0.368700  1.0  -0.6286
  O  O350  1  0.787900  0.439300  0.343500  1.0  -0.7438
  O  O351  1  0.065600  0.204200  0.535600  1.0  -0.7403
  O  O352  1  0.653400  0.401700  0.486300  1.0  -0.6811
  O  O353  1  0.639500  0.289200  0.489800  1.0  -0.7034
  O  O354  1  0.925700  0.449200  0.377400  1.0  -0.7141
  O  O355  1  0.972400  0.253400  0.466800  1.0  -0.8742
  O  O356  1  0.821400  0.241200  0.431000  1.0  -0.8465
  O  O357  1  0.231900  0.437000  0.236800  1.0  -0.6341
  O  O358  1  0.019500  0.323100  0.364500  1.0  -0.6767
  O  O359  1  0.514800  0.364000  0.569000  1.0  -0.7144
  O  O360  1  0.198200  0.447200  0.379000  1.0  -0.5545
  O  O361  1  0.253300  0.362300  0.307700  1.0  -0.5967
  O  O362  1  0.118900  0.276100  0.438700  1.0  -0.7101
  O  O363  1  0.663900  0.370100  0.591300  1.0  -0.7231
  O  O364  1  0.886600  0.317200  0.332200  1.0  -0.6363
  O  O365  1  0.944700  0.130200  0.478400  1.0  -0.6996
  O  O366  1  0.778600  0.291100  0.531700  1.0  -0.8045
  O  O367  1  0.361000  0.405300  0.400300  1.0  -0.6376
  O  O368  1  0.175200  0.565600  0.200000  1.0  -0.6537
  O  O369  1  0.882400  0.143400  0.389000  1.0  -0.7676
  O  O370  1  0.710600  0.180200  0.446800  1.0  -0.6938
  O  O371  1  0.451100  0.465700  0.355100  1.0  -0.617
  O  O372  1  0.840000  0.372000  0.424400  1.0  -0.8683
  O  O373  1  0.345200  0.454000  0.292600  1.0  -0.967
  O  O374  1  0.906400  0.175100  0.565100  1.0  -0.6958
  O  O375  1  0.158200  0.525900  0.310900  1.0  -0.601
  O  O376  1  0.652800  0.251600  0.594000  1.0  -0.6712
