# generated using pymatgen
data_AgH8C20(SN)4
_symmetry_space_group_name_H-M   'P 1'
_cell_length_a   13.83400000
_cell_length_b   13.83400000
_cell_length_c   6.16200000
_cell_angle_alpha   90.00000000
_cell_angle_beta   90.00000000
_cell_angle_gamma   90.00000000
_symmetry_Int_Tables_number   1
_chemical_formula_structural   AgH8C20(SN)4
_chemical_formula_sum   'Ag2 H16 C40 S8 N8'
_cell_volume   1179.28082407
_cell_formula_units_Z   2
loop_
 _symmetry_equiv_pos_site_id
 _symmetry_equiv_pos_as_xyz
  1  'x, y, z'
loop_
 _atom_site_type_symbol
 _atom_site_label
 _atom_site_symmetry_multiplicity
 _atom_site_fract_x
 _atom_site_fract_y
 _atom_site_fract_z
 _atom_site_occupancy
 _atom_site_charge
  Ag  Ag1  1  0.250000  0.750000  0.500000  1.0  0.3288
  Ag  Ag2  1  0.750000  0.250000  0.500000  1.0  0.3288
  H  H3  1  0.292100  0.438800  0.101700  1.0  0.1
  H  H4  1  0.379800  0.385100  0.423200  1.0  0.1095
  H  H5  1  0.207900  0.061200  0.101700  1.0  0.0998
  H  H6  1  0.120200  0.114900  0.423200  1.0  0.1099
  H  H7  1  0.061200  0.292100  0.101700  1.0  0.1
  H  H8  1  0.114900  0.379800  0.423200  1.0  0.1086
  H  H9  1  0.438800  0.207900  0.101700  1.0  0.101
  H  H10  1  0.385100  0.120200  0.423200  1.0  0.1083
  H  H11  1  0.707900  0.561200  0.898300  1.0  0.0991
  H  H12  1  0.620200  0.614900  0.576800  1.0  0.1104
  H  H13  1  0.792100  0.938800  0.898300  1.0  0.0998
  H  H14  1  0.879800  0.885100  0.576800  1.0  0.1094
  H  H15  1  0.938800  0.707900  0.898300  1.0  0.1003
  H  H16  1  0.885100  0.620200  0.576800  1.0  0.1089
  H  H17  1  0.561200  0.792100  0.898300  1.0  0.0996
  H  H18  1  0.614900  0.879800  0.576800  1.0  0.1086
  C  C19  1  0.377970  0.558800  0.086200  1.0  -0.0261
  C  C20  1  0.343110  0.472690  0.163900  1.0  -0.0841
  C  C21  1  0.393970  0.441880  0.349100  1.0  -0.0748
  C  C22  1  0.466360  0.503660  0.409300  1.0  -0.0574
  C  C23  1  0.346900  0.609500  0.898600  1.0  0.2792
  C  C24  1  0.122030  0.941200  0.086200  1.0  -0.028
  C  C25  1  0.156890  0.027310  0.163900  1.0  -0.0849
  C  C26  1  0.106030  0.058120  0.349100  1.0  -0.0749
  C  C27  1  0.033640  0.996340  0.409300  1.0  -0.0596
  C  C28  1  0.153100  0.890500  0.898600  1.0  0.2782
  C  C29  1  0.941200  0.377970  0.086200  1.0  -0.0256
  C  C30  1  0.027310  0.343110  0.163900  1.0  -0.0872
  C  C31  1  0.058120  0.393970  0.349100  1.0  -0.0732
  C  C32  1  0.996340  0.466360  0.409300  1.0  -0.0589
  C  C33  1  0.890500  0.346900  0.898600  1.0  0.2789
  C  C34  1  0.558800  0.122030  0.086200  1.0  -0.0264
  C  C35  1  0.472690  0.156890  0.163900  1.0  -0.085
  C  C36  1  0.441880  0.106030  0.349100  1.0  -0.0733
  C  C37  1  0.503660  0.033640  0.409300  1.0  -0.0577
  C  C38  1  0.609500  0.153100  0.898600  1.0  0.2797
  C  C39  1  0.622030  0.441200  0.913800  1.0  -0.028
  C  C40  1  0.656890  0.527310  0.836100  1.0  -0.0858
  C  C41  1  0.606030  0.558120  0.650900  1.0  -0.0741
  C  C42  1  0.533640  0.496340  0.590700  1.0  -0.0592
  C  C43  1  0.653100  0.390500  0.101400  1.0  0.2771
  C  C44  1  0.877970  0.058800  0.913800  1.0  -0.0265
  C  C45  1  0.843110  0.972690  0.836100  1.0  -0.0848
  C  C46  1  0.893970  0.941880  0.650900  1.0  -0.0748
  C  C47  1  0.966360  0.003660  0.590700  1.0  -0.0571
  C  C48  1  0.846900  0.109500  0.101400  1.0  0.2779
  C  C49  1  0.058800  0.622030  0.913800  1.0  -0.0262
  C  C50  1  0.972690  0.656890  0.836100  1.0  -0.0866
  C  C51  1  0.941880  0.606030  0.650900  1.0  -0.0725
  C  C52  1  0.003660  0.533640  0.590700  1.0  -0.0574
  C  C53  1  0.109500  0.653100  0.101400  1.0  0.2784
  C  C54  1  0.441200  0.877970  0.913800  1.0  -0.0258
  C  C55  1  0.527310  0.843110  0.836100  1.0  -0.087
  C  C56  1  0.558120  0.893970  0.650900  1.0  -0.0728
  C  C57  1  0.496340  0.966360  0.590700  1.0  -0.0586
  C  C58  1  0.390500  0.846900  0.101400  1.0  0.2773
  S  S59  1  0.472980  0.601960  0.238560  1.0  0.1306
  S  S60  1  0.027020  0.898040  0.238560  1.0  0.132
  S  S61  1  0.898040  0.472980  0.238560  1.0  0.1294
  S  S62  1  0.601960  0.027020  0.238560  1.0  0.1288
  S  S63  1  0.527020  0.398040  0.761440  1.0  0.1283
  S  S64  1  0.972980  0.101960  0.761440  1.0  0.1272
  S  S65  1  0.101960  0.527020  0.761440  1.0  0.1257
  S  S66  1  0.398040  0.972980  0.761440  1.0  0.1263
  N  N67  1  0.323190  0.651230  0.747300  1.0  -0.4542
  N  N68  1  0.176810  0.848770  0.747300  1.0  -0.4549
  N  N69  1  0.848770  0.323190  0.747300  1.0  -0.4523
  N  N70  1  0.651230  0.176810  0.747300  1.0  -0.453
  N  N71  1  0.676810  0.348770  0.252700  1.0  -0.4548
  N  N72  1  0.823190  0.151230  0.252700  1.0  -0.4556
  N  N73  1  0.151230  0.676810  0.252700  1.0  -0.4542
  N  N74  1  0.348770  0.823190  0.252700  1.0  -0.4523
