# generated using pymatgen
data_AgH8C20(SN)4
_symmetry_space_group_name_H-M   'P 1'
_cell_length_a   13.63760000
_cell_length_b   13.63760000
_cell_length_c   6.20540000
_cell_angle_alpha   90.00000000
_cell_angle_beta   90.00000000
_cell_angle_gamma   90.00000000
_symmetry_Int_Tables_number   1
_chemical_formula_structural   AgH8C20(SN)4
_chemical_formula_sum   'Ag2 H16 C40 S8 N8'
_cell_volume   1154.10594363
_cell_formula_units_Z   2
loop_
 _symmetry_equiv_pos_site_id
 _symmetry_equiv_pos_as_xyz
  1  'x, y, z'
loop_
 _atom_site_type_symbol
 _atom_site_label
 _atom_site_symmetry_multiplicity
 _atom_site_fract_x
 _atom_site_fract_y
 _atom_site_fract_z
 _atom_site_occupancy
 _atom_site_charge
  Ag  Ag1  1  0.250000  0.750000  0.500000  1.0  0.3533
  Ag  Ag2  1  0.750000  0.250000  0.500000  1.0  0.3533
  H  H3  1  0.297400  0.432300  0.085200  1.0  0.096
  H  H4  1  0.382400  0.379300  0.415000  1.0  0.102
  H  H5  1  0.202600  0.067700  0.085200  1.0  0.0968
  H  H6  1  0.117600  0.120700  0.415000  1.0  0.1022
  H  H7  1  0.067700  0.297400  0.085200  1.0  0.0962
  H  H8  1  0.120700  0.382400  0.415000  1.0  0.1004
  H  H9  1  0.432300  0.202600  0.085200  1.0  0.0974
  H  H10  1  0.379300  0.117600  0.415000  1.0  0.1005
  H  H11  1  0.702600  0.567700  0.914800  1.0  0.0965
  H  H12  1  0.617600  0.620700  0.585000  1.0  0.1021
  H  H13  1  0.797400  0.932300  0.914800  1.0  0.0963
  H  H14  1  0.882400  0.879300  0.585000  1.0  0.1014
  H  H15  1  0.932300  0.702600  0.914800  1.0  0.0971
  H  H16  1  0.879300  0.617600  0.585000  1.0  0.1007
  H  H17  1  0.567700  0.797400  0.914800  1.0  0.0964
  H  H18  1  0.620700  0.882400  0.585000  1.0  0.1001
  C  C19  1  0.380300  0.558400  0.084400  1.0  -0.0437
  C  C20  1  0.347400  0.469100  0.154600  1.0  -0.0681
  C  C21  1  0.396600  0.438700  0.341700  1.0  -0.0741
  C  C22  1  0.467100  0.503300  0.407800  1.0  -0.0619
  C  C23  1  0.349700  0.610300  0.898400  1.0  0.2865
  C  C24  1  0.119700  0.941600  0.084400  1.0  -0.043
  C  C25  1  0.152600  0.030900  0.154600  1.0  -0.0678
  C  C26  1  0.103400  0.061300  0.341700  1.0  -0.0732
  C  C27  1  0.032900  0.996700  0.407800  1.0  -0.0635
  C  C28  1  0.150300  0.889700  0.898400  1.0  0.2864
  C  C29  1  0.941600  0.380300  0.084400  1.0  -0.0423
  C  C30  1  0.030900  0.347400  0.154600  1.0  -0.0705
  C  C31  1  0.061300  0.396600  0.341700  1.0  -0.074
  C  C32  1  0.996700  0.467100  0.407800  1.0  -0.0626
  C  C33  1  0.889700  0.349700  0.898400  1.0  0.2858
  C  C34  1  0.558400  0.119700  0.084400  1.0  -0.0419
  C  C35  1  0.469100  0.152600  0.154600  1.0  -0.0688
  C  C36  1  0.438700  0.103400  0.341700  1.0  -0.0743
  C  C37  1  0.503300  0.032900  0.407800  1.0  -0.0621
  C  C38  1  0.610300  0.150300  0.898400  1.0  0.2879
  C  C39  1  0.619700  0.441600  0.915600  1.0  -0.0436
  C  C40  1  0.652600  0.530900  0.845400  1.0  -0.0681
  C  C41  1  0.603400  0.561300  0.658300  1.0  -0.073
  C  C42  1  0.532900  0.496700  0.592200  1.0  -0.0632
  C  C43  1  0.650300  0.389700  0.101600  1.0  0.2857
  C  C44  1  0.880300  0.058400  0.915600  1.0  -0.0444
  C  C45  1  0.847400  0.969100  0.845400  1.0  -0.0682
  C  C46  1  0.896600  0.938700  0.658300  1.0  -0.0744
  C  C47  1  0.967100  0.003300  0.592200  1.0  -0.0618
  C  C48  1  0.849700  0.110300  0.101600  1.0  0.2855
  C  C49  1  0.058400  0.619700  0.915600  1.0  -0.0425
  C  C50  1  0.969100  0.652600  0.845400  1.0  -0.0692
  C  C51  1  0.938700  0.603400  0.658300  1.0  -0.0741
  C  C52  1  0.003300  0.532900  0.592200  1.0  -0.0621
  C  C53  1  0.110300  0.650300  0.101600  1.0  0.287
  C  C54  1  0.441600  0.880300  0.915600  1.0  -0.0425
  C  C55  1  0.530900  0.847400  0.845400  1.0  -0.0701
  C  C56  1  0.561300  0.896600  0.658300  1.0  -0.0741
  C  C57  1  0.496700  0.967100  0.592200  1.0  -0.0626
  C  C58  1  0.389700  0.849700  0.101600  1.0  0.2846
  S  S59  1  0.472620  0.604310  0.243740  1.0  0.1295
  S  S60  1  0.027380  0.895690  0.243740  1.0  0.1319
  S  S61  1  0.895690  0.472620  0.243740  1.0  0.1293
  S  S62  1  0.604310  0.027380  0.243740  1.0  0.1284
  S  S63  1  0.527380  0.395690  0.756260  1.0  0.1294
  S  S64  1  0.972620  0.104310  0.756260  1.0  0.1271
  S  S65  1  0.104310  0.527380  0.756260  1.0  0.1263
  S  S66  1  0.395690  0.972620  0.756260  1.0  0.1272
  N  N67  1  0.326300  0.652700  0.749800  1.0  -0.4527
  N  N68  1  0.173700  0.847300  0.749800  1.0  -0.4535
  N  N69  1  0.847300  0.326300  0.749800  1.0  -0.4516
  N  N70  1  0.652700  0.173700  0.749800  1.0  -0.451
  N  N71  1  0.673700  0.347300  0.250200  1.0  -0.4535
  N  N72  1  0.826300  0.152700  0.250200  1.0  -0.4548
  N  N73  1  0.152700  0.673700  0.250200  1.0  -0.4522
  N  N74  1  0.347300  0.826300  0.250200  1.0  -0.4518
