# generated using pymatgen
data_Cd3H8(C6O5)4
_symmetry_space_group_name_H-M   'P 1'
_cell_length_a   9.43270000
_cell_length_b   10.19540000
_cell_length_c   11.24520000
_cell_angle_alpha   63.98300000
_cell_angle_beta   73.21200000
_cell_angle_gamma   83.22000000
_symmetry_Int_Tables_number   1
_chemical_formula_structural   Cd3H8(C6O5)4
_chemical_formula_sum   'Cd3 H8 C24 O20'
_cell_volume   930.39479486
_cell_formula_units_Z   1
loop_
 _symmetry_equiv_pos_site_id
 _symmetry_equiv_pos_as_xyz
  1  'x, y, z'
loop_
 _atom_site_type_symbol
 _atom_site_label
 _atom_site_symmetry_multiplicity
 _atom_site_fract_x
 _atom_site_fract_y
 _atom_site_fract_z
 _atom_site_occupancy
 _atom_site_charge
  Cd  Cd1  1  0.014200  0.341200  0.186800  1.0  1.1464
  Cd  Cd2  1  0.985800  0.658800  0.813200  1.0  1.1462
  Cd  Cd3  1  0.000000  0.000000  0.500000  1.0  1.1368
  H  H4  1  0.222500  0.115300  0.626700  1.0  0.1633
  H  H5  1  0.474000  0.068500  0.676100  1.0  0.1622
  H  H6  1  0.259200  0.867800  0.852200  1.0  0.1556
  H  H7  1  0.260100  0.092400  0.893300  1.0  0.1513
  H  H8  1  0.777500  0.884700  0.373300  1.0  0.1634
  H  H9  1  0.526000  0.931500  0.323900  1.0  0.1628
  H  H10  1  0.740800  0.132200  0.147800  1.0  0.1547
  H  H11  1  0.739900  0.907600  0.106700  1.0  0.1509
  C  C12  1  0.089500  0.056700  0.170200  1.0  0.7108
  C  C13  1  0.077800  0.630200  0.085100  1.0  0.7289
  C  C14  1  0.124500  0.778100  0.048400  1.0  0.0661
  C  C15  1  0.242500  0.275400  0.331700  1.0  0.69
  C  C16  1  0.340300  0.219200  0.424700  1.0  0.069
  C  C17  1  0.721700  0.182700  0.429000  1.0  0.7465
  C  C18  1  0.556900  0.180700  0.466500  1.0  0.0907
  C  C19  1  0.314100  0.144000  0.563000  1.0  -0.1326
  C  C20  1  0.454900  0.118100  0.590600  1.0  -0.1218
  C  C21  1  0.133600  0.969600  0.088200  1.0  0.0816
  C  C22  1  0.210900  0.878600  0.932100  1.0  -0.1117
  C  C23  1  0.213200  0.003800  0.956000  1.0  -0.1213
  C  C24  1  0.910500  0.943300  0.829800  1.0  0.7093
  C  C25  1  0.922200  0.369800  0.914900  1.0  0.7346
  C  C26  1  0.875500  0.221900  0.951600  1.0  0.0648
  C  C27  1  0.757500  0.724600  0.668300  1.0  0.6916
  C  C28  1  0.659700  0.780800  0.575300  1.0  0.0699
  C  C29  1  0.278300  0.817300  0.571000  1.0  0.7451
  C  C30  1  0.443100  0.819300  0.533500  1.0  0.0877
  C  C31  1  0.685900  0.856000  0.437000  1.0  -0.1333
  C  C32  1  0.545100  0.881900  0.409400  1.0  -0.1239
  C  C33  1  0.866400  0.030400  0.911800  1.0  0.0816
  C  C34  1  0.789100  0.121400  0.067900  1.0  -0.1119
  C  C35  1  0.786800  0.996200  0.044000  1.0  -0.1215
  O  O36  1  0.016300  0.995200  0.291300  1.0  -0.6294
  O  O37  1  0.129100  0.188400  0.103300  1.0  -0.5377
  O  O38  1  0.997100  0.557700  0.204300  1.0  -0.5595
  O  O39  1  0.784700  0.260800  0.305300  1.0  -0.6596
  O  O40  1  0.780700  0.108500  0.522400  1.0  -0.5615
  O  O41  1  0.488400  0.242700  0.364400  1.0  -0.0886
  O  O42  1  0.076100  0.831900  0.146300  1.0  -0.0822
  O  O43  1  0.106900  0.231700  0.383900  1.0  -0.66
  O  O44  1  0.122300  0.581800  0.996000  1.0  -0.6887
  O  O45  1  0.290700  0.362400  0.211000  1.0  -0.5761
  O  O46  1  0.983700  0.004800  0.708700  1.0  -0.6295
  O  O47  1  0.870900  0.811600  0.896700  1.0  -0.536
  O  O48  1  0.002900  0.442300  0.795700  1.0  -0.56
  O  O49  1  0.215300  0.739200  0.694700  1.0  -0.6585
  O  O50  1  0.219300  0.891500  0.477600  1.0  -0.5603
  O  O51  1  0.511600  0.757300  0.635600  1.0  -0.0913
  O  O52  1  0.923900  0.168100  0.853700  1.0  -0.0813
  O  O53  1  0.893100  0.768300  0.616100  1.0  -0.6598
  O  O54  1  0.877700  0.418200  0.004000  1.0  -0.6893
  O  O55  1  0.709300  0.637600  0.789000  1.0  -0.5746
