# generated using pymatgen
data_CuH8C14O5
_symmetry_space_group_name_H-M   'P 1'
_cell_length_a   16.08530000
_cell_length_b   17.41690000
_cell_length_c   19.36670000
_cell_angle_alpha   69.09000000
_cell_angle_beta   65.46300000
_cell_angle_gamma   62.49850000
_symmetry_Int_Tables_number   1
_chemical_formula_structural   CuH8C14O5
_chemical_formula_sum   'Cu8 H64 C112 O40'
_cell_volume   4285.31443135
_cell_formula_units_Z   8
loop_
 _symmetry_equiv_pos_site_id
 _symmetry_equiv_pos_as_xyz
  1  'x, y, z'
loop_
 _atom_site_type_symbol
 _atom_site_label
 _atom_site_symmetry_multiplicity
 _atom_site_fract_x
 _atom_site_fract_y
 _atom_site_fract_z
 _atom_site_occupancy
 _atom_site_charge
  Cu  Cu1  1  0.516700  0.924280  0.049780  1.0  0.8995
  Cu  Cu2  1  0.456800  0.055760  0.547560  1.0  0.8808
  Cu  Cu3  1  0.490760  0.575720  0.450220  1.0  0.8998
  Cu  Cu4  1  0.060120  0.444240  0.952440  1.0  0.8824
  Cu  Cu5  1  0.483300  0.075720  0.950220  1.0  0.8997
  Cu  Cu6  1  0.543200  0.944240  0.452440  1.0  0.8818
  Cu  Cu7  1  0.509240  0.424280  0.549780  1.0  0.9002
  Cu  Cu8  1  0.939880  0.555760  0.047560  1.0  0.8818
  H  H9  1  0.817300  0.786100  0.922900  1.0  0.1053
  H  H10  1  0.974100  0.733300  0.838900  1.0  0.1206
  H  H11  1  0.928500  0.970800  0.694800  1.0  0.1284
  H  H12  1  0.766700  0.025300  0.777300  1.0  0.1115
  H  H13  1  0.213600  0.752900  0.613100  1.0  0.1097
  H  H14  1  0.345700  0.801100  0.554100  1.0  0.1114
  H  H15  1  0.197300  0.990100  0.682500  1.0  0.1096
  H  H16  1  0.066500  0.941000  0.739800  1.0  0.1277
  H  H17  1  0.618500  0.189100  0.017700  1.0  0.1065
  H  H18  1  0.667200  0.247400  0.077800  1.0  0.1338
  H  H19  1  0.629700  0.057200  0.271200  1.0  0.1284
  H  H20  1  0.578400  0.001000  0.210400  1.0  0.1111
  H  H21  1  0.838000  0.165700  0.109700  1.0  0.1364
  H  H22  1  0.930700  0.254000  0.054800  1.0  0.1077
  H  H23  1  0.744600  0.412800  0.206400  1.0  0.1037
  H  H24  1  0.642000  0.331600  0.257800  1.0  0.1235
  H  H25  1  0.526300  0.713900  0.577100  1.0  0.1056
  H  H26  1  0.546300  0.766700  0.661100  1.0  0.1202
  H  H27  1  0.594100  0.529200  0.805200  1.0  0.1291
  H  H28  1  0.569300  0.474700  0.722700  1.0  0.1118
  H  H29  1  0.579600  0.747100  0.886900  1.0  0.1079
  H  H30  1  0.700900  0.698900  0.945900  1.0  0.1108
  H  H31  1  0.869900  0.509900  0.817500  1.0  0.1102
  H  H32  1  0.747300  0.559000  0.760200  1.0  0.1253
  H  H33  1  0.825300  0.310900  0.482300  1.0  0.1071
  H  H34  1  0.992400  0.252600  0.422200  1.0  0.1338
  H  H35  1  0.958100  0.442800  0.228800  1.0  0.1284
  H  H36  1  0.789800  0.499000  0.289600  1.0  0.112
  H  H37  1  0.113400  0.334300  0.390300  1.0  0.138
  H  H38  1  0.239500  0.246000  0.445200  1.0  0.1068
  H  H39  1  0.363800  0.087200  0.293600  1.0  0.1051
  H  H40  1  0.231400  0.168400  0.242200  1.0  0.125
  H  H41  1  0.182700  0.213900  0.077100  1.0  0.1056
  H  H42  1  0.025900  0.266700  0.161100  1.0  0.1201
  H  H43  1  0.071500  0.029200  0.305200  1.0  0.1275
  H  H44  1  0.233300  0.974700  0.222700  1.0  0.1107
  H  H45  1  0.786400  0.247100  0.386900  1.0  0.1085
  H  H46  1  0.654300  0.198900  0.445900  1.0  0.1111
  H  H47  1  0.802700  0.009900  0.317500  1.0  0.1089
  H  H48  1  0.933500  0.059000  0.260200  1.0  0.1257
  H  H49  1  0.381500  0.810900  0.982300  1.0  0.1066
  H  H50  1  0.332800  0.752600  0.922200  1.0  0.1339
  H  H51  1  0.370300  0.942800  0.728800  1.0  0.1289
  H  H52  1  0.421600  0.999000  0.789600  1.0  0.1113
  H  H53  1  0.162000  0.834300  0.890300  1.0  0.1367
  H  H54  1  0.069300  0.746000  0.945200  1.0  0.107
  H  H55  1  0.255400  0.587200  0.793600  1.0  0.1045
  H  H56  1  0.358000  0.668400  0.742200  1.0  0.1231
  H  H57  1  0.473700  0.286100  0.422900  1.0  0.1064
  H  H58  1  0.453700  0.233300  0.338900  1.0  0.1202
  H  H59  1  0.405900  0.470800  0.194800  1.0  0.1287
  H  H60  1  0.430700  0.525300  0.277300  1.0  0.1118
  H  H61  1  0.420400  0.252900  0.113100  1.0  0.1096
  H  H62  1  0.299100  0.301100  0.054100  1.0  0.1106
  H  H63  1  0.130100  0.490100  0.182500  1.0  0.1111
  H  H64  1  0.252700  0.441000  0.239800  1.0  0.1275
  H  H65  1  0.174700  0.689100  0.517700  1.0  0.1073
  H  H66  1  0.007600  0.747400  0.577800  1.0  0.1344
  H  H67  1  0.041900  0.557200  0.771200  1.0  0.1275
  H  H68  1  0.210200  0.501000  0.710400  1.0  0.111
  H  H69  1  0.886600  0.665700  0.609700  1.0  0.1386
  H  H70  1  0.760500  0.754000  0.554800  1.0  0.107
  H  H71  1  0.636200  0.912800  0.706400  1.0  0.105
  H  H72  1  0.768600  0.831600  0.757800  1.0  0.1246
  C  C73  1  0.672800  0.944800  0.909800  1.0  0.6917
  C  C74  1  0.774900  0.911200  0.858800  1.0  -0.167
  C  C75  1  0.838600  0.824300  0.876100  1.0  0.0031
  C  C76  1  0.931900  0.792900  0.826500  1.0  -0.2228
  C  C77  1  0.964300  0.847400  0.759000  1.0  0.3011
  C  C78  1  0.905000  0.933100  0.740900  1.0  -0.2464
  C  C79  1  0.808600  0.965900  0.790500  1.0  -0.0032
  C  C80  1  0.127300  0.845500  0.678500  1.0  0.3038
  C  C81  1  0.210000  0.802300  0.626100  1.0  -0.2198
  C  C82  1  0.289000  0.830100  0.591700  1.0  -0.0027
  C  C83  1  0.284500  0.901200  0.612600  1.0  -0.1749
  C  C84  1  0.201000  0.942000  0.667600  1.0  0.0054
  C  C85  1  0.123000  0.913400  0.701200  1.0  -0.245
  C  C86  1  0.369700  0.933800  0.572600  1.0  0.6669
  C  C87  1  0.592800  0.089200  0.108200  1.0  -0.1831
  C  C88  1  0.619800  0.162900  0.069700  1.0  0.0057
  C  C89  1  0.648000  0.198000  0.105000  1.0  -0.2378
  C  C90  1  0.648100  0.159700  0.182500  1.0  0.2952
  C  C91  1  0.625500  0.085100  0.220100  1.0  -0.2313
  C  C92  1  0.596300  0.051400  0.183400  1.0  -0.0107
  C  C93  1  0.729800  0.242300  0.187500  1.0  0.2718
  C  C94  1  0.817200  0.217500  0.128100  1.0  -0.218
  C  C95  1  0.872400  0.269000  0.096800  1.0  0.0027
  C  C96  1  0.845400  0.343300  0.124700  1.0  -0.1683
  C  C97  1  0.761900  0.364200  0.185200  1.0  0.0128
  C  C98  1  0.701400  0.315100  0.216900  1.0  -0.2239
  C  C99  1  0.904900  0.400500  0.084500  1.0  0.6709
  C  C100  1  0.558600  0.054300  0.069300  1.0  0.6821
  C  C101  1  0.527400  0.555200  0.590200  1.0  0.6955
  C  C102  1  0.544900  0.588800  0.641200  1.0  -0.1701
  C  C103  1  0.539000  0.675700  0.623900  1.0  0.0021
  C  C104  1  0.551300  0.707100  0.673500  1.0  -0.2253
  C  C105  1  0.570700  0.652600  0.741000  1.0  0.3032
  C  C106  1  0.579000  0.566900  0.759100  1.0  -0.2458
  C  C107  1  0.565000  0.534100  0.709500  1.0  -0.0051
  C  C108  1  0.651300  0.654500  0.821500  1.0  0.303
  C  C109  1  0.638400  0.697700  0.873900  1.0  -0.2258
  C  C110  1  0.710800  0.669900  0.908300  1.0  0.0033
  C  C111  1  0.798300  0.598800  0.887400  1.0  -0.1781
  C  C112  1  0.810600  0.558000  0.832400  1.0  -0.0008
  C  C113  1  0.737600  0.586600  0.798800  1.0  -0.2511
  C  C114  1  0.876100  0.566200  0.927400  1.0  0.6715
  C  C115  1  0.790200  0.410800  0.391800  1.0  -0.1824
  C  C116  1  0.852400  0.337100  0.430300  1.0  0.0002
  C  C117  1  0.951000  0.302000  0.395000  1.0  -0.2438
  C  C118  1  0.990300  0.340300  0.317500  1.0  0.2928
  C  C119  1  0.930700  0.414900  0.279900  1.0  -0.2314
  C  C120  1  0.831100  0.448600  0.316600  1.0  -0.0025
  C  C121  1  0.159600  0.257700  0.312500  1.0  0.2753
  C  C122  1  0.162800  0.282500  0.371900  1.0  -0.2234
  C  C123  1  0.238200  0.231000  0.403200  1.0  0.0082
  C  C124  1  0.313400  0.156700  0.375300  1.0  -0.1643
  C  C125  1  0.311300  0.135800  0.314800  1.0  0.0085
  C  C126  1  0.233400  0.184900  0.283100  1.0  -0.2229
  C  C127  1  0.389900  0.099500  0.415500  1.0  0.6736
  C  C128  1  0.682200  0.445700  0.430700  1.0  0.6806
  C  C129  1  0.327200  0.055200  0.090200  1.0  0.6912
  C  C130  1  0.225100  0.088800  0.141200  1.0  -0.167
  C  C131  1  0.161400  0.175700  0.123900  1.0  0.0045
  C  C132  1  0.068100  0.207100  0.173500  1.0  -0.2238
  C  C133  1  0.035700  0.152600  0.241000  1.0  0.3005
  C  C134  1  0.095000  0.066900  0.259100  1.0  -0.2465
  C  C135  1  0.191400  0.034100  0.209500  1.0  -0.006
  C  C136  1  0.872700  0.154500  0.321500  1.0  0.3035
  C  C137  1  0.790000  0.197700  0.373900  1.0  -0.2204
  C  C138  1  0.711000  0.169900  0.408300  1.0  -0.003
  C  C139  1  0.715500  0.098800  0.387400  1.0  -0.1773
  C  C140  1  0.799000  0.058000  0.332400  1.0  0.0002
  C  C141  1  0.877000  0.086600  0.298800  1.0  -0.25
  C  C142  1  0.630300  0.066200  0.427400  1.0  0.6671
  C  C143  1  0.407200  0.910800  0.891800  1.0  -0.1841
  C  C144  1  0.380200  0.837100  0.930300  1.0  0.007
  C  C145  1  0.352000  0.802000  0.895000  1.0  -0.2402
  C  C146  1  0.351900  0.840300  0.817500  1.0  0.2952
  C  C147  1  0.374500  0.914900  0.779900  1.0  -0.2297
  C  C148  1  0.403700  0.948600  0.816600  1.0  -0.0035
  C  C149  1  0.270200  0.757700  0.812500  1.0  0.2722
  C  C150  1  0.182800  0.782500  0.871900  1.0  -0.2249
  C  C151  1  0.127600  0.731000  0.903200  1.0  -0.0005
  C  C152  1  0.154600  0.656700  0.875300  1.0  -0.1666
  C  C153  1  0.238100  0.635800  0.814800  1.0  0.0115
  C  C154  1  0.298600  0.684900  0.783100  1.0  -0.2245
  C  C155  1  0.095100  0.599500  0.915500  1.0  0.6714
  C  C156  1  0.441400  0.945700  0.930700  1.0  0.6823
  C  C157  1  0.472600  0.444800  0.409800  1.0  0.6945
  C  C158  1  0.455100  0.411200  0.358800  1.0  -0.1694
  C  C159  1  0.461000  0.324300  0.376100  1.0  -0.0004
  C  C160  1  0.448700  0.292900  0.326500  1.0  -0.2249
  C  C161  1  0.429300  0.347400  0.259000  1.0  0.3035
  C  C162  1  0.421000  0.433100  0.240900  1.0  -0.2476
  C  C163  1  0.435000  0.465900  0.290500  1.0  -0.0027
  C  C164  1  0.348700  0.345500  0.178500  1.0  0.3049
  C  C165  1  0.361600  0.302300  0.126100  1.0  -0.2241
  C  C166  1  0.289200  0.330100  0.091700  1.0  0.0034
  C  C167  1  0.201700  0.401200  0.112600  1.0  -0.1769
  C  C168  1  0.189400  0.442000  0.167600  1.0  0.0062
  C  C169  1  0.262400  0.413400  0.201200  1.0  -0.2418
  C  C170  1  0.123900  0.433800  0.072600  1.0  0.6706
  C  C171  1  0.209800  0.589200  0.608200  1.0  -0.1831
  C  C172  1  0.147600  0.662900  0.569700  1.0  -0.0012
  C  C173  1  0.049000  0.698000  0.605000  1.0  -0.2418
  C  C174  1  0.009700  0.659700  0.682500  1.0  0.2925
  C  C175  1  0.069300  0.585100  0.720100  1.0  -0.2328
  C  C176  1  0.168900  0.551400  0.683400  1.0  -0.0069
  C  C177  1  0.840400  0.742300  0.687500  1.0  0.2745
  C  C178  1  0.837200  0.717500  0.628100  1.0  -0.2199
  C  C179  1  0.761800  0.769000  0.596800  1.0  0.0111
  C  C180  1  0.686600  0.843300  0.624700  1.0  -0.1679
  C  C181  1  0.688700  0.864200  0.685200  1.0  0.0111
  C  C182  1  0.766600  0.815100  0.716900  1.0  -0.2223
  C  C183  1  0.610100  0.900500  0.584500  1.0  0.6736
  C  C184  1  0.317800  0.554300  0.569300  1.0  0.6801
  O  O185  1  0.647200  0.894200  0.972600  1.0  -0.5694
  O  O186  1  0.619110  0.022480  0.887700  1.0  -0.5705
  O  O187  1  0.056100  0.808200  0.710600  1.0  -0.2406
  O  O188  1  0.364100  0.993200  0.598400  1.0  -0.5613
  O  O189  1  0.437700  0.898300  0.517300  1.0  -0.5553
  O  O190  1  0.558700  0.976400  0.098000  1.0  -0.5662
  O  O191  1  0.669400  0.193100  0.224500  1.0  -0.2318
  O  O192  1  0.979700  0.375800  0.028000  1.0  -0.5849
  O  O193  1  0.876100  0.469400  0.108600  1.0  -0.5668
  O  O194  1  0.532600  0.105100  0.010700  1.0  -0.563
  O  O195  1  0.514000  0.605800  0.527400  1.0  -0.5691
  O  O196  1  0.529290  0.477520  0.612300  1.0  -0.5705
  O  O197  1  0.574900  0.691800  0.789400  1.0  -0.2409
  O  O198  1  0.955700  0.506800  0.901600  1.0  -0.5598
  O  O199  1  0.853300  0.601700  0.982700  1.0  -0.5587
  O  O200  1  0.633100  0.523600  0.402000  1.0  -0.5643
  O  O201  1  0.087000  0.306900  0.275500  1.0  -0.2319
  O  O202  1  0.383500  0.124200  0.472000  1.0  -0.5867
  O  O203  1  0.454100  0.030600  0.391400  1.0  -0.5636
  O  O204  1  0.648400  0.394900  0.489300  1.0  -0.5632
  O  O205  1  0.352800  0.105800  0.027400  1.0  -0.5678
  O  O206  1  0.380890  0.977520  0.112300  1.0  -0.5718
  O  O207  1  0.943900  0.191800  0.289400  1.0  -0.2415
  O  O208  1  0.635900  0.006800  0.401600  1.0  -0.5631
  O  O209  1  0.562300  0.101700  0.482700  1.0  -0.5546
  O  O210  1  0.441300  0.023600  0.902000  1.0  -0.5643
  O  O211  1  0.330600  0.806900  0.775500  1.0  -0.2312
  O  O212  1  0.020300  0.624200  0.972000  1.0  -0.584
  O  O213  1  0.123900  0.530600  0.891400  1.0  -0.5648
  O  O214  1  0.467400  0.894900  0.989300  1.0  -0.5629
  O  O215  1  0.486000  0.394200  0.472600  1.0  -0.5685
  O  O216  1  0.470710  0.522480  0.387700  1.0  -0.5687
  O  O217  1  0.425100  0.308200  0.210600  1.0  -0.2405
  O  O218  1  0.044300  0.493200  0.098400  1.0  -0.5594
  O  O219  1  0.146700  0.398300  0.017300  1.0  -0.559
  O  O220  1  0.366900  0.476400  0.598000  1.0  -0.5649
  O  O221  1  0.913000  0.693100  0.724500  1.0  -0.2325
  O  O222  1  0.616500  0.875800  0.528000  1.0  -0.5874
  O  O223  1  0.545900  0.969400  0.608600  1.0  -0.5647
  O  O224  1  0.351600  0.605100  0.510700  1.0  -0.5641
