# generated using pymatgen
data_CdH18C26N4O5
_symmetry_space_group_name_H-M   'P 1'
_cell_length_a   9.07200000
_cell_length_b   13.14000000
_cell_length_c   30.70000000
_cell_angle_alpha   92.72000000
_cell_angle_beta   90.20000000
_cell_angle_gamma   90.01000000
_symmetry_Int_Tables_number   1
_chemical_formula_structural   CdH18C26N4O5
_chemical_formula_sum   'Cd4 H72 C104 N16 O20'
_cell_volume   3655.48113137
_cell_formula_units_Z   4
loop_
 _symmetry_equiv_pos_site_id
 _symmetry_equiv_pos_as_xyz
  1  'x, y, z'
loop_
 _atom_site_type_symbol
 _atom_site_label
 _atom_site_symmetry_multiplicity
 _atom_site_fract_x
 _atom_site_fract_y
 _atom_site_fract_z
 _atom_site_occupancy
 _atom_site_charge
  Cd  Cd1  1  0.135570  0.421520  0.036960  1.0  0.9733
  Cd  Cd2  1  0.364970  0.421460  0.537110  1.0  0.9989
  Cd  Cd3  1  0.635030  0.578540  0.462890  1.0  0.9975
  Cd  Cd4  1  0.864430  0.578480  0.963040  1.0  0.971
  H  H5  1  0.696100  0.842700  0.159200  1.0  0.1191
  H  H6  1  0.937600  0.784500  0.363300  1.0  0.0946
  H  H7  1  0.992400  0.433900  0.872300  1.0  0.1048
  H  H8  1  0.750100  0.379500  0.411000  1.0  0.0909
  H  H9  1  0.641000  0.077700  0.497100  1.0  0.1157
  H  H10  1  0.492300  0.218200  0.488100  1.0  0.079
  H  H11  1  0.562100  0.785900  0.862700  1.0  0.095
  H  H12  1  0.135300  0.970400  0.409300  1.0  0.1049
  H  H13  1  0.249900  0.620500  0.589000  1.0  0.0906
  H  H14  1  0.705300  0.769400  0.088100  1.0  0.0869
  H  H15  1  0.196100  0.155300  0.341300  1.0  0.1208
  H  H16  1  0.107300  0.172600  0.512600  1.0  0.0991
  H  H17  1  0.156200  0.524800  0.468500  1.0  0.0882
  H  H18  1  0.795100  0.768800  0.588000  1.0  0.0801
  H  H19  1  0.494200  0.565700  0.627800  1.0  0.1029
  H  H20  1  0.204900  0.231200  0.412000  1.0  0.0795
  H  H21  1  0.512700  0.330500  0.041600  1.0  0.109
  H  H22  1  0.994400  0.355700  0.802400  1.0  0.1251
  H  H23  1  0.012000  0.147500  0.704500  1.0  0.1282
  H  H24  1  0.485100  0.147000  0.204900  1.0  0.125
  H  H25  1  0.294700  0.230600  0.911900  1.0  0.0872
  H  H26  1  0.260700  0.800000  0.885500  1.0  0.1119
  H  H27  1  0.507700  0.781800  0.511900  1.0  0.0783
  H  H28  1  0.759900  0.198400  0.615000  1.0  0.1105
  H  H29  1  0.308700  0.345500  0.760900  1.0  0.1229
  H  H30  1  0.505800  0.434300  0.372200  1.0  0.1024
  H  H31  1  0.803900  0.844700  0.658700  1.0  0.1218
  H  H32  1  0.655700  0.474800  0.031700  1.0  0.0911
  H  H33  1  0.139900  0.922500  0.003500  1.0  0.1267
  H  H34  1  0.189900  0.344500  0.260600  1.0  0.1227
  H  H35  1  0.739300  0.200000  0.114500  1.0  0.1114
  H  H36  1  0.010400  0.217100  0.988700  1.0  0.0704
  H  H37  1  0.635700  0.593200  0.307500  1.0  0.1072
  H  H38  1  0.303900  0.157300  0.840800  1.0  0.1191
  H  H39  1  0.240100  0.801600  0.385000  1.0  0.111
  H  H40  1  0.493200  0.646800  0.697400  1.0  0.1297
  H  H41  1  0.860100  0.077500  0.996500  1.0  0.126
  H  H42  1  0.608000  0.826000  0.987300  1.0  0.1029
  H  H43  1  0.253200  0.619600  0.088700  1.0  0.0861
  H  H44  1  0.062400  0.215500  0.636700  1.0  0.0953
  H  H45  1  0.746800  0.380400  0.911300  1.0  0.0862
  H  H46  1  0.988000  0.852500  0.295500  1.0  0.1297
  H  H47  1  0.604500  0.234100  0.917300  1.0  0.1265
  H  H48  1  0.993500  0.331600  0.541100  1.0  0.1138
  H  H49  1  0.506800  0.353200  0.302600  1.0  0.1294
  H  H50  1  0.886700  0.341300  0.101600  1.0  0.09
  H  H51  1  0.007600  0.566100  0.127700  1.0  0.1051
  H  H52  1  0.005600  0.644300  0.197600  1.0  0.1252
  H  H53  1  0.863600  0.593400  0.807800  1.0  0.1052
  H  H54  1  0.364200  0.968800  0.909700  1.0  0.1043
  H  H55  1  0.395500  0.765900  0.082700  1.0  0.1276
  H  H56  1  0.810100  0.655500  0.739400  1.0  0.1239
  H  H57  1  0.843800  0.475200  0.531500  1.0  0.0883
  H  H58  1  0.989600  0.782900  0.011300  1.0  0.0698
  H  H59  1  0.344300  0.525200  0.968300  1.0  0.0913
  H  H60  1  0.635800  0.031200  0.090300  1.0  0.1056
  H  H61  1  0.136400  0.406600  0.192200  1.0  0.1053
  H  H62  1  0.615200  0.343200  0.601500  1.0  0.0996
  H  H63  1  0.514900  0.853000  0.795100  1.0  0.1254
  H  H64  1  0.892700  0.827400  0.487400  1.0  0.0989
  H  H65  1  0.384800  0.656800  0.398500  1.0  0.1005
  H  H66  1  0.691300  0.654500  0.239100  1.0  0.1238
  H  H67  1  0.437900  0.214100  0.137300  1.0  0.0963
  H  H68  1  0.106800  0.766200  0.583000  1.0  0.1231
  H  H69  1  0.359000  0.922300  0.502900  1.0  0.1156
  H  H70  1  0.006500  0.668400  0.458900  1.0  0.1142
  H  H71  1  0.113300  0.658700  0.898400  1.0  0.0912
  H  H72  1  0.487300  0.669500  0.958400  1.0  0.1095
  H  H73  1  0.864700  0.029600  0.590700  1.0  0.1055
  H  H74  1  0.364300  0.406800  0.692500  1.0  0.1074
  H  H75  1  0.392000  0.174000  0.012700  1.0  0.1028
  H  H76  1  0.893200  0.233800  0.417000  1.0  0.1228
  C  C77  1  0.738600  0.789600  0.652100  1.0  -0.164
  C  C78  1  0.207600  0.354100  0.194700  1.0  -0.0441
  C  C79  1  0.548500  0.214300  0.514100  1.0  0.1665
  C  C80  1  0.292900  0.354500  0.695000  1.0  -0.034
  C  C81  1  0.945200  0.669800  0.175200  1.0  -0.171
  C  C82  1  0.738400  0.682500  0.264600  1.0  -0.1347
  C  C83  1  0.118000  0.713600  0.919600  1.0  0.149
  C  C84  1  0.781100  0.123400  0.056600  1.0  -0.0012
  C  C85  1  0.291900  0.797900  0.411800  1.0  -0.0991
  C  C86  1  0.637300  0.617600  0.554900  1.0  0.6802
  C  C87  1  0.855300  0.425800  0.508200  1.0  0.156
  C  C88  1  0.445400  0.376200  0.366300  1.0  -0.0137
  C  C89  1  0.362800  0.869500  0.480700  1.0  -0.1104
  C  C90  1  0.446500  0.178200  0.986500  1.0  0.1021
  C  C91  1  0.316800  0.962500  0.937000  1.0  0.1505
  C  C92  1  0.257100  0.353500  0.613800  1.0  0.6891
  C  C93  1  0.144700  0.574200  0.491800  1.0  0.1556
  C  C94  1  0.720300  0.123600  0.556600  1.0  0.0094
  C  C95  1  0.140200  0.339300  0.899200  1.0  -0.1313
  C  C96  1  0.362700  0.382400  0.445100  1.0  0.6834
  C  C97  1  0.261400  0.210400  0.347900  1.0  -0.1647
  C  C98  1  0.355100  0.574900  0.991600  1.0  0.147
  C  C99  1  0.218900  0.876600  0.943400  1.0  -0.0028
  C  C100  1  0.553500  0.821800  0.013500  1.0  0.1026
  C  C101  1  0.614700  0.760600  0.837800  1.0  -0.0318
  C  C102  1  0.219600  0.315000  0.657600  1.0  -0.1286
  C  C103  1  0.683200  0.037500  0.063000  1.0  0.1512
  C  C104  1  0.357400  0.338900  0.399300  1.0  -0.1337
  C  C105  1  0.867300  0.617300  0.054800  1.0  0.6669
  C  C106  1  0.792400  0.645900  0.805300  1.0  -0.0441
  C  C107  1  0.755900  0.646000  0.886300  1.0  0.6916
  C  C108  1  0.662400  0.760900  0.761500  1.0  0.2879
  C  C109  1  0.864300  0.130100  0.018800  1.0  -0.1553
  C  C110  1  0.947100  0.822400  0.513700  1.0  0.1014
  C  C111  1  0.244100  0.354000  0.113700  1.0  0.6921
  C  C112  1  0.441000  0.660500  0.985700  1.0  -0.1668
  C  C113  1  0.237700  0.211600  0.847700  1.0  -0.1581
  C  C114  1  0.644900  0.425100  0.008400  1.0  0.1475
  C  C115  1  0.052900  0.177600  0.486300  1.0  0.1005
  C  C116  1  0.838500  0.760300  0.261900  1.0  0.2656
  C  C117  1  0.916700  0.800200  0.298100  1.0  -0.2088
  C  C118  1  0.855000  0.753300  0.183800  1.0  0.267
  C  C119  1  0.302500  0.630300  0.062000  1.0  0.1632
  C  C120  1  0.337600  0.239100  0.238500  1.0  0.2896
  C  C121  1  0.762300  0.788400  0.152300  1.0  -0.1565
  C  C122  1  0.734400  0.743500  0.610200  1.0  -0.0411
  C  C123  1  0.114500  0.717800  0.559100  1.0  -0.1604
  C  C124  1  0.233900  0.256300  0.889700  1.0  -0.0306
  C  C125  1  0.952600  0.214000  0.014300  1.0  0.1662
  C  C126  1  0.800600  0.369100  0.437600  1.0  0.1683
  C  C127  1  0.742900  0.646500  0.386200  1.0  0.6895
  C  C128  1  0.780400  0.685000  0.342400  1.0  -0.1277
  C  C129  1  0.554600  0.623800  0.633700  1.0  -0.0143
  C  C130  1  0.145000  0.246700  0.816200  1.0  0.2656
  C  C131  1  0.959200  0.267200  0.479900  1.0  -0.0614
  C  C132  1  0.451500  0.785700  0.485900  1.0  0.1667
  C  C133  1  0.885500  0.282200  0.440900  1.0  -0.1606
  C  C134  1  0.792400  0.202600  0.088000  1.0  -0.1251
  C  C135  1  0.047400  0.786000  0.985700  1.0  0.1675
  C  C136  1  0.054800  0.330200  0.824800  1.0  -0.1738
  C  C137  1  0.280600  0.315700  0.157600  1.0  -0.1157
  C  C138  1  0.719400  0.684300  0.842400  1.0  -0.1146
  C  C139  1  0.381600  0.712500  0.419400  1.0  0.1353
  C  C140  1  0.199400  0.630900  0.562400  1.0  0.1683
  C  C141  1  0.237900  0.316700  0.235300  1.0  -0.1387
  C  C142  1  0.946500  0.623800  0.133700  1.0  -0.0296
  C  C143  1  0.182200  0.963200  0.436700  1.0  0.1497
  C  C144  1  0.944300  0.339900  0.514200  1.0  -0.1457
  C  C145  1  0.642600  0.661100  0.600700  1.0  -0.1349
  C  C146  1  0.114800  0.240200  0.661900  1.0  -0.0423
  C  C147  1  0.554900  0.670900  0.675100  1.0  -0.1751
  C  C148  1  0.637200  0.130500  0.519300  1.0  -0.1092
  C  C149  1  0.458900  0.733300  0.019900  1.0  -0.0257
  C  C150  1  0.708100  0.202100  0.588200  1.0  -0.0993
  C  C151  1  0.161500  0.239700  0.738100  1.0  0.2552
  C  C152  1  0.385300  0.239400  0.162200  1.0  -0.0328
  C  C153  1  0.207600  0.797400  0.912000  1.0  -0.1255
  C  C154  1  0.387100  0.717800  0.058800  1.0  -0.1714
  C  C155  1  0.083300  0.199800  0.701900  1.0  -0.2115
  C  C156  1  0.885200  0.759800  0.338100  1.0  -0.0428
  C  C157  1  0.352300  0.245500  0.316600  1.0  0.2452
  C  C158  1  0.265600  0.256500  0.389800  1.0  -0.0406
  C  C159  1  0.559000  0.339500  0.014300  1.0  -0.175
  C  C160  1  0.135700  0.869900  0.981200  1.0  -0.1541
  C  C161  1  0.647700  0.754500  0.683400  1.0  0.2467
  C  C162  1  0.612900  0.282200  0.941200  1.0  -0.1703
  C  C163  1  0.618400  0.287500  0.580600  1.0  0.1351
  C  C164  1  0.132700  0.382700  0.945200  1.0  0.6678
  C  C165  1  0.414500  0.199800  0.202200  1.0  -0.2311
  C  C166  1  0.766100  0.743700  0.110300  1.0  -0.03
  C  C167  1  0.697500  0.369700  0.938000  1.0  0.1633
  C  C168  1  0.817800  0.036800  0.563300  1.0  0.1501
  C  C169  1  0.445100  0.329100  0.324900  1.0  -0.1732
  C  C170  1  0.055700  0.660100  0.485800  1.0  -0.1455
  C  C171  1  0.882000  0.286400  0.080400  1.0  0.1492
  C  C172  1  0.261600  0.317500  0.735400  1.0  -0.1335
  C  C173  1  0.859800  0.660700  0.100800  1.0  -0.1322
  C  C174  1  0.707100  0.645500  0.305000  1.0  -0.0347
  C  C175  1  0.279700  0.876400  0.443400  1.0  0.0098
  C  C176  1  0.585500  0.800200  0.797800  1.0  -0.233
  C  C177  1  0.762100  0.683300  0.764700  1.0  -0.1358
  C  C178  1  0.541100  0.266700  0.980100  1.0  -0.0265
  C  C179  1  0.053500  0.376200  0.866300  1.0  -0.0217
  C  C180  1  0.040800  0.732800  0.520100  1.0  -0.0606
  N  N181  1  0.160400  0.029700  0.468200  1.0  -0.2353
  N  N182  1  0.287800  0.560800  0.029100  1.0  -0.3311
  N  N183  1  0.538800  0.290200  0.544400  1.0  -0.3341
  N  N184  1  0.961300  0.291200  0.044000  1.0  -0.3357
  N  N185  1  0.938700  0.894200  0.543800  1.0  -0.2432
  N  N186  1  0.436700  0.106000  0.956600  1.0  -0.2253
  N  N187  1  0.339600  0.030000  0.968300  1.0  -0.2227
  N  N188  1  0.712200  0.439200  0.970900  1.0  -0.3304
  N  N189  1  0.787100  0.439300  0.470700  1.0  -0.3379
  N  N190  1  0.038700  0.708800  0.956000  1.0  -0.337
  N  N191  1  0.563300  0.894000  0.043400  1.0  -0.2247
  N  N192  1  0.212900  0.560700  0.529300  1.0  -0.3367
  N  N193  1  0.061300  0.105800  0.456200  1.0  -0.2451
  N  N194  1  0.660400  0.970000  0.031700  1.0  -0.2218
  N  N195  1  0.461200  0.709800  0.455600  1.0  -0.3299
  N  N196  1  0.839600  0.970300  0.531800  1.0  -0.235
  O  O197  1  0.637300  0.809400  0.723100  1.0  -0.2504
  O  O198  1  0.702800  0.690200  0.919990  1.0  -0.6485
  O  O199  1  0.052900  0.459300  0.954100  1.0  -0.7382
  O  O200  1  0.796000  0.690400  0.420090  1.0  -0.6555
  O  O201  1  0.135000  0.191600  0.776700  1.0  -0.2631
  O  O202  1  0.655300  0.569900  0.388120  1.0  -0.6254
  O  O203  1  0.344700  0.430100  0.611880  1.0  -0.6243
  O  O204  1  0.212600  0.341900  0.973500  1.0  -0.596
  O  O205  1  0.288700  0.341600  0.473540  1.0  -0.5782
  O  O206  1  0.444900  0.459100  0.454400  1.0  -0.7404
  O  O207  1  0.947100  0.540700  0.045900  1.0  -0.7359
  O  O208  1  0.297200  0.309800  0.080010  1.0  -0.649
  O  O209  1  0.865000  0.808400  0.223300  1.0  -0.2632
  O  O210  1  0.204000  0.309600  0.579910  1.0  -0.6569
  O  O211  1  0.711300  0.658400  0.526460  1.0  -0.5802
  O  O212  1  0.362700  0.190600  0.276900  1.0  -0.2498
  O  O213  1  0.843600  0.569600  0.888320  1.0  -0.6083
  O  O214  1  0.787400  0.658100  0.026500  1.0  -0.5954
  O  O215  1  0.156400  0.430400  0.111680  1.0  -0.6071
  O  O216  1  0.555100  0.540900  0.545600  1.0  -0.74
