# generated using pymatgen
data_Zn4Si3H68(C6O)14
_symmetry_space_group_name_H-M   'P 1'
_cell_length_a   27.08180000
_cell_length_b   12.08910000
_cell_length_c   36.31560000
_cell_angle_alpha   90.00000000
_cell_angle_beta   130.02970000
_cell_angle_gamma   90.00000000
_symmetry_Int_Tables_number   1
_chemical_formula_structural   Zn4Si3H68(C6O)14
_chemical_formula_sum   'Zn16 Si12 H272 C336 O56'
_cell_volume   9103.94630618
_cell_formula_units_Z   4
loop_
 _symmetry_equiv_pos_site_id
 _symmetry_equiv_pos_as_xyz
  1  'x, y, z'
loop_
 _atom_site_type_symbol
 _atom_site_label
 _atom_site_symmetry_multiplicity
 _atom_site_fract_x
 _atom_site_fract_y
 _atom_site_fract_z
 _atom_site_occupancy
 _atom_site_charge
  Zn  Zn1  1  0.296860  0.462320  0.257950  1.0  1.0556
  Zn  Zn2  1  0.206320  0.686830  0.235210  1.0  1.0676
  Zn  Zn3  1  0.796860  0.962320  0.257950  1.0  1.0556
  Zn  Zn4  1  0.706320  0.186830  0.235210  1.0  1.0676
  Zn  Zn5  1  0.703140  0.462320  0.242050  1.0  1.0559
  Zn  Zn6  1  0.793680  0.686830  0.264790  1.0  1.0719
  Zn  Zn7  1  0.203140  0.962320  0.242050  1.0  1.0559
  Zn  Zn8  1  0.293680  0.186830  0.264790  1.0  1.0719
  Zn  Zn9  1  0.703140  0.537680  0.742050  1.0  1.0553
  Zn  Zn10  1  0.793680  0.313170  0.764790  1.0  1.0721
  Zn  Zn11  1  0.203140  0.037680  0.742050  1.0  1.0553
  Zn  Zn12  1  0.293680  0.813170  0.764790  1.0  1.0721
  Zn  Zn13  1  0.296860  0.537680  0.757950  1.0  1.0551
  Zn  Zn14  1  0.206320  0.313170  0.735210  1.0  1.0678
  Zn  Zn15  1  0.796860  0.037680  0.757950  1.0  1.0551
  Zn  Zn16  1  0.706320  0.813170  0.735210  1.0  1.0678
  Si  Si17  1  0.081270  0.525620  0.951150  1.0  0.9463
  Si  Si18  1  0.581270  0.025620  0.951150  1.0  0.9463
  Si  Si19  1  0.918730  0.525620  0.548850  1.0  0.9465
  Si  Si20  1  0.418730  0.025620  0.548850  1.0  0.9465
  Si  Si21  1  0.918730  0.474380  0.048850  1.0  0.9467
  Si  Si22  1  0.418730  0.974380  0.048850  1.0  0.9467
  Si  Si23  1  0.081270  0.474380  0.451150  1.0  0.9464
  Si  Si24  1  0.581270  0.974380  0.451150  1.0  0.9464
  Si  Si25  1  0.000000  0.152890  0.250000  1.0  0.9234
  Si  Si26  1  0.500000  0.652890  0.250000  1.0  0.9234
  Si  Si27  1  0.000000  0.847110  0.750000  1.0  0.9234
  Si  Si28  1  0.500000  0.347110  0.750000  1.0  0.9234
  H  H29  1  0.205100  0.466900  0.044200  1.0  0.091
  H  H30  1  0.252000  0.486600  0.124100  1.0  0.0986
  H  H31  1  0.104700  0.675700  0.086100  1.0  0.0825
  H  H32  1  0.056500  0.654800  0.006300  1.0  0.0881
  H  H33  1  0.088300  0.343900  0.008200  1.0  0.0859
  H  H34  1  0.041000  0.177800  0.996900  1.0  0.1027
  H  H35  1  0.943900  0.201500  0.856800  1.0  0.1673
  H  H36  1  0.986200  0.376600  0.866900  1.0  0.0928
  H  H37  1  0.904200  0.067800  0.889400  1.0  0.124
  H  H38  1  0.967900  0.004100  0.910600  1.0  0.121
  H  H39  1  0.954200  0.041600  0.944600  1.0  0.1241
  H  H40  1  0.944700  0.535700  0.905700  1.0  0.0832
  H  H41  1  0.857900  0.651300  0.852500  1.0  0.0979
  H  H42  1  0.974500  0.859500  0.854000  1.0  0.0917
  H  H43  1  0.060700  0.741900  0.906300  1.0  0.082
  H  H44  1  0.079200  0.484400  0.871200  1.0  0.0823
  H  H45  1  0.641400  0.022100  0.850800  1.0  0.1086
  H  H46  1  0.772200  0.163400  0.977700  1.0  0.0928
  H  H47  1  0.207800  0.627200  0.997000  1.0  0.0824
  H  H48  1  0.730700  0.157500  0.867600  1.0  0.1107
  H  H49  1  0.786200  0.188800  0.921600  1.0  0.1134
  H  H50  1  0.781600  0.068300  0.903700  1.0  0.1316
  H  H51  1  0.136800  0.150800  0.292100  1.0  0.0846
  H  H52  1  0.204400  0.266500  0.292100  1.0  0.096
  H  H53  1  0.059800  0.482300  0.210400  1.0  0.0928
  H  H54  1  0.992100  0.364800  0.209700  1.0  0.0842
  H  H55  1  0.384800  0.682200  0.149600  1.0  0.0793
  H  H56  1  0.834300  0.090200  0.078100  1.0  0.0959
  H  H57  1  0.965700  0.855900  0.145900  1.0  0.0763
  H  H58  1  0.016800  0.946000  0.218000  1.0  0.0853
  H  H59  1  0.849400  0.963700  0.033100  1.0  0.1277
  H  H60  1  0.894600  0.860700  0.059400  1.0  0.1185
  H  H61  1  0.826600  0.862100  0.045600  1.0  0.1362
  H  H62  1  0.380670  0.319860  0.288490  1.0  0.2651
  H  H63  1  0.705100  0.966900  0.044200  1.0  0.091
  H  H64  1  0.752000  0.986600  0.124100  1.0  0.0986
  H  H65  1  0.604700  0.175700  0.086100  1.0  0.0825
  H  H66  1  0.556500  0.154800  0.006300  1.0  0.0881
  H  H67  1  0.588300  0.843900  0.008200  1.0  0.0859
  H  H68  1  0.541000  0.677800  0.996900  1.0  0.1027
  H  H69  1  0.443900  0.701500  0.856800  1.0  0.1673
  H  H70  1  0.486200  0.876600  0.866900  1.0  0.0928
  H  H71  1  0.404200  0.567800  0.889400  1.0  0.124
  H  H72  1  0.467900  0.504100  0.910600  1.0  0.121
  H  H73  1  0.454200  0.541600  0.944600  1.0  0.1241
  H  H74  1  0.444700  0.035700  0.905700  1.0  0.0832
  H  H75  1  0.357900  0.151300  0.852500  1.0  0.0979
  H  H76  1  0.474500  0.359500  0.854000  1.0  0.0917
  H  H77  1  0.560700  0.241900  0.906300  1.0  0.082
  H  H78  1  0.579200  0.984400  0.871200  1.0  0.0823
  H  H79  1  0.141400  0.522100  0.850800  1.0  0.1086
  H  H80  1  0.272200  0.663400  0.977700  1.0  0.0928
  H  H81  1  0.707800  0.127200  0.997000  1.0  0.0824
  H  H82  1  0.230700  0.657500  0.867600  1.0  0.1107
  H  H83  1  0.286200  0.688800  0.921600  1.0  0.1134
  H  H84  1  0.281600  0.568300  0.903700  1.0  0.1316
  H  H85  1  0.636800  0.650800  0.292100  1.0  0.0846
  H  H86  1  0.704400  0.766500  0.292100  1.0  0.096
  H  H87  1  0.559800  0.982300  0.210400  1.0  0.0928
  H  H88  1  0.492100  0.864800  0.209700  1.0  0.0842
  H  H89  1  0.884800  0.182200  0.149600  1.0  0.0793
  H  H90  1  0.334300  0.590200  0.078100  1.0  0.0959
  H  H91  1  0.465700  0.355900  0.145900  1.0  0.0763
  H  H92  1  0.516800  0.446000  0.218000  1.0  0.0853
  H  H93  1  0.349400  0.463700  0.033100  1.0  0.1277
  H  H94  1  0.394600  0.360700  0.059400  1.0  0.1185
  H  H95  1  0.326600  0.362100  0.045600  1.0  0.1362
  H  H96  1  0.880670  0.819860  0.288490  1.0  0.2651
  H  H97  1  0.794900  0.466900  0.455800  1.0  0.0907
  H  H98  1  0.748000  0.486600  0.375900  1.0  0.0986
  H  H99  1  0.895300  0.675700  0.413900  1.0  0.0824
  H  H100  1  0.943500  0.654800  0.493700  1.0  0.0877
  H  H101  1  0.911700  0.343900  0.491800  1.0  0.0852
  H  H102  1  0.959000  0.177800  0.503100  1.0  0.1031
  H  H103  1  0.056100  0.201500  0.643200  1.0  0.167
  H  H104  1  0.013800  0.376600  0.633100  1.0  0.092
  H  H105  1  0.095800  0.067800  0.610600  1.0  0.1223
  H  H106  1  0.032100  0.004100  0.589400  1.0  0.1213
  H  H107  1  0.045800  0.041600  0.555400  1.0  0.1238
  H  H108  1  0.055300  0.535700  0.594300  1.0  0.0827
  H  H109  1  0.142100  0.651300  0.647500  1.0  0.0983
  H  H110  1  0.025500  0.859500  0.646000  1.0  0.0915
  H  H111  1  0.939300  0.741900  0.593700  1.0  0.0816
  H  H112  1  0.920800  0.484400  0.628800  1.0  0.0831
  H  H113  1  0.358600  0.022100  0.649200  1.0  0.1087
  H  H114  1  0.227800  0.163400  0.522300  1.0  0.0921
  H  H115  1  0.792200  0.627200  0.503000  1.0  0.0823
  H  H116  1  0.269300  0.157500  0.632400  1.0  0.1101
  H  H117  1  0.213800  0.188800  0.578400  1.0  0.1143
  H  H118  1  0.218400  0.068300  0.596300  1.0  0.1317
  H  H119  1  0.863200  0.150800  0.207900  1.0  0.0852
  H  H120  1  0.795600  0.266500  0.207900  1.0  0.0959
  H  H121  1  0.940200  0.482300  0.289600  1.0  0.0922
  H  H122  1  0.007900  0.364800  0.290300  1.0  0.0838
  H  H123  1  0.615200  0.682200  0.350400  1.0  0.0797
  H  H124  1  0.165700  0.090200  0.421900  1.0  0.0958
  H  H125  1  0.034300  0.855900  0.354100  1.0  0.0761
  H  H126  1  0.983200  0.946000  0.282000  1.0  0.0847
  H  H127  1  0.150600  0.963700  0.466900  1.0  0.1277
  H  H128  1  0.105400  0.860700  0.440600  1.0  0.1199
  H  H129  1  0.173400  0.862100  0.454400  1.0  0.1378
  H  H130  1  0.619330  0.319860  0.211510  1.0  0.2677
  H  H131  1  0.294900  0.966900  0.455800  1.0  0.0907
  H  H132  1  0.248000  0.986600  0.375900  1.0  0.0986
  H  H133  1  0.395300  0.175700  0.413900  1.0  0.0824
  H  H134  1  0.443500  0.154800  0.493700  1.0  0.0877
  H  H135  1  0.411700  0.843900  0.491800  1.0  0.0852
  H  H136  1  0.459000  0.677800  0.503100  1.0  0.1031
  H  H137  1  0.556100  0.701500  0.643200  1.0  0.167
  H  H138  1  0.513800  0.876600  0.633100  1.0  0.092
  H  H139  1  0.595800  0.567800  0.610600  1.0  0.1223
  H  H140  1  0.532100  0.504100  0.589400  1.0  0.1213
  H  H141  1  0.545800  0.541600  0.555400  1.0  0.1238
  H  H142  1  0.555300  0.035700  0.594300  1.0  0.0827
  H  H143  1  0.642100  0.151300  0.647500  1.0  0.0983
  H  H144  1  0.525500  0.359500  0.646000  1.0  0.0915
  H  H145  1  0.439300  0.241900  0.593700  1.0  0.0816
  H  H146  1  0.420800  0.984400  0.628800  1.0  0.0831
  H  H147  1  0.858600  0.522100  0.649200  1.0  0.1087
  H  H148  1  0.727800  0.663400  0.522300  1.0  0.0921
  H  H149  1  0.292200  0.127200  0.503000  1.0  0.0823
  H  H150  1  0.769300  0.657500  0.632400  1.0  0.1101
  H  H151  1  0.713800  0.688800  0.578400  1.0  0.1143
  H  H152  1  0.718400  0.568300  0.596300  1.0  0.1317
  H  H153  1  0.363200  0.650800  0.207900  1.0  0.0852
  H  H154  1  0.295600  0.766500  0.207900  1.0  0.0959
  H  H155  1  0.440200  0.982300  0.289600  1.0  0.0922
  H  H156  1  0.507900  0.864800  0.290300  1.0  0.0838
  H  H157  1  0.115200  0.182200  0.350400  1.0  0.0797
  H  H158  1  0.665700  0.590200  0.421900  1.0  0.0958
  H  H159  1  0.534300  0.355900  0.354100  1.0  0.0761
  H  H160  1  0.483200  0.446000  0.282000  1.0  0.0847
  H  H161  1  0.650600  0.463700  0.466900  1.0  0.1277
  H  H162  1  0.605400  0.360700  0.440600  1.0  0.1199
  H  H163  1  0.673400  0.362100  0.454400  1.0  0.1378
  H  H164  1  0.119330  0.819860  0.211510  1.0  0.2677
  H  H165  1  0.794900  0.533100  0.955800  1.0  0.0911
  H  H166  1  0.748000  0.513400  0.875900  1.0  0.0982
  H  H167  1  0.895300  0.324300  0.913900  1.0  0.0823
  H  H168  1  0.943500  0.345200  0.993700  1.0  0.0878
  H  H169  1  0.911700  0.656100  0.991800  1.0  0.0855
  H  H170  1  0.959000  0.822200  0.003100  1.0  0.1033
  H  H171  1  0.056100  0.798500  0.143200  1.0  0.1667
  H  H172  1  0.013800  0.623400  0.133100  1.0  0.0938
  H  H173  1  0.095800  0.932200  0.110600  1.0  0.1223
  H  H174  1  0.032100  0.995900  0.089400  1.0  0.1205
  H  H175  1  0.045800  0.958400  0.055400  1.0  0.124
  H  H176  1  0.055300  0.464300  0.094300  1.0  0.0827
  H  H177  1  0.142100  0.348700  0.147500  1.0  0.0983
  H  H178  1  0.025500  0.140500  0.146000  1.0  0.0916
  H  H179  1  0.939300  0.258100  0.093700  1.0  0.0815
  H  H180  1  0.920800  0.515600  0.128800  1.0  0.0799
  H  H181  1  0.358600  0.977900  0.149200  1.0  0.1084
  H  H182  1  0.227800  0.836600  0.022300  1.0  0.092
  H  H183  1  0.792200  0.372800  0.003000  1.0  0.0823
  H  H184  1  0.269300  0.842500  0.132400  1.0  0.1101
  H  H185  1  0.213800  0.811200  0.078400  1.0  0.1141
  H  H186  1  0.218400  0.931700  0.096300  1.0  0.1324
  H  H187  1  0.863200  0.849200  0.707900  1.0  0.0852
  H  H188  1  0.795600  0.733500  0.707900  1.0  0.0959
  H  H189  1  0.940200  0.517700  0.789600  1.0  0.0922
  H  H190  1  0.007900  0.635200  0.790300  1.0  0.0837
  H  H191  1  0.615200  0.317800  0.850400  1.0  0.0799
  H  H192  1  0.165700  0.909800  0.921900  1.0  0.096
  H  H193  1  0.034300  0.144100  0.854100  1.0  0.077
  H  H194  1  0.983200  0.054000  0.782000  1.0  0.0846
  H  H195  1  0.150600  0.036300  0.966900  1.0  0.1274
  H  H196  1  0.105400  0.139300  0.940600  1.0  0.1199
  H  H197  1  0.173400  0.137900  0.954400  1.0  0.1381
  H  H198  1  0.619330  0.680140  0.711510  1.0  0.2673
  H  H199  1  0.294900  0.033100  0.955800  1.0  0.0911
  H  H200  1  0.248000  0.013400  0.875900  1.0  0.0982
  H  H201  1  0.395300  0.824300  0.913900  1.0  0.0823
  H  H202  1  0.443500  0.845200  0.993700  1.0  0.0878
  H  H203  1  0.411700  0.156100  0.991800  1.0  0.0855
  H  H204  1  0.459000  0.322200  0.003100  1.0  0.1033
  H  H205  1  0.556100  0.298500  0.143200  1.0  0.1667
  H  H206  1  0.513800  0.123400  0.133100  1.0  0.0938
  H  H207  1  0.595800  0.432200  0.110600  1.0  0.1223
  H  H208  1  0.532100  0.495900  0.089400  1.0  0.1205
  H  H209  1  0.545800  0.458400  0.055400  1.0  0.124
  H  H210  1  0.555300  0.964300  0.094300  1.0  0.0827
  H  H211  1  0.642100  0.848700  0.147500  1.0  0.0983
  H  H212  1  0.525500  0.640500  0.146000  1.0  0.0916
  H  H213  1  0.439300  0.758100  0.093700  1.0  0.0815
  H  H214  1  0.420800  0.015600  0.128800  1.0  0.0801
  H  H215  1  0.858600  0.477900  0.149200  1.0  0.1084
  H  H216  1  0.727800  0.336600  0.022300  1.0  0.092
  H  H217  1  0.292200  0.872800  0.003000  1.0  0.0823
  H  H218  1  0.769300  0.342500  0.132400  1.0  0.1101
  H  H219  1  0.713800  0.311200  0.078400  1.0  0.1141
  H  H220  1  0.718400  0.431700  0.096300  1.0  0.1324
  H  H221  1  0.363200  0.349200  0.707900  1.0  0.0852
  H  H222  1  0.295600  0.233500  0.707900  1.0  0.0959
  H  H223  1  0.440200  0.017700  0.789600  1.0  0.0922
  H  H224  1  0.507900  0.135200  0.790300  1.0  0.0837
  H  H225  1  0.115200  0.817800  0.850400  1.0  0.0799
  H  H226  1  0.665700  0.409800  0.921900  1.0  0.096
  H  H227  1  0.534300  0.644100  0.854100  1.0  0.077
  H  H228  1  0.483200  0.554000  0.782000  1.0  0.0846
  H  H229  1  0.650600  0.536300  0.966900  1.0  0.1274
  H  H230  1  0.605400  0.639300  0.940600  1.0  0.1199
  H  H231  1  0.673400  0.637900  0.954400  1.0  0.1381
  H  H232  1  0.119330  0.180140  0.711510  1.0  0.2673
  H  H233  1  0.205100  0.533100  0.544200  1.0  0.0912
  H  H234  1  0.252000  0.513400  0.624100  1.0  0.0985
  H  H235  1  0.104700  0.324300  0.586100  1.0  0.0825
  H  H236  1  0.056500  0.345200  0.506300  1.0  0.0883
  H  H237  1  0.088300  0.656100  0.508200  1.0  0.0855
  H  H238  1  0.041000  0.822200  0.496900  1.0  0.103
  H  H239  1  0.943900  0.798500  0.356800  1.0  0.1668
  H  H240  1  0.986200  0.623400  0.366900  1.0  0.0946
  H  H241  1  0.904200  0.932200  0.389400  1.0  0.1241
  H  H242  1  0.967900  0.995900  0.410600  1.0  0.1208
  H  H243  1  0.954200  0.958400  0.444600  1.0  0.1241
  H  H244  1  0.944700  0.464300  0.405700  1.0  0.0831
  H  H245  1  0.857900  0.348700  0.352500  1.0  0.098
  H  H246  1  0.974500  0.140500  0.354000  1.0  0.0917
  H  H247  1  0.060700  0.258100  0.406300  1.0  0.082
  H  H248  1  0.079200  0.515600  0.371200  1.0  0.0798
  H  H249  1  0.641400  0.977900  0.350800  1.0  0.1088
  H  H250  1  0.772200  0.836600  0.477700  1.0  0.0928
  H  H251  1  0.207800  0.372800  0.497000  1.0  0.0823
  H  H252  1  0.730700  0.842500  0.367600  1.0  0.1113
  H  H253  1  0.786200  0.811200  0.421600  1.0  0.1132
  H  H254  1  0.781600  0.931700  0.403700  1.0  0.1317
  H  H255  1  0.136800  0.849200  0.792100  1.0  0.0854
  H  H256  1  0.204400  0.733500  0.792100  1.0  0.0957
  H  H257  1  0.059800  0.517700  0.710400  1.0  0.093
  H  H258  1  0.992100  0.635200  0.709700  1.0  0.0838
  H  H259  1  0.384800  0.317800  0.649600  1.0  0.0798
  H  H260  1  0.834300  0.909800  0.578100  1.0  0.0962
  H  H261  1  0.965700  0.144100  0.645900  1.0  0.0766
  H  H262  1  0.016800  0.054000  0.718000  1.0  0.0851
  H  H263  1  0.849400  0.036300  0.533100  1.0  0.1278
  H  H264  1  0.894600  0.139300  0.559400  1.0  0.1186
  H  H265  1  0.826600  0.137900  0.545600  1.0  0.1363
  H  H266  1  0.380670  0.680140  0.788490  1.0  0.2647
  H  H267  1  0.705100  0.033100  0.544200  1.0  0.0912
  H  H268  1  0.752000  0.013400  0.624100  1.0  0.0985
  H  H269  1  0.604700  0.824300  0.586100  1.0  0.0825
  H  H270  1  0.556500  0.845200  0.506300  1.0  0.0883
  H  H271  1  0.588300  0.156100  0.508200  1.0  0.0855
  H  H272  1  0.541000  0.322200  0.496900  1.0  0.103
  H  H273  1  0.443900  0.298500  0.356800  1.0  0.1668
  H  H274  1  0.486200  0.123400  0.366900  1.0  0.0946
  H  H275  1  0.404200  0.432200  0.389400  1.0  0.1241
  H  H276  1  0.467900  0.495900  0.410600  1.0  0.1208
  H  H277  1  0.454200  0.458400  0.444600  1.0  0.1241
  H  H278  1  0.444700  0.964300  0.405700  1.0  0.0831
  H  H279  1  0.357900  0.848700  0.352500  1.0  0.098
  H  H280  1  0.474500  0.640500  0.354000  1.0  0.0917
  H  H281  1  0.560700  0.758100  0.406300  1.0  0.082
  H  H282  1  0.579200  0.015600  0.371200  1.0  0.08
  H  H283  1  0.141400  0.477900  0.350800  1.0  0.1088
  H  H284  1  0.272200  0.336600  0.477700  1.0  0.0928
  H  H285  1  0.707800  0.872800  0.497000  1.0  0.0823
  H  H286  1  0.230700  0.342500  0.367600  1.0  0.1113
  H  H287  1  0.286200  0.311200  0.421600  1.0  0.1132
  H  H288  1  0.281600  0.431700  0.403700  1.0  0.1317
  H  H289  1  0.636800  0.349200  0.792100  1.0  0.0854
  H  H290  1  0.704400  0.233500  0.792100  1.0  0.0957
  H  H291  1  0.559800  0.017700  0.710400  1.0  0.093
  H  H292  1  0.492100  0.135200  0.709700  1.0  0.0838
  H  H293  1  0.884800  0.817800  0.649600  1.0  0.0798
  H  H294  1  0.334300  0.409800  0.578100  1.0  0.0962
  H  H295  1  0.465700  0.644100  0.645900  1.0  0.0766
  H  H296  1  0.516800  0.554000  0.718000  1.0  0.0851
  H  H297  1  0.349400  0.536300  0.533100  1.0  0.1278
  H  H298  1  0.394600  0.639300  0.559400  1.0  0.1186
  H  H299  1  0.326600  0.637900  0.545600  1.0  0.1363
  H  H300  1  0.880670  0.180140  0.788490  1.0  0.2647
  C  C301  1  0.125350  0.559300  0.015860  1.0  -0.3604
  C  C302  1  0.184410  0.508600  0.052270  1.0  -0.0437
  C  C303  1  0.212550  0.520000  0.100330  1.0  -0.061
  C  C304  1  0.182150  0.580700  0.112890  1.0  -0.1368
  C  C305  1  0.124460  0.632600  0.077620  1.0  -0.0329
  C  C306  1  0.096010  0.621000  0.029750  1.0  -0.0444
  C  C307  1  0.210240  0.586800  0.164250  1.0  0.6816
  C  C308  1  0.046510  0.382800  0.940210  1.0  -0.1879
  C  C309  1  0.058500  0.317800  0.976900  1.0  -0.0529
  C  C310  1  0.029000  0.216300  0.970000  1.0  -0.1537
  C  C311  1  0.983300  0.171400  0.925500  1.0  0.122
  C  C312  1  0.971400  0.231800  0.887600  1.0  -0.0988
  C  C313  1  0.999200  0.337000  0.893800  1.0  -0.1009
  C  C314  1  0.949200  0.060900  0.916700  1.0  -0.4128
  C  C315  1  0.011990  0.624600  0.911160  1.0  -0.3616
  C  C316  1  0.950920  0.600000  0.895080  1.0  -0.042
  C  C317  1  0.898730  0.669600  0.863370  1.0  -0.0442
  C  C318  1  0.908050  0.766100  0.848180  1.0  -0.1432
  C  C319  1  0.968460  0.794100  0.864130  1.0  -0.0135
  C  C320  1  0.020010  0.723200  0.895500  1.0  -0.0298
  C  C321  1  0.851180  0.838200  0.811690  1.0  0.6678
  C  C322  1  0.137400  0.544700  0.937500  1.0  -0.1414
  C  C323  1  0.118700  0.519300  0.893600  1.0  -0.0642
  C  C324  1  0.656000  0.043100  0.881000  1.0  -0.1222
  C  C325  1  0.714500  0.097600  0.912200  1.0  0.0944
  C  C326  1  0.733100  0.126900  0.955600  1.0  -0.1791
  C  C327  1  0.194500  0.602900  0.967500  1.0  -0.0775
  C  C328  1  0.757200  0.131200  0.900100  1.0  -0.3899
  C  C329  1  0.057130  0.245900  0.251740  1.0  -0.3495
  C  C330  1  0.121060  0.217900  0.275790  1.0  -0.0452
  C  C331  1  0.161930  0.287500  0.276110  1.0  -0.0968
  C  C332  1  0.139560  0.388900  0.252600  1.0  -0.1774
  C  C333  1  0.075730  0.416100  0.227310  1.0  -0.0296
  C  C334  1  0.035030  0.345200  0.226940  1.0  -0.0526
  C  C335  1  0.183680  0.465000  0.253320  1.0  0.6581
  C  C336  1  0.954390  0.069500  0.193470  1.0  -0.134
  C  C337  1  0.900710  0.113800  0.149750  1.0  -0.0572
  C  C338  1  0.870300  0.058800  0.106500  1.0  -0.1316
  C  C339  1  0.892800  0.958900  0.105100  1.0  0.0976
  C  C340  1  0.947700  0.920700  0.146500  1.0  -0.1304
  C  C341  1  0.978700  0.975100  0.190300  1.0  -0.0729
  C  C342  1  0.863000  0.906400  0.056200  1.0  -0.3954
  C  C343  1  0.625350  0.059300  0.015860  1.0  -0.3604
  C  C344  1  0.684410  0.008600  0.052270  1.0  -0.0437
  C  C345  1  0.712550  0.020000  0.100330  1.0  -0.061
  C  C346  1  0.682150  0.080700  0.112890  1.0  -0.1368
  C  C347  1  0.624460  0.132600  0.077620  1.0  -0.0329
  C  C348  1  0.596010  0.121000  0.029750  1.0  -0.0444
  C  C349  1  0.710240  0.086800  0.164250  1.0  0.6816
  C  C350  1  0.546510  0.882800  0.940210  1.0  -0.1879
  C  C351  1  0.558500  0.817800  0.976900  1.0  -0.0529
  C  C352  1  0.529000  0.716300  0.970000  1.0  -0.1537
  C  C353  1  0.483300  0.671400  0.925500  1.0  0.122
  C  C354  1  0.471400  0.731800  0.887600  1.0  -0.0988
  C  C355  1  0.499200  0.837000  0.893800  1.0  -0.1009
  C  C356  1  0.449200  0.560900  0.916700  1.0  -0.4128
  C  C357  1  0.511990  0.124600  0.911160  1.0  -0.3616
  C  C358  1  0.450920  0.100000  0.895080  1.0  -0.042
  C  C359  1  0.398730  0.169600  0.863370  1.0  -0.0442
  C  C360  1  0.408050  0.266100  0.848180  1.0  -0.1432
  C  C361  1  0.468460  0.294100  0.864130  1.0  -0.0135
  C  C362  1  0.520010  0.223200  0.895500  1.0  -0.0298
  C  C363  1  0.351180  0.338200  0.811690  1.0  0.6678
  C  C364  1  0.637400  0.044700  0.937500  1.0  -0.1414
  C  C365  1  0.618700  0.019300  0.893600  1.0  -0.064
  C  C366  1  0.156000  0.543100  0.881000  1.0  -0.1225
  C  C367  1  0.214500  0.597600  0.912200  1.0  0.0944
  C  C368  1  0.233100  0.626900  0.955600  1.0  -0.1794
  C  C369  1  0.694500  0.102900  0.967500  1.0  -0.0773
  C  C370  1  0.257200  0.631200  0.900100  1.0  -0.3899
  C  C371  1  0.557130  0.745900  0.251740  1.0  -0.3495
  C  C372  1  0.621060  0.717900  0.275790  1.0  -0.0452
  C  C373  1  0.661930  0.787500  0.276110  1.0  -0.0968
  C  C374  1  0.639560  0.888900  0.252600  1.0  -0.1774
  C  C375  1  0.575730  0.916100  0.227310  1.0  -0.0296
  C  C376  1  0.535030  0.845200  0.226940  1.0  -0.0526
  C  C377  1  0.683680  0.965000  0.253320  1.0  0.6581
  C  C378  1  0.454390  0.569500  0.193470  1.0  -0.134
  C  C379  1  0.400710  0.613800  0.149750  1.0  -0.0572
  C  C380  1  0.370300  0.558800  0.106500  1.0  -0.1293
  C  C381  1  0.392800  0.458900  0.105100  1.0  0.0976
  C  C382  1  0.447700  0.420700  0.146500  1.0  -0.1304
  C  C383  1  0.478700  0.475100  0.190300  1.0  -0.0729
  C  C384  1  0.363000  0.406400  0.056200  1.0  -0.3954
  C  C385  1  0.874650  0.559300  0.484140  1.0  -0.3605
  C  C386  1  0.815590  0.508600  0.447730  1.0  -0.0426
  C  C387  1  0.787450  0.520000  0.399670  1.0  -0.0599
  C  C388  1  0.817850  0.580700  0.387110  1.0  -0.1366
  C  C389  1  0.875540  0.632600  0.422380  1.0  -0.0344
  C  C390  1  0.903990  0.621000  0.470250  1.0  -0.0449
  C  C391  1  0.789760  0.586800  0.335750  1.0  0.6818
  C  C392  1  0.953490  0.382800  0.559790  1.0  -0.1886
  C  C393  1  0.941500  0.317800  0.523100  1.0  -0.0537
  C  C394  1  0.971000  0.216300  0.530000  1.0  -0.1507
  C  C395  1  0.016700  0.171400  0.574500  1.0  0.1204
  C  C396  1  0.028600  0.231800  0.612400  1.0  -0.0999
  C  C397  1  0.000800  0.337000  0.606200  1.0  -0.1001
  C  C398  1  0.050800  0.060900  0.583300  1.0  -0.4138
  C  C399  1  0.988010  0.624600  0.588840  1.0  -0.3587
  C  C400  1  0.049080  0.600000  0.604920  1.0  -0.0423
  C  C401  1  0.101270  0.669600  0.636630  1.0  -0.0452
  C  C402  1  0.091950  0.766100  0.651820  1.0  -0.1419
  C  C403  1  0.031540  0.794100  0.635870  1.0  -0.0141
  C  C404  1  0.979990  0.723200  0.604500  1.0  -0.029
  C  C405  1  0.148820  0.838200  0.688310  1.0  0.6686
  C  C406  1  0.862600  0.544700  0.562500  1.0  -0.1392
  C  C407  1  0.881300  0.519300  0.606400  1.0  -0.0644
  C  C408  1  0.344000  0.043100  0.619000  1.0  -0.1216
  C  C409  1  0.285500  0.097600  0.587800  1.0  0.0939
  C  C410  1  0.266900  0.126900  0.544400  1.0  -0.1784
  C  C411  1  0.805500  0.602900  0.532500  1.0  -0.0801
  C  C412  1  0.242800  0.131200  0.599900  1.0  -0.3884
  C  C413  1  0.942870  0.245900  0.248260  1.0  -0.3475
  C  C414  1  0.878940  0.217900  0.224210  1.0  -0.0457
  C  C415  1  0.838070  0.287500  0.223890  1.0  -0.0952
  C  C416  1  0.860440  0.388900  0.247400  1.0  -0.1784
  C  C417  1  0.924270  0.416100  0.272690  1.0  -0.0302
  C  C418  1  0.964970  0.345200  0.273060  1.0  -0.0522
  C  C419  1  0.816320  0.465000  0.246680  1.0  0.6583
  C  C420  1  0.045610  0.069500  0.306530  1.0  -0.1332
  C  C421  1  0.099290  0.113800  0.350250  1.0  -0.0579
  C  C422  1  0.129700  0.058800  0.393500  1.0  -0.1339
  C  C423  1  0.107200  0.958900  0.394900  1.0  0.1
  C  C424  1  0.052300  0.920700  0.353500  1.0  -0.1314
  C  C425  1  0.021300  0.975100  0.309700  1.0  -0.0721
  C  C426  1  0.137000  0.906400  0.443800  1.0  -0.3974
  C  C427  1  0.374650  0.059300  0.484140  1.0  -0.3605
  C  C428  1  0.315590  0.008600  0.447730  1.0  -0.0426
  C  C429  1  0.287450  0.020000  0.399670  1.0  -0.0599
  C  C430  1  0.317850  0.080700  0.387110  1.0  -0.1366
  C  C431  1  0.375540  0.132600  0.422380  1.0  -0.0344
  C  C432  1  0.403990  0.121000  0.470250  1.0  -0.0449
  C  C433  1  0.289760  0.086800  0.335750  1.0  0.6818
  C  C434  1  0.453490  0.882800  0.559790  1.0  -0.1886
  C  C435  1  0.441500  0.817800  0.523100  1.0  -0.0537
  C  C436  1  0.471000  0.716300  0.530000  1.0  -0.1507
  C  C437  1  0.516700  0.671400  0.574500  1.0  0.1204
  C  C438  1  0.528600  0.731800  0.612400  1.0  -0.0999
  C  C439  1  0.500800  0.837000  0.606200  1.0  -0.1001
  C  C440  1  0.550800  0.560900  0.583300  1.0  -0.4138
  C  C441  1  0.488010  0.124600  0.588840  1.0  -0.3587
  C  C442  1  0.549080  0.100000  0.604920  1.0  -0.0423
  C  C443  1  0.601270  0.169600  0.636630  1.0  -0.0452
  C  C444  1  0.591950  0.266100  0.651820  1.0  -0.1419
  C  C445  1  0.531540  0.294100  0.635870  1.0  -0.0141
  C  C446  1  0.479990  0.223200  0.604500  1.0  -0.029
  C  C447  1  0.648820  0.338200  0.688310  1.0  0.6686
  C  C448  1  0.362600  0.044700  0.562500  1.0  -0.1392
  C  C449  1  0.381300  0.019300  0.606400  1.0  -0.064
  C  C450  1  0.844000  0.543100  0.619000  1.0  -0.1219
  C  C451  1  0.785500  0.597600  0.587800  1.0  0.0939
  C  C452  1  0.766900  0.626900  0.544400  1.0  -0.1787
  C  C453  1  0.305500  0.102900  0.532500  1.0  -0.08
  C  C454  1  0.742800  0.631200  0.599900  1.0  -0.3884
  C  C455  1  0.442870  0.745900  0.248260  1.0  -0.3475
  C  C456  1  0.378940  0.717900  0.224210  1.0  -0.0457
  C  C457  1  0.338070  0.787500  0.223890  1.0  -0.0952
  C  C458  1  0.360440  0.888900  0.247400  1.0  -0.1784
  C  C459  1  0.424270  0.916100  0.272690  1.0  -0.0302
  C  C460  1  0.464970  0.845200  0.273060  1.0  -0.0522
  C  C461  1  0.316320  0.965000  0.246680  1.0  0.6583
  C  C462  1  0.545610  0.569500  0.306530  1.0  -0.1332
  C  C463  1  0.599290  0.613800  0.350250  1.0  -0.0579
  C  C464  1  0.629700  0.558800  0.393500  1.0  -0.1317
  C  C465  1  0.607200  0.458900  0.394900  1.0  0.1
  C  C466  1  0.552300  0.420700  0.353500  1.0  -0.1314
  C  C467  1  0.521300  0.475100  0.309700  1.0  -0.0721
  C  C468  1  0.637000  0.406400  0.443800  1.0  -0.3974
  C  C469  1  0.874650  0.440700  0.984140  1.0  -0.3608
  C  C470  1  0.815590  0.491400  0.947730  1.0  -0.0436
  C  C471  1  0.787450  0.480000  0.899670  1.0  -0.0604
  C  C472  1  0.817850  0.419300  0.887110  1.0  -0.1371
  C  C473  1  0.875540  0.367400  0.922380  1.0  -0.0342
  C  C474  1  0.903990  0.379000  0.970250  1.0  -0.0448
  C  C475  1  0.789760  0.413200  0.835750  1.0  0.6819
  C  C476  1  0.953490  0.617200  0.059790  1.0  -0.1886
  C  C477  1  0.941500  0.682200  0.023100  1.0  -0.0539
  C  C478  1  0.971000  0.783700  0.030000  1.0  -0.1511
  C  C479  1  0.016700  0.828600  0.074500  1.0  0.1212
  C  C480  1  0.028600  0.768200  0.112400  1.0  -0.1003
  C  C481  1  0.000800  0.663000  0.106200  1.0  -0.1005
  C  C482  1  0.050800  0.939100  0.083300  1.0  -0.4125
  C  C483  1  0.988010  0.375400  0.088840  1.0  -0.3586
  C  C484  1  0.049080  0.400000  0.104920  1.0  -0.0425
  C  C485  1  0.101270  0.330400  0.136630  1.0  -0.0453
  C  C486  1  0.091950  0.233900  0.151820  1.0  -0.1432
  C  C487  1  0.031540  0.205900  0.135870  1.0  -0.0138
  C  C488  1  0.979990  0.276800  0.104500  1.0  -0.0284
  C  C489  1  0.148820  0.161800  0.188310  1.0  0.6688
  C  C490  1  0.862600  0.455300  0.062500  1.0  -0.1371
  C  C491  1  0.881300  0.480700  0.106400  1.0  -0.0646
  C  C492  1  0.344000  0.956900  0.119000  1.0  -0.1214
  C  C493  1  0.285500  0.902400  0.087800  1.0  0.095
  C  C494  1  0.266900  0.873100  0.044400  1.0  -0.1788
  C  C495  1  0.805500  0.397100  0.032500  1.0  -0.0801
  C  C496  1  0.242800  0.868800  0.099900  1.0  -0.3891
  C  C497  1  0.942870  0.754100  0.748260  1.0  -0.3471
  C  C498  1  0.878940  0.782100  0.724210  1.0  -0.0466
  C  C499  1  0.838070  0.712500  0.723890  1.0  -0.094
  C  C500  1  0.860440  0.611100  0.747400  1.0  -0.1786
  C  C501  1  0.924270  0.583900  0.772690  1.0  -0.0295
  C  C502  1  0.964970  0.654800  0.773060  1.0  -0.0523
  C  C503  1  0.816320  0.535000  0.746680  1.0  0.6559
  C  C504  1  0.045610  0.930500  0.806530  1.0  -0.1333
  C  C505  1  0.099290  0.886200  0.850250  1.0  -0.058
  C  C506  1  0.129700  0.941200  0.893500  1.0  -0.1333
  C  C507  1  0.107200  0.041100  0.894900  1.0  0.1004
  C  C508  1  0.052300  0.079300  0.853500  1.0  -0.129
  C  C509  1  0.021300  0.024900  0.809700  1.0  -0.0723
  C  C510  1  0.137000  0.093600  0.943800  1.0  -0.3965
  C  C511  1  0.374650  0.940700  0.984140  1.0  -0.3608
  C  C512  1  0.315590  0.991400  0.947730  1.0  -0.0436
  C  C513  1  0.287450  0.980000  0.899670  1.0  -0.0604
  C  C514  1  0.317850  0.919300  0.887110  1.0  -0.1371
  C  C515  1  0.375540  0.867400  0.922380  1.0  -0.0342
  C  C516  1  0.403990  0.879000  0.970250  1.0  -0.0448
  C  C517  1  0.289760  0.913200  0.835750  1.0  0.6819
  C  C518  1  0.453490  0.117200  0.059790  1.0  -0.1886
  C  C519  1  0.441500  0.182200  0.023100  1.0  -0.0539
  C  C520  1  0.471000  0.283700  0.030000  1.0  -0.1511
  C  C521  1  0.516700  0.328600  0.074500  1.0  0.1212
  C  C522  1  0.528600  0.268200  0.112400  1.0  -0.1003
  C  C523  1  0.500800  0.163000  0.106200  1.0  -0.1005
  C  C524  1  0.550800  0.439100  0.083300  1.0  -0.4125
  C  C525  1  0.488010  0.875400  0.088840  1.0  -0.3586
  C  C526  1  0.549080  0.900000  0.104920  1.0  -0.0425
  C  C527  1  0.601270  0.830400  0.136630  1.0  -0.0453
  C  C528  1  0.591950  0.733900  0.151820  1.0  -0.1432
  C  C529  1  0.531540  0.705900  0.135870  1.0  -0.0138
  C  C530  1  0.479990  0.776800  0.104500  1.0  -0.0284
  C  C531  1  0.648820  0.661800  0.188310  1.0  0.6688
  C  C532  1  0.362600  0.955300  0.062500  1.0  -0.1371
  C  C533  1  0.381300  0.980700  0.106400  1.0  -0.064
  C  C534  1  0.844000  0.456900  0.119000  1.0  -0.1218
  C  C535  1  0.785500  0.402400  0.087800  1.0  0.095
  C  C536  1  0.766900  0.373100  0.044400  1.0  -0.1791
  C  C537  1  0.305500  0.897100  0.032500  1.0  -0.08
  C  C538  1  0.742800  0.368800  0.099900  1.0  -0.3891
  C  C539  1  0.442870  0.254100  0.748260  1.0  -0.3471
  C  C540  1  0.378940  0.282100  0.724210  1.0  -0.0466
  C  C541  1  0.338070  0.212500  0.723890  1.0  -0.094
  C  C542  1  0.360440  0.111100  0.747400  1.0  -0.1786
  C  C543  1  0.424270  0.083900  0.772690  1.0  -0.0295
  C  C544  1  0.464970  0.154800  0.773060  1.0  -0.0523
  C  C545  1  0.316320  0.035000  0.746680  1.0  0.6559
  C  C546  1  0.545610  0.430500  0.806530  1.0  -0.1333
  C  C547  1  0.599290  0.386200  0.850250  1.0  -0.058
  C  C548  1  0.629700  0.441200  0.893500  1.0  -0.1311
  C  C549  1  0.607200  0.541100  0.894900  1.0  0.1004
  C  C550  1  0.552300  0.579300  0.853500  1.0  -0.129
  C  C551  1  0.521300  0.524900  0.809700  1.0  -0.0723
  C  C552  1  0.637000  0.593600  0.943800  1.0  -0.3965
  C  C553  1  0.125350  0.440700  0.515860  1.0  -0.3606
  C  C554  1  0.184410  0.491400  0.552270  1.0  -0.0447
  C  C555  1  0.212550  0.480000  0.600330  1.0  -0.0604
  C  C556  1  0.182150  0.419300  0.612890  1.0  -0.1372
  C  C557  1  0.124460  0.367400  0.577620  1.0  -0.0324
  C  C558  1  0.096010  0.379000  0.529750  1.0  -0.0443
  C  C559  1  0.210240  0.413200  0.664250  1.0  0.6819
  C  C560  1  0.046510  0.617200  0.440210  1.0  -0.1875
  C  C561  1  0.058500  0.682200  0.476900  1.0  -0.0532
  C  C562  1  0.029000  0.783700  0.470000  1.0  -0.154
  C  C563  1  0.983300  0.828600  0.425500  1.0  0.1227
  C  C564  1  0.971400  0.768200  0.387600  1.0  -0.0988
  C  C565  1  0.999200  0.663000  0.393800  1.0  -0.1014
  C  C566  1  0.949200  0.939100  0.416700  1.0  -0.4118
  C  C567  1  0.011990  0.375400  0.411160  1.0  -0.3613
  C  C568  1  0.950920  0.400000  0.395080  1.0  -0.042
  C  C569  1  0.898730  0.330400  0.363370  1.0  -0.0441
  C  C570  1  0.908050  0.233900  0.348180  1.0  -0.1424
  C  C571  1  0.968460  0.205900  0.364130  1.0  -0.0137
  C  C572  1  0.020010  0.276800  0.395500  1.0  -0.0293
  C  C573  1  0.851180  0.161800  0.311690  1.0  0.6685
  C  C574  1  0.137400  0.455300  0.437500  1.0  -0.1398
  C  C575  1  0.118700  0.480700  0.393600  1.0  -0.064
  C  C576  1  0.656000  0.956900  0.381000  1.0  -0.1225
  C  C577  1  0.714500  0.902400  0.412200  1.0  0.0957
  C  C578  1  0.733100  0.873100  0.455600  1.0  -0.1792
  C  C579  1  0.194500  0.397100  0.467500  1.0  -0.0772
  C  C580  1  0.757200  0.868800  0.400100  1.0  -0.3902
  C  C581  1  0.057130  0.754100  0.751740  1.0  -0.349
  C  C582  1  0.121060  0.782100  0.775790  1.0  -0.0461
  C  C583  1  0.161930  0.712500  0.776110  1.0  -0.0953
  C  C584  1  0.139560  0.611100  0.752600  1.0  -0.1773
  C  C585  1  0.075730  0.583900  0.727310  1.0  -0.0282
  C  C586  1  0.035030  0.654800  0.726940  1.0  -0.053
  C  C587  1  0.183680  0.535000  0.753320  1.0  0.6563
  C  C588  1  0.954390  0.930500  0.693470  1.0  -0.1338
  C  C589  1  0.900710  0.886200  0.649750  1.0  -0.0579
  C  C590  1  0.870300  0.941200  0.606500  1.0  -0.1313
  C  C591  1  0.892800  0.041100  0.605100  1.0  0.097
  C  C592  1  0.947700  0.079300  0.646500  1.0  -0.1291
  C  C593  1  0.978700  0.024900  0.690300  1.0  -0.0741
  C  C594  1  0.863000  0.093600  0.556200  1.0  -0.3949
  C  C595  1  0.625350  0.940700  0.515860  1.0  -0.3606
  C  C596  1  0.684410  0.991400  0.552270  1.0  -0.0447
  C  C597  1  0.712550  0.980000  0.600330  1.0  -0.0604
  C  C598  1  0.682150  0.919300  0.612890  1.0  -0.1372
  C  C599  1  0.624460  0.867400  0.577620  1.0  -0.0324
  C  C600  1  0.596010  0.879000  0.529750  1.0  -0.0443
  C  C601  1  0.710240  0.913200  0.664250  1.0  0.6819
  C  C602  1  0.546510  0.117200  0.440210  1.0  -0.1875
  C  C603  1  0.558500  0.182200  0.476900  1.0  -0.0532
  C  C604  1  0.529000  0.283700  0.470000  1.0  -0.154
  C  C605  1  0.483300  0.328600  0.425500  1.0  0.1227
  C  C606  1  0.471400  0.268200  0.387600  1.0  -0.0988
  C  C607  1  0.499200  0.163000  0.393800  1.0  -0.1014
  C  C608  1  0.449200  0.439100  0.416700  1.0  -0.4118
  C  C609  1  0.511990  0.875400  0.411160  1.0  -0.3613
  C  C610  1  0.450920  0.900000  0.395080  1.0  -0.042
  C  C611  1  0.398730  0.830400  0.363370  1.0  -0.0441
  C  C612  1  0.408050  0.733900  0.348180  1.0  -0.1424
  C  C613  1  0.468460  0.705900  0.364130  1.0  -0.0137
  C  C614  1  0.520010  0.776800  0.395500  1.0  -0.0293
  C  C615  1  0.351180  0.661800  0.311690  1.0  0.6685
  C  C616  1  0.637400  0.955300  0.437500  1.0  -0.1398
  C  C617  1  0.618700  0.980700  0.393600  1.0  -0.0636
  C  C618  1  0.156000  0.456900  0.381000  1.0  -0.1228
  C  C619  1  0.214500  0.402400  0.412200  1.0  0.0957
  C  C620  1  0.233100  0.373100  0.455600  1.0  -0.1795
  C  C621  1  0.694500  0.897100  0.467500  1.0  -0.0771
  C  C622  1  0.257200  0.368800  0.400100  1.0  -0.3902
  C  C623  1  0.557130  0.254100  0.751740  1.0  -0.349
  C  C624  1  0.621060  0.282100  0.775790  1.0  -0.0461
  C  C625  1  0.661930  0.212500  0.776110  1.0  -0.0953
  C  C626  1  0.639560  0.111100  0.752600  1.0  -0.1773
  C  C627  1  0.575730  0.083900  0.727310  1.0  -0.0282
  C  C628  1  0.535030  0.154800  0.726940  1.0  -0.053
  C  C629  1  0.683680  0.035000  0.753320  1.0  0.6563
  C  C630  1  0.454390  0.430500  0.693470  1.0  -0.1338
  C  C631  1  0.400710  0.386200  0.649750  1.0  -0.0579
  C  C632  1  0.370300  0.441200  0.606500  1.0  -0.1291
  C  C633  1  0.392800  0.541100  0.605100  1.0  0.097
  C  C634  1  0.447700  0.579300  0.646500  1.0  -0.1291
  C  C635  1  0.478700  0.524900  0.690300  1.0  -0.0741
  C  C636  1  0.363000  0.593600  0.556200  1.0  -0.3949
  O  O637  1  0.250370  0.512000  0.192130  1.0  -0.6215
  O  O638  1  0.192330  0.664400  0.176060  1.0  -0.6108
  O  O639  1  0.862180  0.928800  0.801510  1.0  -0.5913
  O  O640  1  0.796370  0.802300  0.794030  1.0  -0.6283
  O  O641  1  0.237680  0.427500  0.269790  1.0  -0.6257
  O  O642  1  0.163080  0.560800  0.237200  1.0  -0.6231
  O  O643  1  0.332450  0.319860  0.265360  1.0  -0.7923
  O  O644  1  0.750370  0.012000  0.192130  1.0  -0.6215
  O  O645  1  0.692330  0.164400  0.176060  1.0  -0.6108
  O  O646  1  0.362180  0.428800  0.801510  1.0  -0.5913
  O  O647  1  0.296370  0.302300  0.794030  1.0  -0.6283
  O  O648  1  0.737680  0.927500  0.269790  1.0  -0.6257
  O  O649  1  0.663080  0.060800  0.237200  1.0  -0.6231
  O  O650  1  0.832450  0.819860  0.265360  1.0  -0.7923
  O  O651  1  0.749630  0.512000  0.307870  1.0  -0.6214
  O  O652  1  0.807670  0.664400  0.323940  1.0  -0.6112
  O  O653  1  0.137820  0.928800  0.698490  1.0  -0.5903
  O  O654  1  0.203630  0.802300  0.705970  1.0  -0.6257
  O  O655  1  0.762320  0.427500  0.230210  1.0  -0.6261
  O  O656  1  0.836920  0.560800  0.262800  1.0  -0.6226
  O  O657  1  0.667550  0.319860  0.234640  1.0  -0.7912
  O  O658  1  0.249630  0.012000  0.307870  1.0  -0.6214
  O  O659  1  0.307670  0.164400  0.323940  1.0  -0.6112
  O  O660  1  0.637820  0.428800  0.698490  1.0  -0.5903
  O  O661  1  0.703630  0.302300  0.705970  1.0  -0.6257
  O  O662  1  0.262320  0.927500  0.230210  1.0  -0.6261
  O  O663  1  0.336920  0.060800  0.262800  1.0  -0.6226
  O  O664  1  0.167550  0.819860  0.234640  1.0  -0.7912
  O  O665  1  0.749630  0.488000  0.807870  1.0  -0.6212
  O  O666  1  0.807670  0.335600  0.823940  1.0  -0.611
  O  O667  1  0.137820  0.071200  0.198490  1.0  -0.5902
  O  O668  1  0.203630  0.197700  0.205970  1.0  -0.6251
  O  O669  1  0.762320  0.572500  0.730210  1.0  -0.6266
  O  O670  1  0.836920  0.439200  0.762800  1.0  -0.6212
  O  O671  1  0.667550  0.680140  0.734640  1.0  -0.7917
  O  O672  1  0.249630  0.988000  0.807870  1.0  -0.6212
  O  O673  1  0.307670  0.835600  0.823940  1.0  -0.611
  O  O674  1  0.637820  0.571200  0.198490  1.0  -0.5902
  O  O675  1  0.703630  0.697700  0.205970  1.0  -0.6251
  O  O676  1  0.262320  0.072500  0.730210  1.0  -0.6266
  O  O677  1  0.336920  0.939200  0.762800  1.0  -0.6212
  O  O678  1  0.167550  0.180140  0.734640  1.0  -0.7917
  O  O679  1  0.250370  0.488000  0.692130  1.0  -0.6215
  O  O680  1  0.192330  0.335600  0.676060  1.0  -0.6101
  O  O681  1  0.862180  0.071200  0.301510  1.0  -0.5915
  O  O682  1  0.796370  0.197700  0.294030  1.0  -0.6286
  O  O683  1  0.237680  0.572500  0.769790  1.0  -0.6259
  O  O684  1  0.163080  0.439200  0.737200  1.0  -0.6218
  O  O685  1  0.332450  0.680140  0.765360  1.0  -0.7925
  O  O686  1  0.750370  0.988000  0.692130  1.0  -0.6215
  O  O687  1  0.692330  0.835600  0.676060  1.0  -0.6101
  O  O688  1  0.362180  0.571200  0.301510  1.0  -0.5915
  O  O689  1  0.296370  0.697700  0.294030  1.0  -0.6286
  O  O690  1  0.737680  0.072500  0.769790  1.0  -0.6259
  O  O691  1  0.663080  0.939200  0.737200  1.0  -0.6218
  O  O692  1  0.832450  0.180140  0.765360  1.0  -0.7925
