# generated using pymatgen
data_Zn4Si3H54(C39O7)2
_symmetry_space_group_name_H-M   'P 1'
_cell_length_a   9.67880000
_cell_length_b   17.40580000
_cell_length_c   31.41140000
_cell_angle_alpha   77.00110000
_cell_angle_beta   81.13740000
_cell_angle_gamma   73.85710000
_symmetry_Int_Tables_number   1
_chemical_formula_structural   Zn4Si3H54(C39O7)2
_chemical_formula_sum   'Zn8 Si6 H108 C156 O28'
_cell_volume   4929.14637379
_cell_formula_units_Z   2
loop_
 _symmetry_equiv_pos_site_id
 _symmetry_equiv_pos_as_xyz
  1  'x, y, z'
loop_
 _atom_site_type_symbol
 _atom_site_label
 _atom_site_symmetry_multiplicity
 _atom_site_fract_x
 _atom_site_fract_y
 _atom_site_fract_z
 _atom_site_occupancy
 _atom_site_charge
  Zn  Zn1  1  0.405380  0.447410  0.488210  1.0  1.1005
  Zn  Zn2  1  0.671040  0.340280  0.537660  1.0  1.0684
  Zn  Zn3  1  0.341000  0.052590  0.011790  1.0  1.1021
  Zn  Zn4  1  0.548980  0.159720  0.962340  1.0  1.069
  Zn  Zn5  1  0.594620  0.552590  0.511790  1.0  1.1015
  Zn  Zn6  1  0.328960  0.659720  0.462340  1.0  1.0699
  Zn  Zn7  1  0.659000  0.947410  0.988210  1.0  1.1021
  Zn  Zn8  1  0.451020  0.840280  0.037660  1.0  1.0685
  Si  Si9  1  0.540340  0.990850  0.392150  1.0  0.9596
  Si  Si10  1  0.923340  0.509150  0.107850  1.0  0.9603
  Si  Si11  1  0.459660  0.009150  0.607850  1.0  0.9603
  Si  Si12  1  0.076660  0.490850  0.892150  1.0  0.9598
  Si  Si13  1  0.998800  0.250000  0.750000  1.0  0.9186
  Si  Si14  1  0.001200  0.750000  0.250000  1.0  0.9191
  H  H15  1  0.422000  0.166500  0.377900  1.0  0.1011
  H  H16  1  0.425000  0.273700  0.410300  1.0  0.1226
  H  H17  1  0.726900  0.119600  0.487400  1.0  0.0989
  H  H18  1  0.711700  0.012100  0.457100  1.0  0.0946
  H  H19  1  0.397900  0.860100  0.398700  1.0  0.0906
  H  H20  1  0.170200  0.840000  0.420000  1.0  0.1025
  H  H21  1  0.987400  0.938000  0.447400  1.0  0.1122
  H  H22  1  0.035800  0.060300  0.454700  1.0  0.1205
  H  H23  1  0.264900  0.079200  0.434800  1.0  0.0907
  H  H24  1  0.664700  0.105400  0.319800  1.0  0.09
  H  H25  1  0.671800  0.140300  0.245500  1.0  0.1163
  H  H26  1  0.602500  0.061100  0.206700  1.0  0.1219
  H  H27  1  0.534000  0.943700  0.246100  1.0  0.1079
  H  H28  1  0.483600  0.925700  0.321500  1.0  0.0922
  H  H29  1  0.577300  0.851300  0.466700  1.0  0.0886
  H  H30  1  0.756700  0.732500  0.487500  1.0  0.1167
  H  H31  1  0.012400  0.798000  0.379200  1.0  0.1083
  H  H32  1  0.828000  0.911600  0.356000  1.0  0.0987
  H  H33  1  0.966900  0.374300  0.666900  1.0  0.1047
  H  H34  1  0.115500  0.406400  0.604600  1.0  0.1082
  H  H35  1  0.453900  0.239000  0.657600  1.0  0.1128
  H  H36  1  0.303700  0.204700  0.719900  1.0  0.0956
  H  H37  1  0.759600  0.240300  0.708700  1.0  0.0961
  H  H38  1  0.687000  0.145100  0.683500  1.0  0.1045
  H  H39  1  0.821300  0.013500  0.694100  1.0  0.1031
  H  H40  1  0.024800  0.973900  0.732900  1.0  0.1165
  H  H41  1  0.097800  0.072900  0.758100  1.0  0.0891
  H  H42  1  0.966400  0.333500  0.122100  1.0  0.099
  H  H43  1  0.109000  0.226300  0.089700  1.0  0.1213
  H  H44  1  0.333900  0.380400  0.012600  1.0  0.0994
  H  H45  1  0.180900  0.487900  0.042900  1.0  0.0945
  H  H46  1  0.656700  0.639900  0.101300  1.0  0.091
  H  H47  1  0.430200  0.660000  0.080000  1.0  0.1022
  H  H48  1  0.372800  0.562000  0.052600  1.0  0.1109
  H  H49  1  0.550800  0.439700  0.045300  1.0  0.119
  H  H50  1  0.778900  0.420800  0.065200  1.0  0.0913
  H  H51  1  0.089900  0.394600  0.180200  1.0  0.0906
  H  H52  1  0.057600  0.359700  0.254500  1.0  0.1165
  H  H53  1  0.870300  0.438900  0.293300  1.0  0.1226
  H  H54  1  0.723800  0.556300  0.253900  1.0  0.107
  H  H55  1  0.730800  0.574300  0.178500  1.0  0.0913
  H  H56  1  0.895300  0.648700  0.033300  1.0  0.0876
  H  H57  1  0.976700  0.767500  0.012500  1.0  0.116
  H  H58  1  0.189600  0.702000  0.120800  1.0  0.1086
  H  H59  1  0.095600  0.588400  0.144000  1.0  0.0983
  H  H60  1  0.008100  0.125700  0.833100  1.0  0.1042
  H  H61  1  0.126500  0.093600  0.895400  1.0  0.1064
  H  H62  1  0.350500  0.261000  0.842400  1.0  0.1126
  H  H63  1  0.228300  0.295300  0.780100  1.0  0.0951
  H  H64  1  0.708600  0.259700  0.791300  1.0  0.097
  H  H65  1  0.515600  0.354900  0.816500  1.0  0.1049
  H  H66  1  0.528900  0.486500  0.805900  1.0  0.1041
  H  H67  1  0.731600  0.526100  0.767100  1.0  0.1174
  H  H68  1  0.928800  0.427100  0.741900  1.0  0.091
  H  H69  1  0.578000  0.833500  0.622100  1.0  0.1012
  H  H70  1  0.575000  0.726300  0.589700  1.0  0.1219
  H  H71  1  0.273100  0.880400  0.512600  1.0  0.0988
  H  H72  1  0.288300  0.987900  0.542900  1.0  0.095
  H  H73  1  0.602100  0.139900  0.601300  1.0  0.0925
  H  H74  1  0.829800  0.160000  0.580000  1.0  0.1023
  H  H75  1  0.012600  0.062000  0.552600  1.0  0.1113
  H  H76  1  0.964200  0.939700  0.545300  1.0  0.1201
  H  H77  1  0.735100  0.920800  0.565200  1.0  0.0913
  H  H78  1  0.335300  0.894600  0.680200  1.0  0.0901
  H  H79  1  0.328200  0.859700  0.754500  1.0  0.1166
  H  H80  1  0.397500  0.938900  0.793300  1.0  0.121
  H  H81  1  0.466000  0.056300  0.753900  1.0  0.1081
  H  H82  1  0.516400  0.074300  0.678500  1.0  0.0921
  H  H83  1  0.422700  0.148700  0.533300  1.0  0.0879
  H  H84  1  0.243300  0.267500  0.512500  1.0  0.1159
  H  H85  1  0.987600  0.202000  0.620800  1.0  0.1083
  H  H86  1  0.172000  0.088400  0.644000  1.0  0.0982
  H  H87  1  0.033100  0.625700  0.333100  1.0  0.1042
  H  H88  1  0.884500  0.593600  0.395400  1.0  0.1064
  H  H89  1  0.546100  0.761000  0.342400  1.0  0.1129
  H  H90  1  0.696300  0.795300  0.280100  1.0  0.0957
  H  H91  1  0.240400  0.759700  0.291300  1.0  0.0961
  H  H92  1  0.313000  0.854900  0.316500  1.0  0.1043
  H  H93  1  0.178700  0.986500  0.305900  1.0  0.1036
  H  H94  1  0.975200  0.026100  0.267100  1.0  0.1168
  H  H95  1  0.902200  0.927100  0.241900  1.0  0.0897
  H  H96  1  0.033600  0.666500  0.877900  1.0  0.0992
  H  H97  1  0.891000  0.773700  0.910300  1.0  0.1222
  H  H98  1  0.666100  0.619600  0.987400  1.0  0.0993
  H  H99  1  0.819100  0.512100  0.957100  1.0  0.0945
  H  H100  1  0.343300  0.360100  0.898700  1.0  0.0924
  H  H101  1  0.569800  0.340000  0.920000  1.0  0.1021
  H  H102  1  0.627200  0.438000  0.947400  1.0  0.1112
  H  H103  1  0.449200  0.560300  0.954700  1.0  0.1193
  H  H104  1  0.221100  0.579200  0.934800  1.0  0.0919
  H  H105  1  0.910100  0.605400  0.819800  1.0  0.0907
  H  H106  1  0.942400  0.640300  0.745500  1.0  0.1172
  H  H107  1  0.129700  0.561100  0.706700  1.0  0.1234
  H  H108  1  0.276200  0.443700  0.746100  1.0  0.1057
  H  H109  1  0.269200  0.425700  0.821500  1.0  0.0923
  H  H110  1  0.104700  0.351300  0.966700  1.0  0.0872
  H  H111  1  0.023300  0.232500  0.987500  1.0  0.1165
  H  H112  1  0.810400  0.298000  0.879200  1.0  0.1085
  H  H113  1  0.904400  0.411600  0.856000  1.0  0.0983
  H  H114  1  0.991900  0.874300  0.166900  1.0  0.1039
  H  H115  1  0.873500  0.906400  0.104600  1.0  0.1071
  H  H116  1  0.649500  0.739000  0.157600  1.0  0.113
  H  H117  1  0.771700  0.704700  0.219900  1.0  0.0952
  H  H118  1  0.291400  0.740300  0.208700  1.0  0.0965
  H  H119  1  0.484400  0.645100  0.183500  1.0  0.1043
  H  H120  1  0.471100  0.513500  0.194100  1.0  0.1035
  H  H121  1  0.268400  0.473900  0.232900  1.0  0.1174
  H  H122  1  0.071200  0.572900  0.258100  1.0  0.0913
  C  C123  1  0.564170  0.076660  0.414600  1.0  -0.3072
  C  C124  1  0.481800  0.156300  0.400900  1.0  -0.0553
  C  C125  1  0.484560  0.220780  0.419700  1.0  -0.0706
  C  C126  1  0.575710  0.206980  0.452600  1.0  -0.1555
  C  C127  1  0.662230  0.129140  0.465800  1.0  -0.1012
  C  C128  1  0.654010  0.065180  0.447200  1.0  -0.0358
  C  C129  1  0.572820  0.275400  0.474760  1.0  0.6989
  C  C130  1  0.356850  0.973800  0.413300  1.0  -0.306
  C  C131  1  0.324260  0.901480  0.410000  1.0  -0.0822
  C  C132  1  0.188900  0.889300  0.422700  1.0  -0.0842
  C  C133  1  0.081300  0.946600  0.439000  1.0  -0.1242
  C  C134  1  0.110100  0.019500  0.443300  1.0  -0.1525
  C  C135  1  0.246000  0.030600  0.431000  1.0  -0.0361
  C  C136  1  0.558900  0.017600  0.330400  1.0  -0.1827
  C  C137  1  0.624700  0.076100  0.304900  1.0  -0.0368
  C  C138  1  0.636300  0.094800  0.260600  1.0  -0.0983
  C  C139  1  0.597400  0.048300  0.237900  1.0  -0.1121
  C  C140  1  0.549800  0.981500  0.261300  1.0  -0.1073
  C  C141  1  0.525100  0.968900  0.306500  1.0  -0.1007
  C  C142  1  0.682810  0.894520  0.409060  1.0  -0.3333
  C  C143  1  0.665270  0.840160  0.448300  1.0  -0.0335
  C  C144  1  0.772940  0.770020  0.461300  1.0  -0.074
  C  C145  1  0.902640  0.755600  0.435920  1.0  -0.1016
  C  C146  1  0.922840  0.808440  0.396880  1.0  -0.0409
  C  C147  1  0.813450  0.876610  0.383290  1.0  -0.0484
  C  C148  1  0.026040  0.684370  0.450750  1.0  0.685
  C  C149  1  0.117900  0.286500  0.701300  1.0  -0.278
  C  C150  1  0.066430  0.346240  0.665500  1.0  -0.0733
  C  C151  1  0.155090  0.365650  0.628370  1.0  -0.0909
  C  C152  1  0.299340  0.327650  0.624870  1.0  -0.1353
  C  C153  1  0.354400  0.266900  0.659500  1.0  -0.0616
  C  C154  1  0.264300  0.246900  0.696700  1.0  -0.0685
  C  C155  1  0.397570  0.347780  0.585080  1.0  0.7073
  C  C156  1  0.936200  0.167000  0.736600  1.0  -0.1238
  C  C157  1  0.815300  0.185300  0.713900  1.0  -0.0727
  C  C158  1  0.771400  0.129400  0.698600  1.0  -0.1171
  C  C159  1  0.849300  0.052900  0.705100  1.0  -0.0953
  C  C160  1  0.970900  0.029200  0.727800  1.0  -0.1324
  C  C161  1  0.013500  0.088300  0.743100  1.0  -0.0588
  C  C162  1  0.055430  0.423340  0.085400  1.0  -0.3078
  C  C163  1  0.039000  0.343700  0.099100  1.0  -0.0534
  C  C164  1  0.125040  0.279220  0.080300  1.0  -0.072
  C  C165  1  0.235290  0.293020  0.047400  1.0  -0.1573
  C  C166  1  0.257170  0.370860  0.034200  1.0  -0.1001
  C  C167  1  0.166390  0.434820  0.052800  1.0  -0.0346
  C  C168  1  0.322980  0.224600  0.025240  1.0  0.6992
  C  C169  1  0.743950  0.526200  0.086700  1.0  -0.3072
  C  C170  1  0.635740  0.598520  0.090000  1.0  -0.0808
  C  C171  1  0.500900  0.610700  0.077300  1.0  -0.0843
  C  C172  1  0.466900  0.553400  0.061000  1.0  -0.1245
  C  C173  1  0.572900  0.480500  0.056700  1.0  -0.1514
  C  C174  1  0.707600  0.469400  0.069000  1.0  -0.0361
  C  C175  1  0.906900  0.482400  0.169600  1.0  -0.1831
  C  C176  1  0.005700  0.423900  0.195100  1.0  -0.0383
  C  C177  1  0.991700  0.405200  0.239400  1.0  -0.104
  C  C178  1  0.883600  0.451700  0.262100  1.0  -0.1131
  C  C179  1  0.792600  0.518500  0.238700  1.0  -0.1087
  C  C180  1  0.800500  0.531100  0.193500  1.0  -0.1015
  C  C181  1  0.986390  0.605480  0.090940  1.0  -0.3327
  C  C182  1  0.953730  0.659840  0.051700  1.0  -0.0345
  C  C183  1  0.004260  0.729980  0.038700  1.0  -0.0743
  C  C184  1  0.094160  0.744400  0.064080  1.0  -0.101
  C  C185  1  0.128160  0.691560  0.103120  1.0  -0.0426
  C  C186  1  0.073350  0.623390  0.116710  1.0  -0.0476
  C  C187  1  0.161160  0.815630  0.049250  1.0  0.6861
  C  C188  1  0.105700  0.213500  0.798700  1.0  -0.2782
  C  C189  1  0.078170  0.153760  0.834500  1.0  -0.0684
  C  C190  1  0.149110  0.134350  0.871630  1.0  -0.0925
  C  C191  1  0.251860  0.172350  0.875130  1.0  -0.1339
  C  C192  1  0.280800  0.233100  0.840500  1.0  -0.0616
  C  C193  1  0.207900  0.253100  0.803300  1.0  -0.0684
  C  C194  1  0.330430  0.152220  0.914920  1.0  0.7092
  C  C195  1  0.839800  0.333000  0.763400  1.0  -0.1236
  C  C196  1  0.714500  0.314700  0.786100  1.0  -0.072
  C  C197  1  0.599400  0.370600  0.801400  1.0  -0.1159
  C  C198  1  0.607300  0.447100  0.794900  1.0  -0.0928
  C  C199  1  0.727900  0.470800  0.772200  1.0  -0.1289
  C  C200  1  0.844900  0.411700  0.756900  1.0  -0.0603
  C  C201  1  0.435830  0.923340  0.585400  1.0  -0.307
  C  C202  1  0.518200  0.843700  0.599100  1.0  -0.0551
  C  C203  1  0.515440  0.779220  0.580300  1.0  -0.0706
  C  C204  1  0.424290  0.793020  0.547400  1.0  -0.1589
  C  C205  1  0.337770  0.870860  0.534200  1.0  -0.0997
  C  C206  1  0.345990  0.934820  0.552800  1.0  -0.0345
  C  C207  1  0.427180  0.724600  0.525240  1.0  0.6978
  C  C208  1  0.643150  0.026200  0.586700  1.0  -0.3073
  C  C209  1  0.675740  0.098520  0.590000  1.0  -0.0826
  C  C210  1  0.811100  0.110700  0.577300  1.0  -0.0847
  C  C211  1  0.918700  0.053400  0.561000  1.0  -0.1257
  C  C212  1  0.889900  0.980500  0.556700  1.0  -0.1517
  C  C213  1  0.754000  0.969400  0.569000  1.0  -0.0363
  C  C214  1  0.441100  0.982400  0.669600  1.0  -0.1817
  C  C215  1  0.375300  0.923900  0.695100  1.0  -0.0374
  C  C216  1  0.363700  0.905200  0.739400  1.0  -0.1024
  C  C217  1  0.402600  0.951700  0.762100  1.0  -0.1107
  C  C218  1  0.450200  0.018500  0.738700  1.0  -0.1053
  C  C219  1  0.474900  0.031100  0.693500  1.0  -0.1014
  C  C220  1  0.317190  0.105480  0.590940  1.0  -0.3327
  C  C221  1  0.334730  0.159840  0.551700  1.0  -0.0358
  C  C222  1  0.227060  0.229980  0.538700  1.0  -0.0731
  C  C223  1  0.097360  0.244400  0.564080  1.0  -0.1017
  C  C224  1  0.077160  0.191560  0.603120  1.0  -0.041
  C  C225  1  0.186550  0.123390  0.616710  1.0  -0.048
  C  C226  1  0.973960  0.315630  0.549250  1.0  0.6863
  C  C227  1  0.882100  0.713500  0.298700  1.0  -0.2756
  C  C228  1  0.933570  0.653760  0.334500  1.0  -0.0716
  C  C229  1  0.844910  0.634350  0.371630  1.0  -0.0928
  C  C230  1  0.700660  0.672350  0.375130  1.0  -0.1347
  C  C231  1  0.645600  0.733100  0.340500  1.0  -0.0615
  C  C232  1  0.735700  0.753100  0.303300  1.0  -0.0688
  C  C233  1  0.602430  0.652220  0.414920  1.0  0.706
  C  C234  1  0.063800  0.833000  0.263400  1.0  -0.1237
  C  C235  1  0.184700  0.814700  0.286100  1.0  -0.0723
  C  C236  1  0.228600  0.870600  0.301400  1.0  -0.1138
  C  C237  1  0.150700  0.947100  0.294900  1.0  -0.0929
  C  C238  1  0.029100  0.970800  0.272200  1.0  -0.1304
  C  C239  1  0.986500  0.911700  0.256900  1.0  -0.0595
  C  C240  1  0.944570  0.576660  0.914600  1.0  -0.3073
  C  C241  1  0.961000  0.656300  0.900900  1.0  -0.0546
  C  C242  1  0.874960  0.720780  0.919700  1.0  -0.0714
  C  C243  1  0.764710  0.706980  0.952600  1.0  -0.1539
  C  C244  1  0.742830  0.629140  0.965800  1.0  -0.1006
  C  C245  1  0.833610  0.565180  0.947200  1.0  -0.0331
  C  C246  1  0.677020  0.775400  0.974760  1.0  0.7002
  C  C247  1  0.256050  0.473800  0.913300  1.0  -0.3074
  C  C248  1  0.364260  0.401480  0.910000  1.0  -0.0832
  C  C249  1  0.499100  0.389300  0.922700  1.0  -0.0849
  C  C250  1  0.533100  0.446600  0.939000  1.0  -0.126
  C  C251  1  0.427100  0.519500  0.943300  1.0  -0.1514
  C  C252  1  0.292400  0.530600  0.931000  1.0  -0.0369
  C  C253  1  0.093100  0.517600  0.830400  1.0  -0.183
  C  C254  1  0.994300  0.576100  0.804900  1.0  -0.0379
  C  C255  1  0.008300  0.594800  0.760600  1.0  -0.1002
  C  C256  1  0.116400  0.548300  0.737900  1.0  -0.1138
  C  C257  1  0.207400  0.481500  0.761300  1.0  -0.1073
  C  C258  1  0.199500  0.468900  0.806500  1.0  -0.0989
  C  C259  1  0.013610  0.394520  0.909060  1.0  -0.3332
  C  C260  1  0.046270  0.340160  0.948300  1.0  -0.0348
  C  C261  1  0.995740  0.270020  0.961300  1.0  -0.0745
  C  C262  1  0.905840  0.255600  0.935920  1.0  -0.1015
  C  C263  1  0.871840  0.308440  0.896880  1.0  -0.0403
  C  C264  1  0.926650  0.376610  0.883290  1.0  -0.0467
  C  C265  1  0.838840  0.184370  0.950750  1.0  0.6854
  C  C266  1  0.894300  0.786500  0.201300  1.0  -0.278
  C  C267  1  0.921830  0.846240  0.165500  1.0  -0.0694
  C  C268  1  0.850890  0.865650  0.128370  1.0  -0.0895
  C  C269  1  0.748140  0.827650  0.124870  1.0  -0.1371
  C  C270  1  0.719200  0.766900  0.159500  1.0  -0.0616
  C  C271  1  0.792100  0.746900  0.196700  1.0  -0.0679
  C  C272  1  0.669570  0.847780  0.085080  1.0  0.7077
  C  C273  1  0.160200  0.667000  0.236600  1.0  -0.1226
  C  C274  1  0.285500  0.685300  0.213900  1.0  -0.0729
  C  C275  1  0.400600  0.629400  0.198600  1.0  -0.1129
  C  C276  1  0.392700  0.552900  0.205100  1.0  -0.0922
  C  C277  1  0.272100  0.529200  0.227800  1.0  -0.1346
  C  C278  1  0.155100  0.588300  0.243100  1.0  -0.0598
  O  O279  1  0.467600  0.337460  0.468740  1.0  -0.6424
  O  O280  1  0.672620  0.264200  0.498560  1.0  -0.5824
  O  O281  1  0.151650  0.694160  0.434940  1.0  -0.6159
  O  O282  1  0.003880  0.623030  0.476610  1.0  -0.4891
  O  O283  1  0.625480  0.440900  0.495540  1.0  -0.8414
  O  O284  1  0.531470  0.312020  0.586040  1.0  -0.5842
  O  O285  1  0.344010  0.399880  0.553100  1.0  -0.6407
  O  O286  1  0.273800  0.162540  0.031260  1.0  -0.6454
  O  O287  1  0.435380  0.235800  0.001440  1.0  -0.5852
  O  O288  1  0.280750  0.805840  0.065060  1.0  -0.6168
  O  O289  1  0.103520  0.876970  0.023390  1.0  -0.4918
  O  O290  1  0.561920  0.059100  0.004460  1.0  -0.8393
  O  O291  1  0.429530  0.187980  0.913960  1.0  -0.5833
  O  O292  1  0.296990  0.100120  0.946900  1.0  -0.6396
  O  O293  1  0.532400  0.662540  0.531260  1.0  -0.6432
  O  O294  1  0.327380  0.735800  0.501440  1.0  -0.5838
  O  O295  1  0.848350  0.305840  0.565060  1.0  -0.6162
  O  O296  1  0.996120  0.376970  0.523390  1.0  -0.4892
  O  O297  1  0.374520  0.559100  0.504460  1.0  -0.8406
  O  O298  1  0.468530  0.687980  0.413960  1.0  -0.5833
  O  O299  1  0.655990  0.600120  0.446900  1.0  -0.6392
  O  O300  1  0.726200  0.837460  0.968740  1.0  -0.6438
  O  O301  1  0.564620  0.764200  0.998560  1.0  -0.5882
  O  O302  1  0.719250  0.194160  0.934940  1.0  -0.618
  O  O303  1  0.896480  0.123030  0.976610  1.0  -0.4917
  O  O304  1  0.438080  0.940900  0.995540  1.0  -0.8405
  O  O305  1  0.570470  0.812020  0.086040  1.0  -0.5843
  O  O306  1  0.703010  0.899880  0.053100  1.0  -0.6415
