# generated using pymatgen
data_Zn4H24C51(O7F9)2
_symmetry_space_group_name_H-M   'P 1'
_cell_length_a   7.52800000
_cell_length_b   17.85300000
_cell_length_c   23.75700000
_cell_angle_alpha   92.53400000
_cell_angle_beta   90.00000000
_cell_angle_gamma   90.00000000
_symmetry_Int_Tables_number   1
_chemical_formula_structural   Zn4H24C51(O7F9)2
_chemical_formula_sum   'Zn8 H48 C102 O28 F36'
_cell_volume   3189.75653175
_cell_formula_units_Z   2
loop_
 _symmetry_equiv_pos_site_id
 _symmetry_equiv_pos_as_xyz
  1  'x, y, z'
loop_
 _atom_site_type_symbol
 _atom_site_label
 _atom_site_symmetry_multiplicity
 _atom_site_fract_x
 _atom_site_fract_y
 _atom_site_fract_z
 _atom_site_occupancy
 _atom_site_charge
  Zn  Zn1  1  0.973740  0.421690  0.968430  1.0  1.0917
  Zn  Zn2  1  0.294990  0.490590  0.912700  1.0  1.032
  Zn  Zn3  1  0.973740  0.078310  0.531570  1.0  1.0927
  Zn  Zn4  1  0.294990  0.009410  0.587300  1.0  1.0314
  Zn  Zn5  1  0.026260  0.578310  0.031570  1.0  1.0914
  Zn  Zn6  1  0.705010  0.509410  0.087300  1.0  1.0313
  Zn  Zn7  1  0.026260  0.921690  0.468430  1.0  1.0908
  Zn  Zn8  1  0.705010  0.990590  0.412700  1.0  1.0319
  H  H9  1  0.066800  0.504700  0.758100  1.0  0.1039
  H  H10  1  0.934600  0.509400  0.669700  1.0  0.1051
  H  H11  1  0.494800  0.410800  0.730800  1.0  0.121
  H  H12  1  0.624300  0.410000  0.819500  1.0  0.0998
  H  H13  1  0.164800  0.298400  0.570900  1.0  0.1063
  H  H14  1  0.275800  0.418200  0.592000  1.0  0.1079
  H  H15  1  0.740900  0.326600  0.640500  1.0  0.1168
  H  H16  1  0.630400  0.207400  0.617700  1.0  0.106
  H  H17  1  0.556000  0.609200  0.785700  1.0  0.1025
  H  H18  1  0.745600  0.675800  0.728900  1.0  0.109
  H  H19  1  0.078300  0.713400  0.860700  1.0  0.1179
  H  H20  1  0.888600  0.647600  0.917400  1.0  0.091
  H  H21  1  0.066800  0.995300  0.741900  1.0  0.1037
  H  H22  1  0.934600  0.990600  0.830300  1.0  0.1057
  H  H23  1  0.494800  0.089200  0.769200  1.0  0.1206
  H  H24  1  0.624300  0.090000  0.680500  1.0  0.1
  H  H25  1  0.164800  0.201600  0.929100  1.0  0.1065
  H  H26  1  0.275800  0.081800  0.908000  1.0  0.1077
  H  H27  1  0.740900  0.173400  0.859500  1.0  0.1168
  H  H28  1  0.630400  0.292600  0.882300  1.0  0.1056
  H  H29  1  0.556000  0.890800  0.714300  1.0  0.102
  H  H30  1  0.745600  0.824200  0.771100  1.0  0.1082
  H  H31  1  0.078300  0.786600  0.639300  1.0  0.118
  H  H32  1  0.888600  0.852400  0.582600  1.0  0.0908
  H  H33  1  0.933200  0.495300  0.241900  1.0  0.1036
  H  H34  1  0.065400  0.490600  0.330300  1.0  0.1054
  H  H35  1  0.505200  0.589200  0.269200  1.0  0.1207
  H  H36  1  0.375700  0.590000  0.180500  1.0  0.1
  H  H37  1  0.835200  0.701600  0.429100  1.0  0.1068
  H  H38  1  0.724200  0.581800  0.408000  1.0  0.1084
  H  H39  1  0.259100  0.673400  0.359500  1.0  0.1171
  H  H40  1  0.369600  0.792600  0.382300  1.0  0.1058
  H  H41  1  0.444000  0.390800  0.214300  1.0  0.1019
  H  H42  1  0.254400  0.324200  0.271100  1.0  0.1084
  H  H43  1  0.921700  0.286600  0.139300  1.0  0.1177
  H  H44  1  0.111400  0.352400  0.082600  1.0  0.0903
  H  H45  1  0.933200  0.004700  0.258100  1.0  0.1036
  H  H46  1  0.065400  0.009400  0.169700  1.0  0.1046
  H  H47  1  0.505200  0.910800  0.230800  1.0  0.1206
  H  H48  1  0.375700  0.910000  0.319500  1.0  0.1
  H  H49  1  0.835200  0.798400  0.070900  1.0  0.1065
  H  H50  1  0.724200  0.918200  0.092000  1.0  0.1083
  H  H51  1  0.259100  0.826600  0.140500  1.0  0.1171
  H  H52  1  0.369600  0.707400  0.117700  1.0  0.1055
  H  H53  1  0.444000  0.109200  0.285700  1.0  0.1024
  H  H54  1  0.254400  0.175800  0.228900  1.0  0.109
  H  H55  1  0.921700  0.213400  0.360700  1.0  0.1174
  H  H56  1  0.111400  0.147600  0.417400  1.0  0.0908
  C  C57  1  0.945900  0.457150  0.854150  1.0  0.6874
  C  C58  1  0.858700  0.457220  0.797250  1.0  -0.152
  C  C59  1  0.949500  0.486100  0.752580  1.0  -0.0096
  C  C60  1  0.871800  0.488360  0.699840  1.0  -0.1574
  C  C61  1  0.701400  0.459760  0.691140  1.0  0.0871
  C  C62  1  0.611100  0.430430  0.736310  1.0  -0.1442
  C  C63  1  0.688100  0.429550  0.788900  1.0  -0.0166
  C  C64  1  0.603200  0.461630  0.633940  1.0  -0.3029
  C  C65  1  0.728500  0.479970  0.584840  1.0  0.691
  C  C66  1  0.464400  0.525070  0.640250  1.0  0.6906
  C  C67  1  0.308900  0.163900  0.580390  1.0  0.7138
  C  C68  1  0.384700  0.241130  0.593260  1.0  -0.139
  C  C69  1  0.282000  0.304140  0.585200  1.0  -0.025
  C  C70  1  0.347700  0.375510  0.597770  1.0  -0.1584
  C  C71  1  0.519800  0.384360  0.618840  1.0  0.0918
  C  C72  1  0.623500  0.321050  0.626280  1.0  -0.1514
  C  C73  1  0.557500  0.250100  0.613140  1.0  -0.0223
  C  C74  1  0.575200  0.583210  0.894980  1.0  0.6278
  C  C75  1  0.700500  0.623700  0.857770  1.0  -0.1399
  C  C76  1  0.660900  0.631320  0.801260  1.0  -0.0227
  C  C77  1  0.773700  0.671030  0.767550  1.0  -0.1307
  C  C78  1  0.927700  0.704110  0.789510  1.0  0.0929
  C  C79  1  0.970700  0.693430  0.845540  1.0  -0.1495
  C  C80  1  0.858100  0.654100  0.879120  1.0  -0.0065
  C  C81  1  0.164800  0.807170  0.782340  1.0  0.6876
  C  C82  1  0.945900  0.042850  0.645850  1.0  0.6873
  C  C83  1  0.858700  0.042780  0.702750  1.0  -0.1516
  C  C84  1  0.949500  0.013900  0.747420  1.0  -0.0102
  C  C85  1  0.871800  0.011640  0.800160  1.0  -0.1586
  C  C86  1  0.701400  0.040240  0.808860  1.0  0.0869
  C  C87  1  0.611100  0.069570  0.763690  1.0  -0.1453
  C  C88  1  0.688100  0.070450  0.711100  1.0  -0.0151
  C  C89  1  0.603200  0.038370  0.866060  1.0  -0.3018
  C  C90  1  0.728500  0.020030  0.915160  1.0  0.6925
  C  C91  1  0.464400  0.974930  0.859750  1.0  0.6905
  C  C92  1  0.308900  0.336100  0.919610  1.0  0.7148
  C  C93  1  0.384700  0.258870  0.906740  1.0  -0.1372
  C  C94  1  0.282000  0.195860  0.914800  1.0  -0.0256
  C  C95  1  0.347700  0.124490  0.902230  1.0  -0.1584
  C  C96  1  0.519800  0.115640  0.881160  1.0  0.0928
  C  C97  1  0.623500  0.178950  0.873720  1.0  -0.1504
  C  C98  1  0.557500  0.249900  0.886860  1.0  -0.0215
  C  C99  1  0.575200  0.916790  0.605020  1.0  0.6283
  C  C100  1  0.700500  0.876300  0.642230  1.0  -0.1395
  C  C101  1  0.660900  0.868680  0.698740  1.0  -0.0223
  C  C102  1  0.773700  0.828970  0.732450  1.0  -0.1316
  C  C103  1  0.927700  0.795890  0.710490  1.0  0.0927
  C  C104  1  0.970700  0.806570  0.654460  1.0  -0.1487
  C  C105  1  0.858100  0.845900  0.620880  1.0  -0.0075
  C  C106  1  0.164800  0.692830  0.717660  1.0  0.6783
  C  C107  1  0.054100  0.542850  0.145850  1.0  0.6873
  C  C108  1  0.141300  0.542780  0.202750  1.0  -0.1532
  C  C109  1  0.050500  0.513900  0.247420  1.0  -0.0096
  C  C110  1  0.128200  0.511640  0.300160  1.0  -0.1569
  C  C111  1  0.298600  0.540240  0.308860  1.0  0.0863
  C  C112  1  0.388900  0.569570  0.263690  1.0  -0.1461
  C  C113  1  0.311900  0.570450  0.211100  1.0  -0.0143
  C  C114  1  0.396800  0.538370  0.366060  1.0  -0.3018
  C  C115  1  0.271500  0.520030  0.415160  1.0  0.6908
  C  C116  1  0.535600  0.474930  0.359750  1.0  0.6903
  C  C117  1  0.691100  0.836100  0.419610  1.0  0.7149
  C  C118  1  0.615300  0.758870  0.406740  1.0  -0.1365
  C  C119  1  0.718000  0.695860  0.414800  1.0  -0.022
  C  C120  1  0.652300  0.624490  0.402230  1.0  -0.1594
  C  C121  1  0.480200  0.615640  0.381160  1.0  0.093
  C  C122  1  0.376500  0.678950  0.373720  1.0  -0.1494
  C  C123  1  0.442500  0.749900  0.386860  1.0  -0.0221
  C  C124  1  0.424800  0.416790  0.105020  1.0  0.6288
  C  C125  1  0.299500  0.376300  0.142230  1.0  -0.1386
  C  C126  1  0.339100  0.368680  0.198740  1.0  -0.0217
  C  C127  1  0.226300  0.328970  0.232450  1.0  -0.1321
  C  C128  1  0.072300  0.295890  0.210490  1.0  0.0923
  C  C129  1  0.029300  0.306570  0.154460  1.0  -0.1478
  C  C130  1  0.141900  0.345900  0.120880  1.0  -0.0066
  C  C131  1  0.835200  0.192830  0.217660  1.0  0.687
  C  C132  1  0.054100  0.957150  0.354150  1.0  0.6869
  C  C133  1  0.141300  0.957220  0.297250  1.0  -0.1521
  C  C134  1  0.050500  0.986100  0.252580  1.0  -0.0083
  C  C135  1  0.128200  0.988360  0.199840  1.0  -0.1562
  C  C136  1  0.298600  0.959760  0.191140  1.0  0.0866
  C  C137  1  0.388900  0.930430  0.236310  1.0  -0.1459
  C  C138  1  0.311900  0.929550  0.288900  1.0  -0.0172
  C  C139  1  0.396800  0.961630  0.133940  1.0  -0.3029
  C  C140  1  0.271500  0.979970  0.084840  1.0  0.6903
  C  C141  1  0.535600  0.025070  0.140250  1.0  0.6906
  C  C142  1  0.691100  0.663900  0.080390  1.0  0.714
  C  C143  1  0.615300  0.741130  0.093260  1.0  -0.1384
  C  C144  1  0.718000  0.804140  0.085200  1.0  -0.022
  C  C145  1  0.652300  0.875510  0.097770  1.0  -0.1588
  C  C146  1  0.480200  0.884360  0.118840  1.0  0.092
  C  C147  1  0.376500  0.821050  0.126280  1.0  -0.1495
  C  C148  1  0.442500  0.750100  0.113140  1.0  -0.022
  C  C149  1  0.424800  0.083210  0.394980  1.0  0.631
  C  C150  1  0.299500  0.123700  0.357770  1.0  -0.1394
  C  C151  1  0.339100  0.131320  0.301260  1.0  -0.0225
  C  C152  1  0.226300  0.171030  0.267550  1.0  -0.1312
  C  C153  1  0.072300  0.204110  0.289510  1.0  0.0926
  C  C154  1  0.029300  0.193430  0.345540  1.0  -0.1507
  C  C155  1  0.141900  0.154100  0.379120  1.0  -0.0069
  C  C156  1  0.835200  0.307170  0.282340  1.0  0.6778
  C  C157  1  0.044500  0.750000  0.750000  1.0  -0.3013
  C  C158  1  0.955500  0.250000  0.250000  1.0  -0.3018
  O  O159  1  0.101500  0.482200  0.857040  1.0  -0.5913
  O  O160  1  0.859200  0.432740  0.894740  1.0  -0.5785
  O  O161  1  0.407500  0.108860  0.590300  1.0  -0.5628
  O  O162  1  0.153900  0.160160  0.561920  1.0  -0.6266
  O  O163  1  0.431400  0.560450  0.871730  1.0  -0.555
  O  O164  1  0.611000  0.575320  0.945250  1.0  -0.4343
  O  O165  1  0.174700  0.497120  0.986210  1.0  -0.7744
  O  O166  1  0.101500  0.017800  0.642960  1.0  -0.5915
  O  O167  1  0.859200  0.067260  0.605260  1.0  -0.5789
  O  O168  1  0.407500  0.391140  0.909700  1.0  -0.5627
  O  O169  1  0.153900  0.339840  0.938080  1.0  -0.6259
  O  O170  1  0.431400  0.939550  0.628270  1.0  -0.5517
  O  O171  1  0.611000  0.924680  0.554750  1.0  -0.4312
  O  O172  1  0.174700  0.002880  0.513790  1.0  -0.7734
  O  O173  1  0.898500  0.517800  0.142960  1.0  -0.5913
  O  O174  1  0.140800  0.567260  0.105260  1.0  -0.5785
  O  O175  1  0.592500  0.891140  0.409700  1.0  -0.5627
  O  O176  1  0.846100  0.839840  0.438080  1.0  -0.6266
  O  O177  1  0.568600  0.439550  0.128270  1.0  -0.5507
  O  O178  1  0.389000  0.424680  0.054750  1.0  -0.4326
  O  O179  1  0.825300  0.502880  0.013790  1.0  -0.7732
  O  O180  1  0.898500  0.982200  0.357040  1.0  -0.5912
  O  O181  1  0.140800  0.932740  0.394740  1.0  -0.578
  O  O182  1  0.592500  0.608860  0.090300  1.0  -0.5631
  O  O183  1  0.846100  0.660160  0.061920  1.0  -0.6273
  O  O184  1  0.568600  0.060450  0.371730  1.0  -0.5537
  O  O185  1  0.389000  0.075320  0.445250  1.0  -0.435
  O  O186  1  0.825300  0.997120  0.486210  1.0  -0.7739
  F  F187  1  0.870200  0.435290  0.582470  1.0  -0.1922
  F  F188  1  0.788400  0.550980  0.587800  1.0  -0.2094
  F  F189  1  0.646200  0.470840  0.535010  1.0  -0.2058
  F  F190  1  0.388500  0.541950  0.590900  1.0  -0.2083
  F  F191  1  0.535700  0.588560  0.661330  1.0  -0.1959
  F  F192  1  0.331600  0.507250  0.674510  1.0  -0.1853
  F  F193  1  0.239200  0.854900  0.748360  1.0  -0.1837
  F  F194  1  0.297600  0.774800  0.810430  1.0  -0.2068
  F  F195  1  0.070800  0.848030  0.820810  1.0  -0.1947
  F  F196  1  0.870200  0.064710  0.917530  1.0  -0.1926
  F  F197  1  0.788400  0.949020  0.912200  1.0  -0.2098
  F  F198  1  0.646200  0.029160  0.964990  1.0  -0.2062
  F  F199  1  0.388500  0.958050  0.909100  1.0  -0.209
  F  F200  1  0.535700  0.911440  0.838670  1.0  -0.1959
  F  F201  1  0.331600  0.992750  0.825490  1.0  -0.1851
  F  F202  1  0.239200  0.645100  0.751640  1.0  -0.1848
  F  F203  1  0.297600  0.725200  0.689570  1.0  -0.2071
  F  F204  1  0.070800  0.651970  0.679190  1.0  -0.195
  F  F205  1  0.129800  0.564710  0.417530  1.0  -0.1914
  F  F206  1  0.211600  0.449020  0.412200  1.0  -0.2089
  F  F207  1  0.353800  0.529160  0.464990  1.0  -0.2062
  F  F208  1  0.611500  0.458050  0.409100  1.0  -0.2088
  F  F209  1  0.464300  0.411440  0.338670  1.0  -0.1954
  F  F210  1  0.668400  0.492750  0.325490  1.0  -0.1852
  F  F211  1  0.760800  0.145100  0.251640  1.0  -0.1849
  F  F212  1  0.702400  0.225200  0.189570  1.0  -0.2053
  F  F213  1  0.929200  0.151970  0.179190  1.0  -0.1957
  F  F214  1  0.129800  0.935290  0.082470  1.0  -0.1918
  F  F215  1  0.211600  0.050980  0.087800  1.0  -0.2088
  F  F216  1  0.353800  0.970840  0.035010  1.0  -0.2054
  F  F217  1  0.611500  0.041950  0.090900  1.0  -0.2082
  F  F218  1  0.464300  0.088560  0.161330  1.0  -0.1951
  F  F219  1  0.668400  0.007250  0.174510  1.0  -0.1857
  F  F220  1  0.760800  0.354900  0.248360  1.0  -0.1841
  F  F221  1  0.702400  0.274800  0.310430  1.0  -0.206
  F  F222  1  0.929200  0.348030  0.320810  1.0  -0.1956
