# generated using pymatgen
data_CoH4(CN)8
_symmetry_space_group_name_H-M   'P 1'
_cell_length_a   17.50300000
_cell_length_b   18.34100000
_cell_length_c   18.34100000
_cell_angle_alpha   90.00000000
_cell_angle_beta   90.00000000
_cell_angle_gamma   90.00000000
_symmetry_Int_Tables_number   1
_chemical_formula_structural   CoH4(CN)8
_chemical_formula_sum   'Co16 H64 C128 N128'
_cell_volume   5887.87409434
_cell_formula_units_Z   16
loop_
 _symmetry_equiv_pos_site_id
 _symmetry_equiv_pos_as_xyz
  1  'x, y, z'
loop_
 _atom_site_type_symbol
 _atom_site_label
 _atom_site_symmetry_multiplicity
 _atom_site_fract_x
 _atom_site_fract_y
 _atom_site_fract_z
 _atom_site_occupancy
 _atom_site_charge
  Co  Co1  1  0.336230  0.432610  0.846360  1.0  0.9206
  Co  Co2  1  0.500000  0.840100  0.840100  1.0  0.9297
  Co  Co3  1  0.750000  0.056080  0.943920  1.0  0.8702
  Co  Co4  1  0.836230  0.567390  0.153640  1.0  0.9173
  Co  Co5  1  0.413770  0.932610  0.653640  1.0  0.9203
  Co  Co6  1  0.913770  0.067390  0.346360  1.0  0.9172
  Co  Co7  1  0.163770  0.153640  0.567390  1.0  0.9189
  Co  Co8  1  0.250000  0.340100  0.659900  1.0  0.9298
  Co  Co9  1  0.000000  0.556080  0.556080  1.0  0.8717
  Co  Co10  1  0.500000  0.443920  0.443920  1.0  0.8626
  Co  Co11  1  0.000000  0.159900  0.159900  1.0  0.9307
  Co  Co12  1  0.586230  0.653640  0.932610  1.0  0.9175
  Co  Co13  1  0.086230  0.346360  0.067390  1.0  0.9188
  Co  Co14  1  0.750000  0.659900  0.340100  1.0  0.9305
  Co  Co15  1  0.663770  0.846360  0.432610  1.0  0.9177
  Co  Co16  1  0.250000  0.943920  0.056080  1.0  0.8624
  H  H17  1  0.476300  0.814500  0.164500  1.0  0.0669
  H  H18  1  0.156600  0.469200  0.316700  1.0  0.0728
  H  H19  1  0.980500  0.558000  0.737600  1.0  0.1067
  H  H20  1  0.535300  0.347400  0.023900  1.0  0.1078
  H  H21  1  0.480500  0.442000  0.262400  1.0  0.1067
  H  H22  1  0.846200  0.114600  0.683200  1.0  0.0479
  H  H23  1  0.096200  0.816800  0.614600  1.0  0.0469
  H  H24  1  0.403800  0.385400  0.183200  1.0  0.0475
  H  H25  1  0.773700  0.685500  0.664500  1.0  0.0661
  H  H26  1  0.892200  0.761500  0.277800  1.0  0.0561
  H  H27  1  0.607800  0.722200  0.238500  1.0  0.0565
  H  H28  1  0.464700  0.023900  0.347400  1.0  0.1074
  H  H29  1  0.343400  0.683300  0.530800  1.0  0.0742
  H  H30  1  0.842200  0.743900  0.112300  1.0  0.0659
  H  H31  1  0.499000  0.453000  0.756400  1.0  0.0505
  H  H32  1  0.657800  0.887700  0.256100  1.0  0.0669
  H  H33  1  0.092200  0.387700  0.243900  1.0  0.067
  H  H34  1  0.906600  0.816700  0.030800  1.0  0.0723
  H  H35  1  0.019500  0.737600  0.558000  1.0  0.1072
  H  H36  1  0.907800  0.243900  0.387700  1.0  0.0657
  H  H37  1  0.392200  0.238500  0.722200  1.0  0.0562
  H  H38  1  0.653800  0.316800  0.885400  1.0  0.0473
  H  H39  1  0.157800  0.112300  0.743900  1.0  0.0681
  H  H40  1  0.107800  0.277800  0.761500  1.0  0.057
  H  H41  1  0.642200  0.777800  0.738500  1.0  0.0563
  H  H42  1  0.501000  0.756400  0.453000  1.0  0.0511
  H  H43  1  0.964700  0.976100  0.652600  1.0  0.107
  H  H44  1  0.273700  0.314500  0.335500  1.0  0.0668
  H  H45  1  0.903800  0.614600  0.816800  1.0  0.0467
  H  H46  1  0.769500  0.058000  0.762400  1.0  0.107
  H  H47  1  0.593400  0.969200  0.183300  1.0  0.0727
  H  H48  1  0.001000  0.243600  0.547000  1.0  0.0506
  H  H49  1  0.407800  0.756100  0.612300  1.0  0.0657
  H  H50  1  0.857800  0.261500  0.222200  1.0  0.0562
  H  H51  1  0.843400  0.316700  0.469200  1.0  0.0722
  H  H52  1  0.342200  0.256100  0.887700  1.0  0.0657
  H  H53  1  0.093400  0.030800  0.816700  1.0  0.0737
  H  H54  1  0.249000  0.256400  0.047000  1.0  0.0516
  H  H55  1  0.406600  0.183300  0.969200  1.0  0.0735
  H  H56  1  0.153800  0.683200  0.114600  1.0  0.0464
  H  H57  1  0.749000  0.743600  0.953000  1.0  0.0509
  H  H58  1  0.230500  0.762400  0.058000  1.0  0.1062
  H  H59  1  0.035300  0.652600  0.976100  1.0  0.1068
  H  H60  1  0.142200  0.222200  0.261500  1.0  0.0566
  H  H61  1  0.251000  0.953000  0.743600  1.0  0.051
  H  H62  1  0.357800  0.738500  0.777800  1.0  0.0566
  H  H63  1  0.726300  0.335500  0.314500  1.0  0.0683
  H  H64  1  0.785300  0.476100  0.847400  1.0  0.1072
  H  H65  1  0.999000  0.547000  0.243600  1.0  0.0507
  H  H66  1  0.596200  0.183200  0.385400  1.0  0.0463
  H  H67  1  0.523700  0.164500  0.814500  1.0  0.0675
  H  H68  1  0.519500  0.262400  0.442000  1.0  0.1073
  H  H69  1  0.592200  0.612300  0.756100  1.0  0.0672
  H  H70  1  0.023700  0.835500  0.185500  1.0  0.0679
  H  H71  1  0.285300  0.523900  0.152600  1.0  0.1078
  H  H72  1  0.751000  0.047000  0.256400  1.0  0.0496
  H  H73  1  0.976300  0.185500  0.835500  1.0  0.066
  H  H74  1  0.730500  0.237600  0.942000  1.0  0.1065
  H  H75  1  0.714700  0.152600  0.523900  1.0  0.1076
  H  H76  1  0.226300  0.664500  0.685500  1.0  0.068
  H  H77  1  0.346200  0.885400  0.316800  1.0  0.0473
  H  H78  1  0.269500  0.942000  0.237600  1.0  0.1067
  H  H79  1  0.656600  0.530800  0.683300  1.0  0.0726
  H  H80  1  0.214700  0.847400  0.476100  1.0  0.1069
  C  C81  1  0.441710  0.620980  0.858260  1.0  0.2472
  C  C82  1  0.060300  0.720400  0.585600  1.0  0.0697
  C  C83  1  0.939700  0.585600  0.720400  1.0  0.072
  C  C84  1  0.683200  0.320300  0.340000  1.0  0.1555
  C  C85  1  0.793700  0.128180  0.448500  1.0  0.1242
  C  C86  1  0.461700  0.433700  0.725800  1.0  0.282
  C  C87  1  0.366000  0.370200  0.373400  1.0  0.1487
  C  C88  1  0.560300  0.279600  0.414400  1.0  0.0709
  C  C89  1  0.858400  0.790100  0.304500  1.0  0.2703
  C  C90  1  0.538370  0.895030  0.553880  1.0  0.3317
  C  C91  1  0.723750  0.563960  0.949150  1.0  0.2866
  C  C92  1  0.670800  0.535500  0.731900  1.0  0.1206
  C  C93  1  0.461630  0.553880  0.895030  1.0  0.3317
  C  C94  1  0.381500  0.276200  0.915300  1.0  0.1098
  C  C95  1  0.808290  0.879020  0.358260  1.0  0.2461
  C  C96  1  0.353900  0.365000  0.449700  1.0  0.2824
  C  C97  1  0.376730  0.379870  0.561520  1.0  0.241
  C  C98  1  0.933200  0.160000  0.820300  1.0  0.1553
  C  C99  1  0.608300  0.232400  0.382200  1.0  0.1591
  C  C100  1  0.108300  0.767600  0.617800  1.0  0.1609
  C  C101  1  0.384000  0.870200  0.126600  1.0  0.1397
  C  C102  1  0.788370  0.946120  0.395030  1.0  0.3338
  C  C103  1  0.616000  0.126600  0.870200  1.0  0.1402
  C  C104  1  0.103900  0.949700  0.135000  1.0  0.2814
  C  C105  1  0.439700  0.414400  0.279600  1.0  0.0725
  C  C106  1  0.891700  0.617800  0.767600  1.0  0.1633
  C  C107  1  0.134000  0.626600  0.629800  1.0  0.1377
  C  C108  1  0.141600  0.304500  0.790100  1.0  0.2709
  C  C109  1  0.191710  0.358260  0.879020  1.0  0.2471
  C  C110  1  0.276250  0.949150  0.563960  1.0  0.2858
  C  C111  1  0.310300  0.914400  0.220400  1.0  0.0716
  C  C112  1  0.634000  0.373400  0.370200  1.0  0.1373
  C  C113  1  0.183200  0.679700  0.660000  1.0  0.155
  C  C114  1  0.626730  0.938480  0.879870  1.0  0.2432
  C  C115  1  0.096560  0.366110  0.601060  1.0  0.2556
  C  C116  1  0.403440  0.398940  0.633890  1.0  0.255
  C  C117  1  0.043700  0.051500  0.628180  1.0  0.1248
  C  C118  1  0.631500  0.584700  0.776200  1.0  0.1084
  C  C119  1  0.118500  0.084700  0.723800  1.0  0.1083
  C  C120  1  0.891600  0.290100  0.195500  1.0  0.2713
  C  C121  1  0.079200  0.035500  0.768100  1.0  0.122
  C  C122  1  0.961630  0.446120  0.104970  1.0  0.3329
  C  C123  1  0.316800  0.340000  0.320300  1.0  0.1558
  C  C124  1  0.433200  0.840000  0.179700  1.0  0.1547
  C  C125  1  0.358300  0.882200  0.267600  1.0  0.1632
  C  C126  1  0.346560  0.898940  0.866110  1.0  0.2562
  C  C127  1  0.941710  0.379020  0.141740  1.0  0.2473
  C  C128  1  0.538300  0.725800  0.433700  1.0  0.2816
  C  C129  1  0.608400  0.804500  0.709900  1.0  0.2708
  C  C130  1  0.853900  0.635000  0.550300  1.0  0.2823
  C  C131  1  0.391700  0.382200  0.232400  1.0  0.1629
  C  C132  1  0.206300  0.448500  0.128180  1.0  0.1249
  C  C133  1  0.691710  0.641740  0.120980  1.0  0.2487
  C  C134  1  0.473750  0.449150  0.936040  1.0  0.286
  C  C135  1  0.711630  0.604970  0.053880  1.0  0.3322
  C  C136  1  0.189700  0.779600  0.085600  1.0  0.0729
  C  C137  1  0.881500  0.723800  0.084700  1.0  0.1096
  C  C138  1  0.245500  0.496400  0.171900  1.0  0.1536
  C  C139  1  0.653440  0.866110  0.898940  1.0  0.255
  C  C140  1  0.543700  0.948500  0.371820  1.0  0.1223
  C  C141  1  0.391600  0.709900  0.804500  1.0  0.2715
  C  C142  1  0.903440  0.601060  0.366110  1.0  0.2559
  C  C143  1  0.495500  0.328100  0.996400  1.0  0.1539
  C  C144  1  0.308290  0.120980  0.641740  1.0  0.2471
  C  C145  1  0.866000  0.629800  0.626600  1.0  0.1397
  C  C146  1  0.596560  0.633890  0.398940  1.0  0.2553
  C  C147  1  0.108400  0.195500  0.290100  1.0  0.2707
  C  C148  1  0.754500  0.171900  0.496400  1.0  0.1534
  C  C149  1  0.504500  0.996400  0.328100  1.0  0.1531
  C  C150  1  0.329200  0.731900  0.535500  1.0  0.121
  C  C151  1  0.689700  0.220400  0.914400  1.0  0.0725
  C  C152  1  0.396100  0.865000  0.050300  1.0  0.2817
  C  C153  1  0.961700  0.566300  0.274200  1.0  0.2826
  C  C154  1  0.956300  0.628180  0.051500  1.0  0.1252
  C  C155  1  0.973750  0.550850  0.063960  1.0  0.2865
  C  C156  1  0.829200  0.268100  0.464500  1.0  0.1205
  C  C157  1  0.368500  0.776200  0.584700  1.0  0.1121
  C  C158  1  0.641600  0.695500  0.209900  1.0  0.2712
  C  C159  1  0.618500  0.915300  0.276200  1.0  0.1076
  C  C160  1  0.004500  0.003600  0.671900  1.0  0.1567
  C  C161  1  0.558290  0.858260  0.620980  1.0  0.2485
  C  C162  1  0.456300  0.371820  0.948500  1.0  0.1249
  C  C163  1  0.706300  0.551500  0.871820  1.0  0.123
  C  C164  1  0.526250  0.936040  0.449150  1.0  0.287
  C  C165  1  0.288300  0.933700  0.774200  1.0  0.2827
  C  C166  1  0.170800  0.464500  0.268100  1.0  0.1201
  C  C167  1  0.995500  0.671900  0.003600  1.0  0.1536
  C  C168  1  0.776250  0.050850  0.436040  1.0  0.2864
  C  C169  1  0.579200  0.964500  0.231900  1.0  0.1222
  C  C170  1  0.868500  0.223800  0.415300  1.0  0.1108
  C  C171  1  0.566800  0.179700  0.840000  1.0  0.1562
  C  C172  1  0.116000  0.873400  0.129800  1.0  0.1371
  C  C173  1  0.810300  0.085600  0.779600  1.0  0.0706
  C  C174  1  0.420800  0.231900  0.964500  1.0  0.1197
  C  C175  1  0.788300  0.066300  0.225800  1.0  0.2822
  C  C176  1  0.066800  0.820300  0.160000  1.0  0.1547
  C  C177  1  0.126730  0.061520  0.120130  1.0  0.2436
  C  C178  1  0.358400  0.209900  0.695500  1.0  0.2715
  C  C179  1  0.846560  0.101060  0.133890  1.0  0.2553
  C  C180  1  0.211700  0.225800  0.066300  1.0  0.2816
  C  C181  1  0.745500  0.503600  0.828100  1.0  0.1552
  C  C182  1  0.641700  0.267600  0.882200  1.0  0.1607
  C  C183  1  0.623270  0.561520  0.379870  1.0  0.2428
  C  C184  1  0.873270  0.120130  0.061520  1.0  0.2431
  C  C185  1  0.223750  0.436040  0.050850  1.0  0.2866
  C  C186  1  0.123270  0.438480  0.620130  1.0  0.2422
  C  C187  1  0.858300  0.117800  0.732400  1.0  0.1624
  C  C188  1  0.141700  0.732400  0.117800  1.0  0.1609
  C  C189  1  0.131500  0.415300  0.223800  1.0  0.1075
  C  C190  1  0.153440  0.133890  0.101060  1.0  0.2545
  C  C191  1  0.211630  0.395030  0.946120  1.0  0.3319
  C  C192  1  0.026250  0.063960  0.550850  1.0  0.2865
  C  C193  1  0.038370  0.104970  0.446120  1.0  0.3333
  C  C194  1  0.816800  0.660000  0.679700  1.0  0.1559
  C  C195  1  0.288370  0.053880  0.604970  1.0  0.3328
  C  C196  1  0.146100  0.550300  0.635000  1.0  0.2809
  C  C197  1  0.254500  0.828100  0.503600  1.0  0.1547
  C  C198  1  0.920800  0.768100  0.035500  1.0  0.1215
  C  C199  1  0.293700  0.871820  0.551500  1.0  0.1249
  C  C200  1  0.058290  0.141740  0.379020  1.0  0.2467
  C  C201  1  0.711700  0.774200  0.933700  1.0  0.282
  C  C202  1  0.646100  0.449700  0.365000  1.0  0.2815
  C  C203  1  0.373270  0.879870  0.938480  1.0  0.242
  C  C204  1  0.884000  0.129800  0.873400  1.0  0.1413
  C  C205  1  0.038300  0.274200  0.566300  1.0  0.2822
  C  C206  1  0.896100  0.135000  0.949700  1.0  0.2831
  C  C207  1  0.876730  0.620130  0.438480  1.0  0.2434
  C  C208  1  0.603900  0.050300  0.865000  1.0  0.2823
  N  N209  1  0.218840  0.985620  0.535330  1.0  -0.3717
  N  N210  1  0.261600  0.177610  0.631400  1.0  -0.2662
  N  N211  1  0.178380  0.852620  0.093300  1.0  -0.3204
  N  N212  1  0.393860  0.888520  0.811010  1.0  -0.246
  N  N213  1  0.369990  0.137140  0.681160  1.0  -0.5312
  N  N214  1  0.178820  0.391200  0.010770  1.0  -0.4431
  N  N215  1  0.544010  0.832610  0.735140  1.0  -0.2691
  N  N216  1  0.976300  0.743300  0.996300  1.0  -0.4156
  N  N217  1  0.523700  0.003700  0.256700  1.0  -0.4117
  N  N218  1  0.307100  0.351990  0.557110  1.0  -0.2765
  N  N219  1  0.957770  0.159280  0.983620  1.0  -0.3476
  N  N220  1  0.511600  0.868600  0.677610  1.0  -0.2672
  N  N221  1  0.272390  0.437640  0.945670  1.0  -0.2219
  N  N222  1  0.643860  0.688990  0.388520  1.0  -0.2464
  N  N223  1  0.330200  0.347000  0.249300  1.0  -0.397
  N  N224  1  0.928380  0.593300  0.647380  1.0  -0.3216
  N  N225  1  0.968840  0.035330  0.514380  1.0  -0.3633
  N  N226  1  0.988400  0.322390  0.131400  1.0  -0.2661
  N  N227  1  0.772390  0.562360  0.054330  1.0  -0.2202
  N  N228  1  0.042230  0.983620  0.159280  1.0  -0.3525
  N  N229  1  0.455990  0.735140  0.832610  1.0  -0.268
  N  N230  1  0.476300  0.256700  0.003700  1.0  -0.4126
  N  N231  1  0.080200  0.749300  0.153000  1.0  -0.3974
  N  N232  1  0.106140  0.188990  0.111480  1.0  -0.2453
  N  N233  1  0.528200  0.654620  0.426100  1.0  -0.4765
  N  N234  1  0.571620  0.352620  0.406700  1.0  -0.321
  N  N235  1  0.778200  0.073900  0.154620  1.0  -0.4799
  N  N236  1  0.605990  0.750030  0.411580  1.0  -0.2694
  N  N237  1  0.869990  0.862860  0.318840  1.0  -0.5338
  N  N238  1  0.792230  0.659280  0.516380  1.0  -0.3529
  N  N239  1  0.522390  0.554330  0.937640  1.0  -0.2249
  N  N240  1  0.705990  0.667390  0.235140  1.0  -0.2674
  N  N241  1  0.119990  0.181160  0.362860  1.0  -0.5336
  N  N242  1  0.692900  0.557110  0.351990  1.0  -0.2755
  N  N243  1  0.380010  0.637140  0.818840  1.0  -0.5308
  N  N244  1  0.442900  0.851990  0.942890  1.0  -0.2759
  N  N245  1  0.226300  0.503700  0.243300  1.0  -0.4112
  N  N246  1  0.942900  0.148010  0.057110  1.0  -0.2775
  N  N247  1  0.071620  0.647380  0.593300  1.0  -0.3218
  N  N248  1  0.022390  0.445670  0.062360  1.0  -0.2199
  N  N249  1  0.227610  0.054330  0.562360  1.0  -0.223
  N  N250  1  0.678820  0.608800  0.989230  1.0  -0.4437
  N  N251  1  0.090900  0.504200  0.610330  1.0  -0.4436
  N  N252  1  0.273700  0.756700  0.496300  1.0  -0.4134
  N  N253  1  0.821180  0.010770  0.391200  1.0  -0.443
  N  N254  1  0.919800  0.153000  0.749300  1.0  -0.3973
  N  N255  1  0.169800  0.750700  0.653000  1.0  -0.3993
  N  N256  1  0.321620  0.906700  0.147380  1.0  -0.3228
  N  N257  1  0.355990  0.911580  0.749970  1.0  -0.2688
  N  N258  1  0.340900  0.889670  0.004200  1.0  -0.4481
  N  N259  1  0.071180  0.108800  0.510770  1.0  -0.4431
  N  N260  1  0.023700  0.996300  0.743300  1.0  -0.4093
  N  N261  1  0.143860  0.311010  0.611480  1.0  -0.2458
  N  N262  1  0.794010  0.764860  0.332610  1.0  -0.2697
  N  N263  1  0.238400  0.368600  0.822390  1.0  -0.2664
  N  N264  1  0.669800  0.249300  0.347000  1.0  -0.3953
  N  N265  1  0.192900  0.442890  0.648010  1.0  -0.2771
  N  N266  1  0.101400  0.093090  0.654000  1.0  -0.3283
  N  N267  1  0.619990  0.818840  0.637140  1.0  -0.5339
  N  N268  1  0.477610  0.937640  0.554330  1.0  -0.2215
  N  N269  1  0.718840  0.014380  0.464670  1.0  -0.3723
  N  N270  1  0.738400  0.631400  0.177610  1.0  -0.2661
  N  N271  1  0.601400  0.906910  0.346000  1.0  -0.3258
  N  N272  1  0.044010  0.167390  0.264860  1.0  -0.2694
  N  N273  1  0.590900  0.495800  0.389670  1.0  -0.4443
  N  N274  1  0.356140  0.388520  0.688990  1.0  -0.2451
  N  N275  1  0.644010  0.749970  0.911580  1.0  -0.2703
  N  N276  1  0.851400  0.154000  0.406910  1.0  -0.3274
  N  N277  1  0.531160  0.485620  0.964670  1.0  -0.3727
  N  N278  1  0.398600  0.346000  0.906910  1.0  -0.3272
  N  N279  1  0.471800  0.426100  0.654620  1.0  -0.4827
  N  N280  1  0.159100  0.995800  0.110330  1.0  -0.4509
  N  N281  1  0.542230  0.016380  0.840720  1.0  -0.3474
  N  N282  1  0.148600  0.406910  0.154000  1.0  -0.3277
  N  N283  1  0.761600  0.822390  0.368600  1.0  -0.2655
  N  N284  1  0.807100  0.648010  0.442890  1.0  -0.2751
  N  N285  1  0.928820  0.510770  0.108800  1.0  -0.4398
  N  N286  1  0.292230  0.340720  0.483620  1.0  -0.3519
  N  N287  1  0.281160  0.464670  0.014380  1.0  -0.3636
  N  N288  1  0.557100  0.942890  0.851990  1.0  -0.2792
  N  N289  1  0.409100  0.389670  0.495800  1.0  -0.4479
  N  N290  1  0.428380  0.406700  0.352620  1.0  -0.3247
  N  N291  1  0.781160  0.535330  0.985620  1.0  -0.3684
  N  N292  1  0.294010  0.235140  0.667390  1.0  -0.2691
  N  N293  1  0.105990  0.249970  0.588420  1.0  -0.2692
  N  N294  1  0.205990  0.332610  0.764860  1.0  -0.2683
  N  N295  1  0.419800  0.847000  0.250700  1.0  -0.4
  N  N296  1  0.955990  0.264860  0.167390  1.0  -0.2685
  N  N297  1  0.571180  0.891200  0.489230  1.0  -0.4415
  N  N298  1  0.130010  0.318840  0.862860  1.0  -0.5335
  N  N299  1  0.830200  0.653000  0.750700  1.0  -0.4001
  N  N300  1  0.894010  0.588420  0.249970  1.0  -0.2694
  N  N301  1  0.468840  0.964670  0.485620  1.0  -0.3678
  N  N302  1  0.351400  0.846000  0.593090  1.0  -0.3262
  N  N303  1  0.394010  0.411580  0.750030  1.0  -0.2697
  N  N304  1  0.457770  0.840720  0.016380  1.0  -0.3473
  N  N305  1  0.721800  0.845380  0.926100  1.0  -0.4796
  N  N306  1  0.057100  0.057110  0.148010  1.0  -0.2758
  N  N307  1  0.659100  0.004200  0.889670  1.0  -0.4436
  N  N308  1  0.488400  0.677610  0.868600  1.0  -0.2663
  N  N309  1  0.880010  0.362860  0.181160  1.0  -0.5324
  N  N310  1  0.028200  0.345380  0.573900  1.0  -0.4779
  N  N311  1  0.428820  0.489230  0.891200  1.0  -0.4433
  N  N312  1  0.727610  0.945670  0.437640  1.0  -0.2222
  N  N313  1  0.630010  0.681160  0.137140  1.0  -0.5328
  N  N314  1  0.893860  0.111480  0.188990  1.0  -0.2458
  N  N315  1  0.648600  0.593090  0.846000  1.0  -0.328
  N  N316  1  0.855990  0.088420  0.250030  1.0  -0.2692
  N  N317  1  0.773700  0.243300  0.503700  1.0  -0.4141
  N  N318  1  0.971800  0.573900  0.345380  1.0  -0.4817
  N  N319  1  0.011600  0.131400  0.322390  1.0  -0.2656
  N  N320  1  0.678380  0.147380  0.906700  1.0  -0.3212
  N  N321  1  0.221800  0.154620  0.073900  1.0  -0.4786
  N  N322  1  0.909100  0.610330  0.504200  1.0  -0.4521
  N  N323  1  0.207770  0.516380  0.659280  1.0  -0.3475
  N  N324  1  0.321180  0.989230  0.608800  1.0  -0.4471
  N  N325  1  0.977610  0.062360  0.445670  1.0  -0.2227
  N  N326  1  0.580200  0.250700  0.847000  1.0  -0.3974
  N  N327  1  0.278200  0.926100  0.845380  1.0  -0.4817
  N  N328  1  0.031160  0.514380  0.035330  1.0  -0.3716
  N  N329  1  0.821620  0.093300  0.852620  1.0  -0.324
  N  N330  1  0.606140  0.811010  0.888520  1.0  -0.2457
  N  N331  1  0.898600  0.654000  0.093090  1.0  -0.3265
  N  N332  1  0.840900  0.110330  0.995800  1.0  -0.4458
  N  N333  1  0.707770  0.483620  0.340720  1.0  -0.3477
  N  N334  1  0.856140  0.611480  0.311010  1.0  -0.2453
  N  N335  1  0.144010  0.250030  0.088420  1.0  -0.2701
  N  N336  1  0.726300  0.496300  0.756700  1.0  -0.4087
