# generated using pymatgen
data_Zn5(PO4)4
_symmetry_space_group_name_H-M   'P 1'
_cell_length_a   20.72300000
_cell_length_b   5.20950000
_cell_length_c   17.87410000
_cell_angle_alpha   90.00000000
_cell_angle_beta   90.00000000
_cell_angle_gamma   90.00000000
_symmetry_Int_Tables_number   1
_chemical_formula_structural   Zn5(PO4)4
_chemical_formula_sum   'Zn20 P16 O64'
_cell_volume   1929.62471362
_cell_formula_units_Z   4
loop_
 _symmetry_equiv_pos_site_id
 _symmetry_equiv_pos_as_xyz
  1  'x, y, z'
loop_
 _atom_site_type_symbol
 _atom_site_label
 _atom_site_symmetry_multiplicity
 _atom_site_fract_x
 _atom_site_fract_y
 _atom_site_fract_z
 _atom_site_occupancy
 _atom_site_charge
  Zn  Zn1  1  0.148990  0.784670  0.425110  1.0  1.1278
  Zn  Zn2  1  0.246570  0.272870  0.394000  1.0  1.0845
  Zn  Zn3  1  0.371540  0.650910  0.407470  1.0  1.1355
  Zn  Zn4  1  0.001020  0.225230  0.441150  1.0  1.1773
  Zn  Zn5  1  0.249910  0.615160  0.128790  1.0  0.9272
  Zn  Zn6  1  0.851010  0.215330  0.925110  1.0  1.1291
  Zn  Zn7  1  0.753430  0.727130  0.894000  1.0  1.0844
  Zn  Zn8  1  0.628460  0.349090  0.907470  1.0  1.1358
  Zn  Zn9  1  0.998980  0.774770  0.941150  1.0  1.1771
  Zn  Zn10  1  0.750090  0.384840  0.628790  1.0  0.9284
  Zn  Zn11  1  0.648990  0.715330  0.425110  1.0  1.1279
  Zn  Zn12  1  0.746570  0.227130  0.394000  1.0  1.0844
  Zn  Zn13  1  0.871540  0.849090  0.407470  1.0  1.1353
  Zn  Zn14  1  0.501020  0.274770  0.441150  1.0  1.1773
  Zn  Zn15  1  0.749910  0.884840  0.128790  1.0  0.9277
  Zn  Zn16  1  0.351010  0.284670  0.925110  1.0  1.1287
  Zn  Zn17  1  0.253430  0.772870  0.894000  1.0  1.0844
  Zn  Zn18  1  0.128460  0.150910  0.907470  1.0  1.136
  Zn  Zn19  1  0.498980  0.725230  0.941150  1.0  1.1771
  Zn  Zn20  1  0.250090  0.115160  0.628790  1.0  0.9272
  P  P21  1  0.257490  0.764600  0.303880  1.0  1.8984
  P  P22  1  0.139430  0.269400  0.521740  1.0  1.814
  P  P23  1  0.012070  0.750000  0.346100  1.0  1.7788
  P  P24  1  0.359270  0.148800  0.504690  1.0  1.8629
  P  P25  1  0.742510  0.235400  0.803880  1.0  1.8982
  P  P26  1  0.860570  0.730600  0.021740  1.0  1.8162
  P  P27  1  0.987930  0.250000  0.846100  1.0  1.7797
  P  P28  1  0.640730  0.851200  0.004690  1.0  1.8618
  P  P29  1  0.757490  0.735400  0.303880  1.0  1.8982
  P  P30  1  0.639430  0.230600  0.521740  1.0  1.8141
  P  P31  1  0.512070  0.750000  0.346100  1.0  1.7789
  P  P32  1  0.859270  0.351200  0.504690  1.0  1.863
  P  P33  1  0.242510  0.264600  0.803880  1.0  1.8983
  P  P34  1  0.360570  0.769400  0.021740  1.0  1.8159
  P  P35  1  0.487930  0.250000  0.846100  1.0  1.7785
  P  P36  1  0.140730  0.648800  0.004690  1.0  1.8617
  O  O37  1  0.220730  0.623300  0.369100  1.0  -0.9158
  O  O38  1  0.328750  0.704100  0.313560  1.0  -0.748
  O  O39  1  0.231780  0.661800  0.230780  1.0  -0.7609
  O  O40  1  0.243080  0.047600  0.311300  1.0  -0.7869
  O  O41  1  0.162510  0.193900  0.600050  1.0  -0.7267
  O  O42  1  0.181450  0.124900  0.462300  1.0  -0.9292
  O  O43  1  0.149480  0.559400  0.511570  1.0  -0.7702
  O  O44  1  0.070170  0.188300  0.513220  1.0  -0.7747
  O  O45  1  0.963700  0.900400  0.397900  1.0  -0.8984
  O  O46  1  0.077550  0.865700  0.364800  1.0  -0.8189
  O  O47  1  0.007200  0.465000  0.362100  1.0  -0.8432
  O  O48  1  0.996160  0.801400  0.265000  1.0  -0.5833
  O  O49  1  0.331780  0.317100  0.439840  1.0  -0.9593
  O  O50  1  0.342000  0.867800  0.489010  1.0  -0.7707
  O  O51  1  0.327330  0.231600  0.577760  1.0  -0.7319
  O  O52  1  0.430960  0.192000  0.510100  1.0  -0.7904
  O  O53  1  0.779270  0.376700  0.869100  1.0  -0.9152
  O  O54  1  0.671250  0.295900  0.813560  1.0  -0.7473
  O  O55  1  0.768220  0.338200  0.730780  1.0  -0.7598
  O  O56  1  0.756920  0.952400  0.811300  1.0  -0.7886
  O  O57  1  0.837490  0.806100  0.100050  1.0  -0.7255
  O  O58  1  0.818550  0.875100  0.962300  1.0  -0.928
  O  O59  1  0.850520  0.440600  0.011570  1.0  -0.7712
  O  O60  1  0.929830  0.811700  0.013220  1.0  -0.7739
  O  O61  1  0.036300  0.099600  0.897900  1.0  -0.8984
  O  O62  1  0.922450  0.134300  0.864800  1.0  -0.8193
  O  O63  1  0.992800  0.535000  0.862100  1.0  -0.8423
  O  O64  1  0.003840  0.198600  0.765000  1.0  -0.5831
  O  O65  1  0.668220  0.682900  0.939840  1.0  -0.9601
  O  O66  1  0.658000  0.132200  0.989010  1.0  -0.7708
  O  O67  1  0.672670  0.768400  0.077760  1.0  -0.7336
  O  O68  1  0.569040  0.808000  0.010100  1.0  -0.7906
  O  O69  1  0.720730  0.876700  0.369100  1.0  -0.9154
  O  O70  1  0.828750  0.795900  0.313560  1.0  -0.7482
  O  O71  1  0.731780  0.838200  0.230780  1.0  -0.7606
  O  O72  1  0.743080  0.452400  0.311300  1.0  -0.7886
  O  O73  1  0.662510  0.306100  0.600050  1.0  -0.7267
  O  O74  1  0.681450  0.375100  0.462300  1.0  -0.9291
  O  O75  1  0.649480  0.940600  0.511570  1.0  -0.771
  O  O76  1  0.570170  0.311700  0.513220  1.0  -0.7751
  O  O77  1  0.463700  0.599600  0.397900  1.0  -0.8985
  O  O78  1  0.577550  0.634300  0.364800  1.0  -0.8197
  O  O79  1  0.507200  0.035000  0.362100  1.0  -0.8429
  O  O80  1  0.496160  0.698600  0.265000  1.0  -0.5833
  O  O81  1  0.831780  0.182900  0.439840  1.0  -0.9596
  O  O82  1  0.842000  0.632200  0.489010  1.0  -0.7706
  O  O83  1  0.827330  0.268400  0.577760  1.0  -0.733
  O  O84  1  0.930960  0.308000  0.510100  1.0  -0.79
  O  O85  1  0.279270  0.123300  0.869100  1.0  -0.9155
  O  O86  1  0.171250  0.204100  0.813560  1.0  -0.7471
  O  O87  1  0.268220  0.161800  0.730780  1.0  -0.7601
  O  O88  1  0.256920  0.547600  0.811300  1.0  -0.7867
  O  O89  1  0.337490  0.693900  0.100050  1.0  -0.7256
  O  O90  1  0.318550  0.624900  0.962300  1.0  -0.9282
  O  O91  1  0.350520  0.059400  0.011570  1.0  -0.7703
  O  O92  1  0.429830  0.688300  0.013220  1.0  -0.774
  O  O93  1  0.536300  0.400400  0.897900  1.0  -0.8982
  O  O94  1  0.422450  0.365700  0.864800  1.0  -0.8187
  O  O95  1  0.492800  0.965000  0.862100  1.0  -0.8422
  O  O96  1  0.503840  0.301400  0.765000  1.0  -0.5832
  O  O97  1  0.168220  0.817100  0.939840  1.0  -0.9599
  O  O98  1  0.158000  0.367800  0.989010  1.0  -0.7711
  O  O99  1  0.172670  0.731600  0.077760  1.0  -0.7328
  O  O100  1  0.069040  0.692000  0.010100  1.0  -0.79
