# generated using pymatgen
data_Zn6(PO4)5
_symmetry_space_group_name_H-M   'P 1'
_cell_length_a   9.98400000
_cell_length_b   12.35400000
_cell_length_c   12.83400000
_cell_angle_alpha   88.32000000
_cell_angle_beta   74.57000000
_cell_angle_gamma   75.81000000
_symmetry_Int_Tables_number   1
_chemical_formula_structural   Zn6(PO4)5
_chemical_formula_sum   'Zn12 P10 O40'
_cell_volume   1478.26832122
_cell_formula_units_Z   2
loop_
 _symmetry_equiv_pos_site_id
 _symmetry_equiv_pos_as_xyz
  1  'x, y, z'
loop_
 _atom_site_type_symbol
 _atom_site_label
 _atom_site_symmetry_multiplicity
 _atom_site_fract_x
 _atom_site_fract_y
 _atom_site_fract_z
 _atom_site_occupancy
 _atom_site_charge
  Zn  Zn1  1  0.142290  0.738510  0.234760  1.0  1.1297
  Zn  Zn2  1  0.932470  0.975990  0.380300  1.0  0.9958
  Zn  Zn3  1  0.526420  0.738930  0.256530  1.0  1.1312
  Zn  Zn4  1  0.853090  0.571950  0.400130  1.0  1.1313
  Zn  Zn5  1  0.340020  0.610740  0.463780  1.0  1.0135
  Zn  Zn6  1  0.458740  0.442270  0.150850  1.0  1.1536
  Zn  Zn7  1  0.857710  0.261490  0.765240  1.0  1.129
  Zn  Zn8  1  0.067530  0.024010  0.619700  1.0  0.9976
  Zn  Zn9  1  0.473580  0.261070  0.743470  1.0  1.1302
  Zn  Zn10  1  0.146910  0.428050  0.599870  1.0  1.1325
  Zn  Zn11  1  0.659980  0.389260  0.536220  1.0  1.0118
  Zn  Zn12  1  0.541260  0.557730  0.849150  1.0  1.1539
  P  P13  1  0.812000  0.795270  0.293610  1.0  1.7476
  P  P14  1  0.220590  0.859460  0.414310  1.0  1.8497
  P  P15  1  0.629590  0.492800  0.313050  1.0  1.8327
  P  P16  1  0.199500  0.497680  0.349430  1.0  1.7817
  P  P17  1  0.412040  0.685100  0.060670  1.0  1.8395
  P  P18  1  0.188000  0.204730  0.706390  1.0  1.7475
  P  P19  1  0.779410  0.140540  0.585690  1.0  1.8464
  P  P20  1  0.370410  0.507200  0.686950  1.0  1.8321
  P  P21  1  0.800500  0.502320  0.650570  1.0  1.7847
  P  P22  1  0.587960  0.314900  0.939330  1.0  1.8357
  O  O23  1  0.108400  0.856400  0.349500  1.0  -0.8782
  O  O24  1  0.957200  0.740300  0.216300  1.0  -0.7301
  O  O25  1  0.272900  0.776900  0.105800  1.0  -0.7033
  O  O26  1  0.217200  0.612900  0.313800  1.0  -0.9132
  O  O27  1  0.802800  0.918100  0.321500  1.0  -0.7354
  O  O28  1  0.167800  0.971800  0.476300  1.0  -0.7267
  O  O29  1  0.694800  0.796500  0.237300  1.0  -0.7004
  O  O30  1  0.518200  0.607100  0.347000  1.0  -0.9398
  O  O31  1  0.528000  0.700400  0.112100  1.0  -0.74
  O  O32  1  0.365500  0.852100  0.335800  1.0  -0.8125
  O  O33  1  0.790000  0.732000  0.400200  1.0  -0.7505
  O  O34  1  0.780200  0.513200  0.292000  1.0  -0.7529
  O  O35  1  0.048200  0.483300  0.364700  1.0  -0.7853
  O  O36  1  0.223400  0.764200  0.492300  1.0  -0.7565
  O  O37  1  0.239100  0.487200  0.460500  1.0  -0.9598
  O  O38  1  0.599100  0.415500  0.405300  1.0  -0.7814
  O  O39  1  0.619300  0.446300  0.208300  1.0  -0.7451
  O  O40  1  0.305500  0.404800  0.270900  1.0  -0.7378
  O  O41  1  0.376200  0.571800  0.082200  1.0  -0.7624
  O  O42  1  0.467000  0.696300  0.937900  1.0  -0.6947
  O  O43  1  0.891600  0.143600  0.650500  1.0  -0.8769
  O  O44  1  0.042800  0.259700  0.783700  1.0  -0.7315
  O  O45  1  0.727100  0.223100  0.894200  1.0  -0.702
  O  O46  1  0.782800  0.387100  0.686200  1.0  -0.9135
  O  O47  1  0.197200  0.081900  0.678500  1.0  -0.7369
  O  O48  1  0.832200  0.028200  0.523700  1.0  -0.7254
  O  O49  1  0.305200  0.203500  0.762700  1.0  -0.7014
  O  O50  1  0.481800  0.392900  0.653000  1.0  -0.9411
  O  O51  1  0.472000  0.299600  0.887900  1.0  -0.7408
  O  O52  1  0.634500  0.147900  0.664200  1.0  -0.8112
  O  O53  1  0.210000  0.268000  0.599800  1.0  -0.7471
  O  O54  1  0.219800  0.486800  0.708000  1.0  -0.7522
  O  O55  1  0.951800  0.516700  0.635300  1.0  -0.7862
  O  O56  1  0.776600  0.235800  0.507700  1.0  -0.7569
  O  O57  1  0.760900  0.512800  0.539500  1.0  -0.9596
  O  O58  1  0.400900  0.584500  0.594700  1.0  -0.7775
  O  O59  1  0.380700  0.553700  0.791700  1.0  -0.7446
  O  O60  1  0.694500  0.595200  0.729100  1.0  -0.7399
  O  O61  1  0.623800  0.428200  0.917800  1.0  -0.763
  O  O62  1  0.533000  0.303700  0.062100  1.0  -0.6941
