# generated using pymatgen
data_In4P7(HO3)7
_symmetry_space_group_name_H-M   'P 1'
_cell_length_a   13.78830000
_cell_length_b   13.78830000
_cell_length_c   9.34500000
_cell_angle_alpha   90.00000000
_cell_angle_beta   90.00000000
_cell_angle_gamma   120.00000000
_symmetry_Int_Tables_number   1
_chemical_formula_structural   In4P7(HO3)7
_chemical_formula_sum   'In8 P14 H14 O42'
_cell_volume   1538.62004285
_cell_formula_units_Z   2
loop_
 _symmetry_equiv_pos_site_id
 _symmetry_equiv_pos_as_xyz
  1  'x, y, z'
loop_
 _atom_site_type_symbol
 _atom_site_label
 _atom_site_symmetry_multiplicity
 _atom_site_fract_x
 _atom_site_fract_y
 _atom_site_fract_z
 _atom_site_occupancy
 _atom_site_charge
  In  In1  1  0.853800  0.293000  0.924220  1.0  1.5786
  In  In2  1  0.707000  0.560800  0.924220  1.0  1.5792
  In  In3  1  0.439200  0.146200  0.924220  1.0  1.5801
  In  In4  1  0.146200  0.707000  0.075780  1.0  1.5802
  In  In5  1  0.293000  0.439200  0.075780  1.0  1.5795
  In  In6  1  0.560800  0.853800  0.075780  1.0  1.5779
  In  In7  1  0.000000  0.000000  0.500000  1.0  1.5654
  In  In8  1  0.000000  0.000000  0.000000  1.0  1.5912
  P  P9  1  0.876160  0.506380  0.118500  1.0  1.5704
  P  P10  1  0.971970  0.163730  0.746590  1.0  1.6595
  P  P11  1  0.493620  0.369780  0.118500  1.0  1.5751
  P  P12  1  0.836270  0.808240  0.746590  1.0  1.6586
  P  P13  1  0.630220  0.123840  0.118500  1.0  1.5719
  P  P14  1  0.191760  0.028030  0.746590  1.0  1.6554
  P  P15  1  0.123840  0.493620  0.881500  1.0  1.5713
  P  P16  1  0.028030  0.836270  0.253410  1.0  1.6595
  P  P17  1  0.506380  0.630220  0.881500  1.0  1.5731
  P  P18  1  0.163730  0.191760  0.253410  1.0  1.6566
  P  P19  1  0.369780  0.876160  0.881500  1.0  1.5714
  P  P20  1  0.808240  0.971970  0.253410  1.0  1.6559
  P  P21  1  0.666667  0.333333  0.720000  1.0  1.4758
  P  P22  1  0.333333  0.666667  0.280000  1.0  1.4754
  H  H23  1  0.821000  0.516000  0.235000  1.0  -0.0948
  H  H24  1  0.062000  0.268000  0.706000  1.0  -0.0771
  H  H25  1  0.484000  0.305000  0.235000  1.0  -0.0939
  H  H26  1  0.732000  0.794000  0.706000  1.0  -0.0779
  H  H27  1  0.695000  0.179000  0.235000  1.0  -0.0942
  H  H28  1  0.206000  0.938000  0.706000  1.0  -0.0772
  H  H29  1  0.179000  0.484000  0.765000  1.0  -0.0927
  H  H30  1  0.938000  0.732000  0.294000  1.0  -0.0768
  H  H31  1  0.516000  0.695000  0.765000  1.0  -0.0937
  H  H32  1  0.268000  0.206000  0.294000  1.0  -0.075
  H  H33  1  0.305000  0.821000  0.765000  1.0  -0.0936
  H  H34  1  0.794000  0.062000  0.294000  1.0  -0.0755
  H  H35  1  0.666667  0.333333  0.572000  1.0  -0.0509
  H  H36  1  0.333333  0.666667  0.428000  1.0  -0.0525
  O  O37  1  0.929300  0.075500  0.628800  1.0  -0.805
  O  O38  1  0.831400  0.385100  0.085700  1.0  -0.8197
  O  O39  1  0.712800  0.144600  0.998200  1.0  -0.7908
  O  O40  1  0.999500  0.432900  0.844400  1.0  -0.796
  O  O41  1  0.759900  0.312600  0.760600  1.0  -0.847
  O  O42  1  0.027900  0.140500  0.872100  1.0  -0.7809
  O  O43  1  0.876300  0.181100  0.791500  1.0  -0.7963
  O  O44  1  0.924500  0.853800  0.628800  1.0  -0.806
  O  O45  1  0.614900  0.446300  0.085700  1.0  -0.8206
  O  O46  1  0.855400  0.568200  0.998200  1.0  -0.7921
  O  O47  1  0.567100  0.566600  0.844400  1.0  -0.7976
  O  O48  1  0.687400  0.447300  0.760600  1.0  -0.848
  O  O49  1  0.859500  0.887400  0.872100  1.0  -0.7815
  O  O50  1  0.818900  0.695200  0.791500  1.0  -0.7958
  O  O51  1  0.146200  0.070700  0.628800  1.0  -0.8071
  O  O52  1  0.553700  0.168600  0.085700  1.0  -0.819
  O  O53  1  0.431800  0.287200  0.998200  1.0  -0.7909
  O  O54  1  0.433400  0.000500  0.844400  1.0  -0.7967
  O  O55  1  0.552700  0.240100  0.760600  1.0  -0.8486
  O  O56  1  0.112600  0.972100  0.872100  1.0  -0.7822
  O  O57  1  0.304800  0.123700  0.791500  1.0  -0.7946
  O  O58  1  0.070700  0.924500  0.371200  1.0  -0.8043
  O  O59  1  0.168600  0.614900  0.914300  1.0  -0.8209
  O  O60  1  0.287200  0.855400  0.001800  1.0  -0.791
  O  O61  1  0.000500  0.567100  0.155600  1.0  -0.7973
  O  O62  1  0.240100  0.687400  0.239400  1.0  -0.8477
  O  O63  1  0.972100  0.859500  0.127900  1.0  -0.7811
  O  O64  1  0.123700  0.818900  0.208500  1.0  -0.7954
  O  O65  1  0.075500  0.146200  0.371200  1.0  -0.8057
  O  O66  1  0.385100  0.553700  0.914300  1.0  -0.8202
  O  O67  1  0.144600  0.431800  0.001800  1.0  -0.7937
  O  O68  1  0.432900  0.433400  0.155600  1.0  -0.7981
  O  O69  1  0.312600  0.552700  0.239400  1.0  -0.8483
  O  O70  1  0.140500  0.112600  0.127900  1.0  -0.7812
  O  O71  1  0.181100  0.304800  0.208500  1.0  -0.7956
  O  O72  1  0.853800  0.929300  0.371200  1.0  -0.8064
  O  O73  1  0.446300  0.831400  0.914300  1.0  -0.8192
  O  O74  1  0.568200  0.712800  0.001800  1.0  -0.7916
  O  O75  1  0.566600  0.999500  0.155600  1.0  -0.7974
  O  O76  1  0.447300  0.759900  0.239400  1.0  -0.8467
  O  O77  1  0.887400  0.027900  0.127900  1.0  -0.7826
  O  O78  1  0.695200  0.876300  0.208500  1.0  -0.7955
