# generated using pymatgen
data_Zn5(PO4)4
_symmetry_space_group_name_H-M   'P 1'
_cell_length_a   20.79400000
_cell_length_b   5.22720000
_cell_length_c   17.96280000
_cell_angle_alpha   90.00000000
_cell_angle_beta   90.00000000
_cell_angle_gamma   90.00000000
_symmetry_Int_Tables_number   1
_chemical_formula_structural   Zn5(PO4)4
_chemical_formula_sum   'Zn20 P16 O64'
_cell_volume   1952.45571084
_cell_formula_units_Z   4
loop_
 _symmetry_equiv_pos_site_id
 _symmetry_equiv_pos_as_xyz
  1  'x, y, z'
loop_
 _atom_site_type_symbol
 _atom_site_label
 _atom_site_symmetry_multiplicity
 _atom_site_fract_x
 _atom_site_fract_y
 _atom_site_fract_z
 _atom_site_occupancy
 _atom_site_charge
  Zn  Zn1  1  0.648890  0.284340  0.466520  1.0  1.143
  Zn  Zn2  1  0.746440  0.772330  0.497510  1.0  1.0842
  Zn  Zn3  1  0.500640  0.726300  0.449900  1.0  1.1774
  Zn  Zn4  1  0.749870  0.613300  0.262700  1.0  0.9068
  Zn  Zn5  1  0.371150  0.348580  0.483630  1.0  1.1271
  Zn  Zn6  1  0.351110  0.715660  0.966520  1.0  1.1436
  Zn  Zn7  1  0.253560  0.227670  0.997510  1.0  1.0841
  Zn  Zn8  1  0.499360  0.273700  0.949900  1.0  1.1773
  Zn  Zn9  1  0.250130  0.386700  0.762700  1.0  0.9067
  Zn  Zn10  1  0.628850  0.651420  0.983630  1.0  1.1277
  Zn  Zn11  1  0.148890  0.215660  0.466520  1.0  1.1432
  Zn  Zn12  1  0.246440  0.727670  0.497510  1.0  1.0842
  Zn  Zn13  1  0.000640  0.773700  0.449900  1.0  1.1774
  Zn  Zn14  1  0.249870  0.886700  0.262700  1.0  0.9061
  Zn  Zn15  1  0.871150  0.151420  0.483630  1.0  1.1272
  Zn  Zn16  1  0.851110  0.784340  0.966520  1.0  1.1434
  Zn  Zn17  1  0.753560  0.272330  0.997510  1.0  1.0842
  Zn  Zn18  1  0.999360  0.226300  0.949900  1.0  1.1773
  Zn  Zn19  1  0.750130  0.113300  0.762700  1.0  0.9055
  Zn  Zn20  1  0.128850  0.848580  0.983630  1.0  1.1277
  P  P21  1  0.757300  0.263500  0.587050  1.0  1.764
  P  P22  1  0.639300  0.769800  0.369210  1.0  1.7941
  P  P23  1  0.511690  0.251100  0.544280  1.0  1.7395
  P  P24  1  0.858880  0.648400  0.385790  1.0  1.8467
  P  P25  1  0.242700  0.736500  0.087050  1.0  1.7639
  P  P26  1  0.360700  0.230200  0.869210  1.0  1.7943
  P  P27  1  0.488310  0.748900  0.044280  1.0  1.7391
  P  P28  1  0.141120  0.351600  0.885790  1.0  1.8465
  P  P29  1  0.257300  0.236500  0.587050  1.0  1.7643
  P  P30  1  0.139300  0.730200  0.369210  1.0  1.7936
  P  P31  1  0.011690  0.248900  0.544280  1.0  1.7394
  P  P32  1  0.358880  0.851600  0.385790  1.0  1.8468
  P  P33  1  0.742700  0.763500  0.087050  1.0  1.764
  P  P34  1  0.860700  0.269800  0.869210  1.0  1.7946
  P  P35  1  0.988310  0.751100  0.044280  1.0  1.7392
  P  P36  1  0.641120  0.148400  0.885790  1.0  1.8465
  O  O37  1  0.680900  0.624800  0.429000  1.0  -0.9046
  O  O38  1  0.719800  0.122100  0.522000  1.0  -0.9047
  O  O39  1  0.576400  0.365100  0.525200  1.0  -0.8077
  O  O40  1  0.649400  0.060300  0.379400  1.0  -0.7589
  O  O41  1  0.742800  0.547100  0.579900  1.0  -0.7582
  O  O42  1  0.569900  0.690500  0.378300  1.0  -0.7676
  O  O43  1  0.463400  0.399800  0.492800  1.0  -0.883
  O  O44  1  0.930400  0.692900  0.380600  1.0  -0.7798
  O  O45  1  0.506700  0.966900  0.527600  1.0  -0.8378
  O  O46  1  0.662000  0.694600  0.291500  1.0  -0.7053
  O  O47  1  0.826900  0.730900  0.313100  1.0  -0.7121
  O  O48  1  0.731700  0.163200  0.660500  1.0  -0.7471
  O  O49  1  0.832000  0.815900  0.451700  1.0  -0.931
  O  O50  1  0.841800  0.368800  0.402100  1.0  -0.7575
  O  O51  1  0.828700  0.205000  0.576400  1.0  -0.736
  O  O52  1  0.495500  0.302200  0.623600  1.0  -0.5937
  O  O53  1  0.319100  0.375200  0.929000  1.0  -0.9033
  O  O54  1  0.280200  0.877900  0.022000  1.0  -0.9038
  O  O55  1  0.423600  0.634900  0.025200  1.0  -0.8073
  O  O56  1  0.350600  0.939700  0.879400  1.0  -0.7588
  O  O57  1  0.257200  0.452900  0.079900  1.0  -0.7596
  O  O58  1  0.430100  0.309500  0.878300  1.0  -0.767
  O  O59  1  0.536600  0.600200  0.992800  1.0  -0.8824
  O  O60  1  0.069600  0.307100  0.880600  1.0  -0.7808
  O  O61  1  0.493300  0.033100  0.027600  1.0  -0.8374
  O  O62  1  0.338000  0.305400  0.791500  1.0  -0.7061
  O  O63  1  0.173100  0.269100  0.813100  1.0  -0.7115
  O  O64  1  0.268300  0.836800  0.160500  1.0  -0.746
  O  O65  1  0.168000  0.184100  0.951700  1.0  -0.9301
  O  O66  1  0.158200  0.631200  0.902100  1.0  -0.7568
  O  O67  1  0.171300  0.795000  0.076400  1.0  -0.7366
  O  O68  1  0.504500  0.697800  0.123600  1.0  -0.5932
  O  O69  1  0.180900  0.875200  0.429000  1.0  -0.9046
  O  O70  1  0.219800  0.377900  0.522000  1.0  -0.9045
  O  O71  1  0.076400  0.134900  0.525200  1.0  -0.808
  O  O72  1  0.149400  0.439700  0.379400  1.0  -0.7586
  O  O73  1  0.242800  0.952900  0.579900  1.0  -0.7597
  O  O74  1  0.069900  0.809500  0.378300  1.0  -0.7677
  O  O75  1  0.963400  0.100200  0.492800  1.0  -0.8829
  O  O76  1  0.430400  0.807100  0.380600  1.0  -0.7797
  O  O77  1  0.006700  0.533100  0.527600  1.0  -0.8382
  O  O78  1  0.162000  0.805400  0.291500  1.0  -0.7054
  O  O79  1  0.326900  0.769100  0.313100  1.0  -0.7118
  O  O80  1  0.231700  0.336800  0.660500  1.0  -0.747
  O  O81  1  0.332000  0.684100  0.451700  1.0  -0.931
  O  O82  1  0.341800  0.131200  0.402100  1.0  -0.7565
  O  O83  1  0.328700  0.295000  0.576400  1.0  -0.7358
  O  O84  1  0.995500  0.197800  0.623600  1.0  -0.5937
  O  O85  1  0.819100  0.124800  0.929000  1.0  -0.9032
  O  O86  1  0.780200  0.622100  0.022000  1.0  -0.9039
  O  O87  1  0.923600  0.865100  0.025200  1.0  -0.8073
  O  O88  1  0.850600  0.560300  0.879400  1.0  -0.759
  O  O89  1  0.757200  0.047100  0.079900  1.0  -0.7577
  O  O90  1  0.930100  0.190500  0.878300  1.0  -0.7669
  O  O91  1  0.036600  0.899800  0.992800  1.0  -0.8824
  O  O92  1  0.569600  0.192900  0.880600  1.0  -0.7809
  O  O93  1  0.993300  0.466900  0.027600  1.0  -0.8367
  O  O94  1  0.838000  0.194600  0.791500  1.0  -0.7062
  O  O95  1  0.673100  0.230900  0.813100  1.0  -0.7117
  O  O96  1  0.768300  0.663200  0.160500  1.0  -0.7461
  O  O97  1  0.668000  0.315900  0.951700  1.0  -0.9304
  O  O98  1  0.658200  0.868800  0.902100  1.0  -0.7575
  O  O99  1  0.671300  0.705000  0.076400  1.0  -0.7366
  O  O100  1  0.004500  0.802200  0.123600  1.0  -0.5933
