# generated using pymatgen
data_Zn8P6H8C2NO26
_symmetry_space_group_name_H-M   'P 1'
_cell_length_a   15.28400000
_cell_length_b   17.72600000
_cell_length_c   5.18820000
_cell_angle_alpha   90.00000000
_cell_angle_beta   90.00000000
_cell_angle_gamma   90.00000000
_symmetry_Int_Tables_number   1
_chemical_formula_structural   Zn8P6H8C2NO26
_chemical_formula_sum   'Zn16 P12 H16 C4 N2 O52'
_cell_volume   1405.60885143
_cell_formula_units_Z   2
loop_
 _symmetry_equiv_pos_site_id
 _symmetry_equiv_pos_as_xyz
  1  'x, y, z'
loop_
 _atom_site_type_symbol
 _atom_site_label
 _atom_site_symmetry_multiplicity
 _atom_site_fract_x
 _atom_site_fract_y
 _atom_site_fract_z
 _atom_site_occupancy
 _atom_site_charge
  Zn  Zn1  1  0.280640  0.803160  0.667600  1.0  1.1244
  Zn  Zn2  1  0.106910  0.804640  0.264800  1.0  1.0472
  Zn  Zn3  1  0.406510  0.751900  0.172600  1.0  1.0915
  Zn  Zn4  1  0.266840  0.063550  0.350400  1.0  1.1362
  Zn  Zn5  1  0.719360  0.196840  0.667600  1.0  1.1241
  Zn  Zn6  1  0.893090  0.195360  0.264800  1.0  1.0474
  Zn  Zn7  1  0.593490  0.248100  0.172600  1.0  1.0919
  Zn  Zn8  1  0.733160  0.936450  0.350400  1.0  1.1368
  Zn  Zn9  1  0.780640  0.696840  0.167600  1.0  1.1245
  Zn  Zn10  1  0.606910  0.695360  0.764800  1.0  1.0446
  Zn  Zn11  1  0.906510  0.748100  0.672600  1.0  1.0914
  Zn  Zn12  1  0.766840  0.436450  0.850400  1.0  1.1359
  Zn  Zn13  1  0.219360  0.303160  0.167600  1.0  1.1241
  Zn  Zn14  1  0.393090  0.304640  0.764800  1.0  1.0459
  Zn  Zn15  1  0.093490  0.251900  0.672600  1.0  1.0919
  Zn  Zn16  1  0.233160  0.563550  0.850400  1.0  1.1358
  P  P17  1  0.399520  0.655260  0.690000  1.0  1.7662
  P  P18  1  0.280310  0.894760  0.173000  1.0  1.6977
  P  P19  1  0.112100  0.706940  0.748800  1.0  1.9249
  P  P20  1  0.600480  0.344740  0.690000  1.0  1.766
  P  P21  1  0.719690  0.105240  0.173000  1.0  1.6979
  P  P22  1  0.887900  0.293060  0.748800  1.0  1.9239
  P  P23  1  0.899520  0.844740  0.190000  1.0  1.7659
  P  P24  1  0.780310  0.605240  0.673000  1.0  1.6974
  P  P25  1  0.612100  0.793060  0.248800  1.0  1.9218
  P  P26  1  0.100480  0.155260  0.190000  1.0  1.7661
  P  P27  1  0.219690  0.394760  0.673000  1.0  1.6979
  P  P28  1  0.387900  0.206940  0.248800  1.0  1.9224
  H  H29  1  0.023700  0.035600  0.468300  1.0  0.2287
  H  H30  1  0.113400  0.944200  0.621700  1.0  0.1227
  H  H31  1  0.044300  0.926900  0.837000  1.0  0.1264
  H  H32  1  0.095100  0.003700  0.838600  1.0  0.121
  H  H33  1  0.976300  0.964400  0.468300  1.0  0.2276
  H  H34  1  0.886600  0.055800  0.621700  1.0  0.1238
  H  H35  1  0.955700  0.073100  0.837000  1.0  0.1254
  H  H36  1  0.904900  0.996300  0.838600  1.0  0.1223
  H  H37  1  0.523700  0.464400  0.968300  1.0  0.2273
  H  H38  1  0.613400  0.555800  0.121700  1.0  0.1228
  H  H39  1  0.544300  0.573100  0.337000  1.0  0.1258
  H  H40  1  0.595100  0.496300  0.338600  1.0  0.1221
  H  H41  1  0.476300  0.535600  0.968300  1.0  0.2296
  H  H42  1  0.386600  0.444200  0.121700  1.0  0.124
  H  H43  1  0.455700  0.426900  0.337000  1.0  0.1262
  H  H44  1  0.404900  0.503700  0.338600  1.0  0.1211
  C  C45  1  0.069300  0.965700  0.731000  1.0  -0.1698
  C  C46  1  0.930700  0.034300  0.731000  1.0  -0.1711
  C  C47  1  0.569300  0.534300  0.231000  1.0  -0.1698
  C  C48  1  0.430700  0.465700  0.231000  1.0  -0.1713
  N  N49  1  0.000000  0.000000  0.570000  1.0  -0.0772
  N  N50  1  0.500000  0.500000  0.070000  1.0  -0.0772
  O  O51  1  0.305000  0.886000  0.888600  1.0  -0.7813
  O  O52  1  0.160100  0.771500  0.604100  1.0  -0.8851
  O  O53  1  0.324300  0.826000  0.322900  1.0  -0.9312
  O  O54  1  0.356500  0.725600  0.831300  1.0  -0.9088
  O  O55  1  0.121200  0.720500  0.035000  1.0  -0.7824
  O  O56  1  0.493800  0.649500  0.784000  1.0  -0.8102
  O  O57  1  0.182500  0.890900  0.213400  1.0  -0.8135
  O  O58  1  0.019700  0.705900  0.646000  1.0  -0.8579
  O  O59  1  0.388900  0.667100  0.398600  1.0  -0.7853
  O  O60  1  0.318200  0.968500  0.278100  1.0  -0.7369
  O  O61  1  0.353800  0.582500  0.770300  1.0  -0.8095
  O  O62  1  0.155700  0.632200  0.676000  1.0  -0.7893
  O  O63  1  0.262100  0.085500  0.729000  1.0  -0.2816
  O  O64  1  0.695000  0.114000  0.888600  1.0  -0.7816
  O  O65  1  0.839900  0.228500  0.604100  1.0  -0.886
  O  O66  1  0.675700  0.174000  0.322900  1.0  -0.932
  O  O67  1  0.643500  0.274400  0.831300  1.0  -0.9097
  O  O68  1  0.878800  0.279500  0.035000  1.0  -0.7811
  O  O69  1  0.506200  0.350500  0.784000  1.0  -0.8102
  O  O70  1  0.817500  0.109100  0.213400  1.0  -0.8154
  O  O71  1  0.980300  0.294100  0.646000  1.0  -0.859
  O  O72  1  0.611100  0.332900  0.398600  1.0  -0.7842
  O  O73  1  0.681800  0.031500  0.278100  1.0  -0.7379
  O  O74  1  0.646200  0.417500  0.770300  1.0  -0.8094
  O  O75  1  0.844300  0.367800  0.676000  1.0  -0.7885
  O  O76  1  0.737900  0.914500  0.729000  1.0  -0.2818
  O  O77  1  0.805000  0.614000  0.388600  1.0  -0.7823
  O  O78  1  0.660100  0.728500  0.104100  1.0  -0.8861
  O  O79  1  0.824300  0.674000  0.822900  1.0  -0.9314
  O  O80  1  0.856500  0.774400  0.331300  1.0  -0.9093
  O  O81  1  0.621200  0.779500  0.535000  1.0  -0.7822
  O  O82  1  0.993800  0.850500  0.284000  1.0  -0.8104
  O  O83  1  0.682500  0.609100  0.713400  1.0  -0.8135
  O  O84  1  0.519700  0.794100  0.146000  1.0  -0.8596
  O  O85  1  0.888900  0.832900  0.898600  1.0  -0.7853
  O  O86  1  0.818200  0.531500  0.778100  1.0  -0.7376
  O  O87  1  0.853800  0.917500  0.270300  1.0  -0.8095
  O  O88  1  0.655700  0.867800  0.176000  1.0  -0.789
  O  O89  1  0.762100  0.414500  0.229000  1.0  -0.2815
  O  O90  1  0.195000  0.386000  0.388600  1.0  -0.7805
  O  O91  1  0.339900  0.271500  0.104100  1.0  -0.8852
  O  O92  1  0.175700  0.326000  0.822900  1.0  -0.9319
  O  O93  1  0.143500  0.225600  0.331300  1.0  -0.9092
  O  O94  1  0.378800  0.220500  0.535000  1.0  -0.7818
  O  O95  1  0.006200  0.149500  0.284000  1.0  -0.8102
  O  O96  1  0.317500  0.390900  0.713400  1.0  -0.8153
  O  O97  1  0.480300  0.205900  0.146000  1.0  -0.8584
  O  O98  1  0.111100  0.167100  0.898600  1.0  -0.7843
  O  O99  1  0.181800  0.468500  0.778100  1.0  -0.7378
  O  O100  1  0.146200  0.082500  0.270300  1.0  -0.8093
  O  O101  1  0.344300  0.132200  0.176000  1.0  -0.7888
  O  O102  1  0.237900  0.585500  0.229000  1.0  -0.2817
