# generated using pymatgen
data_Nd(CO2)4
_symmetry_space_group_name_H-M   'P 1'
_cell_length_a   9.02790000
_cell_length_b   18.13620000
_cell_length_c   8.56310000
_cell_angle_alpha   90.00000000
_cell_angle_beta   102.73500000
_cell_angle_gamma   90.00000000
_symmetry_Int_Tables_number   1
_chemical_formula_structural   Nd(CO2)4
_chemical_formula_sum   'Nd4 C16 O32'
_cell_volume   1367.56139460
_cell_formula_units_Z   4
loop_
 _symmetry_equiv_pos_site_id
 _symmetry_equiv_pos_as_xyz
  1  'x, y, z'
loop_
 _atom_site_type_symbol
 _atom_site_label
 _atom_site_symmetry_multiplicity
 _atom_site_fract_x
 _atom_site_fract_y
 _atom_site_fract_z
 _atom_site_occupancy
 _atom_site_charge
  Nd  Nd1  1  0.268540  0.119240  0.064260  1.0  2.2034
  Nd  Nd2  1  0.731460  0.619240  0.435740  1.0  2.2024
  Nd  Nd3  1  0.731460  0.880770  0.935740  1.0  2.2028
  Nd  Nd4  1  0.268540  0.380770  0.564260  1.0  2.2037
  C  C5  1  0.203600  0.269000  0.253600  1.0  0.6006
  C  C6  1  0.362100  0.243000  0.351200  1.0  0.5598
  C  C7  1  0.524900  0.993000  0.091300  1.0  0.5779
  C  C8  1  0.057400  0.968700  0.997300  1.0  0.6564
  C  C9  1  0.796400  0.769000  0.246400  1.0  0.6015
  C  C10  1  0.637900  0.743000  0.148800  1.0  0.5586
  C  C11  1  0.475100  0.493000  0.408700  1.0  0.5775
  C  C12  1  0.942600  0.468700  0.502700  1.0  0.6569
  C  C13  1  0.796400  0.731000  0.746400  1.0  0.6012
  C  C14  1  0.637900  0.757000  0.648800  1.0  0.5586
  C  C15  1  0.475100  0.007000  0.908700  1.0  0.5777
  C  C16  1  0.942600  0.031300  0.002700  1.0  0.6564
  C  C17  1  0.203600  0.231000  0.753600  1.0  0.5999
  C  C18  1  0.362100  0.257000  0.851200  1.0  0.5594
  C  C19  1  0.524900  0.507000  0.591300  1.0  0.5782
  C  C20  1  0.057400  0.531300  0.497300  1.0  0.6563
  O  O21  1  0.487900  0.040900  0.180600  1.0  -0.5667
  O  O22  1  0.416400  0.186600  0.302700  1.0  -0.5793
  O  O23  1  0.147600  0.325500  0.302800  1.0  -0.607
  O  O24  1  0.143300  0.232400  0.134600  1.0  -0.5722
  O  O25  1  0.420700  0.281400  0.471200  1.0  -0.5682
  O  O26  1  0.189900  0.987100  0.995900  1.0  -0.5492
  O  O27  1  0.009900  0.904000  0.996200  1.0  -0.601
  O  O28  1  0.596900  0.935300  0.135700  1.0  -0.5567
  O  O29  1  0.512100  0.540900  0.319400  1.0  -0.5688
  O  O30  1  0.583600  0.686600  0.197300  1.0  -0.5793
  O  O31  1  0.852400  0.825500  0.197200  1.0  -0.6061
  O  O32  1  0.856700  0.732400  0.365400  1.0  -0.5708
  O  O33  1  0.579300  0.781400  0.028800  1.0  -0.5678
  O  O34  1  0.810100  0.487100  0.504100  1.0  -0.5477
  O  O35  1  0.990100  0.404000  0.503800  1.0  -0.6007
  O  O36  1  0.403100  0.435300  0.364300  1.0  -0.5563
  O  O37  1  0.512100  0.959100  0.819400  1.0  -0.5688
  O  O38  1  0.583600  0.813400  0.697300  1.0  -0.5785
  O  O39  1  0.852400  0.674500  0.697200  1.0  -0.6052
  O  O40  1  0.856700  0.767600  0.865400  1.0  -0.5709
  O  O41  1  0.579300  0.718600  0.528800  1.0  -0.5674
  O  O42  1  0.810100  0.012900  0.004100  1.0  -0.5481
  O  O43  1  0.990100  0.096000  0.003800  1.0  -0.6016
  O  O44  1  0.403100  0.064700  0.864300  1.0  -0.5562
  O  O45  1  0.487900  0.459100  0.680600  1.0  -0.566
  O  O46  1  0.416400  0.313400  0.802700  1.0  -0.5777
  O  O47  1  0.147600  0.174500  0.802800  1.0  -0.6055
  O  O48  1  0.143300  0.267600  0.634600  1.0  -0.5722
  O  O49  1  0.420700  0.218600  0.971200  1.0  -0.5675
  O  O50  1  0.189900  0.512900  0.495900  1.0  -0.5498
  O  O51  1  0.009900  0.596000  0.496200  1.0  -0.6006
  O  O52  1  0.596900  0.564700  0.635700  1.0  -0.5556
