# generated using pymatgen
data_Nd(CO2)4
_symmetry_space_group_name_H-M   'P 1'
_cell_length_a   8.62220000
_cell_length_b   9.56830000
_cell_length_c   9.57120000
_cell_angle_alpha   109.38800000
_cell_angle_beta   98.50800000
_cell_angle_gamma   102.36100000
_symmetry_Int_Tables_number   1
_chemical_formula_structural   Nd(CO2)4
_chemical_formula_sum   'Nd2 C8 O16'
_cell_volume   706.72637403
_cell_formula_units_Z   2
loop_
 _symmetry_equiv_pos_site_id
 _symmetry_equiv_pos_as_xyz
  1  'x, y, z'
loop_
 _atom_site_type_symbol
 _atom_site_label
 _atom_site_symmetry_multiplicity
 _atom_site_fract_x
 _atom_site_fract_y
 _atom_site_fract_z
 _atom_site_occupancy
 _atom_site_charge
  Nd  Nd1  1  0.161400  0.228340  0.349850  1.0  2.2048
  Nd  Nd2  1  0.838600  0.771660  0.650150  1.0  2.2053
  C  C3  1  0.028600  0.069900  0.976700  1.0  0.5775
  C  C4  1  0.082600  0.983600  0.519300  1.0  0.5729
  C  C5  1  0.474900  0.535600  0.442000  1.0  0.5938
  C  C6  1  0.955200  0.487700  0.419500  1.0  0.5824
  C  C7  1  0.971400  0.930100  0.023300  1.0  0.578
  C  C8  1  0.917400  0.016400  0.480700  1.0  0.5744
  C  C9  1  0.525100  0.464400  0.558000  1.0  0.5949
  C  C10  1  0.044800  0.512300  0.580500  1.0  0.583
  O  O11  1  0.097600  0.198900  0.079500  1.0  -0.5765
  O  O12  1  0.203900  0.067800  0.498500  1.0  -0.5681
  O  O13  1  0.344000  0.465100  0.345300  1.0  -0.5703
  O  O14  1  0.982400  0.392000  0.310300  1.0  -0.561
  O  O15  1  0.568500  0.659700  0.456000  1.0  -0.568
  O  O16  1  0.861800  0.572000  0.411800  1.0  -0.5669
  O  O17  1  0.083600  0.878000  0.568000  1.0  -0.5507
  O  O18  1  0.001300  0.040000  0.834700  1.0  -0.5709
  O  O19  1  0.902400  0.801100  0.920500  1.0  -0.5767
  O  O20  1  0.796100  0.932200  0.501500  1.0  -0.5668
  O  O21  1  0.656000  0.534900  0.654700  1.0  -0.5716
  O  O22  1  0.017600  0.608000  0.689700  1.0  -0.5617
  O  O23  1  0.431500  0.340300  0.544000  1.0  -0.5719
  O  O24  1  0.138200  0.428000  0.588200  1.0  -0.564
  O  O25  1  0.916400  0.122000  0.432000  1.0  -0.5509
  O  O26  1  0.998700  0.960000  0.165300  1.0  -0.5709
