# generated using pymatgen
data_Ba2EuH26C30S6N6ClO30
_symmetry_space_group_name_H-M   'P 1'
_cell_length_a   10.48670000
_cell_length_b   23.02600000
_cell_length_c   24.55000000
_cell_angle_alpha   90.00000000
_cell_angle_beta   98.79600000
_cell_angle_gamma   90.00000000
_symmetry_Int_Tables_number   1
_chemical_formula_structural   Ba2EuH26C30S6N6ClO30
_chemical_formula_sum   'Ba8 Eu4 H104 C120 S24 N24 Cl4 O120'
_cell_volume   5858.28985644
_cell_formula_units_Z   4
loop_
 _symmetry_equiv_pos_site_id
 _symmetry_equiv_pos_as_xyz
  1  'x, y, z'
loop_
 _atom_site_type_symbol
 _atom_site_label
 _atom_site_symmetry_multiplicity
 _atom_site_fract_x
 _atom_site_fract_y
 _atom_site_fract_z
 _atom_site_occupancy
 _atom_site_charge
  Ba  Ba1  1  0.055950  0.712090  0.501400  1.0  1.6257
  Ba  Ba2  1  0.234130  0.749290  0.970060  1.0  1.6183
  Ba  Ba3  1  0.444050  0.212090  0.498600  1.0  1.6256
  Ba  Ba4  1  0.265870  0.249290  0.029940  1.0  1.6195
  Ba  Ba5  1  0.944050  0.287910  0.498600  1.0  1.6256
  Ba  Ba6  1  0.765870  0.250710  0.029940  1.0  1.6195
  Ba  Ba7  1  0.555950  0.787910  0.501400  1.0  1.6258
  Ba  Ba8  1  0.734130  0.750710  0.970060  1.0  1.6183
  Eu  Eu9  1  0.834770  0.996120  0.242700  1.0  2.0304
  Eu  Eu10  1  0.665230  0.496120  0.757300  1.0  2.0262
  Eu  Eu11  1  0.165230  0.003880  0.757300  1.0  2.0229
  Eu  Eu12  1  0.334770  0.503880  0.242700  1.0  2.0273
  H  H13  1  0.640600  0.911100  0.258100  1.0  0.3001
  H  H14  1  0.577600  0.951400  0.208000  1.0  0.2427
  H  H15  1  0.797900  0.872800  0.256200  1.0  0.2943
  H  H16  1  0.949700  0.884000  0.272100  1.0  0.3228
  H  H17  1  0.268200  0.870600  0.911300  1.0  0.3007
  H  H18  1  0.237300  0.825200  0.861700  1.0  0.2141
  H  H19  1  0.244500  0.684800  0.089100  1.0  0.2872
  H  H20  1  0.147500  0.738000  0.091800  1.0  0.3789
  H  H21  1  0.139800  0.900900  0.442900  1.0  0.1258
  H  H22  1  0.249900  0.829900  0.307000  1.0  0.1276
  H  H23  1  0.164200  0.911700  0.255400  1.0  0.129
  H  H24  1  0.178500  0.026600  0.452100  1.0  0.1233
  H  H25  1  0.856700  0.122400  0.449000  1.0  0.1199
  H  H26  1  0.752700  0.062200  0.380900  1.0  0.1165
  H  H27  1  0.735700  0.931600  0.014600  1.0  0.1338
  H  H28  1  0.403000  0.919800  0.078300  1.0  0.1245
  H  H29  1  0.488000  0.982400  0.148500  1.0  0.1533
  H  H30  1  0.797500  0.051100  0.006900  1.0  0.1262
  H  H31  1  0.153500  0.095700  0.083500  1.0  0.1304
  H  H32  1  0.123500  0.035600  0.157000  1.0  0.126
  H  H33  1  0.917400  0.230700  0.327000  1.0  0.1319
  H  H34  1  0.266800  0.155900  0.332500  1.0  0.1235
  H  H35  1  0.174000  0.085600  0.270000  1.0  0.1287
  H  H36  1  0.810600  0.246100  0.215400  1.0  0.1295
  H  H37  1  0.459600  0.175300  0.166200  1.0  0.1238
  H  H38  1  0.518800  0.096400  0.222900  1.0  0.1314
  H  H39  1  0.859400  0.411100  0.741900  1.0  0.3
  H  H40  1  0.922400  0.451400  0.792000  1.0  0.2429
  H  H41  1  0.702100  0.372800  0.743800  1.0  0.2951
  H  H42  1  0.550300  0.384000  0.727900  1.0  0.3219
  H  H43  1  0.231800  0.370600  0.088700  1.0  0.2999
  H  H44  1  0.262700  0.325200  0.138300  1.0  0.2151
  H  H45  1  0.255500  0.184800  0.910900  1.0  0.2869
  H  H46  1  0.352500  0.238000  0.908200  1.0  0.3773
  H  H47  1  0.360200  0.400900  0.557100  1.0  0.1266
  H  H48  1  0.250100  0.329900  0.693000  1.0  0.1277
  H  H49  1  0.335800  0.411700  0.744600  1.0  0.1295
  H  H50  1  0.321500  0.526600  0.547900  1.0  0.1242
  H  H51  1  0.643300  0.622400  0.551000  1.0  0.1193
  H  H52  1  0.747300  0.562200  0.619100  1.0  0.1178
  H  H53  1  0.764300  0.431600  0.985400  1.0  0.1346
  H  H54  1  0.097000  0.419800  0.921700  1.0  0.1235
  H  H55  1  0.012000  0.482400  0.851500  1.0  0.1539
  H  H56  1  0.702500  0.551100  0.993100  1.0  0.1263
  H  H57  1  0.346500  0.595700  0.916500  1.0  0.1305
  H  H58  1  0.376500  0.535600  0.843000  1.0  0.1253
  H  H59  1  0.582600  0.730700  0.673000  1.0  0.1322
  H  H60  1  0.233200  0.655900  0.667500  1.0  0.1241
  H  H61  1  0.326000  0.585600  0.730000  1.0  0.1285
  H  H62  1  0.689400  0.746100  0.784600  1.0  0.1295
  H  H63  1  0.040400  0.675300  0.833800  1.0  0.1244
  H  H64  1  0.981200  0.596400  0.777100  1.0  0.1321
  H  H65  1  0.359400  0.088900  0.741900  1.0  0.3006
  H  H66  1  0.422400  0.048600  0.792000  1.0  0.2436
  H  H67  1  0.202100  0.127200  0.743800  1.0  0.2957
  H  H68  1  0.050300  0.116000  0.727900  1.0  0.3224
  H  H69  1  0.731800  0.129400  0.088700  1.0  0.3004
  H  H70  1  0.762700  0.174800  0.138300  1.0  0.215
  H  H71  1  0.755500  0.315200  0.910900  1.0  0.2866
  H  H72  1  0.852500  0.262000  0.908200  1.0  0.3774
  H  H73  1  0.860200  0.099100  0.557100  1.0  0.1268
  H  H74  1  0.750100  0.170100  0.693000  1.0  0.1281
  H  H75  1  0.835800  0.088300  0.744600  1.0  0.1293
  H  H76  1  0.821500  0.973400  0.547900  1.0  0.1244
  H  H77  1  0.143300  0.877600  0.551000  1.0  0.1196
  H  H78  1  0.247300  0.937800  0.619100  1.0  0.1178
  H  H79  1  0.264300  0.068400  0.985400  1.0  0.1344
  H  H80  1  0.597000  0.080200  0.921700  1.0  0.1237
  H  H81  1  0.512000  0.017600  0.851500  1.0  0.154
  H  H82  1  0.202500  0.948900  0.993100  1.0  0.1264
  H  H83  1  0.846500  0.904300  0.916500  1.0  0.131
  H  H84  1  0.876500  0.964400  0.843000  1.0  0.1256
  H  H85  1  0.082600  0.769300  0.673000  1.0  0.1318
  H  H86  1  0.733200  0.844100  0.667500  1.0  0.1239
  H  H87  1  0.826000  0.914400  0.730000  1.0  0.128
  H  H88  1  0.189400  0.753900  0.784600  1.0  0.1295
  H  H89  1  0.540400  0.824700  0.833800  1.0  0.1243
  H  H90  1  0.481200  0.903600  0.777100  1.0  0.132
  H  H91  1  0.140600  0.588900  0.258100  1.0  0.3004
  H  H92  1  0.077600  0.548600  0.208000  1.0  0.2436
  H  H93  1  0.297900  0.627200  0.256200  1.0  0.2947
  H  H94  1  0.449700  0.616000  0.272100  1.0  0.3218
  H  H95  1  0.768200  0.629400  0.911300  1.0  0.3011
  H  H96  1  0.737300  0.674800  0.861700  1.0  0.2141
  H  H97  1  0.744500  0.815200  0.089100  1.0  0.2878
  H  H98  1  0.647500  0.762000  0.091800  1.0  0.3787
  H  H99  1  0.639800  0.599100  0.442900  1.0  0.1257
  H  H100  1  0.749900  0.670100  0.307000  1.0  0.1282
  H  H101  1  0.664200  0.588300  0.255400  1.0  0.1289
  H  H102  1  0.678500  0.473400  0.452100  1.0  0.1233
  H  H103  1  0.356700  0.377600  0.449000  1.0  0.1205
  H  H104  1  0.252700  0.437800  0.380900  1.0  0.1165
  H  H105  1  0.235700  0.568400  0.014600  1.0  0.1341
  H  H106  1  0.903000  0.580200  0.078300  1.0  0.1244
  H  H107  1  0.988000  0.517600  0.148500  1.0  0.1528
  H  H108  1  0.297500  0.448900  0.006900  1.0  0.1257
  H  H109  1  0.653500  0.404300  0.083500  1.0  0.1309
  H  H110  1  0.623500  0.464400  0.157000  1.0  0.1258
  H  H111  1  0.417400  0.269300  0.327000  1.0  0.132
  H  H112  1  0.766800  0.344100  0.332500  1.0  0.1234
  H  H113  1  0.674000  0.414400  0.270000  1.0  0.1286
  H  H114  1  0.310600  0.253900  0.215400  1.0  0.1299
  H  H115  1  0.959600  0.324700  0.166200  1.0  0.1242
  H  H116  1  0.018800  0.403600  0.222900  1.0  0.1314
  C  C117  1  0.092700  0.948200  0.373600  1.0  0.1706
  C  C118  1  0.143900  0.902500  0.404500  1.0  -0.0611
  C  C119  1  0.202200  0.858100  0.379000  1.0  -0.2045
  C  C120  1  0.210000  0.860400  0.324200  1.0  -0.0483
  C  C121  1  0.158200  0.908700  0.293500  1.0  0.0106
  C  C122  1  0.030500  0.998600  0.396500  1.0  0.1365
  C  C123  1  0.091200  0.034100  0.436900  1.0  -0.0462
  C  C124  1  0.027800  0.081200  0.456200  1.0  -0.2009
  C  C125  1  0.901700  0.090900  0.435700  1.0  -0.0653
  C  C126  1  0.840300  0.054900  0.395700  1.0  0.0283
  C  C127  1  0.729500  0.981100  0.082200  1.0  0.1599
  C  C128  1  0.683700  0.942600  0.041400  1.0  -0.0506
  C  C129  1  0.562100  0.919900  0.039300  1.0  -0.2238
  C  C130  1  0.487400  0.935200  0.079500  1.0  -0.0216
  C  C131  1  0.537400  0.972400  0.120600  1.0  0.0095
  C  C132  1  0.849100  0.014200  0.081800  1.0  0.1466
  C  C133  1  0.864700  0.048600  0.037500  1.0  -0.0549
  C  C134  1  0.976800  0.079400  0.037200  1.0  -0.2086
  C  C135  1  0.075300  0.074700  0.082600  1.0  -0.0611
  C  C136  1  0.057400  0.039000  0.126100  1.0  0.0086
  C  C137  1  0.919100  0.161100  0.276800  1.0  0.1465
  C  C138  1  0.971000  0.201800  0.314700  1.0  -0.0382
  C  C139  1  0.102100  0.200600  0.335000  1.0  -0.1955
  C  C140  1  0.177200  0.157400  0.318600  1.0  -0.0527
  C  C141  1  0.122400  0.115800  0.281500  1.0  0.0448
  C  C142  1  0.786400  0.166100  0.247400  1.0  0.1729
  C  C143  1  0.751300  0.215000  0.215900  1.0  -0.1173
  C  C144  1  0.629800  0.218300  0.185100  1.0  -0.0484
  C  C145  1  0.543400  0.173500  0.187300  1.0  -0.0195
  C  C146  1  0.579100  0.126600  0.219900  1.0  0.0044
  C  C147  1  0.407300  0.448200  0.626400  1.0  0.17
  C  C148  1  0.356100  0.402500  0.595500  1.0  -0.0619
  C  C149  1  0.297800  0.358100  0.621000  1.0  -0.206
  C  C150  1  0.290000  0.360400  0.675800  1.0  -0.0477
  C  C151  1  0.341800  0.408700  0.706500  1.0  0.0111
  C  C152  1  0.469500  0.498600  0.603500  1.0  0.1357
  C  C153  1  0.408800  0.534100  0.563100  1.0  -0.0454
  C  C154  1  0.472200  0.581200  0.543800  1.0  -0.2037
  C  C155  1  0.598300  0.590900  0.564300  1.0  -0.065
  C  C156  1  0.659700  0.554900  0.604300  1.0  0.0276
  C  C157  1  0.770500  0.481100  0.917800  1.0  0.1592
  C  C158  1  0.816300  0.442600  0.958600  1.0  -0.0503
  C  C159  1  0.937900  0.419900  0.960700  1.0  -0.2241
  C  C160  1  0.012600  0.435200  0.920500  1.0  -0.0213
  C  C161  1  0.962600  0.472400  0.879400  1.0  0.0098
  C  C162  1  0.650900  0.514200  0.918200  1.0  0.1456
  C  C163  1  0.635300  0.548600  0.962500  1.0  -0.0533
  C  C164  1  0.523200  0.579400  0.962800  1.0  -0.2088
  C  C165  1  0.424700  0.574700  0.917400  1.0  -0.0613
  C  C166  1  0.442600  0.539000  0.873900  1.0  0.007
  C  C167  1  0.580900  0.661100  0.723200  1.0  0.1461
  C  C168  1  0.529000  0.701800  0.685300  1.0  -0.0377
  C  C169  1  0.397900  0.700600  0.665000  1.0  -0.1973
  C  C170  1  0.322800  0.657400  0.681400  1.0  -0.0527
  C  C171  1  0.377600  0.615800  0.718500  1.0  0.045
  C  C172  1  0.713600  0.666100  0.752600  1.0  0.1745
  C  C173  1  0.748700  0.715000  0.784100  1.0  -0.1171
  C  C174  1  0.870200  0.718300  0.814900  1.0  -0.046
  C  C175  1  0.956600  0.673500  0.812700  1.0  -0.0191
  C  C176  1  0.920900  0.626600  0.780100  1.0  0.0039
  C  C177  1  0.907300  0.051800  0.626400  1.0  0.1697
  C  C178  1  0.856100  0.097500  0.595500  1.0  -0.062
  C  C179  1  0.797800  0.141900  0.621000  1.0  -0.2054
  C  C180  1  0.790000  0.139600  0.675800  1.0  -0.0475
  C  C181  1  0.841800  0.091300  0.706500  1.0  0.0112
  C  C182  1  0.969500  0.001400  0.603500  1.0  0.1357
  C  C183  1  0.908800  0.965900  0.563100  1.0  -0.0458
  C  C184  1  0.972200  0.918800  0.543800  1.0  -0.2042
  C  C185  1  0.098300  0.909100  0.564300  1.0  -0.065
  C  C186  1  0.159700  0.945100  0.604300  1.0  0.0275
  C  C187  1  0.270500  0.018900  0.917800  1.0  0.1593
  C  C188  1  0.316300  0.057400  0.958600  1.0  -0.0513
  C  C189  1  0.437900  0.080100  0.960700  1.0  -0.2246
  C  C190  1  0.512600  0.064800  0.920500  1.0  -0.0205
  C  C191  1  0.462600  0.027600  0.879400  1.0  0.0101
  C  C192  1  0.150900  0.985800  0.918200  1.0  0.1459
  C  C193  1  0.135300  0.951400  0.962500  1.0  -0.0532
  C  C194  1  0.023200  0.920600  0.962800  1.0  -0.2089
  C  C195  1  0.924700  0.925300  0.917400  1.0  -0.0616
  C  C196  1  0.942600  0.961000  0.873900  1.0  0.0074
  C  C197  1  0.080900  0.838900  0.723200  1.0  0.1461
  C  C198  1  0.029000  0.798200  0.685300  1.0  -0.0376
  C  C199  1  0.897900  0.799400  0.665000  1.0  -0.1978
  C  C200  1  0.822800  0.842600  0.681400  1.0  -0.0531
  C  C201  1  0.877600  0.884200  0.718500  1.0  0.0449
  C  C202  1  0.213600  0.833900  0.752600  1.0  0.1745
  C  C203  1  0.248700  0.785000  0.784100  1.0  -0.1172
  C  C204  1  0.370200  0.781700  0.814900  1.0  -0.0452
  C  C205  1  0.456600  0.826500  0.812700  1.0  -0.019
  C  C206  1  0.420900  0.873400  0.780100  1.0  0.0034
  C  C207  1  0.592700  0.551800  0.373600  1.0  0.1705
  C  C208  1  0.643900  0.597500  0.404500  1.0  -0.0612
  C  C209  1  0.702200  0.641900  0.379000  1.0  -0.2045
  C  C210  1  0.710000  0.639600  0.324200  1.0  -0.0468
  C  C211  1  0.658200  0.591300  0.293500  1.0  0.0103
  C  C212  1  0.530500  0.501400  0.396500  1.0  0.1364
  C  C213  1  0.591200  0.465900  0.436900  1.0  -0.0465
  C  C214  1  0.527800  0.418800  0.456200  1.0  -0.2006
  C  C215  1  0.401700  0.409100  0.435700  1.0  -0.0653
  C  C216  1  0.340300  0.445100  0.395700  1.0  0.0279
  C  C217  1  0.229500  0.518900  0.082200  1.0  0.1595
  C  C218  1  0.183700  0.557400  0.041400  1.0  -0.0512
  C  C219  1  0.062100  0.580100  0.039300  1.0  -0.224
  C  C220  1  0.987400  0.564800  0.079500  1.0  -0.0218
  C  C221  1  0.037400  0.527600  0.120600  1.0  0.0101
  C  C222  1  0.349100  0.485800  0.081800  1.0  0.147
  C  C223  1  0.364700  0.451400  0.037500  1.0  -0.055
  C  C224  1  0.476800  0.420600  0.037200  1.0  -0.2092
  C  C225  1  0.575300  0.425300  0.082600  1.0  -0.0617
  C  C226  1  0.557400  0.461000  0.126100  1.0  0.008
  C  C227  1  0.419100  0.338900  0.276800  1.0  0.1464
  C  C228  1  0.471000  0.298200  0.314700  1.0  -0.0377
  C  C229  1  0.602100  0.299400  0.335000  1.0  -0.195
  C  C230  1  0.677200  0.342600  0.318600  1.0  -0.053
  C  C231  1  0.622400  0.384200  0.281500  1.0  0.0446
  C  C232  1  0.286400  0.333900  0.247400  1.0  0.1727
  C  C233  1  0.251300  0.285000  0.215900  1.0  -0.1177
  C  C234  1  0.129800  0.281700  0.185100  1.0  -0.0476
  C  C235  1  0.043400  0.326500  0.187300  1.0  -0.0193
  C  C236  1  0.079100  0.373400  0.219900  1.0  0.0031
  S  S237  1  0.256300  0.794340  0.417170  1.0  1.3918
  S  S238  1  0.113900  0.127690  0.507520  1.0  1.374
  S  S239  1  0.499700  0.871880  0.984150  1.0  1.3637
  S  S240  1  0.987800  0.127110  0.980620  1.0  1.3763
  S  S241  1  0.166800  0.257800  0.380170  1.0  1.3747
  S  S242  1  0.595500  0.279190  0.140000  1.0  1.3776
  S  S243  1  0.243700  0.294340  0.582830  1.0  1.3914
  S  S244  1  0.386100  0.627690  0.492480  1.0  1.3714
  S  S245  1  0.000300  0.371880  0.015850  1.0  1.3636
  S  S246  1  0.512200  0.627110  0.019380  1.0  1.3776
  S  S247  1  0.333200  0.757800  0.619830  1.0  1.3736
  S  S248  1  0.904500  0.779190  0.860000  1.0  1.3781
  S  S249  1  0.743700  0.205660  0.582830  1.0  1.3903
  S  S250  1  0.886100  0.872310  0.492480  1.0  1.3707
  S  S251  1  0.500300  0.128120  0.015850  1.0  1.3633
  S  S252  1  0.012200  0.872890  0.019380  1.0  1.3773
  S  S253  1  0.833200  0.742200  0.619830  1.0  1.3734
  S  S254  1  0.404500  0.720810  0.860000  1.0  1.3784
  S  S255  1  0.756300  0.705660  0.417170  1.0  1.3906
  S  S256  1  0.613900  0.372310  0.507520  1.0  1.3742
  S  S257  1  0.999700  0.628120  0.984150  1.0  1.3635
  S  S258  1  0.487800  0.372890  0.980620  1.0  1.3754
  S  S259  1  0.666800  0.242200  0.380170  1.0  1.3753
  S  S260  1  0.095500  0.220810  0.140000  1.0  1.3773
  N  N261  1  0.099600  0.950700  0.319100  1.0  0.2437
  N  N262  1  0.901000  0.009500  0.377100  1.0  0.3189
  N  N263  1  0.657200  0.995200  0.121800  1.0  0.2691
  N  N264  1  0.947300  0.009200  0.125000  1.0  0.3556
  N  N265  1  0.994500  0.118500  0.261700  1.0  0.2734
  N  N266  1  0.700800  0.122900  0.248200  1.0  0.3457
  N  N267  1  0.400400  0.450700  0.680900  1.0  0.2431
  N  N268  1  0.599000  0.509500  0.622900  1.0  0.3205
  N  N269  1  0.842800  0.495200  0.878200  1.0  0.2689
  N  N270  1  0.552700  0.509200  0.875000  1.0  0.3564
  N  N271  1  0.505500  0.618500  0.738300  1.0  0.2739
  N  N272  1  0.799200  0.622900  0.751800  1.0  0.3485
  N  N273  1  0.900400  0.049300  0.680900  1.0  0.2438
  N  N274  1  0.099000  0.990500  0.622900  1.0  0.3197
  N  N275  1  0.342800  0.004800  0.878200  1.0  0.2696
  N  N276  1  0.052700  0.990800  0.875000  1.0  0.3579
  N  N277  1  0.005500  0.881500  0.738300  1.0  0.2735
  N  N278  1  0.299200  0.877100  0.751800  1.0  0.3474
  N  N279  1  0.599600  0.549300  0.319100  1.0  0.2448
  N  N280  1  0.401000  0.490500  0.377100  1.0  0.3187
  N  N281  1  0.157200  0.504800  0.121800  1.0  0.2693
  N  N282  1  0.447300  0.490800  0.125000  1.0  0.3563
  N  N283  1  0.494500  0.381500  0.261700  1.0  0.2732
  N  N284  1  0.200800  0.377100  0.248200  1.0  0.345
  Cl  Cl285  1  0.642900  0.989210  0.765110  1.0  -0.5229
  Cl  Cl286  1  0.857100  0.489210  0.234890  1.0  -0.5222
  Cl  Cl287  1  0.357100  0.010790  0.234890  1.0  -0.5221
  Cl  Cl288  1  0.142900  0.510790  0.765110  1.0  -0.5231
  O  O289  1  0.051000  0.995600  0.288400  1.0  -0.6174
  O  O290  1  0.839500  0.974600  0.338900  1.0  -0.6448
  O  O291  1  0.700900  0.032600  0.161700  1.0  -0.6255
  O  O292  1  0.935200  0.972100  0.164600  1.0  -0.666
  O  O293  1  0.942700  0.081400  0.222700  1.0  -0.6478
  O  O294  1  0.731500  0.076000  0.278700  1.0  -0.6333
  O  O295  1  0.152800  0.753000  0.406900  1.0  -0.6894
  O  O296  1  0.371200  0.776600  0.395800  1.0  -0.6724
  O  O297  1  0.283000  0.811700  0.474500  1.0  -0.7248
  O  O298  1  0.147200  0.091300  0.555800  1.0  -0.637
  O  O299  1  0.225200  0.147300  0.484300  1.0  -0.7264
  O  O300  1  0.023400  0.172800  0.515200  1.0  -0.6809
  O  O301  1  0.406600  0.907300  0.949300  1.0  -0.5595
  O  O302  1  0.441200  0.824000  0.009600  1.0  -0.7034
  O  O303  1  0.609600  0.855200  0.959200  1.0  -0.6766
  O  O304  1  0.110000  0.157000  0.993800  1.0  -0.6915
  O  O305  1  0.876800  0.163900  0.977500  1.0  -0.6573
  O  O306  1  0.983600  0.089100  0.933200  1.0  -0.6213
  O  O307  1  0.297800  0.241100  0.400000  1.0  -0.6458
  O  O308  1  0.155400  0.309400  0.347100  1.0  -0.5687
  O  O309  1  0.087000  0.258200  0.422800  1.0  -0.6433
  O  O310  1  0.524400  0.319000  0.169100  1.0  -0.5801
  O  O311  1  0.522500  0.256100  0.089600  1.0  -0.7629
  O  O312  1  0.720600  0.300900  0.131100  1.0  -0.7005
  O  O313  1  0.627800  0.951200  0.245100  1.0  -0.645
  O  O314  1  0.872700  0.892700  0.245300  1.0  -0.6402
  O  O315  1  0.057400  0.611000  0.422400  1.0  -0.194
  O  O316  1  0.991600  0.623700  0.581400  1.0  -0.2541
  O  O317  1  0.211900  0.838600  0.896300  1.0  -0.6433
  O  O318  1  0.231100  0.726400  0.082100  1.0  -0.6286
  O  O319  1  0.449000  0.495600  0.711600  1.0  -0.6179
  O  O320  1  0.660500  0.474600  0.661100  1.0  -0.6462
  O  O321  1  0.799100  0.532600  0.838300  1.0  -0.6258
  O  O322  1  0.564800  0.472100  0.835400  1.0  -0.665
  O  O323  1  0.557300  0.581400  0.777300  1.0  -0.6491
  O  O324  1  0.768500  0.576000  0.721300  1.0  -0.6356
  O  O325  1  0.347200  0.253000  0.593100  1.0  -0.6883
  O  O326  1  0.128800  0.276600  0.604200  1.0  -0.6695
  O  O327  1  0.217000  0.311700  0.525500  1.0  -0.7229
  O  O328  1  0.352800  0.591300  0.444200  1.0  -0.6347
  O  O329  1  0.274800  0.647300  0.515700  1.0  -0.7288
  O  O330  1  0.476600  0.672800  0.484800  1.0  -0.6812
  O  O331  1  0.093400  0.407300  0.050700  1.0  -0.5589
  O  O332  1  0.058800  0.324000  0.990400  1.0  -0.7044
  O  O333  1  0.890400  0.355200  0.040800  1.0  -0.6759
  O  O334  1  0.390000  0.657000  0.006200  1.0  -0.6909
  O  O335  1  0.623200  0.663900  0.022500  1.0  -0.6579
  O  O336  1  0.516400  0.589100  0.066800  1.0  -0.6201
  O  O337  1  0.202200  0.741100  0.600000  1.0  -0.6462
  O  O338  1  0.344600  0.809400  0.652900  1.0  -0.5668
  O  O339  1  0.413000  0.758200  0.577200  1.0  -0.6428
  O  O340  1  0.975600  0.819000  0.830900  1.0  -0.5794
  O  O341  1  0.977500  0.756100  0.910400  1.0  -0.7654
  O  O342  1  0.779400  0.800900  0.868900  1.0  -0.7028
  O  O343  1  0.872200  0.451200  0.754900  1.0  -0.6447
  O  O344  1  0.627300  0.392700  0.754700  1.0  -0.6387
  O  O345  1  0.442600  0.111000  0.577600  1.0  -0.1947
  O  O346  1  0.508400  0.123700  0.418600  1.0  -0.2548
  O  O347  1  0.288100  0.338600  0.103700  1.0  -0.6436
  O  O348  1  0.268900  0.226400  0.917900  1.0  -0.6305
  O  O349  1  0.949000  0.004400  0.711600  1.0  -0.6176
  O  O350  1  0.160500  0.025400  0.661100  1.0  -0.6447
  O  O351  1  0.299100  0.967400  0.838300  1.0  -0.6256
  O  O352  1  0.064800  0.027900  0.835400  1.0  -0.6667
  O  O353  1  0.057300  0.918600  0.777300  1.0  -0.6495
  O  O354  1  0.268500  0.924000  0.721300  1.0  -0.6348
  O  O355  1  0.847200  0.247000  0.593100  1.0  -0.6863
  O  O356  1  0.628800  0.223400  0.604200  1.0  -0.6685
  O  O357  1  0.717000  0.188300  0.525500  1.0  -0.7228
  O  O358  1  0.852800  0.908700  0.444200  1.0  -0.6352
  O  O359  1  0.774800  0.852700  0.515700  1.0  -0.7287
  O  O360  1  0.976600  0.827200  0.484800  1.0  -0.6818
  O  O361  1  0.593400  0.092700  0.050700  1.0  -0.5588
  O  O362  1  0.558800  0.176000  0.990400  1.0  -0.7043
  O  O363  1  0.390400  0.144800  0.040800  1.0  -0.6757
  O  O364  1  0.890000  0.843000  0.006200  1.0  -0.6905
  O  O365  1  0.123200  0.836100  0.022500  1.0  -0.6566
  O  O366  1  0.016400  0.910900  0.066800  1.0  -0.6201
  O  O367  1  0.702200  0.758900  0.600000  1.0  -0.6461
  O  O368  1  0.844600  0.690600  0.652900  1.0  -0.5668
  O  O369  1  0.913000  0.741800  0.577200  1.0  -0.643
  O  O370  1  0.475600  0.681000  0.830900  1.0  -0.5792
  O  O371  1  0.477500  0.743900  0.910400  1.0  -0.765
  O  O372  1  0.279400  0.699100  0.868900  1.0  -0.7037
  O  O373  1  0.372200  0.048800  0.754900  1.0  -0.646
  O  O374  1  0.127300  0.107300  0.754700  1.0  -0.6378
  O  O375  1  0.942600  0.389000  0.577600  1.0  -0.1944
  O  O376  1  0.008400  0.376300  0.418600  1.0  -0.2552
  O  O377  1  0.788100  0.161400  0.103700  1.0  -0.6437
  O  O378  1  0.768900  0.273600  0.917900  1.0  -0.6308
  O  O379  1  0.551000  0.504400  0.288400  1.0  -0.6177
  O  O380  1  0.339500  0.525400  0.338900  1.0  -0.6445
  O  O381  1  0.200900  0.467400  0.161700  1.0  -0.6258
  O  O382  1  0.435200  0.527900  0.164600  1.0  -0.6661
  O  O383  1  0.442700  0.418600  0.222700  1.0  -0.6469
  O  O384  1  0.231500  0.424000  0.278700  1.0  -0.634
  O  O385  1  0.652800  0.747000  0.406900  1.0  -0.6877
  O  O386  1  0.871200  0.723400  0.395800  1.0  -0.671
  O  O387  1  0.783000  0.688300  0.474500  1.0  -0.7243
  O  O388  1  0.647200  0.408700  0.555800  1.0  -0.6371
  O  O389  1  0.725200  0.352700  0.484300  1.0  -0.727
  O  O390  1  0.523400  0.327200  0.515200  1.0  -0.6815
  O  O391  1  0.906600  0.592700  0.949300  1.0  -0.5592
  O  O392  1  0.941200  0.676000  0.009600  1.0  -0.7041
  O  O393  1  0.109600  0.644800  0.959200  1.0  -0.6758
  O  O394  1  0.610000  0.343000  0.993800  1.0  -0.6907
  O  O395  1  0.376800  0.336100  0.977500  1.0  -0.6572
  O  O396  1  0.483600  0.410900  0.933200  1.0  -0.6199
  O  O397  1  0.797800  0.258900  0.400000  1.0  -0.646
  O  O398  1  0.655400  0.190600  0.347100  1.0  -0.5679
  O  O399  1  0.587000  0.241800  0.422800  1.0  -0.6437
  O  O400  1  0.024400  0.181000  0.169100  1.0  -0.5802
  O  O401  1  0.022500  0.243900  0.089600  1.0  -0.7623
  O  O402  1  0.220600  0.199100  0.131100  1.0  -0.7014
  O  O403  1  0.127800  0.548800  0.245100  1.0  -0.6448
  O  O404  1  0.372700  0.607300  0.245300  1.0  -0.6396
  O  O405  1  0.557400  0.889000  0.422400  1.0  -0.1939
  O  O406  1  0.491600  0.876300  0.581400  1.0  -0.2551
  O  O407  1  0.711900  0.661400  0.896300  1.0  -0.644
  O  O408  1  0.731100  0.773600  0.082100  1.0  -0.6279
