# generated using pymatgen
data_MnH14(C6O)4
_symmetry_space_group_name_H-M   'P 1'
_cell_length_a   13.87830000
_cell_length_b   20.36740000
_cell_length_c   21.03440000
_cell_angle_alpha   62.57200000
_cell_angle_beta   82.48900000
_cell_angle_gamma   73.85000000
_symmetry_Int_Tables_number   1
_chemical_formula_structural   MnH14(C6O)4
_chemical_formula_sum   'Mn6 H84 C144 O24'
_cell_volume   5069.05003606
_cell_formula_units_Z   6
loop_
 _symmetry_equiv_pos_site_id
 _symmetry_equiv_pos_as_xyz
  1  'x, y, z'
loop_
 _atom_site_type_symbol
 _atom_site_label
 _atom_site_symmetry_multiplicity
 _atom_site_fract_x
 _atom_site_fract_y
 _atom_site_fract_z
 _atom_site_occupancy
 _atom_site_charge
  Mn  Mn1  1  0.087360  0.317570  0.339840  1.0  1.1402
  Mn  Mn2  1  0.314240  0.291900  0.423290  1.0  1.0705
  Mn  Mn3  1  0.876940  0.249080  0.441510  1.0  1.1331
  Mn  Mn4  1  0.912640  0.682430  0.660160  1.0  1.1406
  Mn  Mn5  1  0.685760  0.708100  0.576710  1.0  1.0714
  Mn  Mn6  1  0.123060  0.750920  0.558490  1.0  1.1327
  H  H7  1  0.325400  0.097300  0.186900  1.0  0.0808
  H  H8  1  0.042500  0.065500  0.701400  1.0  0.094
  H  H9  1  0.284100  0.870400  0.929300  1.0  0.1264
  H  H10  1  0.630900  0.142800  0.932200  1.0  0.1298
  H  H11  1  0.204000  0.926400  0.869400  1.0  0.1179
  H  H12  1  0.789300  0.120000  0.595400  1.0  0.1018
  H  H13  1  0.097200  0.541500  0.174600  1.0  0.1009
  H  H14  1  0.663800  0.842200  0.962100  1.0  0.1268
  H  H15  1  0.187200  0.267800  0.568200  1.0  0.0982
  H  H16  1  0.068000  0.165200  0.963800  1.0  0.1137
  H  H17  1  0.316200  0.524500  0.291700  1.0  0.1068
  H  H18  1  0.201400  0.208000  0.692600  1.0  0.0987
  H  H19  1  0.008300  0.161200  0.907800  1.0  0.1244
  H  H20  1  0.629200  0.617500  0.211100  1.0  0.1102
  H  H21  1  0.032900  0.123000  0.579000  1.0  0.1039
  H  H22  1  0.960800  0.527900  0.284400  1.0  0.0949
  H  H23  1  0.691300  0.490100  0.285300  1.0  0.0958
  H  H24  1  0.875700  0.141700  0.298200  1.0  0.1012
  H  H25  1  0.914900  0.077700  0.227500  1.0  0.0933
  H  H26  1  0.179300  0.853500  0.933500  1.0  0.1267
  H  H27  1  0.057500  0.275100  0.178200  1.0  0.0974
  H  H28  1  0.484100  0.206400  0.277600  1.0  0.0978
  H  H29  1  0.187800  0.868900  0.175800  1.0  0.1238
  H  H30  1  0.546400  0.146400  0.988700  1.0  0.1126
  H  H31  1  0.785300  0.027700  0.726400  1.0  0.1042
  H  H32  1  0.523500  0.138400  0.921900  1.0  0.1213
  H  H33  1  0.237100  0.151400  0.259200  1.0  0.1071
  H  H34  1  0.098700  0.664900  0.100200  1.0  0.1033
  H  H35  1  0.120600  0.165700  0.893000  1.0  0.1142
  H  H36  1  0.651100  0.909800  0.214300  1.0  0.1371
  H  H37  1  0.640900  0.835200  0.214000  1.0  0.1149
  H  H38  1  0.318100  0.649900  0.216500  1.0  0.1048
  H  H39  1  0.094700  0.214300  0.106200  1.0  0.108
  H  H40  1  0.077800  0.866100  0.169600  1.0  0.1157
  H  H41  1  0.545000  0.900600  0.207400  1.0  0.1142
  H  H42  1  0.558900  0.270000  0.620700  1.0  0.1119
  H  H43  1  0.097100  0.934900  0.176300  1.0  0.1078
  H  H44  1  0.554500  0.193300  0.741200  1.0  0.0901
  H  H45  1  0.769700  0.820600  0.995000  1.0  0.1195
  H  H46  1  0.901000  0.654300  0.210300  1.0  0.1026
  H  H47  1  0.740800  0.891600  0.920600  1.0  0.1087
  H  H48  1  0.572200  0.149100  0.206500  1.0  0.1052
  H  H49  1  0.905300  0.785700  0.893800  1.0  0.1081
  H  H50  1  0.967100  0.877000  0.421000  1.0  0.1044
  H  H51  1  0.085100  0.922300  0.772500  1.0  0.0925
  H  H52  1  0.230300  0.179400  0.005000  1.0  0.1196
  H  H53  1  0.674600  0.902700  0.813100  1.0  0.0805
  H  H54  1  0.445500  0.806700  0.258800  1.0  0.0905
  H  H55  1  0.336200  0.157800  0.037900  1.0  0.1269
  H  H56  1  0.820700  0.146500  0.066500  1.0  0.1276
  H  H57  1  0.308700  0.509900  0.714700  1.0  0.0965
  H  H58  1  0.762900  0.848600  0.740800  1.0  0.1073
  H  H59  1  0.259200  0.108400  0.079400  1.0  0.1095
  H  H60  1  0.902800  0.458500  0.825400  1.0  0.1015
  H  H61  1  0.812200  0.131100  0.824200  1.0  0.1233
  H  H62  1  0.798600  0.792000  0.307400  1.0  0.0989
  H  H63  1  0.369100  0.857200  0.067800  1.0  0.1274
  H  H64  1  0.099000  0.345700  0.789700  1.0  0.103
  H  H65  1  0.348900  0.090200  0.785700  1.0  0.1368
  H  H66  1  0.453600  0.853600  0.011300  1.0  0.1138
  H  H67  1  0.214700  0.972300  0.273600  1.0  0.1045
  H  H68  1  0.441100  0.730000  0.379300  1.0  0.1117
  H  H69  1  0.942500  0.724900  0.821800  1.0  0.0967
  H  H70  1  0.124300  0.858300  0.701800  1.0  0.1012
  H  H71  1  0.359100  0.164800  0.786000  1.0  0.1127
  H  H72  1  0.796000  0.073600  0.130600  1.0  0.1174
  H  H73  1  0.427800  0.850900  0.793500  1.0  0.1071
  H  H74  1  0.039200  0.472100  0.715600  1.0  0.0952
  H  H75  1  0.922200  0.133900  0.830400  1.0  0.1158
  H  H76  1  0.901300  0.335100  0.899800  1.0  0.1035
  H  H77  1  0.715900  0.129600  0.070700  1.0  0.1259
  H  H78  1  0.515900  0.793600  0.722400  1.0  0.0976
  H  H79  1  0.991700  0.838800  0.092200  1.0  0.1232
  H  H80  1  0.683800  0.475500  0.708300  1.0  0.1063
  H  H81  1  0.902900  0.065100  0.823700  1.0  0.1068
  H  H82  1  0.455000  0.099400  0.792600  1.0  0.1126
  H  H83  1  0.932000  0.834800  0.036200  1.0  0.1132
  H  H84  1  0.476500  0.861600  0.078100  1.0  0.1214
  H  H85  1  0.957500  0.934500  0.298600  1.0  0.0941
  H  H86  1  0.879400  0.834300  0.107000  1.0  0.1135
  H  H87  1  0.681900  0.350100  0.783500  1.0  0.1053
  H  H88  1  0.812800  0.732200  0.431800  1.0  0.0974
  H  H89  1  0.210700  0.880000  0.404600  1.0  0.1021
  H  H90  1  0.370800  0.382500  0.788900  1.0  0.11
  C  C91  1  0.965800  0.213400  0.246800  1.0  -0.149
  C  C92  1  0.126800  0.127500  0.711400  1.0  -0.0192
  C  C93  1  0.733000  0.523300  0.270600  1.0  -0.0486
  C  C94  1  0.141900  0.563200  0.183000  1.0  -0.0299
  C  C95  1  0.600700  0.175600  0.712900  1.0  -0.0953
  C  C96  1  0.172500  0.938200  0.961700  1.0  0.0721
  C  C97  1  0.573500  0.124300  0.956500  1.0  -0.411
  C  C98  1  0.142600  0.636800  0.138800  1.0  -0.0891
  C  C99  1  0.601500  0.221400  0.641200  1.0  -0.1445
  C  C100  1  0.101300  0.020000  0.041200  1.0  -0.1514
  C  C101  1  0.208900  0.671500  0.150400  1.0  0.0429
  C  C102  1  0.739500  0.130600  0.625800  1.0  -0.0987
  C  C103  1  0.509600  0.082400  0.145900  1.0  0.0437
  C  C104  1  0.644900  0.992300  0.963900  1.0  0.0531
  C  C105  1  0.304100  0.152000  0.248300  1.0  -0.0663
  C  C106  1  0.073500  0.105100  0.674900  1.0  -0.0982
  C  C107  1  0.858600  0.621500  0.225100  1.0  -0.1692
  C  C108  1  0.009200  0.140200  0.158800  1.0  -0.0591
  C  C109  1  0.357700  0.119300  0.205200  1.0  -0.1348
  C  C110  1  0.106000  0.060400  0.966000  1.0  0.039
  C  C111  1  0.873000  0.411100  0.346300  1.0  0.7353
  C  C112  1  0.664700  0.879900  0.078500  1.0  -0.0346
  C  C113  1  0.549000  0.049200  0.110100  1.0  0.0655
  C  C114  1  0.168200  0.190400  0.670300  1.0  -0.0755
  C  C115  1  0.204500  0.750700  0.107000  1.0  -0.0175
  C  C116  1  0.625400  0.925500  0.114000  1.0  0.0511
  C  C117  1  0.352300  0.186000  0.275200  1.0  -0.1489
  C  C118  1  0.739500  0.075100  0.707100  1.0  -0.0936
  C  C119  1  0.051300  0.198900  0.144900  1.0  -0.1447
  C  C120  1  0.665800  0.193600  0.601600  1.0  -0.1179
  C  C121  1  0.604100  0.038900  0.998100  1.0  0.0135
  C  C122  1  0.504600  0.150200  0.216400  1.0  -0.1364
  C  C123  1  0.066200  0.140200  0.601600  1.0  -0.0726
  C  C124  1  0.122200  0.899000  0.156800  1.0  -0.3995
  C  C125  1  0.656500  0.027200  0.887700  1.0  0.0793
  C  C126  1  0.456800  0.118400  0.189000  1.0  -0.0146
  C  C127  1  0.920800  0.155400  0.260400  1.0  -0.062
  C  C128  1  0.695900  0.599200  0.225700  1.0  -0.1269
  C  C129  1  0.191800  0.819000  0.072600  1.0  0.0387
  C  C130  1  0.063700  0.062900  0.083000  1.0  0.1037
  C  C131  1  0.951900  0.248800  0.298000  1.0  0.7246
  C  C132  1  0.760900  0.649800  0.201500  1.0  0.0096
  C  C133  1  0.140100  0.017400  0.927300  1.0  -0.0123
  C  C134  1  0.721800  0.730000  0.156100  1.0  -0.0382
  C  C135  1  0.292200  0.224300  0.320800  1.0  0.7556
  C  C136  1  0.100600  0.240100  0.481900  1.0  0.6734
  C  C137  1  0.943300  0.117700  0.217500  1.0  -0.0958
  C  C138  1  0.164300  0.901100  0.036500  1.0  0.0503
  C  C139  1  0.159100  0.226600  0.595400  1.0  -0.068
  C  C140  1  0.108300  0.201100  0.561600  1.0  -0.1543
  C  C141  1  0.451400  0.184500  0.259500  1.0  -0.051
  C  C142  1  0.831800  0.495000  0.294700  1.0  -0.1132
  C  C143  1  0.072800  0.145800  0.929400  1.0  -0.3924
  C  C144  1  0.029100  0.235000  0.188400  1.0  -0.036
  C  C145  1  0.660800  0.246400  0.515900  1.0  0.6664
  C  C146  1  0.670500  0.098300  0.748300  1.0  -0.0315
  C  C147  1  0.614600  0.889400  0.194800  1.0  -0.4026
  C  C148  1  0.272700  0.553100  0.252900  1.0  -0.0602
  C  C149  1  0.213700  0.893000  0.919600  1.0  -0.4058
  C  C150  1  0.663300  0.058200  0.824400  1.0  -0.0108
  C  C151  1  0.273500  0.628200  0.207900  1.0  -0.1192
  C  C152  1  0.206800  0.438000  0.289800  1.0  0.7168
  C  C153  1  0.716000  0.862100  0.967100  1.0  -0.3872
  C  C154  1  0.894100  0.546000  0.269900  1.0  -0.0575
  C  C155  1  0.140100  0.057200  0.850500  1.0  0.0872
  C  C156  1  0.695400  0.798300  0.119900  1.0  0.1038
  C  C157  1  0.135900  0.088600  0.788100  1.0  0.0972
  C  C158  1  0.593000  0.003800  0.074500  1.0  -0.0398
  C  C159  1  0.038300  0.097200  0.116300  1.0  0.0982
  C  C160  1  0.206400  0.520400  0.239800  1.0  -0.1577
  C  C161  1  0.674500  0.912200  0.004300  1.0  0.0076
  C  C162  1  0.128500  0.941400  0.076200  1.0  0.0517
  C  C163  1  0.864100  0.911400  0.211900  1.0  0.0968
  C  C164  1  0.898700  0.980000  0.958800  1.0  -0.1528
  C  C165  1  0.336700  0.941800  0.175600  1.0  -0.0094
  C  C166  1  0.304100  0.400800  0.774300  1.0  -0.1275
  C  C167  1  0.791100  0.328500  0.849600  1.0  0.0417
  C  C168  1  0.325500  0.087800  0.995700  1.0  0.0081
  C  C169  1  0.786300  0.107000  0.080400  1.0  -0.4102
  C  C170  1  0.793600  0.479600  0.760200  1.0  -0.1578
  C  C171  1  0.239100  0.350200  0.798500  1.0  0.0079
  C  C172  1  0.835700  0.098900  0.963500  1.0  0.0507
  C  C173  1  0.543200  0.881600  0.811000  1.0  -0.0158
  C  C174  1  0.168200  0.505000  0.705300  1.0  -0.1119
  C  C175  1  0.329500  0.901700  0.251700  1.0  -0.0231
  C  C176  1  0.899400  0.759900  0.518100  1.0  0.6709
  C  C177  1  0.926500  0.894900  0.325100  1.0  -0.0988
  C  C178  1  0.927200  0.854200  0.070600  1.0  -0.3923
  C  C179  1  0.034200  0.786600  0.753200  1.0  -0.1507
  C  C180  1  0.894000  0.939600  0.034000  1.0  0.0401
  C  C181  1  0.873200  0.872500  0.288600  1.0  -0.0186
  C  C182  1  0.793200  0.562000  0.710200  1.0  0.7171
  C  C183  1  0.278200  0.270000  0.843900  1.0  -0.0374
  C  C184  1  0.695900  0.848000  0.751700  1.0  -0.0659
  C  C185  1  0.877800  0.101000  0.843200  1.0  -0.3972
  C  C186  1  0.495400  0.849800  0.783600  1.0  -0.136
  C  C187  1  0.548600  0.815500  0.740500  1.0  -0.0503
  C  C188  1  0.871500  0.058600  0.923800  1.0  0.0512
  C  C189  1  0.267000  0.476700  0.729400  1.0  -0.0489
  C  C190  1  0.355100  0.007700  0.036100  1.0  0.0526
  C  C191  1  0.127000  0.588900  0.653700  1.0  0.7367
  C  C192  1  0.642300  0.880700  0.794800  1.0  -0.1352
  C  C193  1  0.808200  0.181000  0.927400  1.0  0.0403
  C  C194  1  0.795500  0.249300  0.893000  1.0  -0.0161
  C  C195  1  0.933800  0.859800  0.398400  1.0  -0.0741
  C  C196  1  0.970900  0.765000  0.811600  1.0  -0.0374
  C  C197  1  0.831800  0.809600  0.329700  1.0  -0.0783
  C  C198  1  0.260500  0.869400  0.374200  1.0  -0.1024
  C  C199  1  0.339200  0.753600  0.484100  1.0  0.6661
  C  C200  1  0.284000  0.137900  0.032900  1.0  -0.3871
  C  C201  1  0.056700  0.882300  0.782500  1.0  -0.099
  C  C202  1  0.260500  0.924900  0.292900  1.0  -0.0917
  C  C203  1  0.048100  0.751200  0.702000  1.0  0.7231
  C  C204  1  0.990800  0.859800  0.841200  1.0  -0.0496
  C  C205  1  0.827500  0.061800  0.038300  1.0  0.0711
  C  C206  1  0.141400  0.378500  0.774900  1.0  -0.1714
  C  C207  1  0.859900  0.942800  0.149500  1.0  0.0858
  C  C208  1  0.343500  0.972800  0.112300  1.0  0.0785
  C  C209  1  0.490400  0.917600  0.854100  1.0  0.0473
  C  C210  1  0.399300  0.824400  0.287100  1.0  -0.0965
  C  C211  1  0.647700  0.814000  0.724800  1.0  -0.1483
  C  C212  1  0.407000  0.996200  0.925500  1.0  -0.0404
  C  C213  1  0.335300  0.120100  0.921500  1.0  -0.0343
  C  C214  1  0.374600  0.074500  0.886000  1.0  0.0498
  C  C215  1  0.334200  0.806400  0.398400  1.0  -0.1183
  C  C216  1  0.395900  0.961100  0.001900  1.0  0.0142
  C  C217  1  0.426500  0.875700  0.043500  1.0  -0.412
  C  C218  1  0.859900  0.982600  0.072700  1.0  -0.0124
  C  C219  1  0.079200  0.844600  0.739600  1.0  -0.0617
  C  C220  1  0.304600  0.201700  0.880100  1.0  0.1079
  C  C221  1  0.398500  0.778600  0.358800  1.0  -0.145
  C  C222  1  0.385400  0.110600  0.805200  1.0  -0.4003
  C  C223  1  0.948700  0.801100  0.855100  1.0  -0.1465
  C  C224  1  0.105900  0.454000  0.730100  1.0  -0.0567
  C  C225  1  0.727300  0.446900  0.747100  1.0  -0.0604
  C  C226  1  0.936300  0.937100  0.917000  1.0  0.1019
  C  C227  1  0.840900  0.773400  0.404600  1.0  -0.0686
  C  C228  1  0.726500  0.371800  0.792100  1.0  -0.1221
  C  C229  1  0.857400  0.363200  0.861200  1.0  -0.0885
  C  C230  1  0.707800  0.775700  0.679200  1.0  0.7521
  C  C231  1  0.451000  0.950800  0.889900  1.0  0.0649
  C  C232  1  0.961700  0.902800  0.883700  1.0  0.0971
  C  C233  1  0.858100  0.436800  0.817000  1.0  -0.0304
  C  C234  1  0.891700  0.798900  0.438400  1.0  -0.1539
  O  O235  1  0.813400  0.368900  0.370100  1.0  -0.5815
  O  O236  1  0.201200  0.232500  0.324600  1.0  -0.6003
  O  O237  1  0.149800  0.409800  0.274200  1.0  -0.6045
  O  O238  1  0.042400  0.226600  0.451200  1.0  -0.6668
  O  O239  1  0.342300  0.244200  0.350400  1.0  -0.6477
  O  O240  1  0.582300  0.302200  0.494600  1.0  -0.5132
  O  O241  1  0.725800  0.230600  0.478700  1.0  -0.6251
  O  O242  1  0.900600  0.221700  0.353400  1.0  -0.6168
  O  O243  1  0.155700  0.286700  0.445800  1.0  -0.6636
  O  O244  1  0.262300  0.405400  0.343200  1.0  -0.6503
  O  O245  1  0.990300  0.304200  0.280200  1.0  -0.6437
  O  O246  1  0.962800  0.392100  0.363700  1.0  -0.6347
  O  O247  1  0.657700  0.755800  0.649600  1.0  -0.6439
  O  O248  1  0.274200  0.769400  0.521300  1.0  -0.6231
  O  O249  1  0.099400  0.778300  0.646600  1.0  -0.6175
  O  O250  1  0.037200  0.607900  0.636300  1.0  -0.6329
  O  O251  1  0.737700  0.594600  0.656800  1.0  -0.6472
  O  O252  1  0.844300  0.713300  0.554200  1.0  -0.6647
  O  O253  1  0.957600  0.773400  0.548800  1.0  -0.6655
  O  O254  1  0.417700  0.697800  0.505400  1.0  -0.5141
  O  O255  1  0.850200  0.590200  0.725800  1.0  -0.6049
  O  O256  1  0.009700  0.695800  0.719800  1.0  -0.6425
  O  O257  1  0.186600  0.631100  0.629900  1.0  -0.5842
  O  O258  1  0.798800  0.767500  0.675400  1.0  -0.6001
