# generated using pymatgen
data_NaLaH4C14O11
_symmetry_space_group_name_H-M   'P 1'
_cell_length_a   6.44670000
_cell_length_b   16.64850000
_cell_length_c   21.69740000
_cell_angle_alpha   90.00000000
_cell_angle_beta   90.00000000
_cell_angle_gamma   91.28300000
_symmetry_Int_Tables_number   1
_chemical_formula_structural   NaLaH4C14O11
_chemical_formula_sum   'Na4 La4 H16 C56 O44'
_cell_volume   2328.15222930
_cell_formula_units_Z   4
loop_
 _symmetry_equiv_pos_site_id
 _symmetry_equiv_pos_as_xyz
  1  'x, y, z'
loop_
 _atom_site_type_symbol
 _atom_site_label
 _atom_site_symmetry_multiplicity
 _atom_site_fract_x
 _atom_site_fract_y
 _atom_site_fract_z
 _atom_site_occupancy
 _atom_site_charge
  Na  Na1  1  0.611700  0.538040  0.925830  1.0  0.9842
  Na  Na2  1  0.388300  0.961960  0.425830  1.0  0.9861
  Na  Na3  1  0.388300  0.461960  0.074170  1.0  0.9858
  Na  Na4  1  0.611700  0.038040  0.574170  1.0  0.9832
  La  La5  1  0.562460  0.780690  0.922270  1.0  2.1169
  La  La6  1  0.437540  0.719310  0.422270  1.0  2.117
  La  La7  1  0.437540  0.219310  0.077730  1.0  2.1169
  La  La8  1  0.562460  0.280690  0.577730  1.0  2.1168
  H  H9  1  0.543500  0.645000  0.707200  1.0  0.1388
  H  H10  1  0.597000  0.646400  0.601300  1.0  0.1358
  H  H11  1  0.403400  0.846700  0.745400  1.0  0.1333
  H  H12  1  0.457600  0.846300  0.639900  1.0  0.1365
  H  H13  1  0.456500  0.855000  0.207200  1.0  0.1382
  H  H14  1  0.403000  0.853600  0.101300  1.0  0.1387
  H  H15  1  0.596600  0.653300  0.245400  1.0  0.1326
  H  H16  1  0.542400  0.653700  0.139900  1.0  0.1363
  H  H17  1  0.456500  0.355000  0.292800  1.0  0.1386
  H  H18  1  0.403000  0.353600  0.398700  1.0  0.138
  H  H19  1  0.596600  0.153300  0.254600  1.0  0.1315
  H  H20  1  0.542400  0.153700  0.360100  1.0  0.1361
  H  H21  1  0.543500  0.145000  0.792800  1.0  0.1389
  H  H22  1  0.597000  0.146400  0.898700  1.0  0.1375
  H  H23  1  0.403400  0.346700  0.754600  1.0  0.1338
  H  H24  1  0.457600  0.346300  0.860100  1.0  0.1363
  C  C25  1  0.794100  0.712880  0.729820  1.0  -0.0335
  C  C26  1  0.657400  0.672900  0.690910  1.0  -0.1014
  C  C27  1  0.689400  0.674000  0.626990  1.0  -0.0949
  C  C28  1  0.854600  0.715160  0.602070  1.0  -0.0104
  C  C29  1  0.018500  0.745620  0.641470  1.0  0.0655
  C  C30  1  0.986700  0.744450  0.706260  1.0  0.0686
  C  C31  1  0.148900  0.776000  0.745680  1.0  -0.0218
  C  C32  1  0.312200  0.817870  0.720040  1.0  -0.0858
  C  C33  1  0.344400  0.818100  0.656250  1.0  -0.113
  C  C34  1  0.211300  0.777190  0.617630  1.0  -0.0089
  C  C35  1  0.714500  0.734250  0.792490  1.0  0.7026
  C  C36  1  0.835700  0.740820  0.535820  1.0  0.7362
  C  C37  1  0.166800  0.752140  0.812520  1.0  0.7266
  C  C38  1  0.290200  0.756700  0.554430  1.0  0.7118
  C  C39  1  0.205900  0.787120  0.229820  1.0  -0.0324
  C  C40  1  0.342600  0.827100  0.190910  1.0  -0.104
  C  C41  1  0.310600  0.826000  0.126990  1.0  -0.0971
  C  C42  1  0.145400  0.784840  0.102070  1.0  -0.011
  C  C43  1  0.981500  0.754380  0.141470  1.0  0.0652
  C  C44  1  0.013300  0.755550  0.206260  1.0  0.0686
  C  C45  1  0.851100  0.724000  0.245680  1.0  -0.021
  C  C46  1  0.687800  0.682130  0.220040  1.0  -0.0827
  C  C47  1  0.655600  0.681900  0.156250  1.0  -0.1116
  C  C48  1  0.788700  0.722810  0.117630  1.0  -0.0094
  C  C49  1  0.285500  0.765750  0.292490  1.0  0.703
  C  C50  1  0.164300  0.759180  0.035820  1.0  0.7355
  C  C51  1  0.833200  0.747860  0.312520  1.0  0.7277
  C  C52  1  0.709800  0.743300  0.054430  1.0  0.7115
  C  C53  1  0.205900  0.287120  0.270180  1.0  -0.0337
  C  C54  1  0.342600  0.327100  0.309090  1.0  -0.1051
  C  C55  1  0.310600  0.326000  0.373010  1.0  -0.098
  C  C56  1  0.145400  0.284840  0.397930  1.0  -0.0109
  C  C57  1  0.981500  0.254380  0.358530  1.0  0.0651
  C  C58  1  0.013300  0.255550  0.293740  1.0  0.0682
  C  C59  1  0.851100  0.224000  0.254320  1.0  -0.0216
  C  C60  1  0.687800  0.182130  0.279960  1.0  -0.0847
  C  C61  1  0.655600  0.181900  0.343750  1.0  -0.1113
  C  C62  1  0.788700  0.222810  0.382370  1.0  -0.0087
  C  C63  1  0.285500  0.265750  0.207510  1.0  0.7034
  C  C64  1  0.164300  0.259180  0.464180  1.0  0.7341
  C  C65  1  0.833200  0.247860  0.187480  1.0  0.7307
  C  C66  1  0.709800  0.243300  0.445570  1.0  0.7105
  C  C67  1  0.794100  0.212880  0.770180  1.0  -0.0347
  C  C68  1  0.657400  0.172900  0.809090  1.0  -0.1019
  C  C69  1  0.689400  0.174000  0.873010  1.0  -0.0963
  C  C70  1  0.854600  0.215160  0.897930  1.0  -0.0116
  C  C71  1  0.018500  0.245620  0.858530  1.0  0.0655
  C  C72  1  0.986700  0.244450  0.793740  1.0  0.0681
  C  C73  1  0.148900  0.276000  0.754320  1.0  -0.0225
  C  C74  1  0.312200  0.317870  0.779960  1.0  -0.0846
  C  C75  1  0.344400  0.318100  0.843750  1.0  -0.1109
  C  C76  1  0.211300  0.277190  0.882370  1.0  -0.0085
  C  C77  1  0.714500  0.234250  0.707510  1.0  0.7031
  C  C78  1  0.835700  0.240820  0.964180  1.0  0.7344
  C  C79  1  0.166800  0.252140  0.687480  1.0  0.7297
  C  C80  1  0.290200  0.256700  0.945570  1.0  0.7115
  O  O81  1  0.594500  0.685790  0.820680  1.0  -0.5975
  O  O82  1  0.755900  0.803020  0.814120  1.0  -0.6097
  O  O83  1  0.101900  0.681850  0.826130  1.0  -0.5191
  O  O84  1  0.256900  0.799560  0.849430  1.0  -0.6414
  O  O85  1  0.406500  0.806770  0.526630  1.0  -0.6054
  O  O86  1  0.248300  0.688180  0.532080  1.0  -0.6443
  O  O87  1  0.898500  0.810760  0.522140  1.0  -0.5136
  O  O88  1  0.744300  0.693580  0.497900  1.0  -0.6265
  O  O89  1  0.354500  0.645110  0.924820  1.0  -0.4915
  O  O90  1  0.838700  0.667000  0.923870  1.0  -0.4398
  O  O91  1  0.312200  0.463370  0.963300  1.0  -0.495
  O  O92  1  0.405500  0.814210  0.320680  1.0  -0.6031
  O  O93  1  0.244100  0.696980  0.314120  1.0  -0.6094
  O  O94  1  0.898100  0.818150  0.326130  1.0  -0.5174
  O  O95  1  0.743100  0.700440  0.349430  1.0  -0.6413
  O  O96  1  0.593500  0.693230  0.026630  1.0  -0.6029
  O  O97  1  0.751700  0.811820  0.032080  1.0  -0.6455
  O  O98  1  0.101500  0.689240  0.022140  1.0  -0.5176
  O  O99  1  0.255700  0.806420  0.997900  1.0  -0.6279
  O  O100  1  0.645500  0.854890  0.424820  1.0  -0.4904
  O  O101  1  0.161300  0.833000  0.423870  1.0  -0.4415
  O  O102  1  0.687800  0.036630  0.463300  1.0  -0.4926
  O  O103  1  0.405500  0.314210  0.179320  1.0  -0.6042
  O  O104  1  0.244100  0.196980  0.185880  1.0  -0.6106
  O  O105  1  0.898100  0.318150  0.173870  1.0  -0.5172
  O  O106  1  0.743100  0.200440  0.150570  1.0  -0.6423
  O  O107  1  0.593500  0.193230  0.473370  1.0  -0.6025
  O  O108  1  0.751700  0.311820  0.467920  1.0  -0.6441
  O  O109  1  0.101500  0.189240  0.477860  1.0  -0.517
  O  O110  1  0.255700  0.306420  0.502100  1.0  -0.6267
  O  O111  1  0.645500  0.354890  0.075180  1.0  -0.4908
  O  O112  1  0.161300  0.333000  0.076130  1.0  -0.4418
  O  O113  1  0.687800  0.536630  0.036700  1.0  -0.4928
  O  O114  1  0.594500  0.185790  0.679320  1.0  -0.5987
  O  O115  1  0.755900  0.303020  0.685880  1.0  -0.6102
  O  O116  1  0.101900  0.181850  0.673870  1.0  -0.519
  O  O117  1  0.256900  0.299560  0.650570  1.0  -0.6419
  O  O118  1  0.406500  0.306770  0.973370  1.0  -0.6058
  O  O119  1  0.248300  0.188180  0.967920  1.0  -0.6428
  O  O120  1  0.898500  0.310760  0.977860  1.0  -0.5152
  O  O121  1  0.744300  0.193580  0.002100  1.0  -0.6272
  O  O122  1  0.354500  0.145110  0.575180  1.0  -0.4918
  O  O123  1  0.838700  0.167000  0.576130  1.0  -0.4398
  O  O124  1  0.312200  0.963370  0.536700  1.0  -0.4952
