# generated using pymatgen
data_MnH24C22(NO)4
_symmetry_space_group_name_H-M   'P 1'
_cell_length_a   5.50100000
_cell_length_b   22.29700000
_cell_length_c   20.79900000
_cell_angle_alpha   97.54300000
_cell_angle_beta   90.00000000
_cell_angle_gamma   90.00000000
_symmetry_Int_Tables_number   1
_chemical_formula_structural   MnH24C22(NO)4
_chemical_formula_sum   'Mn4 H96 C88 N16 O16'
_cell_volume   2529.04213759
_cell_formula_units_Z   4
loop_
 _symmetry_equiv_pos_site_id
 _symmetry_equiv_pos_as_xyz
  1  'x, y, z'
loop_
 _atom_site_type_symbol
 _atom_site_label
 _atom_site_symmetry_multiplicity
 _atom_site_fract_x
 _atom_site_fract_y
 _atom_site_fract_z
 _atom_site_occupancy
 _atom_site_charge
  Mn  Mn1  1  0.311800  0.212150  0.299290  1.0  1.1277
  Mn  Mn2  1  0.688200  0.787850  0.700710  1.0  1.127
  Mn  Mn3  1  0.811800  0.787850  0.200710  1.0  1.1268
  Mn  Mn4  1  0.188200  0.212150  0.799290  1.0  1.1275
  H  H5  1  0.455500  0.492200  0.392300  1.0  0.1184
  H  H6  1  0.726100  0.914600  0.472500  1.0  0.0778
  H  H7  1  0.252700  0.703800  0.107600  1.0  0.0998
  H  H8  1  0.262600  0.594900  0.571100  1.0  0.1133
  H  H9  1  0.020000  0.115000  0.675200  1.0  0.082
  H  H10  1  0.752700  0.296200  0.392400  1.0  0.0998
  H  H11  1  0.202600  0.281400  0.542200  1.0  0.064
  H  H12  1  0.505900  0.977800  0.906300  1.0  0.1031
  H  H13  1  0.272400  0.471000  0.850200  1.0  0.1147
  H  H14  1  0.772400  0.529000  0.649800  1.0  0.1152
  H  H15  1  0.359800  0.356300  0.830700  1.0  0.0892
  H  H16  1  0.727600  0.529000  0.149800  1.0  0.1155
  H  H17  1  0.797400  0.718600  0.457800  1.0  0.0655
  H  H18  1  0.428900  0.177500  0.065200  1.0  0.0663
  H  H19  1  0.565800  0.350900  0.095800  1.0  0.0796
  H  H20  1  0.520000  0.885000  0.824800  1.0  0.0817
  H  H21  1  0.563000  0.687900  0.010600  1.0  0.0679
  H  H22  1  0.164000  0.710700  0.851200  1.0  0.0884
  H  H23  1  0.227600  0.471000  0.350200  1.0  0.1147
  H  H24  1  0.866200  0.142800  0.522800  1.0  0.0688
  H  H25  1  0.762600  0.405100  0.928900  1.0  0.1142
  H  H26  1  0.207800  0.426700  0.007000  1.0  0.1001
  H  H27  1  0.541100  0.543200  0.906100  1.0  0.0975
  H  H28  1  0.133800  0.857200  0.477200  1.0  0.0682
  H  H29  1  0.737400  0.405100  0.428900  1.0  0.1142
  H  H30  1  0.870200  0.034300  0.382600  1.0  0.1072
  H  H31  1  0.783400  0.323700  0.052900  1.0  0.0862
  H  H32  1  0.297400  0.281400  0.042200  1.0  0.0644
  H  H33  1  0.205500  0.817700  0.875500  1.0  0.0751
  H  H34  1  0.716600  0.323700  0.552900  1.0  0.0855
  H  H35  1  0.366200  0.857200  0.977200  1.0  0.068
  H  H36  1  0.633800  0.142800  0.022800  1.0  0.0697
  H  H37  1  0.454000  0.919400  0.556000  1.0  0.0878
  H  H38  1  0.571100  0.822500  0.934800  1.0  0.0697
  H  H39  1  0.994100  0.977800  0.406300  1.0  0.1032
  H  H40  1  0.434200  0.649100  0.904200  1.0  0.08
  H  H41  1  0.198600  0.771200  0.530100  1.0  0.0718
  H  H42  1  0.216600  0.676300  0.947100  1.0  0.0844
  H  H43  1  0.041100  0.456800  0.593900  1.0  0.097
  H  H44  1  0.954000  0.080600  0.944000  1.0  0.0876
  H  H45  1  0.629800  0.034300  0.882600  1.0  0.1075
  H  H46  1  0.546000  0.080600  0.444000  1.0  0.0874
  H  H47  1  0.446400  0.998100  0.305600  1.0  0.1161
  H  H48  1  0.836000  0.289300  0.148800  1.0  0.0882
  H  H49  1  0.091200  0.911100  0.721700  1.0  0.0968
  H  H50  1  0.553600  0.001900  0.694400  1.0  0.1156
  H  H51  1  0.794500  0.182300  0.124500  1.0  0.0764
  H  H52  1  0.494100  0.022200  0.093700  1.0  0.1027
  H  H53  1  0.937000  0.687900  0.510600  1.0  0.068
  H  H54  1  0.747300  0.296200  0.892400  1.0  0.0994
  H  H55  1  0.955500  0.507800  0.107700  1.0  0.1189
  H  H56  1  0.591200  0.088900  0.778300  1.0  0.0974
  H  H57  1  0.336000  0.710700  0.351200  1.0  0.0884
  H  H58  1  0.071100  0.177500  0.565200  1.0  0.0685
  H  H59  1  0.063000  0.312100  0.489400  1.0  0.068
  H  H60  1  0.702600  0.718600  0.957800  1.0  0.0631
  H  H61  1  0.980000  0.885000  0.324800  1.0  0.0821
  H  H62  1  0.370200  0.965700  0.117400  1.0  0.1072
  H  H63  1  0.928900  0.822500  0.434800  1.0  0.0672
  H  H64  1  0.283400  0.676300  0.447100  1.0  0.0846
  H  H65  1  0.908800  0.088900  0.278300  1.0  0.0954
  H  H66  1  0.698600  0.228800  0.969900  1.0  0.0718
  H  H67  1  0.247300  0.703800  0.607600  1.0  0.0996
  H  H68  1  0.074100  0.787700  0.930200  1.0  0.0631
  H  H69  1  0.705500  0.182300  0.624500  1.0  0.0765
  H  H70  1  0.640200  0.643700  0.169300  1.0  0.0897
  H  H71  1  0.958900  0.543200  0.406100  1.0  0.0973
  H  H72  1  0.925900  0.212300  0.069800  1.0  0.0632
  H  H73  1  0.801400  0.228800  0.469900  1.0  0.0703
  H  H74  1  0.946400  0.001900  0.194400  1.0  0.1158
  H  H75  1  0.425900  0.787700  0.430200  1.0  0.063
  H  H76  1  0.408800  0.911100  0.221700  1.0  0.0948
  H  H77  1  0.005900  0.022200  0.593700  1.0  0.1025
  H  H78  1  0.773900  0.914600  0.972500  1.0  0.0776
  H  H79  1  0.294500  0.817700  0.375500  1.0  0.0755
  H  H80  1  0.458900  0.456800  0.093900  1.0  0.0966
  H  H81  1  0.237400  0.594900  0.071100  1.0  0.1131
  H  H82  1  0.273900  0.085400  0.527500  1.0  0.078
  H  H83  1  0.044500  0.492200  0.892300  1.0  0.1178
  H  H84  1  0.140200  0.356300  0.330700  1.0  0.0889
  H  H85  1  0.574100  0.212300  0.569800  1.0  0.0625
  H  H86  1  0.792200  0.573300  0.993000  1.0  0.1003
  H  H87  1  0.664000  0.289300  0.648800  1.0  0.0885
  H  H88  1  0.226100  0.085400  0.027500  1.0  0.0777
  H  H89  1  0.129800  0.965700  0.617400  1.0  0.1071
  H  H90  1  0.480000  0.115000  0.175200  1.0  0.0819
  H  H91  1  0.053600  0.998100  0.805600  1.0  0.1159
  H  H92  1  0.437000  0.312100  0.989400  1.0  0.0684
  H  H93  1  0.292200  0.426700  0.507000  1.0  0.1007
  H  H94  1  0.046000  0.919400  0.056000  1.0  0.0875
  H  H95  1  0.707800  0.573300  0.493000  1.0  0.1005
  H  H96  1  0.065800  0.649100  0.404200  1.0  0.0797
  H  H97  1  0.934200  0.350900  0.595800  1.0  0.08
  H  H98  1  0.859800  0.643700  0.669300  1.0  0.0899
  H  H99  1  0.301400  0.771200  0.030100  1.0  0.0707
  H  H100  1  0.544500  0.507800  0.607700  1.0  0.1191
  C  C101  1  0.271900  0.790900  0.408210  1.0  -0.136
  C  C102  1  0.471100  0.952600  0.533600  1.0  -0.1452
  C  C103  1  0.507200  0.732840  0.825640  1.0  0.6635
  C  C104  1  0.635700  0.801900  0.061480  1.0  0.7241
  C  C105  1  0.365100  0.050400  0.516800  1.0  -0.146
  C  C106  1  0.470000  0.083400  0.746900  1.0  0.0121
  C  C107  1  0.455200  0.285500  0.022360  1.0  -0.1461
  C  C108  1  0.476100  0.474270  0.055900  1.0  -0.1192
  C  C109  1  0.159400  0.006200  0.606800  1.0  -0.0535
  C  C110  1  0.183200  0.465100  0.889100  1.0  -0.0924
  C  C111  1  0.992800  0.732840  0.325640  1.0  0.6653
  C  C112  1  0.771900  0.209100  0.091790  1.0  -0.1353
  C  C113  1  0.581000  0.182400  0.042910  1.0  -0.1415
  C  C114  1  0.365700  0.686400  0.926000  1.0  -0.1512
  C  C115  1  0.846800  0.517900  0.552300  1.0  0.0604
  C  C116  1  0.380400  0.617700  0.595200  1.0  -0.1597
  C  C117  1  0.134300  0.686400  0.426000  1.0  -0.1519
  C  C118  1  0.041600  0.776550  0.509290  1.0  -0.1626
  C  C119  1  0.550000  0.964900  0.299400  1.0  -0.146
  C  C120  1  0.683200  0.534900  0.610900  1.0  -0.0967
  C  C121  1  0.659400  0.993800  0.893200  1.0  -0.0541
  C  C122  1  0.709100  0.645500  0.649400  1.0  0.1524
  C  C123  1  0.544800  0.714500  0.977640  1.0  -0.1478
  C  C124  1  0.119600  0.617700  0.095200  1.0  -0.1602
  C  C125  1  0.840600  0.993800  0.393200  1.0  -0.0533
  C  C126  1  0.874100  0.321900  0.884600  1.0  0.0422
  C  C127  1  0.824700  0.543700  0.496100  1.0  -0.1254
  C  C128  1  0.790900  0.645500  0.149400  1.0  0.1512
  C  C129  1  0.050000  0.035100  0.200600  1.0  -0.1445
  C  C130  1  0.290900  0.354500  0.350600  1.0  0.1532
  C  C131  1  0.528900  0.047400  0.466400  1.0  -0.1379
  C  C132  1  0.619600  0.382300  0.404800  1.0  -0.1596
  C  C133  1  0.333700  0.002700  0.551500  1.0  0.0581
  C  C134  1  0.450000  0.035100  0.700600  1.0  -0.1423
  C  C135  1  0.880400  0.382300  0.904800  1.0  -0.1601
  C  C136  1  0.007200  0.267160  0.674360  1.0  0.6668
  C  C137  1  0.970000  0.916600  0.753100  1.0  0.0122
  C  C138  1  0.955200  0.714500  0.477640  1.0  -0.1468
  C  C139  1  0.134900  0.050400  0.016800  1.0  -0.1458
  C  C140  1  0.209100  0.354500  0.850600  1.0  0.1519
  C  C141  1  0.044800  0.285500  0.522360  1.0  -0.1465
  C  C142  1  0.541600  0.223450  0.990710  1.0  -0.163
  C  C143  1  0.523900  0.525730  0.944100  1.0  -0.1322
  C  C144  1  0.950000  0.964900  0.799400  1.0  -0.1438
  C  C145  1  0.153200  0.482100  0.447700  1.0  0.0602
  C  C146  1  0.816800  0.534900  0.110900  1.0  -0.0954
  C  C147  1  0.634300  0.313600  0.074000  1.0  -0.1517
  C  C148  1  0.865700  0.313600  0.574000  1.0  -0.1514
  C  C149  1  0.805600  0.271700  0.624610  1.0  -0.1807
  C  C150  1  0.694400  0.271700  0.124610  1.0  -0.1793
  C  C151  1  0.976100  0.525730  0.444100  1.0  -0.1318
  C  C152  1  0.194400  0.728300  0.375390  1.0  -0.1799
  C  C153  1  0.833700  0.997300  0.948500  1.0  0.0579
  C  C154  1  0.666300  0.997300  0.448500  1.0  0.0578
  C  C155  1  0.374100  0.678100  0.615400  1.0  0.0435
  C  C156  1  0.023900  0.474270  0.555900  1.0  -0.1312
  C  C157  1  0.030000  0.083400  0.246900  1.0  0.011
  C  C158  1  0.458400  0.776550  0.009290  1.0  -0.1615
  C  C159  1  0.958400  0.223450  0.490710  1.0  -0.162
  C  C160  1  0.865100  0.949600  0.983200  1.0  -0.1465
  C  C161  1  0.492800  0.267160  0.174360  1.0  0.6654
  C  C162  1  0.228100  0.790900  0.908210  1.0  -0.1349
  C  C163  1  0.340600  0.006200  0.106800  1.0  -0.0541
  C  C164  1  0.081000  0.817600  0.457090  1.0  -0.1418
  C  C165  1  0.864300  0.801900  0.561480  1.0  0.7208
  C  C166  1  0.419000  0.817600  0.957090  1.0  -0.1417
  C  C167  1  0.971100  0.047400  0.966400  1.0  -0.1429
  C  C168  1  0.341700  0.097700  0.190700  1.0  0.1598
  C  C169  1  0.841700  0.902300  0.309300  1.0  0.1595
  C  C170  1  0.919000  0.182400  0.542910  1.0  -0.1419
  C  C171  1  0.125900  0.678100  0.115400  1.0  0.0443
  C  C172  1  0.364300  0.198100  0.938520  1.0  0.7229
  C  C173  1  0.625900  0.321900  0.384600  1.0  0.0425
  C  C174  1  0.175300  0.456300  0.503900  1.0  -0.1265
  C  C175  1  0.728100  0.209100  0.591790  1.0  -0.1354
  C  C176  1  0.028900  0.952600  0.033600  1.0  -0.1445
  C  C177  1  0.324700  0.456300  0.003900  1.0  -0.1261
  C  C178  1  0.166300  0.002700  0.051500  1.0  0.058
  C  C179  1  0.135700  0.198100  0.438520  1.0  0.7223
  C  C180  1  0.675300  0.543700  0.996100  1.0  -0.1261
  C  C181  1  0.316800  0.465100  0.389100  1.0  -0.094
  C  C182  1  0.653200  0.517900  0.052300  1.0  0.0603
  C  C183  1  0.305600  0.728300  0.875390  1.0  -0.1799
  C  C184  1  0.158300  0.097700  0.690700  1.0  0.159
  C  C185  1  0.530000  0.916600  0.253100  1.0  0.0118
  C  C186  1  0.346800  0.482100  0.947700  1.0  0.0601
  C  C187  1  0.634900  0.949600  0.483200  1.0  -0.146
  C  C188  1  0.658300  0.902300  0.809300  1.0  0.1598
  N  N189  1  0.248900  0.044260  0.664560  1.0  0.0376
  N  N190  1  0.417200  0.304170  0.350830  1.0  -0.4139
  N  N191  1  0.215200  0.123150  0.240490  1.0  -0.3954
  N  N192  1  0.251100  0.044260  0.164560  1.0  0.0375
  N  N193  1  0.082800  0.304170  0.850830  1.0  -0.4136
  N  N194  1  0.405000  0.402690  0.382500  1.0  0.0363
  N  N195  1  0.595000  0.597310  0.617500  1.0  0.0373
  N  N196  1  0.582800  0.695830  0.649170  1.0  -0.4137
  N  N197  1  0.095000  0.402690  0.882500  1.0  0.0361
  N  N198  1  0.917200  0.695830  0.149170  1.0  -0.4137
  N  N199  1  0.751100  0.955740  0.335440  1.0  0.0369
  N  N200  1  0.748900  0.955740  0.835440  1.0  0.0369
  N  N201  1  0.905000  0.597310  0.117500  1.0  0.0375
  N  N202  1  0.715200  0.876850  0.259510  1.0  -0.394
  N  N203  1  0.784800  0.876850  0.759510  1.0  -0.3943
  N  N204  1  0.284800  0.123150  0.740490  1.0  -0.3955
  O  O205  1  0.339700  0.181310  0.455090  1.0  -0.5796
  O  O206  1  0.660300  0.818690  0.544910  1.0  -0.5802
  O  O207  1  0.571700  0.802250  0.120410  1.0  -0.6797
  O  O208  1  0.464200  0.768260  0.783310  1.0  -0.6349
  O  O209  1  0.071700  0.197750  0.379590  1.0  -0.6791
  O  O210  1  0.964200  0.231740  0.716690  1.0  -0.6358
  O  O211  1  0.535800  0.231740  0.216690  1.0  -0.6352
  O  O212  1  0.035800  0.768260  0.283310  1.0  -0.6347
  O  O213  1  0.928300  0.802250  0.620410  1.0  -0.6793
  O  O214  1  0.197600  0.296590  0.672960  1.0  -0.5931
  O  O215  1  0.802400  0.703410  0.327040  1.0  -0.5928
  O  O216  1  0.428300  0.197750  0.879590  1.0  -0.6793
  O  O217  1  0.160300  0.181310  0.955090  1.0  -0.579
  O  O218  1  0.697600  0.703410  0.827040  1.0  -0.5942
  O  O219  1  0.839700  0.818690  0.044910  1.0  -0.5798
  O  O220  1  0.302400  0.296590  0.172960  1.0  -0.5928
