# generated using pymatgen
data_YbH26(C13O3)3
_symmetry_space_group_name_H-M   'P 1'
_cell_length_a   8.81100000
_cell_length_b   10.95100000
_cell_length_c   21.94400000
_cell_angle_alpha   77.15200000
_cell_angle_beta   87.70300000
_cell_angle_gamma   78.25100000
_symmetry_Int_Tables_number   1
_chemical_formula_structural   YbH26(C13O3)3
_chemical_formula_sum   'Yb2 H52 C78 O18'
_cell_volume   2021.06875275
_cell_formula_units_Z   2
loop_
 _symmetry_equiv_pos_site_id
 _symmetry_equiv_pos_as_xyz
  1  'x, y, z'
loop_
 _atom_site_type_symbol
 _atom_site_label
 _atom_site_symmetry_multiplicity
 _atom_site_fract_x
 _atom_site_fract_y
 _atom_site_fract_z
 _atom_site_occupancy
 _atom_site_charge
  Yb  Yb1  1  0.286800  0.465800  0.495180  1.0  1.4656
  Yb  Yb2  1  0.713200  0.534200  0.504820  1.0  1.4667
  H  H3  1  0.937700  0.184200  0.984900  1.0  0.1116
  H  H4  1  0.932200  0.791200  0.929900  1.0  0.0984
  H  H5  1  0.313000  0.112700  0.960400  1.0  0.1022
  H  H6  1  0.693900  0.538400  0.337300  1.0  0.0822
  H  H7  1  0.062300  0.815800  0.015100  1.0  0.1127
  H  H8  1  0.890700  0.934600  0.937600  1.0  0.1006
  H  H9  1  0.612800  0.899700  0.373800  1.0  0.1375
  H  H10  1  0.269700  0.257300  0.966200  1.0  0.0952
  H  H11  1  0.404200  0.706000  0.789800  1.0  0.1145
  H  H12  1  0.702600  0.112800  0.785500  1.0  0.1073
  H  H13  1  0.429600  0.014100  0.138500  1.0  0.1141
  H  H14  1  0.358400  0.986900  0.725800  1.0  0.1167
  H  H15  1  0.067800  0.208800  0.070100  1.0  0.0984
  H  H16  1  0.275800  0.600600  0.874300  1.0  0.1301
  H  H17  1  0.730300  0.742700  0.033800  1.0  0.0945
  H  H18  1  0.887600  0.854100  0.214500  1.0  0.1101
  H  H19  1  0.740600  0.219900  0.684600  1.0  0.0941
  H  H20  1  0.570400  0.985900  0.861500  1.0  0.114
  H  H21  1  0.387200  0.100300  0.626200  1.0  0.1376
  H  H22  1  0.866800  0.902500  0.872100  1.0  0.1196
  H  H23  1  0.259400  0.780100  0.315400  1.0  0.0945
  H  H24  1  0.939600  0.506500  0.150500  1.0  0.1135
  H  H25  1  0.441700  0.137100  0.046300  1.0  0.1177
  H  H26  1  0.302800  0.924600  0.825300  1.0  0.1014
  H  H27  1  0.595800  0.294000  0.210200  1.0  0.1151
  H  H28  1  0.836400  0.778700  0.317800  1.0  0.1281
  H  H29  1  0.133200  0.097500  0.127900  1.0  0.1209
  H  H30  1  0.521000  0.716700  0.693700  1.0  0.1297
  H  H31  1  0.327900  0.708400  0.140500  1.0  0.1072
  H  H32  1  0.297400  0.887200  0.214500  1.0  0.1073
  H  H33  1  0.112400  0.145900  0.785500  1.0  0.1091
  H  H34  1  0.799500  0.509200  0.672900  1.0  0.1266
  H  H35  1  0.251600  0.221600  0.901100  1.0  0.1192
  H  H36  1  0.808200  0.556200  0.241900  1.0  0.1103
  H  H37  1  0.306100  0.461600  0.662700  1.0  0.0816
  H  H38  1  0.979600  0.179100  0.884500  1.0  0.1166
  H  H39  1  0.246300  0.562100  0.220900  1.0  0.1264
  H  H40  1  0.479000  0.283300  0.306300  1.0  0.1293
  H  H41  1  0.697200  0.075400  0.174700  1.0  0.1021
  H  H42  1  0.641600  0.013100  0.274200  1.0  0.1174
  H  H43  1  0.748400  0.778400  0.098900  1.0  0.1203
  H  H44  1  0.109300  0.065400  0.062400  1.0  0.1004
  H  H45  1  0.191800  0.443800  0.758100  1.0  0.1107
  H  H46  1  0.753700  0.437900  0.779100  1.0  0.1269
  H  H47  1  0.020400  0.820900  0.115500  1.0  0.1157
  H  H48  1  0.558300  0.862900  0.953700  1.0  0.1179
  H  H49  1  0.724200  0.399400  0.125700  1.0  0.1311
  H  H50  1  0.200500  0.490800  0.327100  1.0  0.1262
  H  H51  1  0.687000  0.887300  0.039600  1.0  0.1035
  H  H52  1  0.060400  0.493500  0.849500  1.0  0.1149
  H  H53  1  0.163600  0.221300  0.682200  1.0  0.1295
  H  H54  1  0.672100  0.291600  0.859500  1.0  0.107
  C  C55  1  0.193200  0.864300  0.939700  1.0  0.2272
  C  C56  1  0.386000  0.651600  0.764400  1.0  -0.106
  C  C57  1  0.363000  0.462000  0.088400  1.0  -0.0951
  C  C58  1  0.952000  0.780100  0.237200  1.0  -0.0229
  C  C59  1  0.068500  0.120600  0.090700  1.0  0.0212
  C  C60  1  0.453000  0.103300  0.658300  1.0  -0.1446
  C  C61  1  0.637000  0.538000  0.911600  1.0  -0.0953
  C  C62  1  0.273200  0.795700  0.047900  1.0  0.0022
  C  C63  1  0.313300  0.200300  0.939000  1.0  0.0047
  C  C64  1  0.614000  0.348400  0.235600  1.0  -0.1104
  C  C65  1  0.547000  0.896700  0.341700  1.0  -0.1464
  C  C66  1  0.985000  0.371000  0.669200  1.0  -0.0738
  C  C67  1  0.076200  0.718600  0.207500  1.0  0.0416
  C  C68  1  0.456900  0.854000  0.965800  1.0  -0.1843
  C  C69  1  0.923800  0.281400  0.792500  1.0  0.0414
  C  C70  1  0.419000  0.741000  0.420400  1.0  0.7324
  C  C71  1  0.756900  0.247400  0.885500  1.0  -0.1691
  C  C72  1  0.063000  0.517200  0.940800  1.0  -0.084
  C  C73  1  0.659000  0.174700  0.692600  1.0  -0.0486
  C  C74  1  0.931500  0.879400  0.909300  1.0  0.0236
  C  C75  1  0.435000  0.036800  0.718100  1.0  -0.078
  C  C76  1  0.453000  0.660000  0.706800  1.0  -0.0854
  C  C77  1  0.992000  0.578000  0.402500  1.0  0.7463
  C  C78  1  0.341000  0.825300  0.307400  1.0  -0.0449
  C  C79  1  0.655400  0.118600  0.078800  1.0  -0.0529
  C  C80  1  0.523600  0.039900  0.766700  1.0  0.0607
  C  C81  1  0.841900  0.505200  0.009200  1.0  0.0156
  C  C82  1  0.293800  0.567000  0.785500  1.0  0.1642
  C  C83  1  0.904000  0.521300  0.948500  1.0  0.2062
  C  C84  1  0.015000  0.629000  0.330800  1.0  -0.0736
  C  C85  1  0.895000  0.228400  0.859500  1.0  -0.1711
  C  C86  1  0.806800  0.135700  0.060300  1.0  0.2334
  C  C87  1  0.503800  0.015700  0.167800  1.0  -0.1071
  C  C88  1  0.243100  0.752600  0.114500  1.0  -0.1666
  C  C89  1  0.863000  0.435600  0.696300  1.0  -0.05
  C  C90  1  0.581000  0.259000  0.579600  1.0  0.7343
  C  C91  1  0.496200  0.984300  0.832200  1.0  -0.1081
  C  C92  1  0.476400  0.960100  0.233300  1.0  0.0616
  C  C93  1  0.497000  0.584000  0.603000  1.0  0.7044
  C  C94  1  0.048000  0.219900  0.762800  1.0  -0.025
  C  C95  1  0.686700  0.799700  0.061000  1.0  0.0042
  C  C96  1  0.096000  0.478700  0.051500  1.0  0.198
  C  C97  1  0.165000  0.608400  0.240800  1.0  -0.1381
  C  C98  1  0.120000  0.525300  0.874600  1.0  -0.0806
  C  C99  1  0.105000  0.771600  0.140500  1.0  -0.1725
  C  C100  1  0.261000  0.500000  0.746500  1.0  -0.1817
  C  C101  1  0.739000  0.500000  0.253500  1.0  -0.1815
  C  C102  1  0.880000  0.474700  0.125400  1.0  -0.0736
  C  C103  1  0.164000  0.823900  0.003000  1.0  -0.1777
  C  C104  1  0.638000  0.109200  0.753200  1.0  -0.1802
  C  C105  1  0.079000  0.264000  0.701800  1.0  -0.1073
  C  C106  1  0.835000  0.391600  0.759200  1.0  -0.1378
  C  C107  1  0.836000  0.176100  0.997000  1.0  -0.1772
  C  C108  1  0.543100  0.146000  0.034200  1.0  -0.183
  C  C109  1  0.568000  0.175100  0.645500  1.0  -0.0833
  C  C110  1  0.503000  0.416000  0.397000  1.0  0.7014
  C  C111  1  0.423000  0.587000  0.668400  1.0  0.0237
  C  C112  1  0.726800  0.204300  0.952100  1.0  0.0008
  C  C113  1  0.625700  0.069200  0.145500  1.0  -0.1525
  C  C114  1  0.158100  0.494800  0.990800  1.0  0.017
  C  C115  1  0.424700  0.812500  0.029800  1.0  0.2452
  C  C116  1  0.362000  0.890800  0.246800  1.0  -0.1667
  C  C117  1  0.547000  0.340000  0.293200  1.0  -0.0856
  C  C118  1  0.008000  0.422000  0.597500  1.0  0.7499
  C  C119  1  0.137000  0.564400  0.303700  1.0  -0.0525
  C  C120  1  0.565000  0.963200  0.281900  1.0  -0.0791
  C  C121  1  0.223000  0.563100  0.849300  1.0  -0.0906
  C  C122  1  0.330000  0.512000  0.689100  1.0  -0.0868
  C  C123  1  0.937000  0.482800  0.059200  1.0  -0.084
  C  C124  1  0.921000  0.736000  0.298200  1.0  -0.1073
  C  C125  1  0.344600  0.881400  0.921200  1.0  -0.0529
  C  C126  1  0.670000  0.488000  0.310900  1.0  -0.0751
  C  C127  1  0.577000  0.413000  0.331600  1.0  0.0184
  C  C128  1  0.432000  0.824900  0.354500  1.0  -0.0829
  C  C129  1  0.706200  0.433000  0.214500  1.0  0.1636
  C  C130  1  0.777000  0.436900  0.150700  1.0  -0.0924
  C  C131  1  0.374300  0.930800  0.854500  1.0  -0.1518
  C  C132  1  0.575300  0.187500  0.970200  1.0  0.2449
  O  O133  1  0.135000  0.376000  0.576500  1.0  -0.6637
  O  O134  1  0.531800  0.785900  0.076400  1.0  -0.2522
  O  O135  1  0.800000  0.537400  0.900500  1.0  -0.3578
  O  O136  1  0.464300  0.282100  0.545000  1.0  -0.7041
  O  O137  1  0.535700  0.717900  0.455000  1.0  -0.7023
  O  O138  1  0.303000  0.689000  0.427500  1.0  -0.6491
  O  O139  1  0.200000  0.462600  0.099500  1.0  -0.3569
  O  O140  1  0.571000  0.459400  0.434500  1.0  -0.7146
  O  O141  1  0.088000  0.492900  0.432000  1.0  -0.6669
  O  O142  1  0.697000  0.311000  0.572500  1.0  -0.6487
  O  O143  1  0.398000  0.360000  0.407000  1.0  -0.6205
  O  O144  1  0.429000  0.540600  0.565500  1.0  -0.7106
  O  O145  1  0.912000  0.507100  0.568000  1.0  -0.667
  O  O146  1  0.602000  0.640000  0.593000  1.0  -0.6211
  O  O147  1  0.468200  0.214100  0.923600  1.0  -0.2507
  O  O148  1  0.086200  0.893900  0.892000  1.0  -0.2319
  O  O149  1  0.865000  0.624000  0.423500  1.0  -0.661
  O  O150  1  0.913800  0.106100  0.108000  1.0  -0.2323
