# generated using pymatgen
data_CeH12(C3O2)3
_symmetry_space_group_name_H-M   'P 1'
_cell_length_a   8.68420000
_cell_length_b   9.94200000
_cell_length_c   11.73300000
_cell_angle_alpha   74.67000000
_cell_angle_beta   69.85000000
_cell_angle_gamma   86.02000000
_symmetry_Int_Tables_number   1
_chemical_formula_structural   CeH12(C3O2)3
_chemical_formula_sum   'Ce2 H24 C18 O12'
_cell_volume   916.90511653
_cell_formula_units_Z   2
loop_
 _symmetry_equiv_pos_site_id
 _symmetry_equiv_pos_as_xyz
  1  'x, y, z'
loop_
 _atom_site_type_symbol
 _atom_site_label
 _atom_site_symmetry_multiplicity
 _atom_site_fract_x
 _atom_site_fract_y
 _atom_site_fract_z
 _atom_site_occupancy
 _atom_site_charge
  Ce  Ce1  1  0.745550  0.477770  0.511910  1.0  2.2173
  Ce  Ce2  1  0.254450  0.522230  0.488090  1.0  2.2164
  H  H3  1  0.204600  0.462000  0.838800  1.0  0.1113
  H  H4  1  0.231200  0.300900  0.863400  1.0  0.1224
  H  H5  1  0.376300  0.307200  0.992300  1.0  0.0665
  H  H6  1  0.377800  0.470600  0.956800  1.0  0.0677
  H  H7  1  0.094100  0.299000  0.103300  1.0  0.0613
  H  H8  1  0.087200  0.462000  0.061000  1.0  0.0638
  H  H9  1  0.266500  0.472200  0.172600  1.0  0.1215
  H  H10  1  0.242500  0.310800  0.226200  1.0  0.115
  H  H11  1  0.978400  0.876500  0.597800  1.0  0.0623
  H  H12  1  0.036700  0.019800  0.602900  1.0  0.0649
  H  H13  1  0.756200  0.981700  0.720300  1.0  0.1154
  H  H14  1  0.720100  0.967600  0.601900  1.0  0.1131
  H  H15  1  0.795400  0.538000  0.161200  1.0  0.1106
  H  H16  1  0.768800  0.699100  0.136600  1.0  0.1207
  H  H17  1  0.623700  0.692800  0.007700  1.0  0.0649
  H  H18  1  0.622200  0.529400  0.043200  1.0  0.0673
  H  H19  1  0.905900  0.701000  0.896700  1.0  0.0627
  H  H20  1  0.912800  0.538000  0.939000  1.0  0.0638
  H  H21  1  0.733500  0.527800  0.827400  1.0  0.1206
  H  H22  1  0.757500  0.689200  0.773800  1.0  0.1156
  H  H23  1  0.021600  0.123500  0.402200  1.0  0.0652
  H  H24  1  0.963300  0.980200  0.397100  1.0  0.0652
  H  H25  1  0.243800  0.018300  0.279700  1.0  0.1141
  H  H26  1  0.279900  0.032400  0.398100  1.0  0.1118
  C  C27  1  0.431000  0.413300  0.740300  1.0  0.7857
  C  C28  1  0.281700  0.389500  0.852600  1.0  -0.3227
  C  C29  1  0.312700  0.388200  0.971500  1.0  -0.0748
  C  C30  1  0.155000  0.385100  0.083800  1.0  -0.0662
  C  C31  1  0.188700  0.395400  0.197800  1.0  -0.3376
  C  C32  1  0.047600  0.415900  0.306900  1.0  0.776
  C  C33  1  0.968400  0.976800  0.571400  1.0  -0.0783
  C  C34  1  0.789300  0.014600  0.629600  1.0  -0.3195
  C  C35  1  0.763600  0.170900  0.593900  1.0  0.7385
  C  C36  1  0.569000  0.586700  0.259700  1.0  0.7848
  C  C37  1  0.718300  0.610500  0.147400  1.0  -0.3212
  C  C38  1  0.687300  0.611800  0.028500  1.0  -0.0746
  C  C39  1  0.845000  0.614900  0.916200  1.0  -0.0642
  C  C40  1  0.811300  0.604600  0.802200  1.0  -0.3284
  C  C41  1  0.952400  0.584100  0.693100  1.0  0.7768
  C  C42  1  0.031600  0.023200  0.428600  1.0  -0.0762
  C  C43  1  0.210700  0.985400  0.370400  1.0  -0.3201
  C  C44  1  0.236400  0.829100  0.406100  1.0  0.7387
  O  O45  1  0.424400  0.455200  0.628000  1.0  -0.8733
  O  O46  1  0.574300  0.392400  0.748400  1.0  -0.6706
  O  O47  1  0.901800  0.383700  0.315800  1.0  -0.6622
  O  O48  1  0.065500  0.465700  0.389300  1.0  -0.8211
  O  O49  1  0.862100  0.252000  0.599700  1.0  -0.684
  O  O50  1  0.642500  0.216600  0.560100  1.0  -0.6995
  O  O51  1  0.575600  0.544800  0.372000  1.0  -0.8746
  O  O52  1  0.425700  0.607600  0.251600  1.0  -0.6705
  O  O53  1  0.098200  0.616300  0.684200  1.0  -0.6631
  O  O54  1  0.934500  0.534300  0.610700  1.0  -0.8155
  O  O55  1  0.137900  0.748000  0.400300  1.0  -0.681
  O  O56  1  0.357500  0.783400  0.439900  1.0  -0.7027
