# generated using pymatgen
data_CuH9(C10O3)2
_symmetry_space_group_name_H-M   'P 1'
_cell_length_a   15.95680000
_cell_length_b   29.32900000
_cell_length_c   28.65700000
_cell_angle_alpha   90.00000000
_cell_angle_beta   90.00000000
_cell_angle_gamma   90.00000000
_symmetry_Int_Tables_number   1
_chemical_formula_structural   CuH9(C10O3)2
_chemical_formula_sum   'Cu8 H72 C160 O48'
_cell_volume   13411.38966219
_cell_formula_units_Z   8
loop_
 _symmetry_equiv_pos_site_id
 _symmetry_equiv_pos_as_xyz
  1  'x, y, z'
loop_
 _atom_site_type_symbol
 _atom_site_label
 _atom_site_symmetry_multiplicity
 _atom_site_fract_x
 _atom_site_fract_y
 _atom_site_fract_z
 _atom_site_occupancy
 _atom_site_charge
  Cu  Cu1  1  0.185030  0.222700  0.000000  1.0  0.929
  Cu  Cu2  1  0.685030  0.722700  0.000000  1.0  0.934
  Cu  Cu3  1  0.814970  0.777300  0.000000  1.0  0.9294
  Cu  Cu4  1  0.314970  0.277300  0.000000  1.0  0.9338
  Cu  Cu5  1  0.814970  0.222700  0.500000  1.0  0.9309
  Cu  Cu6  1  0.314970  0.722700  0.500000  1.0  0.9329
  Cu  Cu7  1  0.185030  0.777300  0.500000  1.0  0.9317
  Cu  Cu8  1  0.685030  0.277300  0.500000  1.0  0.9336
  H  H9  1  0.264000  0.126700  0.894600  1.0  0.1219
  H  H10  1  0.457800  0.212300  0.892200  1.0  0.1201
  H  H11  1  0.322600  0.085500  0.833700  1.0  0.1198
  H  H12  1  0.518300  0.171100  0.831400  1.0  0.1328
  H  H13  1  0.764000  0.626700  0.894600  1.0  0.1216
  H  H14  1  0.957800  0.712300  0.892200  1.0  0.1213
  H  H15  1  0.822600  0.585500  0.833700  1.0  0.1196
  H  H16  1  0.018300  0.671100  0.831400  1.0  0.1328
  H  H17  1  0.736000  0.873300  0.894600  1.0  0.1224
  H  H18  1  0.542200  0.787700  0.892200  1.0  0.1193
  H  H19  1  0.677400  0.914500  0.833700  1.0  0.1206
  H  H20  1  0.481700  0.828900  0.831400  1.0  0.1323
  H  H21  1  0.236000  0.373300  0.894600  1.0  0.1225
  H  H22  1  0.042200  0.287700  0.892200  1.0  0.1204
  H  H23  1  0.177400  0.414500  0.833700  1.0  0.1205
  H  H24  1  0.981700  0.328900  0.831400  1.0  0.1323
  H  H25  1  0.736000  0.126700  0.605400  1.0  0.1219
  H  H26  1  0.542200  0.212300  0.607800  1.0  0.1201
  H  H27  1  0.677400  0.085500  0.666300  1.0  0.1199
  H  H28  1  0.481700  0.171100  0.668600  1.0  0.1322
  H  H29  1  0.236000  0.626700  0.605400  1.0  0.122
  H  H30  1  0.042200  0.712300  0.607800  1.0  0.1213
  H  H31  1  0.177400  0.585500  0.666300  1.0  0.1199
  H  H32  1  0.981700  0.671100  0.668600  1.0  0.1322
  H  H33  1  0.264000  0.873300  0.605400  1.0  0.1222
  H  H34  1  0.457800  0.787700  0.607800  1.0  0.1198
  H  H35  1  0.322600  0.914500  0.666300  1.0  0.1206
  H  H36  1  0.518300  0.828900  0.668600  1.0  0.1318
  H  H37  1  0.764000  0.373300  0.605400  1.0  0.1221
  H  H38  1  0.957800  0.287700  0.607800  1.0  0.1209
  H  H39  1  0.822600  0.414500  0.666300  1.0  0.1207
  H  H40  1  0.018300  0.328900  0.668600  1.0  0.1318
  H  H41  1  0.736000  0.873300  0.105400  1.0  0.1225
  H  H42  1  0.542200  0.787700  0.107800  1.0  0.1193
  H  H43  1  0.677400  0.914500  0.166300  1.0  0.1205
  H  H44  1  0.481700  0.828900  0.168600  1.0  0.132
  H  H45  1  0.236000  0.373300  0.105400  1.0  0.1227
  H  H46  1  0.042200  0.287700  0.107800  1.0  0.1204
  H  H47  1  0.177400  0.414500  0.166300  1.0  0.1204
  H  H48  1  0.981700  0.328900  0.168600  1.0  0.132
  H  H49  1  0.264000  0.126700  0.105400  1.0  0.1219
  H  H50  1  0.457800  0.212300  0.107800  1.0  0.1203
  H  H51  1  0.322600  0.085500  0.166300  1.0  0.1199
  H  H52  1  0.518300  0.171100  0.168600  1.0  0.1325
  H  H53  1  0.764000  0.626700  0.105400  1.0  0.1216
  H  H54  1  0.957800  0.712300  0.107800  1.0  0.1215
  H  H55  1  0.822600  0.585500  0.166300  1.0  0.1198
  H  H56  1  0.018300  0.671100  0.168600  1.0  0.1325
  H  H57  1  0.264000  0.873300  0.394600  1.0  0.1218
  H  H58  1  0.457800  0.787700  0.392200  1.0  0.1197
  H  H59  1  0.322600  0.914500  0.333700  1.0  0.1206
  H  H60  1  0.518300  0.828900  0.331400  1.0  0.1322
  H  H61  1  0.764000  0.373300  0.394600  1.0  0.1216
  H  H62  1  0.957800  0.287700  0.392200  1.0  0.1207
  H  H63  1  0.822600  0.414500  0.333700  1.0  0.1207
  H  H64  1  0.018300  0.328900  0.331400  1.0  0.1322
  H  H65  1  0.736000  0.126700  0.394600  1.0  0.122
  H  H66  1  0.542200  0.212300  0.392200  1.0  0.1201
  H  H67  1  0.677400  0.085500  0.333700  1.0  0.12
  H  H68  1  0.481700  0.171100  0.331400  1.0  0.1325
  H  H69  1  0.236000  0.626700  0.394600  1.0  0.1221
  H  H70  1  0.042200  0.712300  0.392200  1.0  0.1211
  H  H71  1  0.177400  0.585500  0.333700  1.0  0.1199
  H  H72  1  0.981700  0.671100  0.331400  1.0  0.1325
  H  H73  1  0.500000  0.151600  0.750000  1.0  0.1214
  H  H74  1  0.000000  0.651600  0.750000  1.0  0.1214
  H  H75  1  0.500000  0.848400  0.750000  1.0  0.1228
  H  H76  1  0.000000  0.348400  0.750000  1.0  0.1228
  H  H77  1  0.500000  0.848400  0.250000  1.0  0.1228
  H  H78  1  0.000000  0.348400  0.250000  1.0  0.1228
  H  H79  1  0.500000  0.151600  0.250000  1.0  0.1214
  H  H80  1  0.000000  0.651600  0.250000  1.0  0.1214
  C  C81  1  0.314900  0.201470  0.937890  1.0  0.6911
  C  C82  1  0.466000  0.049940  0.785680  1.0  0.2197
  C  C83  1  0.463600  0.097640  0.786930  1.0  0.0327
  C  C84  1  0.314600  0.136140  0.881710  1.0  -0.0304
  C  C85  1  0.353700  0.175110  0.898800  1.0  -0.1121
  C  C86  1  0.429900  0.186970  0.880330  1.0  -0.0168
  C  C87  1  0.350700  0.110910  0.845340  1.0  -0.1012
  C  C88  1  0.427200  0.123010  0.826370  1.0  0.0324
  C  C89  1  0.467300  0.161870  0.843800  1.0  -0.124
  C  C90  1  0.814900  0.701470  0.937890  1.0  0.6911
  C  C91  1  0.966000  0.549940  0.785680  1.0  0.2197
  C  C92  1  0.963600  0.597640  0.786930  1.0  0.0327
  C  C93  1  0.814600  0.636140  0.881710  1.0  -0.0304
  C  C94  1  0.853700  0.675110  0.898800  1.0  -0.1121
  C  C95  1  0.929900  0.686970  0.880330  1.0  -0.0168
  C  C96  1  0.850700  0.610910  0.845340  1.0  -0.1012
  C  C97  1  0.927200  0.623010  0.826370  1.0  0.0324
  C  C98  1  0.967300  0.661870  0.843800  1.0  -0.124
  C  C99  1  0.685100  0.798530  0.937890  1.0  0.6909
  C  C100  1  0.534000  0.950060  0.785680  1.0  0.2195
  C  C101  1  0.536400  0.902360  0.786930  1.0  0.0327
  C  C102  1  0.685400  0.863860  0.881710  1.0  -0.0281
  C  C103  1  0.646300  0.824890  0.898800  1.0  -0.1112
  C  C104  1  0.570100  0.813030  0.880330  1.0  -0.0181
  C  C105  1  0.649300  0.889090  0.845340  1.0  -0.0999
  C  C106  1  0.572800  0.876990  0.826370  1.0  0.0328
  C  C107  1  0.532700  0.838130  0.843800  1.0  -0.1251
  C  C108  1  0.185100  0.298530  0.937890  1.0  0.6909
  C  C109  1  0.034000  0.450060  0.785680  1.0  0.2195
  C  C110  1  0.036400  0.402360  0.786930  1.0  0.0327
  C  C111  1  0.185400  0.363860  0.881710  1.0  -0.0281
  C  C112  1  0.146300  0.324890  0.898800  1.0  -0.1112
  C  C113  1  0.070100  0.313030  0.880330  1.0  -0.0181
  C  C114  1  0.149300  0.389090  0.845340  1.0  -0.0999
  C  C115  1  0.072800  0.376990  0.826370  1.0  0.0328
  C  C116  1  0.032700  0.338130  0.843800  1.0  -0.1251
  C  C117  1  0.685100  0.201470  0.562110  1.0  0.6912
  C  C118  1  0.534000  0.049940  0.714320  1.0  0.2164
  C  C119  1  0.536400  0.097640  0.713070  1.0  0.0326
  C  C120  1  0.685400  0.136140  0.618290  1.0  -0.0294
  C  C121  1  0.646300  0.175110  0.601200  1.0  -0.112
  C  C122  1  0.570100  0.186970  0.619670  1.0  -0.0172
  C  C123  1  0.649300  0.110910  0.654660  1.0  -0.0995
  C  C124  1  0.572800  0.123010  0.673630  1.0  0.0332
  C  C125  1  0.532700  0.161870  0.656200  1.0  -0.1253
  C  C126  1  0.185100  0.701470  0.562110  1.0  0.6912
  C  C127  1  0.034000  0.549940  0.714320  1.0  0.2164
  C  C128  1  0.036400  0.597640  0.713070  1.0  0.0326
  C  C129  1  0.185400  0.636140  0.618290  1.0  -0.0294
  C  C130  1  0.146300  0.675110  0.601200  1.0  -0.112
  C  C131  1  0.070100  0.686970  0.619670  1.0  -0.0172
  C  C132  1  0.149300  0.610910  0.654660  1.0  -0.0995
  C  C133  1  0.072800  0.623010  0.673630  1.0  0.0332
  C  C134  1  0.032700  0.661870  0.656200  1.0  -0.1253
  C  C135  1  0.314900  0.798530  0.562110  1.0  0.6906
  C  C136  1  0.466000  0.950060  0.714320  1.0  0.2163
  C  C137  1  0.463600  0.902360  0.713070  1.0  0.0324
  C  C138  1  0.314600  0.863860  0.618290  1.0  -0.0302
  C  C139  1  0.353700  0.824890  0.601200  1.0  -0.1122
  C  C140  1  0.429900  0.813030  0.619670  1.0  -0.0175
  C  C141  1  0.350700  0.889090  0.654660  1.0  -0.1015
  C  C142  1  0.427200  0.876990  0.673630  1.0  0.0327
  C  C143  1  0.467300  0.838130  0.656200  1.0  -0.1234
  C  C144  1  0.814900  0.298530  0.562110  1.0  0.6906
  C  C145  1  0.966000  0.450060  0.714320  1.0  0.2163
  C  C146  1  0.963600  0.402360  0.713070  1.0  0.0324
  C  C147  1  0.814600  0.363860  0.618290  1.0  -0.0302
  C  C148  1  0.853700  0.324890  0.601200  1.0  -0.1122
  C  C149  1  0.929900  0.313030  0.619670  1.0  -0.0175
  C  C150  1  0.850700  0.389090  0.654660  1.0  -0.1015
  C  C151  1  0.927200  0.376990  0.673630  1.0  0.0327
  C  C152  1  0.967300  0.338130  0.656200  1.0  -0.1234
  C  C153  1  0.685100  0.798530  0.062110  1.0  0.6907
  C  C154  1  0.534000  0.950060  0.214320  1.0  0.2205
  C  C155  1  0.536400  0.902360  0.213070  1.0  0.0326
  C  C156  1  0.685400  0.863860  0.118290  1.0  -0.0286
  C  C157  1  0.646300  0.824890  0.101200  1.0  -0.1117
  C  C158  1  0.570100  0.813030  0.119670  1.0  -0.0181
  C  C159  1  0.649300  0.889090  0.154660  1.0  -0.0997
  C  C160  1  0.572800  0.876990  0.173630  1.0  0.0332
  C  C161  1  0.532700  0.838130  0.156200  1.0  -0.1252
  C  C162  1  0.185100  0.298530  0.062110  1.0  0.6907
  C  C163  1  0.034000  0.450060  0.214320  1.0  0.2205
  C  C164  1  0.036400  0.402360  0.213070  1.0  0.0326
  C  C165  1  0.185400  0.363860  0.118290  1.0  -0.0286
  C  C166  1  0.146300  0.324890  0.101200  1.0  -0.1117
  C  C167  1  0.070100  0.313030  0.119670  1.0  -0.0181
  C  C168  1  0.149300  0.389090  0.154660  1.0  -0.0997
  C  C169  1  0.072800  0.376990  0.173630  1.0  0.0332
  C  C170  1  0.032700  0.338130  0.156200  1.0  -0.1252
  C  C171  1  0.314900  0.201470  0.062110  1.0  0.6911
  C  C172  1  0.466000  0.049940  0.214320  1.0  0.2195
  C  C173  1  0.463600  0.097640  0.213070  1.0  0.0324
  C  C174  1  0.314600  0.136140  0.118290  1.0  -0.0305
  C  C175  1  0.353700  0.175110  0.101200  1.0  -0.1124
  C  C176  1  0.429900  0.186970  0.119670  1.0  -0.0167
  C  C177  1  0.350700  0.110910  0.154660  1.0  -0.1011
  C  C178  1  0.427200  0.123010  0.173630  1.0  0.0328
  C  C179  1  0.467300  0.161870  0.156200  1.0  -0.1235
  C  C180  1  0.814900  0.701470  0.062110  1.0  0.6911
  C  C181  1  0.966000  0.549940  0.214320  1.0  0.2195
  C  C182  1  0.963600  0.597640  0.213070  1.0  0.0324
  C  C183  1  0.814600  0.636140  0.118290  1.0  -0.0305
  C  C184  1  0.853700  0.675110  0.101200  1.0  -0.1124
  C  C185  1  0.929900  0.686970  0.119670  1.0  -0.0167
  C  C186  1  0.850700  0.610910  0.154660  1.0  -0.1011
  C  C187  1  0.927200  0.623010  0.173630  1.0  0.0328
  C  C188  1  0.967300  0.661870  0.156200  1.0  -0.1235
  C  C189  1  0.314900  0.798530  0.437890  1.0  0.6908
  C  C190  1  0.466000  0.950060  0.285680  1.0  0.2154
  C  C191  1  0.463600  0.902360  0.286930  1.0  0.0326
  C  C192  1  0.314600  0.863860  0.381710  1.0  -0.0303
  C  C193  1  0.353700  0.824890  0.398800  1.0  -0.1116
  C  C194  1  0.429900  0.813030  0.380330  1.0  -0.0178
  C  C195  1  0.350700  0.889090  0.345340  1.0  -0.1015
  C  C196  1  0.427200  0.876990  0.326370  1.0  0.0324
  C  C197  1  0.467300  0.838130  0.343800  1.0  -0.1239
  C  C198  1  0.814900  0.298530  0.437890  1.0  0.6908
  C  C199  1  0.966000  0.450060  0.285680  1.0  0.2154
  C  C200  1  0.963600  0.402360  0.286930  1.0  0.0326
  C  C201  1  0.814600  0.363860  0.381710  1.0  -0.0303
  C  C202  1  0.853700  0.324890  0.398800  1.0  -0.1116
  C  C203  1  0.929900  0.313030  0.380330  1.0  -0.0178
  C  C204  1  0.850700  0.389090  0.345340  1.0  -0.1015
  C  C205  1  0.927200  0.376990  0.326370  1.0  0.0324
  C  C206  1  0.967300  0.338130  0.343800  1.0  -0.1239
  C  C207  1  0.685100  0.201470  0.437890  1.0  0.6913
  C  C208  1  0.534000  0.049940  0.285680  1.0  0.2161
  C  C209  1  0.536400  0.097640  0.286930  1.0  0.0327
  C  C210  1  0.685400  0.136140  0.381710  1.0  -0.0289
  C  C211  1  0.646300  0.175110  0.398800  1.0  -0.1117
  C  C212  1  0.570100  0.186970  0.380330  1.0  -0.0175
  C  C213  1  0.649300  0.110910  0.345340  1.0  -0.0996
  C  C214  1  0.572800  0.123010  0.326370  1.0  0.0327
  C  C215  1  0.532700  0.161870  0.343800  1.0  -0.1252
  C  C216  1  0.185100  0.701470  0.437890  1.0  0.6913
  C  C217  1  0.034000  0.549940  0.285680  1.0  0.2161
  C  C218  1  0.036400  0.597640  0.286930  1.0  0.0327
  C  C219  1  0.185400  0.636140  0.381710  1.0  -0.0289
  C  C220  1  0.146300  0.675110  0.398800  1.0  -0.1117
  C  C221  1  0.070100  0.686970  0.380330  1.0  -0.0175
  C  C222  1  0.149300  0.610910  0.345340  1.0  -0.0996
  C  C223  1  0.072800  0.623010  0.326370  1.0  0.0327
  C  C224  1  0.032700  0.661870  0.343800  1.0  -0.1252
  C  C225  1  0.500000  0.025730  0.750000  1.0  -0.0505
  C  C226  1  0.500000  0.119920  0.750000  1.0  -0.0929
  C  C227  1  0.000000  0.525730  0.750000  1.0  -0.0505
  C  C228  1  0.000000  0.619920  0.750000  1.0  -0.0929
  C  C229  1  0.500000  0.974270  0.750000  1.0  -0.0502
  C  C230  1  0.500000  0.880080  0.750000  1.0  -0.095
  C  C231  1  0.000000  0.474270  0.750000  1.0  -0.0502
  C  C232  1  0.000000  0.380080  0.750000  1.0  -0.095
  C  C233  1  0.500000  0.974270  0.250000  1.0  -0.0502
  C  C234  1  0.500000  0.880080  0.250000  1.0  -0.095
  C  C235  1  0.000000  0.474270  0.250000  1.0  -0.0502
  C  C236  1  0.000000  0.380080  0.250000  1.0  -0.095
  C  C237  1  0.500000  0.025730  0.250000  1.0  -0.0505
  C  C238  1  0.500000  0.119920  0.250000  1.0  -0.0929
  C  C239  1  0.000000  0.525730  0.250000  1.0  -0.0505
  C  C240  1  0.000000  0.619920  0.250000  1.0  -0.0929
  O  O241  1  0.245700  0.189810  0.951990  1.0  -0.5425
  O  O242  1  0.358000  0.236450  0.951960  1.0  -0.5541
  O  O243  1  0.427600  0.028170  0.822910  1.0  -0.44
  O  O244  1  0.745700  0.689810  0.951990  1.0  -0.5425
  O  O245  1  0.858000  0.736450  0.951960  1.0  -0.5541
  O  O246  1  0.927600  0.528170  0.822910  1.0  -0.4439
  O  O247  1  0.754300  0.810190  0.951990  1.0  -0.5434
  O  O248  1  0.642000  0.763550  0.951960  1.0  -0.5557
  O  O249  1  0.572400  0.971830  0.822910  1.0  -0.4399
  O  O250  1  0.254300  0.310190  0.951990  1.0  -0.5434
  O  O251  1  0.142000  0.263550  0.951960  1.0  -0.5557
  O  O252  1  0.072400  0.471830  0.822910  1.0  -0.4434
  O  O253  1  0.754300  0.189810  0.548010  1.0  -0.5426
  O  O254  1  0.642000  0.236450  0.548040  1.0  -0.5553
  O  O255  1  0.572400  0.028170  0.677090  1.0  -0.4393
  O  O256  1  0.254300  0.689810  0.548010  1.0  -0.5426
  O  O257  1  0.142000  0.736450  0.548040  1.0  -0.5553
  O  O258  1  0.072400  0.528170  0.677090  1.0  -0.4432
  O  O259  1  0.245700  0.810190  0.548010  1.0  -0.5428
  O  O260  1  0.358000  0.763550  0.548040  1.0  -0.555
  O  O261  1  0.427600  0.971830  0.677090  1.0  -0.4433
  O  O262  1  0.745700  0.310190  0.548010  1.0  -0.5428
  O  O263  1  0.858000  0.263550  0.548040  1.0  -0.555
  O  O264  1  0.927600  0.471830  0.677090  1.0  -0.4463
  O  O265  1  0.754300  0.810190  0.048010  1.0  -0.5432
  O  O266  1  0.642000  0.763550  0.048040  1.0  -0.5557
  O  O267  1  0.572400  0.971830  0.177090  1.0  -0.4413
  O  O268  1  0.254300  0.310190  0.048010  1.0  -0.5432
  O  O269  1  0.142000  0.263550  0.048040  1.0  -0.5557
  O  O270  1  0.072400  0.471830  0.177090  1.0  -0.4449
  O  O271  1  0.245700  0.189810  0.048010  1.0  -0.5424
  O  O272  1  0.358000  0.236450  0.048040  1.0  -0.5534
  O  O273  1  0.427600  0.028170  0.177090  1.0  -0.4408
  O  O274  1  0.745700  0.689810  0.048010  1.0  -0.5424
  O  O275  1  0.858000  0.736450  0.048040  1.0  -0.5534
  O  O276  1  0.927600  0.528170  0.177090  1.0  -0.4443
  O  O277  1  0.245700  0.810190  0.451990  1.0  -0.543
  O  O278  1  0.358000  0.763550  0.451960  1.0  -0.5551
  O  O279  1  0.427600  0.971830  0.322910  1.0  -0.44
  O  O280  1  0.745700  0.310190  0.451990  1.0  -0.543
  O  O281  1  0.858000  0.263550  0.451960  1.0  -0.5551
  O  O282  1  0.927600  0.471830  0.322910  1.0  -0.444
  O  O283  1  0.754300  0.189810  0.451990  1.0  -0.5432
  O  O284  1  0.642000  0.236450  0.451960  1.0  -0.5551
  O  O285  1  0.572400  0.028170  0.322910  1.0  -0.4404
  O  O286  1  0.254300  0.689810  0.451990  1.0  -0.5432
  O  O287  1  0.142000  0.736450  0.451960  1.0  -0.5551
  O  O288  1  0.072400  0.528170  0.322910  1.0  -0.4437
