# generated using pymatgen
data_CeH12(C3O2)3
_symmetry_space_group_name_H-M   'P 1'
_cell_length_a   9.22750000
_cell_length_b   9.77100000
_cell_length_c   10.69900000
_cell_angle_alpha   67.81000000
_cell_angle_beta   84.49000000
_cell_angle_gamma   61.84000000
_symmetry_Int_Tables_number   1
_chemical_formula_structural   CeH12(C3O2)3
_chemical_formula_sum   'Ce2 H24 C18 O12'
_cell_volume   783.46808035
_cell_formula_units_Z   2
loop_
 _symmetry_equiv_pos_site_id
 _symmetry_equiv_pos_as_xyz
  1  'x, y, z'
loop_
 _atom_site_type_symbol
 _atom_site_label
 _atom_site_symmetry_multiplicity
 _atom_site_fract_x
 _atom_site_fract_y
 _atom_site_fract_z
 _atom_site_occupancy
 _atom_site_charge
  Ce  Ce1  1  0.722850  0.043840  0.983140  1.0  2.2367
  Ce  Ce2  1  0.277150  0.956160  0.016860  1.0  2.2378
  H  H3  1  0.101200  0.449000  0.133000  1.0  0.1115
  H  H4  1  0.066300  0.460700  0.275800  1.0  0.1088
  H  H5  1  0.880100  0.397000  0.130200  1.0  0.0665
  H  H6  1  0.828100  0.426000  0.265900  1.0  0.0619
  H  H7  1  0.132000  0.161900  0.248100  1.0  0.0702
  H  H8  1  0.073600  0.188900  0.383200  1.0  0.0684
  H  H9  1  0.859700  0.126900  0.370300  1.0  0.103
  H  H10  1  0.033300  0.975000  0.379200  1.0  0.1194
  H  H11  1  0.329800  0.096700  0.651200  1.0  0.1211
  H  H12  1  0.383300  0.231100  0.560600  1.0  0.1247
  H  H13  1  0.587000  0.881200  0.627700  1.0  0.0734
  H  H14  1  0.632800  0.019000  0.531500  1.0  0.0658
  H  H15  1  0.898800  0.551000  0.867000  1.0  0.1115
  H  H16  1  0.933700  0.539300  0.724200  1.0  0.1092
  H  H17  1  0.119900  0.603000  0.869800  1.0  0.0694
  H  H18  1  0.171900  0.574000  0.734100  1.0  0.0613
  H  H19  1  0.868000  0.838100  0.751900  1.0  0.0727
  H  H20  1  0.926400  0.811100  0.616800  1.0  0.0685
  H  H21  1  0.140300  0.873100  0.629700  1.0  0.1011
  H  H22  1  0.966700  0.025000  0.620800  1.0  0.1174
  H  H23  1  0.670200  0.903300  0.348800  1.0  0.1207
  H  H24  1  0.616700  0.768900  0.439400  1.0  0.1257
  H  H25  1  0.413000  0.118800  0.372300  1.0  0.0732
  H  H26  1  0.367200  0.981000  0.468500  1.0  0.0668
  C  C27  1  0.906000  0.672700  0.122700  1.0  0.7488
  C  C28  1  0.014300  0.485100  0.190000  1.0  -0.3295
  C  C29  1  0.921600  0.384200  0.216000  1.0  -0.0878
  C  C30  1  0.035800  0.200400  0.296500  1.0  -0.0928
  C  C31  1  0.955800  0.088600  0.321800  1.0  -0.3365
  C  C32  1  0.903400  0.086700  0.193100  1.0  0.8327
  C  C33  1  0.510600  0.094500  0.748900  1.0  0.8104
  C  C34  1  0.423800  0.116700  0.625700  1.0  -0.3505
  C  C35  1  0.541700  0.994800  0.560400  1.0  -0.0744
  C  C36  1  0.094000  0.327300  0.877300  1.0  0.7481
  C  C37  1  0.985700  0.514900  0.810000  1.0  -0.3263
  C  C38  1  0.078400  0.615800  0.784000  1.0  -0.0877
  C  C39  1  0.964200  0.799600  0.703500  1.0  -0.0941
  C  C40  1  0.044200  0.911400  0.678200  1.0  -0.3321
  C  C41  1  0.096600  0.913300  0.806900  1.0  0.833
  C  C42  1  0.489400  0.905500  0.251100  1.0  0.8111
  C  C43  1  0.576200  0.883300  0.374300  1.0  -0.3497
  C  C44  1  0.458300  0.005200  0.439600  1.0  -0.0728
  O  O45  1  0.921500  0.767700  0.171200  1.0  -0.7092
  O  O46  1  0.807100  0.734500  0.021500  1.0  -0.6477
  O  O47  1  0.757100  0.119600  0.172600  1.0  -0.7333
  O  O48  1  0.008200  0.050000  0.111000  1.0  -0.8304
  O  O49  1  0.625800  0.133900  0.735100  1.0  -0.7216
  O  O50  1  0.474800  0.032000  0.866000  1.0  -0.8175
  O  O51  1  0.078500  0.232300  0.828800  1.0  -0.7074
  O  O52  1  0.192900  0.265500  0.978500  1.0  -0.6523
  O  O53  1  0.242900  0.880400  0.827400  1.0  -0.7352
  O  O54  1  0.991800  0.950000  0.889000  1.0  -0.831
  O  O55  1  0.374200  0.866100  0.264900  1.0  -0.7179
  O  O56  1  0.525200  0.968000  0.134000  1.0  -0.8131
