# generated using pymatgen
data_Na2Zn3H80(C25O7)4
_symmetry_space_group_name_H-M   'P 1'
_cell_length_a   17.07500000
_cell_length_b   20.20500000
_cell_length_c   20.51900000
_cell_angle_alpha   90.00000000
_cell_angle_beta   90.00000000
_cell_angle_gamma   90.12000000
_symmetry_Int_Tables_number   1
_chemical_formula_structural   Na2Zn3H80(C25O7)4
_chemical_formula_sum   'Na4 Zn6 H160 C200 O56'
_cell_volume   7079.04716851
_cell_formula_units_Z   2
loop_
 _symmetry_equiv_pos_site_id
 _symmetry_equiv_pos_as_xyz
  1  'x, y, z'
loop_
 _atom_site_type_symbol
 _atom_site_label
 _atom_site_symmetry_multiplicity
 _atom_site_fract_x
 _atom_site_fract_y
 _atom_site_fract_z
 _atom_site_occupancy
 _atom_site_charge
  Na  Na1  1  0.390500  0.233000  0.644500  1.0  0.9036
  Na  Na2  1  0.109500  0.267000  0.144500  1.0  0.9058
  Na  Na3  1  0.609500  0.767000  0.355500  1.0  0.9057
  Na  Na4  1  0.890500  0.733000  0.855500  1.0  0.9034
  Zn  Zn5  1  0.651130  0.374810  0.005570  1.0  0.992
  Zn  Zn6  1  0.848870  0.125190  0.505570  1.0  0.9914
  Zn  Zn7  1  0.348870  0.625190  0.994430  1.0  0.9912
  Zn  Zn8  1  0.151130  0.874810  0.494430  1.0  0.992
  Zn  Zn9  1  0.500000  0.500000  0.000000  1.0  1.1563
  Zn  Zn10  1  0.000000  0.000000  0.500000  1.0  1.1531
  H  H11  1  0.538800  0.279300  0.175400  1.0  0.1093
  H  H12  1  0.491600  0.251200  0.278400  1.0  0.1154
  H  H13  1  0.414500  0.438200  0.303200  1.0  0.1126
  H  H14  1  0.461700  0.466200  0.200300  1.0  0.0956
  H  H15  1  0.139200  0.134800  0.492900  1.0  0.1083
  H  H16  1  0.205800  0.233900  0.474600  1.0  0.1061
  H  H17  1  0.399500  0.131600  0.424700  1.0  0.1215
  H  H18  1  0.332900  0.032500  0.443000  1.0  0.1096
  H  H19  1  0.616900  0.374200  0.789900  1.0  0.1149
  H  H20  1  0.574500  0.392200  0.683500  1.0  0.1129
  H  H21  1  0.360700  0.442500  0.750800  1.0  0.1168
  H  H22  1  0.403100  0.424400  0.857300  1.0  0.0989
  H  H23  1  0.365600  0.733500  0.619400  1.0  0.1129
  H  H24  1  0.412500  0.626300  0.634500  1.0  0.1099
  H  H25  1  0.274100  0.561600  0.488200  1.0  0.1137
  H  H26  1  0.227200  0.668800  0.473100  1.0  0.1096
  H  H27  1  0.452700  0.413700  0.407900  1.0  0.1068
  H  H28  1  0.379200  0.235300  0.343600  1.0  0.1118
  H  H29  1  0.407500  0.529900  0.666000  1.0  0.1165
  H  H30  1  0.355100  0.483500  0.479700  1.0  0.1184
  H  H31  1  0.217400  0.330000  0.526700  1.0  0.0725
  H  H32  1  0.272300  0.372200  0.573300  1.0  0.0828
  H  H33  1  0.584400  0.319000  0.596300  1.0  0.0811
  H  H34  1  0.546600  0.345000  0.530300  1.0  0.0641
  H  H35  1  0.169700  0.328100  0.633600  1.0  0.0709
  H  H36  1  0.192400  0.255500  0.610600  1.0  0.083
  H  H37  1  0.500400  0.244200  0.504100  1.0  0.0992
  H  H38  1  0.587800  0.232300  0.526500  1.0  0.0734
  H  H39  1  0.189400  0.302600  0.746000  1.0  0.0757
  H  H40  1  0.207600  0.228000  0.726200  1.0  0.0865
  H  H41  1  0.611100  0.148900  0.606100  1.0  0.0967
  H  H42  1  0.602600  0.215200  0.646900  1.0  0.0925
  H  H43  1  0.310900  0.313500  0.792400  1.0  0.0725
  H  H44  1  0.269000  0.251000  0.823600  1.0  0.0592
  H  H45  1  0.514900  0.098600  0.670600  1.0  0.0929
  H  H46  1  0.584100  0.125000  0.715800  1.0  0.0949
  H  H47  1  0.444500  0.268200  0.816600  1.0  0.0891
  H  H48  1  0.398400  0.211500  0.854700  1.0  0.0797
  H  H49  1  0.522700  0.178700  0.809700  1.0  0.0816
  H  H50  1  0.451200  0.131400  0.793800  1.0  0.0863
  H  H51  1  0.961200  0.220700  0.675400  1.0  0.1094
  H  H52  1  0.008400  0.248800  0.778400  1.0  0.1148
  H  H53  1  0.085500  0.061800  0.803200  1.0  0.1125
  H  H54  1  0.038300  0.033800  0.700300  1.0  0.0961
  H  H55  1  0.360800  0.365200  0.992900  1.0  0.109
  H  H56  1  0.294200  0.266100  0.974600  1.0  0.1061
  H  H57  1  0.100500  0.368400  0.924700  1.0  0.1204
  H  H58  1  0.167100  0.467500  0.943000  1.0  0.1092
  H  H59  1  0.883100  0.125800  0.289900  1.0  0.1148
  H  H60  1  0.925500  0.107800  0.183500  1.0  0.1126
  H  H61  1  0.139300  0.057500  0.250800  1.0  0.1172
  H  H62  1  0.096900  0.075600  0.357300  1.0  0.099
  H  H63  1  0.134400  0.766500  0.119400  1.0  0.114
  H  H64  1  0.087500  0.873700  0.134500  1.0  0.1098
  H  H65  1  0.225900  0.938400  0.988200  1.0  0.1139
  H  H66  1  0.272800  0.831200  0.973100  1.0  0.1096
  H  H67  1  0.047300  0.086300  0.907900  1.0  0.1069
  H  H68  1  0.120800  0.264700  0.843600  1.0  0.1119
  H  H69  1  0.092500  0.970100  0.166000  1.0  0.1161
  H  H70  1  0.144900  0.016500  0.979700  1.0  0.1182
  H  H71  1  0.282600  0.170000  0.026700  1.0  0.0724
  H  H72  1  0.227700  0.127800  0.073300  1.0  0.0837
  H  H73  1  0.915600  0.181000  0.096300  1.0  0.0824
  H  H74  1  0.953400  0.155000  0.030300  1.0  0.0637
  H  H75  1  0.330300  0.171900  0.133600  1.0  0.0713
  H  H76  1  0.307600  0.244500  0.110600  1.0  0.0822
  H  H77  1  0.999600  0.255800  0.004100  1.0  0.0989
  H  H78  1  0.912200  0.267700  0.026500  1.0  0.0726
  H  H79  1  0.310600  0.197400  0.246000  1.0  0.0762
  H  H80  1  0.292400  0.272000  0.226200  1.0  0.0861
  H  H81  1  0.888900  0.351100  0.106100  1.0  0.0974
  H  H82  1  0.897400  0.284800  0.146900  1.0  0.0918
  H  H83  1  0.189100  0.186500  0.292400  1.0  0.0716
  H  H84  1  0.231000  0.249000  0.323600  1.0  0.0591
  H  H85  1  0.985100  0.401400  0.170600  1.0  0.0923
  H  H86  1  0.915900  0.375000  0.215800  1.0  0.0941
  H  H87  1  0.055500  0.231800  0.316600  1.0  0.0887
  H  H88  1  0.101600  0.288500  0.354700  1.0  0.0801
  H  H89  1  0.977300  0.321300  0.309700  1.0  0.085
  H  H90  1  0.048800  0.368600  0.293800  1.0  0.0877
  H  H91  1  0.461200  0.720700  0.824600  1.0  0.1095
  H  H92  1  0.508400  0.748800  0.721600  1.0  0.1152
  H  H93  1  0.585500  0.561800  0.696800  1.0  0.1126
  H  H94  1  0.538300  0.533800  0.799700  1.0  0.0958
  H  H95  1  0.860800  0.865200  0.507100  1.0  0.109
  H  H96  1  0.794200  0.766100  0.525400  1.0  0.1057
  H  H97  1  0.600500  0.868400  0.575300  1.0  0.121
  H  H98  1  0.667100  0.967500  0.557000  1.0  0.1091
  H  H99  1  0.383100  0.625800  0.210100  1.0  0.1152
  H  H100  1  0.425500  0.607800  0.316500  1.0  0.1122
  H  H101  1  0.639300  0.557500  0.249200  1.0  0.117
  H  H102  1  0.596900  0.575600  0.142700  1.0  0.0987
  H  H103  1  0.634400  0.266500  0.380600  1.0  0.1139
  H  H104  1  0.587500  0.373700  0.365500  1.0  0.1096
  H  H105  1  0.725900  0.438400  0.511800  1.0  0.1135
  H  H106  1  0.772800  0.331200  0.526900  1.0  0.1093
  H  H107  1  0.547300  0.586300  0.592100  1.0  0.1072
  H  H108  1  0.620800  0.764700  0.656400  1.0  0.112
  H  H109  1  0.592500  0.470100  0.334000  1.0  0.1158
  H  H110  1  0.644900  0.516500  0.520300  1.0  0.1175
  H  H111  1  0.782600  0.670000  0.473300  1.0  0.0725
  H  H112  1  0.727700  0.627800  0.426700  1.0  0.0832
  H  H113  1  0.415600  0.681000  0.403700  1.0  0.0827
  H  H114  1  0.453400  0.655000  0.469700  1.0  0.0647
  H  H115  1  0.830300  0.671900  0.366400  1.0  0.0713
  H  H116  1  0.807600  0.744500  0.389400  1.0  0.0821
  H  H117  1  0.499600  0.755800  0.495900  1.0  0.099
  H  H118  1  0.412200  0.767700  0.473500  1.0  0.0721
  H  H119  1  0.810600  0.697400  0.254000  1.0  0.0756
  H  H120  1  0.792400  0.772000  0.273800  1.0  0.0864
  H  H121  1  0.388900  0.851100  0.393900  1.0  0.0966
  H  H122  1  0.397400  0.784800  0.353100  1.0  0.0919
  H  H123  1  0.689100  0.686500  0.207600  1.0  0.0711
  H  H124  1  0.731000  0.749000  0.176400  1.0  0.0594
  H  H125  1  0.485100  0.901400  0.329400  1.0  0.0921
  H  H126  1  0.415900  0.875000  0.284200  1.0  0.0937
  H  H127  1  0.555500  0.731800  0.183400  1.0  0.0888
  H  H128  1  0.601600  0.788500  0.145300  1.0  0.0822
  H  H129  1  0.477300  0.821300  0.190300  1.0  0.0826
  H  H130  1  0.548800  0.868600  0.206200  1.0  0.0873
  H  H131  1  0.038800  0.779300  0.324600  1.0  0.1092
  H  H132  1  0.991600  0.751200  0.221600  1.0  0.1152
  H  H133  1  0.914500  0.938200  0.196800  1.0  0.1129
  H  H134  1  0.961700  0.966200  0.299700  1.0  0.0953
  H  H135  1  0.639200  0.634800  0.007100  1.0  0.1084
  H  H136  1  0.705800  0.733900  0.025400  1.0  0.1057
  H  H137  1  0.899500  0.631600  0.075300  1.0  0.1216
  H  H138  1  0.832900  0.532500  0.057000  1.0  0.1091
  H  H139  1  0.116900  0.874200  0.710100  1.0  0.1155
  H  H140  1  0.074500  0.892200  0.816500  1.0  0.1126
  H  H141  1  0.860700  0.942500  0.749200  1.0  0.1169
  H  H142  1  0.903100  0.924400  0.642700  1.0  0.0993
  H  H143  1  0.865600  0.233500  0.880600  1.0  0.1123
  H  H144  1  0.912500  0.126300  0.865500  1.0  0.1098
  H  H145  1  0.774100  0.061600  0.011800  1.0  0.1143
  H  H146  1  0.727200  0.168800  0.026900  1.0  0.1098
  H  H147  1  0.952700  0.913700  0.092100  1.0  0.1072
  H  H148  1  0.879200  0.735300  0.156400  1.0  0.1121
  H  H149  1  0.907500  0.029900  0.834000  1.0  0.1165
  H  H150  1  0.855100  0.983500  0.020300  1.0  0.1184
  H  H151  1  0.717400  0.830000  0.973300  1.0  0.0726
  H  H152  1  0.772300  0.872200  0.926700  1.0  0.0823
  H  H153  1  0.084400  0.819000  0.903700  1.0  0.0817
  H  H154  1  0.046600  0.845000  0.969700  1.0  0.0643
  H  H155  1  0.669700  0.828100  0.866400  1.0  0.0709
  H  H156  1  0.692400  0.755500  0.889400  1.0  0.0837
  H  H157  1  0.000400  0.744200  0.995900  1.0  0.0996
  H  H158  1  0.087800  0.732300  0.973500  1.0  0.0723
  H  H159  1  0.689400  0.802600  0.754000  1.0  0.075
  H  H160  1  0.707600  0.728000  0.773800  1.0  0.0865
  H  H161  1  0.111100  0.648900  0.893900  1.0  0.0965
  H  H162  1  0.102600  0.715200  0.853100  1.0  0.0937
  H  H163  1  0.810900  0.813500  0.707600  1.0  0.0723
  H  H164  1  0.769000  0.751000  0.676400  1.0  0.0587
  H  H165  1  0.014900  0.598600  0.829400  1.0  0.0935
  H  H166  1  0.084100  0.625000  0.784200  1.0  0.0952
  H  H167  1  0.944500  0.768200  0.683400  1.0  0.0898
  H  H168  1  0.898400  0.711500  0.645300  1.0  0.0816
  H  H169  1  0.022700  0.678700  0.690300  1.0  0.0836
  H  H170  1  0.951200  0.631400  0.706200  1.0  0.085
  C  C171  1  0.504800  0.375500  0.177900  1.0  -0.0558
  C  C172  1  0.513700  0.311300  0.201200  1.0  -0.0957
  C  C173  1  0.485600  0.294600  0.262600  1.0  -0.1313
  C  C174  1  0.448500  0.342000  0.300700  1.0  0.0729
  C  C175  1  0.439600  0.406100  0.277400  1.0  -0.1398
  C  C176  1  0.467700  0.422900  0.216000  1.0  -0.0853
  C  C177  1  0.533700  0.393400  0.116300  1.0  0.4938
  C  C178  1  0.229600  0.074100  0.469700  1.0  -0.0182
  C  C179  1  0.191700  0.134200  0.479100  1.0  -0.1132
  C  C180  1  0.231500  0.193300  0.468200  1.0  -0.1616
  C  C181  1  0.309100  0.192300  0.447900  1.0  0.0915
  C  C182  1  0.347000  0.132200  0.438400  1.0  -0.1515
  C  C183  1  0.307300  0.073200  0.449300  1.0  -0.1061
  C  C184  1  0.189500  0.016600  0.483800  1.0  0.4549
  C  C185  1  0.514100  0.397600  0.833900  1.0  -0.0047
  C  C186  1  0.565200  0.388000  0.782000  1.0  -0.1412
  C  C187  1  0.539900  0.398700  0.718500  1.0  -0.1302
  C  C188  1  0.463500  0.419100  0.706900  1.0  -0.0096
  C  C189  1  0.412400  0.428700  0.758700  1.0  -0.1151
  C  C190  1  0.437700  0.417900  0.822200  1.0  -0.1409
  C  C191  1  0.265000  0.775300  0.535700  1.0  0.4998
  C  C192  1  0.291900  0.711500  0.544800  1.0  -0.029
  C  C193  1  0.347100  0.698800  0.593000  1.0  -0.1114
  C  C194  1  0.375100  0.634900  0.602000  1.0  -0.1235
  C  C195  1  0.347800  0.583600  0.562800  1.0  -0.0021
  C  C196  1  0.292500  0.596300  0.514700  1.0  -0.1474
  C  C197  1  0.264600  0.660200  0.505700  1.0  -0.093
  C  C198  1  0.538300  0.390400  0.898000  1.0  0.4645
  C  C199  1  0.394500  0.360100  0.476300  1.0  0.0248
  C  C200  1  0.426900  0.373300  0.415500  1.0  -0.1702
  C  C201  1  0.421200  0.326600  0.365900  1.0  0.0457
  C  C202  1  0.383000  0.266900  0.377100  1.0  -0.099
  C  C203  1  0.350700  0.253700  0.437900  1.0  0.0451
  C  C204  1  0.356400  0.300400  0.487500  1.0  0.2257
  C  C205  1  0.404700  0.408000  0.530100  1.0  -0.0194
  C  C206  1  0.435000  0.390100  0.590500  1.0  0.2102
  C  C207  1  0.436000  0.435700  0.641300  1.0  0.0393
  C  C208  1  0.406800  0.499100  0.631700  1.0  -0.1438
  C  C209  1  0.376600  0.517000  0.571300  1.0  0.0293
  C  C210  1  0.375600  0.471400  0.520500  1.0  -0.1291
  C  C211  1  0.253900  0.327300  0.563400  1.0  0.0665
  C  C212  1  0.539800  0.314100  0.566600  1.0  0.0413
  C  C213  1  0.213400  0.299500  0.620800  1.0  0.1312
  C  C214  1  0.535700  0.245200  0.541800  1.0  0.0425
  C  C215  1  0.230900  0.271900  0.733000  1.0  0.1091
  C  C216  1  0.574200  0.176000  0.630600  1.0  0.1245
  C  C217  1  0.291700  0.268700  0.783300  1.0  0.1217
  C  C218  1  0.542000  0.138400  0.686000  1.0  0.0851
  C  C219  1  0.418700  0.225100  0.812100  1.0  0.0876
  C  C220  1  0.472900  0.175600  0.786100  1.0  0.0843
  C  C221  1  0.995200  0.124500  0.677900  1.0  -0.0554
  C  C222  1  0.986300  0.188700  0.701200  1.0  -0.0931
  C  C223  1  0.014400  0.205400  0.762600  1.0  -0.1324
  C  C224  1  0.051500  0.158000  0.800700  1.0  0.0714
  C  C225  1  0.060400  0.093900  0.777400  1.0  -0.1394
  C  C226  1  0.032300  0.077100  0.716000  1.0  -0.0851
  C  C227  1  0.966300  0.106600  0.616300  1.0  0.4943
  C  C228  1  0.270400  0.425900  0.969700  1.0  -0.0167
  C  C229  1  0.308300  0.365800  0.979100  1.0  -0.1128
  C  C230  1  0.268500  0.306700  0.968200  1.0  -0.1636
  C  C231  1  0.190900  0.307700  0.947900  1.0  0.0912
  C  C232  1  0.153000  0.367800  0.938400  1.0  -0.1535
  C  C233  1  0.192700  0.426800  0.949300  1.0  -0.1079
  C  C234  1  0.310500  0.483400  0.983800  1.0  0.4538
  C  C235  1  0.985900  0.102400  0.333900  1.0  -0.0025
  C  C236  1  0.934800  0.112000  0.282000  1.0  -0.1379
  C  C237  1  0.960100  0.101300  0.218500  1.0  -0.1321
  C  C238  1  0.036500  0.080900  0.206900  1.0  -0.0097
  C  C239  1  0.087600  0.071300  0.258700  1.0  -0.1153
  C  C240  1  0.062300  0.082100  0.322200  1.0  -0.1438
  C  C241  1  0.235000  0.724700  0.035700  1.0  0.4984
  C  C242  1  0.208100  0.788500  0.044800  1.0  -0.0294
  C  C243  1  0.152900  0.801200  0.093000  1.0  -0.1117
  C  C244  1  0.124900  0.865100  0.102000  1.0  -0.1201
  C  C245  1  0.152200  0.916400  0.062800  1.0  -0.0035
  C  C246  1  0.207500  0.903700  0.014700  1.0  -0.1477
  C  C247  1  0.235400  0.839800  0.005700  1.0  -0.0918
  C  C248  1  0.961700  0.109600  0.398000  1.0  0.4645
  C  C249  1  0.105500  0.139900  0.976300  1.0  0.0242
  C  C250  1  0.073100  0.126700  0.915500  1.0  -0.1697
  C  C251  1  0.078800  0.173400  0.865900  1.0  0.0466
  C  C252  1  0.117000  0.233100  0.877100  1.0  -0.0991
  C  C253  1  0.149300  0.246300  0.937900  1.0  0.0458
  C  C254  1  0.143600  0.199600  0.987500  1.0  0.2255
  C  C255  1  0.095300  0.092000  0.030100  1.0  -0.0203
  C  C256  1  0.065000  0.109900  0.090500  1.0  0.211
  C  C257  1  0.064000  0.064300  0.141300  1.0  0.0399
  C  C258  1  0.093200  0.000900  0.131700  1.0  -0.1437
  C  C259  1  0.123400  0.983000  0.071300  1.0  0.0283
  C  C260  1  0.124400  0.028600  0.020500  1.0  -0.13
  C  C261  1  0.246100  0.172700  0.063400  1.0  0.0663
  C  C262  1  0.960200  0.185900  0.066600  1.0  0.0411
  C  C263  1  0.286600  0.200500  0.120800  1.0  0.1311
  C  C264  1  0.964300  0.254800  0.041800  1.0  0.0434
  C  C265  1  0.269100  0.228100  0.233000  1.0  0.1097
  C  C266  1  0.925800  0.324000  0.130600  1.0  0.1228
  C  C267  1  0.208300  0.231300  0.283300  1.0  0.1227
  C  C268  1  0.958000  0.361600  0.186000  1.0  0.0856
  C  C269  1  0.081300  0.274900  0.312100  1.0  0.0862
  C  C270  1  0.027100  0.324400  0.286100  1.0  0.0818
  C  C271  1  0.495200  0.624500  0.822100  1.0  -0.0555
  C  C272  1  0.486300  0.688700  0.798800  1.0  -0.0926
  C  C273  1  0.514400  0.705400  0.737400  1.0  -0.1342
  C  C274  1  0.551500  0.658000  0.699300  1.0  0.0715
  C  C275  1  0.560400  0.593900  0.722600  1.0  -0.1391
  C  C276  1  0.532300  0.577100  0.784000  1.0  -0.0846
  C  C277  1  0.466300  0.606600  0.883700  1.0  0.4913
  C  C278  1  0.770400  0.925900  0.530300  1.0  -0.017
  C  C279  1  0.808300  0.865800  0.520900  1.0  -0.1127
  C  C280  1  0.768500  0.806700  0.531800  1.0  -0.164
  C  C281  1  0.690900  0.807700  0.552100  1.0  0.0913
  C  C282  1  0.653000  0.867800  0.561600  1.0  -0.1539
  C  C283  1  0.692700  0.926800  0.550700  1.0  -0.1078
  C  C284  1  0.810500  0.983400  0.516200  1.0  0.4547
  C  C285  1  0.485900  0.602400  0.166100  1.0  -0.0023
  C  C286  1  0.434800  0.612000  0.218000  1.0  -0.138
  C  C287  1  0.460100  0.601300  0.281500  1.0  -0.132
  C  C288  1  0.536500  0.580900  0.293100  1.0  -0.0092
  C  C289  1  0.587600  0.571300  0.241300  1.0  -0.1152
  C  C290  1  0.562300  0.582100  0.177800  1.0  -0.1433
  C  C291  1  0.735000  0.224700  0.464300  1.0  0.4992
  C  C292  1  0.708100  0.288500  0.455200  1.0  -0.0293
  C  C293  1  0.652900  0.301200  0.407000  1.0  -0.1112
  C  C294  1  0.624900  0.365100  0.398000  1.0  -0.1226
  C  C295  1  0.652200  0.416400  0.437200  1.0  -0.0031
  C  C296  1  0.707500  0.403700  0.485300  1.0  -0.1483
  C  C297  1  0.735400  0.339800  0.494300  1.0  -0.0939
  C  C298  1  0.461700  0.609600  0.102000  1.0  0.4651
  C  C299  1  0.605500  0.639900  0.523700  1.0  0.0243
  C  C300  1  0.573100  0.626700  0.584500  1.0  -0.1697
  C  C301  1  0.578800  0.673400  0.634100  1.0  0.0457
  C  C302  1  0.617000  0.733100  0.622900  1.0  -0.1001
  C  C303  1  0.649300  0.746300  0.562100  1.0  0.0452
  C  C304  1  0.643600  0.699600  0.512500  1.0  0.2251
  C  C305  1  0.595300  0.592000  0.469900  1.0  -0.0205
  C  C306  1  0.565000  0.609900  0.409500  1.0  0.2113
  C  C307  1  0.564000  0.564300  0.358700  1.0  0.0396
  C  C308  1  0.593200  0.500900  0.368300  1.0  -0.1444
  C  C309  1  0.623400  0.483000  0.428700  1.0  0.0282
  C  C310  1  0.624400  0.528600  0.479500  1.0  -0.1289
  C  C311  1  0.746100  0.672700  0.436600  1.0  0.0666
  C  C312  1  0.460200  0.685900  0.433400  1.0  0.041
  C  C313  1  0.786600  0.700500  0.379200  1.0  0.1321
  C  C314  1  0.464300  0.754800  0.458200  1.0  0.0427
  C  C315  1  0.769100  0.728100  0.267000  1.0  0.1092
  C  C316  1  0.425800  0.824000  0.369400  1.0  0.1226
  C  C317  1  0.708300  0.731300  0.216700  1.0  0.1236
  C  C318  1  0.458000  0.861600  0.314000  1.0  0.087
  C  C319  1  0.581300  0.774900  0.187900  1.0  0.0888
  C  C320  1  0.527100  0.824400  0.213900  1.0  0.0851
  C  C321  1  0.004800  0.875500  0.322100  1.0  -0.0557
  C  C322  1  0.013700  0.811300  0.298800  1.0  -0.0943
  C  C323  1  0.985600  0.794600  0.237400  1.0  -0.1328
  C  C324  1  0.948500  0.842000  0.199300  1.0  0.0732
  C  C325  1  0.939600  0.906100  0.222600  1.0  -0.1397
  C  C326  1  0.967700  0.922900  0.284000  1.0  -0.0845
  C  C327  1  0.033700  0.893400  0.383700  1.0  0.4922
  C  C328  1  0.729600  0.574100  0.030300  1.0  -0.0179
  C  C329  1  0.691700  0.634200  0.020900  1.0  -0.1132
  C  C330  1  0.731500  0.693300  0.031800  1.0  -0.1622
  C  C331  1  0.809100  0.692300  0.052100  1.0  0.0917
  C  C332  1  0.847000  0.632200  0.061600  1.0  -0.1516
  C  C333  1  0.807300  0.573200  0.050700  1.0  -0.1063
  C  C334  1  0.689500  0.516600  0.016200  1.0  0.455
  C  C335  1  0.014100  0.897600  0.666100  1.0  -0.0039
  C  C336  1  0.065200  0.888000  0.718000  1.0  -0.1419
  C  C337  1  0.039900  0.898700  0.781500  1.0  -0.131
  C  C338  1  0.963500  0.919100  0.793100  1.0  -0.0091
  C  C339  1  0.912400  0.928700  0.741300  1.0  -0.1152
  C  C340  1  0.937700  0.917900  0.677800  1.0  -0.1406
  C  C341  1  0.765000  0.275300  0.964300  1.0  0.5001
  C  C342  1  0.791900  0.211500  0.955200  1.0  -0.0282
  C  C343  1  0.847100  0.198800  0.907000  1.0  -0.1087
  C  C344  1  0.875100  0.134900  0.898000  1.0  -0.1249
  C  C345  1  0.847800  0.083600  0.937200  1.0  -0.0026
  C  C346  1  0.792500  0.096300  0.985300  1.0  -0.1476
  C  C347  1  0.764600  0.160200  0.994300  1.0  -0.0937
  C  C348  1  0.038300  0.890400  0.602000  1.0  0.4645
  C  C349  1  0.894500  0.860100  0.023700  1.0  0.0249
  C  C350  1  0.926900  0.873300  0.084500  1.0  -0.1709
  C  C351  1  0.921200  0.826600  0.134100  1.0  0.0453
  C  C352  1  0.883000  0.766900  0.122900  1.0  -0.0997
  C  C353  1  0.850700  0.753700  0.062100  1.0  0.0446
  C  C354  1  0.856400  0.800400  0.012500  1.0  0.2255
  C  C355  1  0.904700  0.908000  0.969900  1.0  -0.0197
  C  C356  1  0.935000  0.890100  0.909500  1.0  0.2108
  C  C357  1  0.936000  0.935700  0.858700  1.0  0.0388
  C  C358  1  0.906800  0.999100  0.868300  1.0  -0.1446
  C  C359  1  0.876600  0.017000  0.928700  1.0  0.0294
  C  C360  1  0.875600  0.971400  0.979500  1.0  -0.1284
  C  C361  1  0.753900  0.827300  0.936600  1.0  0.0665
  C  C362  1  0.039800  0.814100  0.933400  1.0  0.0414
  C  C363  1  0.713400  0.799500  0.879200  1.0  0.1315
  C  C364  1  0.035700  0.745200  0.958200  1.0  0.0433
  C  C365  1  0.730900  0.771900  0.767000  1.0  0.1093
  C  C366  1  0.074200  0.676000  0.869400  1.0  0.1242
  C  C367  1  0.791700  0.768700  0.716700  1.0  0.1229
  C  C368  1  0.042000  0.638400  0.814000  1.0  0.0853
  C  C369  1  0.918700  0.725100  0.687900  1.0  0.089
  C  C370  1  0.972900  0.675600  0.713900  1.0  0.0832
  O  O371  1  0.518500  0.452900  0.087400  1.0  -0.6854
  O  O372  1  0.583900  0.355000  0.081700  1.0  -0.6247
  O  O373  1  0.119200  0.010200  0.515200  1.0  -0.6957
  O  O374  1  0.215400  0.954800  0.469300  1.0  -0.6063
  O  O375  1  0.208600  0.790900  0.492000  1.0  -0.6044
  O  O376  1  0.290900  0.830700  0.567400  1.0  -0.523
  O  O377  1  0.498500  0.408300  0.952400  1.0  -0.631
  O  O378  1  0.609900  0.370700  0.916500  1.0  -0.6163
  O  O379  1  0.319500  0.286400  0.546000  1.0  -0.3523
  O  O380  1  0.466500  0.328000  0.601000  1.0  -0.3582
  O  O381  1  0.269600  0.295200  0.672900  1.0  -0.3729
  O  O382  1  0.509800  0.197900  0.587200  1.0  -0.4153
  O  O383  1  0.355800  0.228000  0.763700  1.0  -0.4099
  O  O384  1  0.487200  0.183500  0.718800  1.0  -0.356
  O  O385  1  0.981500  0.047100  0.587400  1.0  -0.686
  O  O386  1  0.916100  0.145000  0.581700  1.0  -0.6243
  O  O387  1  0.380800  0.489800  0.015200  1.0  -0.696
  O  O388  1  0.284600  0.545200  0.969300  1.0  -0.6069
  O  O389  1  0.291400  0.709100  0.992000  1.0  -0.6065
  O  O390  1  0.209100  0.669300  0.067400  1.0  -0.5232
  O  O391  1  0.001500  0.091700  0.452400  1.0  -0.6325
  O  O392  1  0.890100  0.129300  0.416500  1.0  -0.6145
  O  O393  1  0.180500  0.213600  0.046000  1.0  -0.3536
  O  O394  1  0.033500  0.172000  0.101000  1.0  -0.3582
  O  O395  1  0.230400  0.204800  0.172900  1.0  -0.3773
  O  O396  1  0.990200  0.302100  0.087200  1.0  -0.4092
  O  O397  1  0.144200  0.272000  0.263700  1.0  -0.4106
  O  O398  1  0.012800  0.316500  0.218800  1.0  -0.3544
  O  O399  1  0.481500  0.547100  0.912600  1.0  -0.6861
  O  O400  1  0.416100  0.645000  0.918300  1.0  -0.6246
  O  O401  1  0.880800  0.989800  0.484800  1.0  -0.6958
  O  O402  1  0.784600  0.045200  0.530700  1.0  -0.6067
  O  O403  1  0.791400  0.209100  0.508000  1.0  -0.6057
  O  O404  1  0.709100  0.169300  0.432600  1.0  -0.5227
  O  O405  1  0.501500  0.591700  0.047600  1.0  -0.6318
  O  O406  1  0.390100  0.629300  0.083500  1.0  -0.6147
  O  O407  1  0.680500  0.713600  0.454000  1.0  -0.3546
  O  O408  1  0.533500  0.672000  0.399000  1.0  -0.356
  O  O409  1  0.730400  0.704800  0.327100  1.0  -0.3774
  O  O410  1  0.490200  0.802100  0.412800  1.0  -0.4098
  O  O411  1  0.644200  0.772000  0.236300  1.0  -0.4102
  O  O412  1  0.512800  0.816500  0.281200  1.0  -0.3538
  O  O413  1  0.018500  0.952900  0.412600  1.0  -0.6852
  O  O414  1  0.083900  0.855000  0.418300  1.0  -0.6252
  O  O415  1  0.619200  0.510200  0.984800  1.0  -0.6955
  O  O416  1  0.715400  0.454800  0.030700  1.0  -0.6063
  O  O417  1  0.708600  0.290900  0.008000  1.0  -0.6041
  O  O418  1  0.790900  0.330700  0.932600  1.0  -0.5257
  O  O419  1  0.998500  0.908300  0.547600  1.0  -0.6314
  O  O420  1  0.109900  0.870700  0.583500  1.0  -0.6154
  O  O421  1  0.819500  0.786400  0.954000  1.0  -0.353
  O  O422  1  0.966500  0.828000  0.899000  1.0  -0.3576
  O  O423  1  0.769600  0.795200  0.827100  1.0  -0.373
  O  O424  1  0.009800  0.697900  0.912800  1.0  -0.4152
  O  O425  1  0.855800  0.728000  0.736300  1.0  -0.4096
  O  O426  1  0.987200  0.683500  0.781200  1.0  -0.3558
