# generated using pymatgen
data_Zn7H28C44(N9O10)2
_symmetry_space_group_name_H-M   'P 1'
_cell_length_a   9.92400000
_cell_length_b   11.73800000
_cell_length_c   15.20300000
_cell_angle_alpha   94.77000000
_cell_angle_beta   98.94000000
_cell_angle_gamma   112.62000000
_symmetry_Int_Tables_number   1
_chemical_formula_structural   Zn7H28C44(N9O10)2
_chemical_formula_sum   'Zn7 H28 C44 N18 O20'
_cell_volume   1594.91644147
_cell_formula_units_Z   1
loop_
 _symmetry_equiv_pos_site_id
 _symmetry_equiv_pos_as_xyz
  1  'x, y, z'
loop_
 _atom_site_type_symbol
 _atom_site_label
 _atom_site_symmetry_multiplicity
 _atom_site_fract_x
 _atom_site_fract_y
 _atom_site_fract_z
 _atom_site_occupancy
 _atom_site_charge
  Zn  Zn1  1  0.985440  0.067570  0.792060  1.0  0.8676
  Zn  Zn2  1  0.443280  0.108600  0.568350  1.0  0.8048
  Zn  Zn3  1  0.113750  0.815160  0.833460  1.0  0.858
  Zn  Zn4  1  0.014560  0.932430  0.207940  1.0  0.8675
  Zn  Zn5  1  0.556720  0.891400  0.431650  1.0  0.8057
  Zn  Zn6  1  0.886250  0.184840  0.166540  1.0  0.8573
  Zn  Zn7  1  0.500000  0.000000  0.000000  1.0  1.0356
  H  H8  1  0.769800  0.536800  0.940100  1.0  0.4178
  H  H9  1  0.262800  0.668700  0.590500  1.0  0.4297
  H  H10  1  0.681800  0.965100  0.855500  1.0  0.0856
  H  H11  1  0.063400  0.177200  0.009200  1.0  0.0951
  H  H12  1  0.710700  0.152800  0.731200  1.0  0.091
  H  H13  1  0.827600  0.932500  0.588700  1.0  0.0889
  H  H14  1  0.173100  0.137800  0.639400  1.0  0.0779
  H  H15  1  0.355600  0.911900  0.708200  1.0  0.0768
  H  H16  1  0.201600  0.490500  0.832700  1.0  0.1106
  H  H17  1  0.534000  0.379200  0.898600  1.0  0.1238
  H  H18  1  0.625800  0.745800  0.913000  1.0  0.1207
  H  H19  1  0.699600  0.502600  0.675000  1.0  0.1097
  H  H20  1  0.295600  0.482100  0.565500  1.0  0.1222
  H  H21  1  0.606200  0.803900  0.708100  1.0  0.1054
  H  H22  1  0.230200  0.463200  0.059900  1.0  0.419
  H  H23  1  0.737200  0.331300  0.409500  1.0  0.4271
  H  H24  1  0.318200  0.034900  0.144500  1.0  0.0867
  H  H25  1  0.936600  0.822800  0.990800  1.0  0.0951
  H  H26  1  0.289300  0.847200  0.268800  1.0  0.0908
  H  H27  1  0.172400  0.067500  0.411300  1.0  0.0889
  H  H28  1  0.826900  0.862200  0.360600  1.0  0.0796
  H  H29  1  0.644400  0.088100  0.291800  1.0  0.0768
  H  H30  1  0.798400  0.509500  0.167300  1.0  0.1098
  H  H31  1  0.466000  0.620800  0.101400  1.0  0.1236
  H  H32  1  0.374200  0.254200  0.087000  1.0  0.1201
  H  H33  1  0.300400  0.497400  0.325000  1.0  0.1096
  H  H34  1  0.704400  0.517900  0.434500  1.0  0.1232
  H  H35  1  0.393800  0.196100  0.291900  1.0  0.1057
  C  C36  1  0.754400  0.014700  0.905300  1.0  0.274
  C  C37  1  0.961900  0.129600  0.988500  1.0  0.2649
  C  C38  1  0.712900  0.097600  0.684400  1.0  0.2539
  C  C39  1  0.775800  0.978200  0.607500  1.0  0.2559
  C  C40  1  0.194200  0.077000  0.666800  1.0  0.2618
  C  C41  1  0.293300  0.954300  0.703800  1.0  0.2724
  C  C42  1  0.348900  0.734700  0.866300  1.0  0.6935
  C  C43  1  0.238900  0.283000  0.852500  1.0  0.6578
  C  C44  1  0.404900  0.634300  0.873400  1.0  -0.1461
  C  C45  1  0.302300  0.509700  0.853400  1.0  -0.0434
  C  C46  1  0.350600  0.414600  0.864400  1.0  -0.0878
  C  C47  1  0.501300  0.442900  0.891800  1.0  -0.1868
  C  C48  1  0.603100  0.566500  0.909100  1.0  0.2982
  C  C49  1  0.556800  0.663100  0.900700  1.0  -0.1412
  C  C50  1  0.828500  0.740500  0.755200  1.0  0.6599
  C  C51  1  0.441600  0.336000  0.581800  1.0  0.6658
  C  C52  1  0.676900  0.665500  0.699300  1.0  -0.1282
  C  C53  1  0.632900  0.540500  0.664600  1.0  -0.0145
  C  C54  1  0.491400  0.472600  0.615100  1.0  -0.0942
  C  C55  1  0.391400  0.528200  0.599100  1.0  -0.1856
  C  C56  1  0.435100  0.652300  0.633200  1.0  0.3034
  C  C57  1  0.577800  0.720600  0.684200  1.0  -0.1594
  C  C58  1  0.245600  0.985300  0.094700  1.0  0.2733
  C  C59  1  0.038100  0.870400  0.011500  1.0  0.2642
  C  C60  1  0.287100  0.902400  0.315600  1.0  0.2531
  C  C61  1  0.224200  0.021800  0.392500  1.0  0.2553
  C  C62  1  0.805800  0.923000  0.333200  1.0  0.2612
  C  C63  1  0.706700  0.045700  0.296200  1.0  0.2734
  C  C64  1  0.651100  0.265300  0.133700  1.0  0.6925
  C  C65  1  0.761100  0.717000  0.147500  1.0  0.6566
  C  C66  1  0.595100  0.365700  0.126600  1.0  -0.1469
  C  C67  1  0.697700  0.490300  0.146600  1.0  -0.0441
  C  C68  1  0.649400  0.585400  0.135600  1.0  -0.0854
  C  C69  1  0.498700  0.557100  0.108200  1.0  -0.1867
  C  C70  1  0.396900  0.433500  0.090900  1.0  0.2977
  C  C71  1  0.443200  0.336900  0.099300  1.0  -0.1408
  C  C72  1  0.171500  0.259500  0.244800  1.0  0.6595
  C  C73  1  0.558400  0.664000  0.418200  1.0  0.6649
  C  C74  1  0.323100  0.334500  0.300700  1.0  -0.1278
  C  C75  1  0.367100  0.459500  0.335400  1.0  -0.0146
  C  C76  1  0.508600  0.527400  0.384900  1.0  -0.0935
  C  C77  1  0.608600  0.471800  0.400900  1.0  -0.1875
  C  C78  1  0.564900  0.347700  0.366800  1.0  0.303
  C  C79  1  0.422200  0.279400  0.315800  1.0  -0.1599
  N  N80  1  0.723800  0.039900  0.984100  1.0  -0.3039
  N  N81  1  0.900200  0.067500  0.903700  1.0  -0.4228
  N  N82  1  0.860200  0.114500  0.038400  1.0  -0.2391
  N  N83  1  0.816400  0.050100  0.688000  1.0  -0.4252
  N  N84  1  0.614200  0.057500  0.607500  1.0  -0.2667
  N  N85  1  0.656400  0.978400  0.557900  1.0  -0.252
  N  N86  1  0.121300  0.017500  0.725700  1.0  -0.2367
  N  N87  1  0.185600  0.935600  0.749900  1.0  -0.273
  N  N88  1  0.302500  0.040900  0.650100  1.0  -0.4479
  N  N89  1  0.276200  0.960100  0.015900  1.0  -0.304
  N  N90  1  0.099800  0.932500  0.096300  1.0  -0.4197
  N  N91  1  0.139800  0.885500  0.961600  1.0  -0.239
  N  N92  1  0.183600  0.949900  0.312000  1.0  -0.4265
  N  N93  1  0.385800  0.942500  0.392500  1.0  -0.2665
  N  N94  1  0.343600  0.021600  0.442100  1.0  -0.2529
  N  N95  1  0.878700  0.982500  0.274300  1.0  -0.2366
  N  N96  1  0.814400  0.064400  0.250100  1.0  -0.2719
  N  N97  1  0.697500  0.959100  0.349900  1.0  -0.4479
  O  O98  1  0.434200  0.848400  0.888600  1.0  -0.6451
  O  O99  1  0.208600  0.697500  0.836800  1.0  -0.5728
  O  O100  1  0.108000  0.255200  0.805400  1.0  -0.6164
  O  O101  1  0.271200  0.201700  0.888600  1.0  -0.5939
  O  O102  1  0.753600  0.599800  0.936200  1.0  -0.5156
  O  O103  1  0.864300  0.848700  0.790800  1.0  -0.6406
  O  O104  1  0.921000  0.686900  0.764700  1.0  -0.5948
  O  O105  1  0.539900  0.289300  0.598500  1.0  -0.6178
  O  O106  1  0.311700  0.270800  0.542000  1.0  -0.5917
  O  O107  1  0.344400  0.715800  0.621000  1.0  -0.5212
  O  O108  1  0.565800  0.151600  0.111400  1.0  -0.6407
  O  O109  1  0.791400  0.302500  0.163200  1.0  -0.5735
  O  O110  1  0.892000  0.744800  0.194600  1.0  -0.6163
  O  O111  1  0.728800  0.798300  0.111400  1.0  -0.5928
  O  O112  1  0.246400  0.400200  0.063800  1.0  -0.5161
  O  O113  1  0.135700  0.151300  0.209200  1.0  -0.6414
  O  O114  1  0.079000  0.313100  0.235300  1.0  -0.5947
  O  O115  1  0.460100  0.710700  0.401500  1.0  -0.6184
  O  O116  1  0.688300  0.729200  0.458000  1.0  -0.5914
  O  O117  1  0.655600  0.284200  0.379000  1.0  -0.5222
