# generated using pymatgen
data_Zn7H28C44(N9O8)2
_symmetry_space_group_name_H-M   'P 1'
_cell_length_a   9.75800000
_cell_length_b   11.89000000
_cell_length_c   15.22000000
_cell_angle_alpha   95.54400000
_cell_angle_beta   99.06800000
_cell_angle_gamma   112.87400000
_symmetry_Int_Tables_number   1
_chemical_formula_structural   Zn7H28C44(N9O8)2
_chemical_formula_sum   'Zn7 H28 C44 N18 O16'
_cell_volume   1582.29441292
_cell_formula_units_Z   1
loop_
 _symmetry_equiv_pos_site_id
 _symmetry_equiv_pos_as_xyz
  1  'x, y, z'
loop_
 _atom_site_type_symbol
 _atom_site_label
 _atom_site_symmetry_multiplicity
 _atom_site_fract_x
 _atom_site_fract_y
 _atom_site_fract_z
 _atom_site_occupancy
 _atom_site_charge
  Zn  Zn1  1  0.009860  0.928100  0.205490  1.0  0.8654
  Zn  Zn2  1  0.557130  0.890770  0.431420  1.0  0.8101
  Zn  Zn3  1  0.108840  0.811870  0.830790  1.0  0.8323
  Zn  Zn4  1  0.990140  0.071900  0.794510  1.0  0.867
  Zn  Zn5  1  0.442870  0.109230  0.568580  1.0  0.8096
  Zn  Zn6  1  0.891160  0.188130  0.169210  1.0  0.8323
  Zn  Zn7  1  0.500000  0.000000  0.000000  1.0  1.0343
  H  H8  1  0.316300  0.033800  0.143500  1.0  0.0872
  H  H9  1  0.927000  0.823300  0.987100  1.0  0.0937
  H  H10  1  0.822600  0.863400  0.355800  1.0  0.0828
  H  H11  1  0.650500  0.096200  0.297000  1.0  0.0782
  H  H12  1  0.276800  0.835200  0.272000  1.0  0.0815
  H  H13  1  0.180100  0.078300  0.404600  1.0  0.091
  H  H14  1  0.802300  0.510400  0.165500  1.0  0.1071
  H  H15  1  0.456100  0.611200  0.100300  1.0  0.1053
  H  H16  1  0.284000  0.405300  0.075300  1.0  0.1103
  H  H17  1  0.375100  0.250400  0.085400  1.0  0.0867
  H  H18  1  0.307300  0.494800  0.324000  1.0  0.103
  H  H19  1  0.723300  0.538300  0.444500  1.0  0.1066
  H  H20  1  0.665400  0.334400  0.391500  1.0  0.111
  H  H21  1  0.430500  0.211100  0.301300  1.0  0.0874
  H  H22  1  0.683700  0.966200  0.856500  1.0  0.0869
  H  H23  1  0.073000  0.176700  0.012900  1.0  0.0934
  H  H24  1  0.177400  0.136600  0.644200  1.0  0.0813
  H  H25  1  0.349500  0.903800  0.703000  1.0  0.0785
  H  H26  1  0.723200  0.164800  0.728000  1.0  0.083
  H  H27  1  0.819900  0.921700  0.595400  1.0  0.0914
  H  H28  1  0.197700  0.489600  0.834500  1.0  0.1074
  H  H29  1  0.543900  0.388800  0.899700  1.0  0.1052
  H  H30  1  0.716000  0.594700  0.924700  1.0  0.1119
  H  H31  1  0.624900  0.749600  0.914600  1.0  0.0873
  H  H32  1  0.692700  0.505200  0.676000  1.0  0.1024
  H  H33  1  0.276700  0.461700  0.555500  1.0  0.1062
  H  H34  1  0.334600  0.665600  0.608500  1.0  0.1095
  H  H35  1  0.569500  0.788900  0.698700  1.0  0.0872
  C  C36  1  0.242400  0.984500  0.093000  1.0  0.2836
  C  C37  1  0.030700  0.870400  0.008600  1.0  0.281
  C  C38  1  0.803200  0.925300  0.330500  1.0  0.26
  C  C39  1  0.710400  0.051500  0.298600  1.0  0.2635
  C  C40  1  0.279900  0.895500  0.316900  1.0  0.2518
  C  C41  1  0.227300  0.027000  0.389100  1.0  0.2726
  C  C42  1  0.656900  0.267500  0.135600  1.0  0.6908
  C  C43  1  0.759900  0.713700  0.147900  1.0  0.6591
  C  C44  1  0.598700  0.366500  0.126800  1.0  -0.1865
  C  C45  1  0.699000  0.489400  0.145300  1.0  0.0137
  C  C46  1  0.648700  0.582600  0.134300  1.0  -0.1521
  C  C47  1  0.491300  0.549600  0.107400  1.0  -0.0574
  C  C48  1  0.388000  0.426300  0.091100  1.0  -0.1051
  C  C49  1  0.442700  0.333500  0.098800  1.0  -0.0051
  C  C50  1  0.189200  0.258800  0.246200  1.0  0.6689
  C  C51  1  0.566700  0.673500  0.417100  1.0  0.6703
  C  C52  1  0.343600  0.341200  0.303400  1.0  -0.1625
  C  C53  1  0.380100  0.462900  0.336000  1.0  0.021
  C  C54  1  0.523900  0.539400  0.386800  1.0  -0.1832
  C  C55  1  0.628100  0.488700  0.408200  1.0  -0.0026
  C  C56  1  0.593800  0.367000  0.376900  1.0  -0.1012
  C  C57  1  0.453300  0.293300  0.323900  1.0  -0.0294
  C  C58  1  0.757600  0.015500  0.907000  1.0  0.2841
  C  C59  1  0.969300  0.129600  0.991400  1.0  0.2816
  C  C60  1  0.196800  0.074700  0.669500  1.0  0.2612
  C  C61  1  0.289600  0.948500  0.701400  1.0  0.2634
  C  C62  1  0.720100  0.104500  0.683100  1.0  0.253
  C  C63  1  0.772700  0.973000  0.610900  1.0  0.2727
  C  C64  1  0.343100  0.732500  0.864400  1.0  0.692
  C  C65  1  0.240100  0.286300  0.852100  1.0  0.6597
  C  C66  1  0.401300  0.633500  0.873200  1.0  -0.1852
  C  C67  1  0.301000  0.510600  0.854700  1.0  0.0154
  C  C68  1  0.351300  0.417400  0.865700  1.0  -0.152
  C  C69  1  0.508700  0.450400  0.892600  1.0  -0.0595
  C  C70  1  0.612000  0.573700  0.908900  1.0  -0.104
  C  C71  1  0.557300  0.666500  0.901200  1.0  -0.0052
  C  C72  1  0.810800  0.741200  0.753800  1.0  0.6692
  C  C73  1  0.433300  0.326500  0.582900  1.0  0.6707
  C  C74  1  0.656400  0.658800  0.696600  1.0  -0.1603
  C  C75  1  0.619900  0.537100  0.664000  1.0  0.0211
  C  C76  1  0.476100  0.460600  0.613200  1.0  -0.1839
  C  C77  1  0.371900  0.511300  0.591800  1.0  -0.0012
  C  C78  1  0.406200  0.633000  0.623100  1.0  -0.1024
  C  C79  1  0.546700  0.706700  0.676100  1.0  -0.0288
  N  N80  1  0.274600  0.961000  0.014200  1.0  -0.3081
  N  N81  1  0.134100  0.885400  0.958500  1.0  -0.2402
  N  N82  1  0.092900  0.930800  0.093800  1.0  -0.4243
  N  N83  1  0.877700  0.985200  0.271500  1.0  -0.2507
  N  N84  1  0.816000  0.067800  0.251400  1.0  -0.2389
  N  N85  1  0.698200  0.963200  0.349600  1.0  -0.4156
  N  N86  1  0.381900  0.938100  0.393900  1.0  -0.2601
  N  N87  1  0.345700  0.023800  0.441900  1.0  -0.2638
  N  N88  1  0.182200  0.948400  0.310600  1.0  -0.4014
  N  N89  1  0.725400  0.039000  0.985800  1.0  -0.3078
  N  N90  1  0.865900  0.114600  0.041500  1.0  -0.2418
  N  N91  1  0.907100  0.069200  0.906200  1.0  -0.4254
  N  N92  1  0.122300  0.014800  0.728500  1.0  -0.2494
  N  N93  1  0.184000  0.932200  0.748600  1.0  -0.2413
  N  N94  1  0.301800  0.036800  0.650400  1.0  -0.4151
  N  N95  1  0.618100  0.061900  0.606100  1.0  -0.2593
  N  N96  1  0.654300  0.976200  0.558100  1.0  -0.2638
  N  N97  1  0.817800  0.051600  0.689400  1.0  -0.4011
  O  O98  1  0.572400  0.156300  0.111200  1.0  -0.6658
  O  O99  1  0.800200  0.307500  0.167600  1.0  -0.5711
  O  O100  1  0.891800  0.743200  0.196900  1.0  -0.6177
  O  O101  1  0.727900  0.791300  0.108500  1.0  -0.6196
  O  O102  1  0.157300  0.150300  0.217400  1.0  -0.6382
  O  O103  1  0.095900  0.309500  0.227400  1.0  -0.5911
  O  O104  1  0.460700  0.711700  0.394700  1.0  -0.6116
  O  O105  1  0.693800  0.744200  0.460300  1.0  -0.5937
  O  O106  1  0.427600  0.843700  0.888800  1.0  -0.6669
  O  O107  1  0.199800  0.692500  0.832400  1.0  -0.5696
  O  O108  1  0.108200  0.256800  0.803100  1.0  -0.6167
  O  O109  1  0.272100  0.208700  0.891500  1.0  -0.621
  O  O110  1  0.842700  0.849700  0.782600  1.0  -0.6378
  O  O111  1  0.904100  0.690500  0.772600  1.0  -0.5896
  O  O112  1  0.539300  0.288300  0.605300  1.0  -0.6138
  O  O113  1  0.306200  0.255800  0.539700  1.0  -0.5948
