# generated using pymatgen
data_Zn4H11C16N13O6
_symmetry_space_group_name_H-M   'P 1'
_cell_length_a   13.73260000
_cell_length_b   13.73260000
_cell_length_c   14.08220000
_cell_angle_alpha   87.48100000
_cell_angle_beta   87.48100000
_cell_angle_gamma   60.13790000
_symmetry_Int_Tables_number   1
_chemical_formula_structural   Zn4H11C16N13O6
_chemical_formula_sum   'Zn8 H22 C32 N26 O12'
_cell_volume   2300.10526509
_cell_formula_units_Z   2
loop_
 _symmetry_equiv_pos_site_id
 _symmetry_equiv_pos_as_xyz
  1  'x, y, z'
loop_
 _atom_site_type_symbol
 _atom_site_label
 _atom_site_symmetry_multiplicity
 _atom_site_fract_x
 _atom_site_fract_y
 _atom_site_fract_z
 _atom_site_occupancy
 _atom_site_charge
  Zn  Zn1  1  0.537970  0.846350  0.012790  1.0  0.1027
  Zn  Zn2  1  0.561120  0.023320  0.389880  1.0  0.7986
  Zn  Zn3  1  0.153650  0.462030  0.487210  1.0  0.1043
  Zn  Zn4  1  0.976680  0.438880  0.110120  1.0  0.7996
  Zn  Zn5  1  0.462030  0.153650  0.987210  1.0  0.1068
  Zn  Zn6  1  0.438880  0.976680  0.610120  1.0  0.7987
  Zn  Zn7  1  0.846350  0.537970  0.512790  1.0  0.1065
  Zn  Zn8  1  0.023320  0.561120  0.889880  1.0  0.7999
  H  H9  1  0.558800  0.851800  0.236200  1.0  0.0865
  H  H10  1  0.454200  0.170600  0.207600  1.0  0.0847
  H  H11  1  0.381500  0.285500  0.384500  1.0  0.0953
  H  H12  1  0.240500  0.230900  0.608700  1.0  0.0862
  H  H13  1  0.892100  0.949700  0.311300  1.0  0.1179
  H  H14  1  0.148200  0.441200  0.263800  1.0  0.086
  H  H15  1  0.829400  0.545800  0.292400  1.0  0.084
  H  H16  1  0.714500  0.618500  0.115500  1.0  0.0955
  H  H17  1  0.769100  0.759500  0.891300  1.0  0.0865
  H  H18  1  0.050300  0.107900  0.188700  1.0  0.1177
  H  H19  1  0.441200  0.148200  0.763800  1.0  0.0872
  H  H20  1  0.545800  0.829400  0.792400  1.0  0.0851
  H  H21  1  0.618500  0.714500  0.615500  1.0  0.0954
  H  H22  1  0.759500  0.769100  0.391300  1.0  0.0862
  H  H23  1  0.107900  0.050300  0.688700  1.0  0.1181
  H  H24  1  0.851800  0.558800  0.736200  1.0  0.0856
  H  H25  1  0.170600  0.454200  0.707600  1.0  0.0839
  H  H26  1  0.285500  0.381500  0.884500  1.0  0.0955
  H  H27  1  0.230900  0.240500  0.108700  1.0  0.0869
  H  H28  1  0.949700  0.892100  0.811300  1.0  0.1169
  H  H29  1  0.719700  0.280300  0.250000  1.0  0.1091
  H  H30  1  0.280300  0.719700  0.750000  1.0  0.1088
  C  C31  1  0.533100  0.923500  0.210000  1.0  0.228
  C  C32  1  0.476900  0.096500  0.194000  1.0  0.2226
  C  C33  1  0.367800  0.250200  0.437000  1.0  0.2354
  C  C34  1  0.291000  0.221000  0.558700  1.0  0.2374
  C  C35  1  0.788700  0.116300  0.284400  1.0  -0.149
  C  C36  1  0.889200  0.015000  0.286400  1.0  -0.0287
  C  C37  1  0.682900  0.118500  0.320300  1.0  0.6889
  C  C38  1  0.076500  0.466900  0.290000  1.0  0.2273
  C  C39  1  0.903500  0.523100  0.306000  1.0  0.2242
  C  C40  1  0.749800  0.632200  0.063000  1.0  0.2368
  C  C41  1  0.779000  0.709000  0.941300  1.0  0.236
  C  C42  1  0.883700  0.211300  0.215600  1.0  -0.149
  C  C43  1  0.985000  0.110800  0.213600  1.0  -0.03
  C  C44  1  0.881500  0.317100  0.179700  1.0  0.6907
  C  C45  1  0.466900  0.076500  0.790000  1.0  0.2275
  C  C46  1  0.523100  0.903500  0.806000  1.0  0.2233
  C  C47  1  0.632200  0.749800  0.563000  1.0  0.2357
  C  C48  1  0.709000  0.779000  0.441300  1.0  0.2374
  C  C49  1  0.211300  0.883700  0.715600  1.0  -0.1485
  C  C50  1  0.110800  0.985000  0.713600  1.0  -0.0291
  C  C51  1  0.317100  0.881500  0.679700  1.0  0.689
  C  C52  1  0.923500  0.533100  0.710000  1.0  0.2259
  C  C53  1  0.096500  0.476900  0.694000  1.0  0.2243
  C  C54  1  0.250200  0.367800  0.937000  1.0  0.2362
  C  C55  1  0.221000  0.291000  0.058700  1.0  0.2369
  C  C56  1  0.116300  0.788700  0.784400  1.0  -0.1495
  C  C57  1  0.015000  0.889200  0.786400  1.0  -0.0308
  C  C58  1  0.118500  0.682900  0.820300  1.0  0.6906
  C  C59  1  0.787200  0.212800  0.250000  1.0  0.0287
  C  C60  1  0.985600  0.014400  0.250000  1.0  -0.0499
  C  C61  1  0.212800  0.787200  0.750000  1.0  0.0257
  C  C62  1  0.014400  0.985600  0.750000  1.0  -0.0492
  N  N63  1  0.513000  0.949200  0.118100  1.0  -0.1426
  N  N64  1  0.477900  0.061900  0.107500  1.0  -0.1389
  N  N65  1  0.512300  0.012700  0.260500  1.0  -0.4312
  N  N66  1  0.433670  0.143870  0.461700  1.0  -0.2402
  N  N67  1  0.384400  0.123800  0.541400  1.0  -0.267
  N  N68  1  0.278200  0.301400  0.496700  1.0  -0.2982
  N  N69  1  0.050800  0.487000  0.381900  1.0  -0.1435
  N  N70  1  0.938100  0.522100  0.392500  1.0  -0.1394
  N  N71  1  0.987300  0.487700  0.239500  1.0  -0.43
  N  N72  1  0.856130  0.566330  0.038300  1.0  -0.2393
  N  N73  1  0.876200  0.615600  0.958600  1.0  -0.2629
  N  N74  1  0.698600  0.721800  0.003300  1.0  -0.3012
  N  N75  1  0.487000  0.050800  0.881900  1.0  -0.1421
  N  N76  1  0.522100  0.938100  0.892500  1.0  -0.1393
  N  N77  1  0.487700  0.987300  0.739500  1.0  -0.43
  N  N78  1  0.566330  0.856130  0.538300  1.0  -0.2405
  N  N79  1  0.615600  0.876200  0.458600  1.0  -0.2648
  N  N80  1  0.721800  0.698600  0.503300  1.0  -0.3073
  N  N81  1  0.949200  0.513000  0.618100  1.0  -0.1432
  N  N82  1  0.061900  0.477900  0.607500  1.0  -0.1393
  N  N83  1  0.012700  0.512300  0.760500  1.0  -0.4308
  N  N84  1  0.143870  0.433670  0.961700  1.0  -0.2401
  N  N85  1  0.123800  0.384400  0.041400  1.0  -0.2645
  N  N86  1  0.301400  0.278200  0.996700  1.0  -0.3013
  N  N87  1  0.092300  0.907700  0.250000  1.0  0.6111
  N  N88  1  0.907700  0.092300  0.750000  1.0  0.6121
  O  O89  1  0.697880  0.029680  0.364800  1.0  -0.6197
  O  O90  1  0.590330  0.199130  0.305900  1.0  -0.5986
  O  O91  1  0.177800  0.909800  0.227500  1.0  -0.4201
  O  O92  1  0.970320  0.302120  0.135200  1.0  -0.6173
  O  O93  1  0.800870  0.409670  0.194100  1.0  -0.5992
  O  O94  1  0.090200  0.822200  0.272500  1.0  -0.4206
  O  O95  1  0.302120  0.970320  0.635200  1.0  -0.6228
  O  O96  1  0.409670  0.800870  0.694100  1.0  -0.5987
  O  O97  1  0.822200  0.090200  0.772500  1.0  -0.4238
  O  O98  1  0.029680  0.697880  0.864800  1.0  -0.6181
  O  O99  1  0.199130  0.590330  0.805900  1.0  -0.598
  O  O100  1  0.909800  0.177800  0.727500  1.0  -0.4195
