# generated using pymatgen
data_Co5H14C28(N2O11)2
_symmetry_space_group_name_H-M   'P 1'
_cell_length_a   11.09800000
_cell_length_b   11.19400000
_cell_length_c   16.58700000
_cell_angle_alpha   99.08500000
_cell_angle_beta   109.29600000
_cell_angle_gamma   91.09800000
_symmetry_Int_Tables_number   1
_chemical_formula_structural   Co5H14C28(N2O11)2
_chemical_formula_sum   'Co10 H28 C56 N8 O44'
_cell_volume   1914.82987877
_cell_formula_units_Z   2
loop_
 _symmetry_equiv_pos_site_id
 _symmetry_equiv_pos_as_xyz
  1  'x, y, z'
loop_
 _atom_site_type_symbol
 _atom_site_label
 _atom_site_symmetry_multiplicity
 _atom_site_fract_x
 _atom_site_fract_y
 _atom_site_fract_z
 _atom_site_occupancy
 _atom_site_charge
  Co  Co1  1  0.177740  0.866590  0.250960  1.0  1.2381
  Co  Co2  1  0.201190  0.708160  0.048740  1.0  1.0036
  Co  Co3  1  0.920640  0.767260  0.035970  1.0  1.1788
  Co  Co4  1  0.241460  0.081150  0.456320  1.0  1.1908
  Co  Co5  1  0.172490  0.809430  0.460570  1.0  0.9875
  Co  Co6  1  0.822260  0.133410  0.749040  1.0  1.2381
  Co  Co7  1  0.798810  0.291840  0.951260  1.0  1.0029
  Co  Co8  1  0.079360  0.232740  0.964030  1.0  1.1742
  Co  Co9  1  0.758540  0.918850  0.543680  1.0  1.1911
  Co  Co10  1  0.827510  0.190570  0.539430  1.0  0.9868
  H  H11  1  0.568600  0.055100  0.358400  1.0  0.1455
  H  H12  1  0.496100  0.027000  0.204700  1.0  0.1322
  H  H13  1  0.635100  0.972400  0.137300  1.0  0.0913
  H  H14  1  0.890800  0.660800  0.366100  1.0  0.1013
  H  H15  1  0.803200  0.619300  0.218300  1.0  0.131
  H  H16  1  0.593700  0.671100  0.154000  1.0  0.1157
  H  H17  1  0.977300  0.174100  0.142100  1.0  0.1363
  H  H18  1  0.003700  0.217100  0.289500  1.0  0.1125
  H  H19  1  0.067000  0.415400  0.365000  1.0  0.1075
  H  H20  1  0.365200  0.500500  0.151200  1.0  0.1126
  H  H21  1  0.431600  0.522900  0.302700  1.0  0.1278
  H  H22  1  0.382100  0.360400  0.360700  1.0  0.1047
  H  H23  1  0.326900  0.895500  0.404600  1.0  0.4268
  H  H24  1  0.122600  0.898000  0.095700  1.0  0.4316
  H  H25  1  0.431400  0.944900  0.641600  1.0  0.1457
  H  H26  1  0.503900  0.973000  0.795300  1.0  0.1308
  H  H27  1  0.364900  0.027600  0.862700  1.0  0.0896
  H  H28  1  0.109200  0.339200  0.633900  1.0  0.1016
  H  H29  1  0.196800  0.380700  0.781700  1.0  0.1283
  H  H30  1  0.406300  0.328900  0.846000  1.0  0.114
  H  H31  1  0.022700  0.825900  0.857900  1.0  0.1333
  H  H32  1  0.996300  0.782900  0.710500  1.0  0.1122
  H  H33  1  0.933000  0.584600  0.635000  1.0  0.108
  H  H34  1  0.634800  0.499500  0.848800  1.0  0.1134
  H  H35  1  0.568400  0.477100  0.697300  1.0  0.1277
  H  H36  1  0.617900  0.639600  0.639300  1.0  0.1059
  H  H37  1  0.673100  0.104500  0.595400  1.0  0.4292
  H  H38  1  0.877400  0.102000  0.904300  1.0  0.432
  C  C39  1  0.622700  0.032500  0.327100  1.0  0.0053
  C  C40  1  0.580200  0.015700  0.236500  1.0  -0.1119
  C  C41  1  0.664500  0.983000  0.197600  1.0  -0.0223
  C  C42  1  0.788900  0.963400  0.236200  1.0  -0.1083
  C  C43  1  0.836500  0.987000  0.324700  1.0  0.0292
  C  C44  1  0.967500  0.973600  0.379900  1.0  0.6973
  C  C45  1  0.879100  0.913000  0.190800  1.0  0.6866
  C  C46  1  0.805900  0.676300  0.340100  1.0  0.0253
  C  C47  1  0.755900  0.653200  0.252000  1.0  -0.1423
  C  C48  1  0.629600  0.682700  0.214100  1.0  -0.0051
  C  C49  1  0.557700  0.728200  0.263300  1.0  -0.1743
  C  C50  1  0.612400  0.741600  0.353400  1.0  -0.0121
  C  C51  1  0.545500  0.777200  0.418700  1.0  0.6303
  C  C52  1  0.421600  0.755600  0.220600  1.0  0.7037
  C  C53  1  0.994700  0.253600  0.172000  1.0  -0.0207
  C  C54  1  0.014000  0.278800  0.260300  1.0  -0.1015
  C  C55  1  0.049400  0.399300  0.305300  1.0  0.0071
  C  C56  1  0.057900  0.488500  0.265100  1.0  -0.0901
  C  C57  1  0.034700  0.462200  0.171300  1.0  0.0297
  C  C58  1  0.041300  0.555300  0.115600  1.0  0.6783
  C  C59  1  0.102300  0.617100  0.305200  1.0  0.7004
  C  C60  1  0.355800  0.435000  0.177400  1.0  -0.0039
  C  C61  1  0.391200  0.450600  0.267200  1.0  -0.1236
  C  C62  1  0.362700  0.351300  0.300900  1.0  -0.017
  C  C63  1  0.308100  0.242100  0.252000  1.0  -0.1594
  C  C64  1  0.282600  0.226200  0.159800  1.0  0.0114
  C  C65  1  0.239800  0.116300  0.094900  1.0  0.6514
  C  C66  1  0.275100  0.141500  0.289700  1.0  0.694
  C  C67  1  0.377300  0.967500  0.672900  1.0  0.0042
  C  C68  1  0.419800  0.984300  0.763500  1.0  -0.1103
  C  C69  1  0.335500  0.017000  0.802400  1.0  -0.0363
  C  C70  1  0.211100  0.036600  0.763800  1.0  -0.1106
  C  C71  1  0.163500  0.013000  0.675300  1.0  0.029
  C  C72  1  0.032500  0.026400  0.620100  1.0  0.6969
  C  C73  1  0.120900  0.087000  0.809200  1.0  0.6855
  C  C74  1  0.194100  0.323700  0.659900  1.0  0.0247
  C  C75  1  0.244100  0.346800  0.748000  1.0  -0.1421
  C  C76  1  0.370400  0.317300  0.785900  1.0  -0.0105
  C  C77  1  0.442300  0.271800  0.736700  1.0  -0.1757
  C  C78  1  0.387600  0.258400  0.646600  1.0  -0.0116
  C  C79  1  0.454500  0.222800  0.581300  1.0  0.6322
  C  C80  1  0.578400  0.244400  0.779400  1.0  0.7003
  C  C81  1  0.005300  0.746400  0.828000  1.0  -0.019
  C  C82  1  0.986000  0.721200  0.739700  1.0  -0.1024
  C  C83  1  0.950600  0.600700  0.694700  1.0  0.0068
  C  C84  1  0.942100  0.511500  0.734900  1.0  -0.1072
  C  C85  1  0.965300  0.537800  0.828700  1.0  0.0302
  C  C86  1  0.958700  0.444700  0.884400  1.0  0.6778
  C  C87  1  0.897700  0.382900  0.694800  1.0  0.6996
  C  C88  1  0.644200  0.565000  0.822600  1.0  -0.0037
  C  C89  1  0.608800  0.549400  0.732800  1.0  -0.1229
  C  C90  1  0.637300  0.648700  0.699100  1.0  -0.0157
  C  C91  1  0.691900  0.757900  0.748000  1.0  -0.1474
  C  C92  1  0.717400  0.773800  0.840200  1.0  0.0101
  C  C93  1  0.760200  0.883700  0.905100  1.0  0.6522
  C  C94  1  0.724900  0.858500  0.710300  1.0  0.6935
  N  N95  1  0.747600  0.013900  0.366900  1.0  0.2954
  N  N96  1  0.737800  0.721600  0.393400  1.0  0.3203
  N  N97  1  0.001700  0.345200  0.130700  1.0  0.3347
  N  N98  1  0.306900  0.323800  0.127100  1.0  0.3118
  N  N99  1  0.252400  0.986100  0.633100  1.0  0.2967
  N  N100  1  0.262200  0.278400  0.606600  1.0  0.323
  N  N101  1  0.998300  0.654800  0.869300  1.0  0.3352
  N  N102  1  0.693100  0.676200  0.872900  1.0  0.3106
  O  O103  1  0.792300  0.027300  0.453500  1.0  -0.6214
  O  O104  1  0.040100  0.069000  0.401700  1.0  -0.5846
  O  O105  1  0.996000  0.872400  0.399700  1.0  -0.5667
  O  O106  1  0.998500  0.931000  0.235000  1.0  -0.6042
  O  O107  1  0.831900  0.855600  0.114100  1.0  -0.5719
  O  O108  1  0.785800  0.743900  0.477200  1.0  -0.516
  O  O109  1  0.473700  0.693800  0.425100  1.0  -0.5323
  O  O110  1  0.565100  0.887500  0.458700  1.0  -0.6014
  O  O111  1  0.363200  0.808000  0.265600  1.0  -0.5636
  O  O112  1  0.377900  0.721200  0.137100  1.0  -0.6308
  O  O113  1  0.973500  0.320700  0.044000  1.0  -0.6337
  O  O114  1  0.141400  0.567400  0.102500  1.0  -0.5568
  O  O115  1  0.939600  0.611700  0.091600  1.0  -0.5853
  O  O116  1  0.117200  0.691100  0.259500  1.0  -0.5852
  O  O117  1  0.120700  0.641300  0.385700  1.0  -0.606
  O  O118  1  0.271900  0.317800  0.041500  1.0  -0.5231
  O  O119  1  0.121400  0.101900  0.047900  1.0  -0.6176
  O  O120  1  0.323100  0.046500  0.086300  1.0  -0.5341
  O  O121  1  0.243400  0.039200  0.241900  1.0  -0.5719
  O  O122  1  0.275400  0.166400  0.367800  1.0  -0.6082
  O  O123  1  0.248000  0.908500  0.389700  1.0  -0.9812
  O  O124  1  0.110700  0.830700  0.110600  1.0  -0.9822
  O  O125  1  0.207700  0.972700  0.546500  1.0  -0.6213
  O  O126  1  0.959900  0.931000  0.598300  1.0  -0.5851
  O  O127  1  0.004000  0.127600  0.600300  1.0  -0.5648
  O  O128  1  0.001500  0.069000  0.765000  1.0  -0.606
  O  O129  1  0.168100  0.144400  0.885900  1.0  -0.5723
  O  O130  1  0.214200  0.256100  0.522800  1.0  -0.5166
  O  O131  1  0.526300  0.306200  0.574900  1.0  -0.5334
  O  O132  1  0.434900  0.112500  0.541300  1.0  -0.6015
  O  O133  1  0.636800  0.192000  0.734400  1.0  -0.5631
  O  O134  1  0.622100  0.278800  0.862900  1.0  -0.6283
  O  O135  1  0.026500  0.679300  0.956000  1.0  -0.6339
  O  O136  1  0.858600  0.432600  0.897500  1.0  -0.5603
  O  O137  1  0.060400  0.388300  0.908400  1.0  -0.5849
  O  O138  1  0.882800  0.308900  0.740500  1.0  -0.5858
  O  O139  1  0.879300  0.358700  0.614300  1.0  -0.6048
  O  O140  1  0.728100  0.682200  0.958500  1.0  -0.5136
  O  O141  1  0.878600  0.898100  0.952100  1.0  -0.617
  O  O142  1  0.676900  0.953500  0.913700  1.0  -0.5338
  O  O143  1  0.756600  0.960800  0.758100  1.0  -0.5733
  O  O144  1  0.724600  0.833600  0.632200  1.0  -0.6091
  O  O145  1  0.752000  0.091500  0.610300  1.0  -0.9824
  O  O146  1  0.889300  0.169300  0.889400  1.0  -0.9836
