# generated using pymatgen
data_Cd5H14C28(N2O11)2
_symmetry_space_group_name_H-M   'P 1'
_cell_length_a   11.23200000
_cell_length_b   11.36100000
_cell_length_c   17.07200000
_cell_angle_alpha   97.95000000
_cell_angle_beta   108.88900000
_cell_angle_gamma   91.40900000
_symmetry_Int_Tables_number   1
_chemical_formula_structural   Cd5H14C28(N2O11)2
_chemical_formula_sum   'Cd10 H28 C56 N8 O44'
_cell_volume   2035.77434560
_cell_formula_units_Z   2
loop_
 _symmetry_equiv_pos_site_id
 _symmetry_equiv_pos_as_xyz
  1  'x, y, z'
loop_
 _atom_site_type_symbol
 _atom_site_label
 _atom_site_symmetry_multiplicity
 _atom_site_fract_x
 _atom_site_fract_y
 _atom_site_fract_z
 _atom_site_occupancy
 _atom_site_charge
  Cd  Cd1  1  0.084870  0.225710  0.460800  1.0  1.2097
  Cd  Cd2  1  0.784990  0.285700  0.451400  1.0  1.1539
  Cd  Cd3  1  0.175710  0.794050  0.956100  1.0  1.1469
  Cd  Cd4  1  0.182500  0.866960  0.750100  1.0  1.3049
  Cd  Cd5  1  0.250230  0.087660  0.956240  1.0  1.204
  Cd  Cd6  1  0.915130  0.774290  0.539200  1.0  1.2112
  Cd  Cd7  1  0.215010  0.714300  0.548600  1.0  1.1431
  Cd  Cd8  1  0.824290  0.205950  0.043900  1.0  1.1472
  Cd  Cd9  1  0.817500  0.133040  0.249900  1.0  1.3051
  Cd  Cd10  1  0.749770  0.912340  0.043760  1.0  1.206
  H  H11  1  0.363400  0.382300  0.848800  1.0  0.123
  H  H12  1  0.437400  0.530300  0.783000  1.0  0.1285
  H  H13  1  0.356700  0.497800  0.635800  1.0  0.1112
  H  H14  1  0.066800  0.393700  0.858800  1.0  0.1139
  H  H15  1  0.003300  0.203100  0.781300  1.0  0.1122
  H  H16  1  0.984700  0.170800  0.638900  1.0  0.1342
  H  H17  1  0.100600  0.333800  0.119200  1.0  0.11
  H  H18  1  0.167800  0.373800  0.263700  1.0  0.1266
  H  H19  1  0.375100  0.330900  0.337600  1.0  0.115
  H  H20  1  0.374500  0.031800  0.361900  1.0  0.1336
  H  H21  1  0.504500  0.971000  0.284000  1.0  0.1131
  H  H22  1  0.425700  0.943200  0.140100  1.0  0.1321
  H  H23  1  0.877400  0.076400  0.407800  1.0  0.3852
  H  H24  1  0.354900  0.891600  0.905000  1.0  0.3832
  H  H25  1  0.636600  0.617700  0.151200  1.0  0.1253
  H  H26  1  0.562600  0.469700  0.217000  1.0  0.1297
  H  H27  1  0.643300  0.502200  0.364200  1.0  0.1125
  H  H28  1  0.933200  0.606300  0.141200  1.0  0.1143
  H  H29  1  0.996700  0.796900  0.218700  1.0  0.1115
  H  H30  1  0.015300  0.829200  0.361100  1.0  0.1322
  H  H31  1  0.899400  0.666200  0.880800  1.0  0.1093
  H  H32  1  0.832200  0.626200  0.736300  1.0  0.1267
  H  H33  1  0.624900  0.669100  0.662400  1.0  0.1159
  H  H34  1  0.625500  0.968200  0.638100  1.0  0.1346
  H  H35  1  0.495500  0.029000  0.716000  1.0  0.1101
  H  H36  1  0.574300  0.056800  0.859900  1.0  0.1319
  H  H37  1  0.122600  0.923600  0.592200  1.0  0.3714
  H  H38  1  0.645100  0.108400  0.095000  1.0  0.3827
  C  C39  1  0.298300  0.233700  0.660300  1.0  0.0532
  C  C40  1  0.252900  0.117600  0.600700  1.0  0.6705
  C  C41  1  0.323600  0.251700  0.747700  1.0  -0.1821
  C  C42  1  0.289900  0.154200  0.789500  1.0  0.6687
  C  C43  1  0.360400  0.366200  0.793300  1.0  -0.0311
  C  C44  1  0.393400  0.459100  0.752700  1.0  -0.1218
  C  C45  1  0.355600  0.435900  0.666000  1.0  0.0081
  C  C46  1  0.045300  0.553100  0.625500  1.0  0.6833
  C  C47  1  0.039600  0.456700  0.676300  1.0  0.0073
  C  C48  1  0.061900  0.476900  0.762000  1.0  -0.1404
  C  C49  1  0.050900  0.382000  0.801200  1.0  -0.0039
  C  C50  1  0.015700  0.266500  0.755000  1.0  -0.0936
  C  C51  1  0.999300  0.247400  0.669100  1.0  -0.0026
  C  C52  1  0.100600  0.597000  0.806900  1.0  0.7017
  C  C53  1  0.558200  0.252300  0.285400  1.0  0.7216
  C  C54  1  0.427100  0.278500  0.236200  1.0  -0.1756
  C  C55  1  0.462600  0.235400  0.093700  1.0  0.6706
  C  C56  1  0.384700  0.266200  0.150600  1.0  -0.004
  C  C57  1  0.183500  0.323100  0.149900  1.0  0.0254
  C  C58  1  0.221700  0.344300  0.235500  1.0  -0.1367
  C  C59  1  0.346600  0.319600  0.279400  1.0  -0.0172
  C  C60  1  0.129200  0.078100  0.309400  1.0  0.6852
  C  C61  1  0.210300  0.027500  0.258300  1.0  -0.1196
  C  C62  1  0.343000  0.016600  0.303700  1.0  -0.0759
  C  C63  1  0.420300  0.982700  0.257000  1.0  -0.1132
  C  C64  1  0.373500  0.966200  0.171200  1.0  0.0034
  C  C65  1  0.169400  0.005800  0.175800  1.0  0.1191
  C  C66  1  0.037700  0.023200  0.123100  1.0  0.6776
  C  C67  1  0.701700  0.766300  0.339700  1.0  0.0521
  C  C68  1  0.747100  0.882400  0.399300  1.0  0.6726
  C  C69  1  0.676400  0.748300  0.252300  1.0  -0.1818
  C  C70  1  0.710100  0.845800  0.210500  1.0  0.665
  C  C71  1  0.639600  0.633800  0.206700  1.0  -0.0353
  C  C72  1  0.606600  0.540900  0.247300  1.0  -0.1229
  C  C73  1  0.644400  0.564100  0.334000  1.0  0.0101
  C  C74  1  0.954700  0.446900  0.374500  1.0  0.6836
  C  C75  1  0.960400  0.543300  0.323700  1.0  0.0083
  C  C76  1  0.938100  0.523100  0.238000  1.0  -0.1363
  C  C77  1  0.949100  0.618000  0.198800  1.0  -0.0074
  C  C78  1  0.984300  0.733500  0.245000  1.0  -0.0924
  C  C79  1  0.000700  0.752600  0.330900  1.0  -0.0032
  C  C80  1  0.899400  0.403000  0.193100  1.0  0.7018
  C  C81  1  0.441800  0.747700  0.714600  1.0  0.7203
  C  C82  1  0.572900  0.721500  0.763800  1.0  -0.1744
  C  C83  1  0.537400  0.764600  0.906300  1.0  0.665
  C  C84  1  0.615300  0.733800  0.849400  1.0  -0.005
  C  C85  1  0.816500  0.676900  0.850100  1.0  0.0246
  C  C86  1  0.778300  0.655700  0.764500  1.0  -0.1371
  C  C87  1  0.653400  0.680400  0.720600  1.0  -0.0153
  C  C88  1  0.870800  0.921900  0.690600  1.0  0.6856
  C  C89  1  0.789700  0.972500  0.741700  1.0  -0.1304
  C  C90  1  0.657000  0.983400  0.696300  1.0  -0.0487
  C  C91  1  0.579700  0.017300  0.743000  1.0  -0.1138
  C  C92  1  0.626500  0.033800  0.828800  1.0  0.0043
  C  C93  1  0.830600  0.994200  0.824200  1.0  0.1292
  C  C94  1  0.962300  0.976800  0.876900  1.0  0.6763
  N  N95  1  0.317400  0.324700  0.625200  1.0  0.3168
  N  N96  1  0.005400  0.343700  0.631500  1.0  0.3188
  N  N97  1  0.260800  0.288300  0.110700  1.0  0.3382
  N  N98  1  0.254100  0.983100  0.132800  1.0  0.308
  N  N99  1  0.682600  0.675300  0.374800  1.0  0.3173
  N  N100  1  0.994600  0.656300  0.368500  1.0  0.317
  N  N101  1  0.739200  0.711700  0.889300  1.0  0.3383
  N  N102  1  0.745900  0.016900  0.867200  1.0  0.307
  O  O103  1  0.288700  0.308900  0.539400  1.0  -0.5628
  O  O104  1  0.138900  0.098000  0.564300  1.0  -0.6263
  O  O105  1  0.334700  0.050100  0.594000  1.0  -0.5631
  O  O106  1  0.256400  0.051300  0.744300  1.0  -0.6348
  O  O107  1  0.297300  0.183200  0.862600  1.0  -0.6001
  O  O108  1  0.986200  0.330600  0.550400  1.0  -0.6122
  O  O109  1  0.940200  0.604500  0.596300  1.0  -0.6202
  O  O110  1  0.140600  0.569600  0.608600  1.0  -0.5695
  O  O111  1  0.111100  0.679800  0.768800  1.0  -0.6087
  O  O112  1  0.113700  0.614100  0.888100  1.0  -0.6139
  O  O113  1  0.889300  0.154200  0.391600  1.0  -0.9655
  O  O114  1  0.225100  0.272400  0.027800  1.0  -0.5676
  O  O115  1  0.453600  0.126500  0.058300  1.0  -0.6486
  O  O116  1  0.528900  0.316900  0.086700  1.0  -0.5351
  O  O117  1  0.625400  0.207000  0.245800  1.0  -0.6181
  O  O118  1  0.591100  0.286200  0.361500  1.0  -0.6
  O  O119  1  0.265300  0.906600  0.889400  1.0  -0.97
  O  O120  1  0.967700  0.924200  0.100500  1.0  -0.6305
  O  O121  1  0.009800  0.121400  0.106000  1.0  -0.6042
  O  O122  1  0.014400  0.063700  0.271000  1.0  -0.6435
  O  O123  1  0.185500  0.133700  0.381400  1.0  -0.5803
  O  O124  1  0.209700  0.970400  0.047200  1.0  -0.6268
  O  O125  1  0.711300  0.691100  0.460600  1.0  -0.5668
  O  O126  1  0.861100  0.902000  0.435700  1.0  -0.6267
  O  O127  1  0.665300  0.949900  0.406000  1.0  -0.5638
  O  O128  1  0.743600  0.948700  0.255700  1.0  -0.6339
  O  O129  1  0.702700  0.816800  0.137400  1.0  -0.6011
  O  O130  1  0.013800  0.669400  0.449600  1.0  -0.6114
  O  O131  1  0.059800  0.395500  0.403700  1.0  -0.6202
  O  O132  1  0.859400  0.430400  0.391400  1.0  -0.5692
  O  O133  1  0.888900  0.320200  0.231200  1.0  -0.6075
  O  O134  1  0.886300  0.385900  0.111900  1.0  -0.6146
  O  O135  1  0.110700  0.845800  0.608400  1.0  -0.9613
  O  O136  1  0.774900  0.727600  0.972200  1.0  -0.5686
  O  O137  1  0.546400  0.873500  0.941700  1.0  -0.6479
  O  O138  1  0.471100  0.683100  0.913300  1.0  -0.5319
  O  O139  1  0.374600  0.793000  0.754200  1.0  -0.6183
  O  O140  1  0.408900  0.713800  0.638500  1.0  -0.5997
  O  O141  1  0.734700  0.093400  0.110600  1.0  -0.9716
  O  O142  1  0.032300  0.075800  0.899500  1.0  -0.6308
  O  O143  1  0.990200  0.878600  0.894000  1.0  -0.5965
  O  O144  1  0.985600  0.936300  0.729000  1.0  -0.6446
  O  O145  1  0.814500  0.866300  0.618600  1.0  -0.5815
  O  O146  1  0.790300  0.029600  0.952800  1.0  -0.6262
