# generated using pymatgen
data_Cd3P2H24C14N2(ClO5)2
_symmetry_space_group_name_H-M   'P 1'
_cell_length_a   7.03600000
_cell_length_b   15.89210000
_cell_length_c   26.56100000
_cell_angle_alpha   90.00000000
_cell_angle_beta   90.00000000
_cell_angle_gamma   90.00000000
_symmetry_Int_Tables_number   1
_chemical_formula_structural   Cd3P2H24C14N2(ClO5)2
_chemical_formula_sum   'Cd12 P8 H96 C56 N8 Cl8 O40'
_cell_volume   2969.96643915
_cell_formula_units_Z   4
loop_
 _symmetry_equiv_pos_site_id
 _symmetry_equiv_pos_as_xyz
  1  'x, y, z'
loop_
 _atom_site_type_symbol
 _atom_site_label
 _atom_site_symmetry_multiplicity
 _atom_site_fract_x
 _atom_site_fract_y
 _atom_site_fract_z
 _atom_site_occupancy
 _atom_site_charge
  Cd  Cd1  1  0.593020  0.519810  0.985680  1.0  1.1651
  Cd  Cd2  1  0.346960  0.753980  0.997700  1.0  1.159
  Cd  Cd3  1  0.276600  0.508510  0.886590  1.0  1.2115
  Cd  Cd4  1  0.906980  0.480190  0.485680  1.0  1.1661
  Cd  Cd5  1  0.153040  0.246020  0.497700  1.0  1.1592
  Cd  Cd6  1  0.223400  0.491490  0.386590  1.0  1.2122
  Cd  Cd7  1  0.406980  0.019810  0.514320  1.0  1.1664
  Cd  Cd8  1  0.653040  0.253980  0.502300  1.0  1.1587
  Cd  Cd9  1  0.723400  0.008510  0.613410  1.0  1.2142
  Cd  Cd10  1  0.093020  0.980190  0.014320  1.0  1.1656
  Cd  Cd11  1  0.846960  0.746020  0.002300  1.0  1.1587
  Cd  Cd12  1  0.776600  0.991490  0.113410  1.0  1.2157
  P  P13  1  0.093600  0.559560  0.999990  1.0  1.5275
  P  P14  1  0.596600  0.671720  0.900950  1.0  1.4394
  P  P15  1  0.406400  0.440440  0.499990  1.0  1.5287
  P  P16  1  0.903400  0.328280  0.400950  1.0  1.439
  P  P17  1  0.906400  0.059560  0.500010  1.0  1.5289
  P  P18  1  0.403400  0.171720  0.599050  1.0  1.4399
  P  P19  1  0.593600  0.940440  0.000010  1.0  1.5302
  P  P20  1  0.096600  0.828280  0.099050  1.0  1.4408
  H  H21  1  0.906600  0.423400  0.060500  1.0  0.211
  H  H22  1  0.502300  0.792200  0.820800  1.0  0.2686
  H  H23  1  0.025300  0.545000  0.084900  1.0  0.171
  H  H24  1  0.232200  0.513600  0.074300  1.0  0.1615
  H  H25  1  0.080500  0.389300  0.991700  1.0  0.1045
  H  H26  1  0.250400  0.364700  0.027100  1.0  0.0978
  H  H27  1  0.897300  0.281800  0.025100  1.0  0.0893
  H  H28  1  0.086400  0.244500  0.003200  1.0  0.0925
  H  H29  1  0.218500  0.243500  0.084400  1.0  0.0995
  H  H30  1  0.861200  0.298100  0.118500  1.0  0.0853
  H  H31  1  0.032500  0.275900  0.153900  1.0  0.092
  H  H32  1  0.208000  0.387200  0.122400  1.0  0.1058
  H  H33  1  0.011700  0.422000  0.141100  1.0  0.0986
  H  H34  1  0.532200  0.649700  0.816200  1.0  0.1656
  H  H35  1  0.751400  0.659500  0.824000  1.0  0.172
  H  H36  1  0.760400  0.748300  0.747100  1.0  0.1104
  H  H37  1  0.540700  0.733000  0.742400  1.0  0.0935
  H  H38  1  0.485800  0.878900  0.742900  1.0  0.085
  H  H39  1  0.624600  0.856200  0.698600  1.0  0.1003
  H  H40  1  0.885800  0.896900  0.746600  1.0  0.0991
  H  H41  1  0.852200  0.951500  0.826300  1.0  0.107
  H  H42  1  0.630900  0.941400  0.823600  1.0  0.0771
  H  H43  1  0.748100  0.832500  0.872000  1.0  0.1146
  H  H44  1  0.892800  0.806900  0.829700  1.0  0.1028
  H  H45  1  0.593400  0.576600  0.560500  1.0  0.2111
  H  H46  1  0.997700  0.207800  0.320800  1.0  0.2714
  H  H47  1  0.474700  0.455000  0.584900  1.0  0.1712
  H  H48  1  0.267800  0.486400  0.574300  1.0  0.1649
  H  H49  1  0.419500  0.610700  0.491700  1.0  0.1056
  H  H50  1  0.249600  0.635300  0.527100  1.0  0.097
  H  H51  1  0.602700  0.718200  0.525100  1.0  0.0875
  H  H52  1  0.413600  0.755500  0.503200  1.0  0.0925
  H  H53  1  0.281500  0.756500  0.584400  1.0  0.0987
  H  H54  1  0.638800  0.701900  0.618500  1.0  0.0839
  H  H55  1  0.467500  0.724100  0.653900  1.0  0.0911
  H  H56  1  0.292000  0.612800  0.622400  1.0  0.102
  H  H57  1  0.488300  0.578000  0.641100  1.0  0.0989
  H  H58  1  0.967800  0.350300  0.316200  1.0  0.1652
  H  H59  1  0.748600  0.340500  0.324000  1.0  0.1717
  H  H60  1  0.739600  0.251700  0.247100  1.0  0.1089
  H  H61  1  0.959300  0.267000  0.242400  1.0  0.0937
  H  H62  1  0.014200  0.121100  0.242900  1.0  0.0848
  H  H63  1  0.875400  0.143800  0.198600  1.0  0.1
  H  H64  1  0.614200  0.103100  0.246600  1.0  0.0992
  H  H65  1  0.647800  0.048500  0.326300  1.0  0.1082
  H  H66  1  0.869100  0.058600  0.323600  1.0  0.0777
  H  H67  1  0.751900  0.167500  0.372000  1.0  0.1157
  H  H68  1  0.607200  0.193100  0.329700  1.0  0.0995
  H  H69  1  0.093400  0.923400  0.439500  1.0  0.2109
  H  H70  1  0.497700  0.292200  0.679200  1.0  0.2716
  H  H71  1  0.974700  0.045000  0.415100  1.0  0.1718
  H  H72  1  0.767800  0.013600  0.425700  1.0  0.1649
  H  H73  1  0.919500  0.889300  0.508300  1.0  0.1075
  H  H74  1  0.749600  0.864700  0.472900  1.0  0.0964
  H  H75  1  0.102700  0.781800  0.474900  1.0  0.0878
  H  H76  1  0.913600  0.744500  0.496800  1.0  0.0918
  H  H77  1  0.781500  0.743500  0.415600  1.0  0.098
  H  H78  1  0.138800  0.798100  0.381500  1.0  0.0847
  H  H79  1  0.967500  0.775900  0.346100  1.0  0.0903
  H  H80  1  0.792000  0.887200  0.377600  1.0  0.1017
  H  H81  1  0.988300  0.922000  0.358900  1.0  0.0986
  H  H82  1  0.467800  0.149700  0.683800  1.0  0.1649
  H  H83  1  0.248600  0.159500  0.676000  1.0  0.1723
  H  H84  1  0.239600  0.248300  0.752900  1.0  0.1103
  H  H85  1  0.459300  0.233000  0.757600  1.0  0.0943
  H  H86  1  0.514200  0.378900  0.757100  1.0  0.0844
  H  H87  1  0.375400  0.356200  0.801400  1.0  0.0996
  H  H88  1  0.114200  0.396900  0.753400  1.0  0.0988
  H  H89  1  0.147800  0.451500  0.673700  1.0  0.1088
  H  H90  1  0.369100  0.441400  0.676400  1.0  0.077
  H  H91  1  0.251900  0.332500  0.628000  1.0  0.1188
  H  H92  1  0.107200  0.306900  0.670300  1.0  0.1005
  H  H93  1  0.406600  0.076600  0.939500  1.0  0.2109
  H  H94  1  0.002300  0.707800  0.179200  1.0  0.2686
  H  H95  1  0.525300  0.955000  0.915100  1.0  0.171
  H  H96  1  0.732200  0.986400  0.925700  1.0  0.1609
  H  H97  1  0.580500  0.110700  0.008300  1.0  0.1072
  H  H98  1  0.750400  0.135300  0.972900  1.0  0.0975
  H  H99  1  0.397300  0.218200  0.974900  1.0  0.0891
  H  H100  1  0.586400  0.255500  0.996800  1.0  0.0911
  H  H101  1  0.718500  0.256500  0.915600  1.0  0.1004
  H  H102  1  0.361200  0.201900  0.881500  1.0  0.0858
  H  H103  1  0.532500  0.224100  0.846100  1.0  0.0908
  H  H104  1  0.708000  0.112800  0.877600  1.0  0.1046
  H  H105  1  0.511700  0.078000  0.858900  1.0  0.0973
  H  H106  1  0.032200  0.850300  0.183800  1.0  0.1658
  H  H107  1  0.251400  0.840500  0.176000  1.0  0.1722
  H  H108  1  0.260400  0.751700  0.252900  1.0  0.1097
  H  H109  1  0.040700  0.767000  0.257600  1.0  0.0935
  H  H110  1  0.985800  0.621100  0.257100  1.0  0.0857
  H  H111  1  0.124600  0.643800  0.301400  1.0  0.1002
  H  H112  1  0.385800  0.603100  0.253400  1.0  0.0985
  H  H113  1  0.352200  0.548500  0.173700  1.0  0.1069
  H  H114  1  0.130900  0.558600  0.176400  1.0  0.0775
  H  H115  1  0.248100  0.667500  0.128000  1.0  0.1182
  H  H116  1  0.392800  0.693100  0.170300  1.0  0.1035
  C  C117  1  0.102100  0.511500  0.062200  1.0  -0.4963
  C  C118  1  0.113000  0.366700  0.024500  1.0  -0.0713
  C  C119  1  0.034000  0.279900  0.029500  1.0  -0.1468
  C  C120  1  0.080000  0.241400  0.080700  1.0  -0.1652
  C  C121  1  0.998700  0.297800  0.121000  1.0  -0.1426
  C  C122  1  0.072300  0.386700  0.116000  1.0  -0.075
  C  C123  1  0.023600  0.146700  0.081200  1.0  0.7176
  C  C124  1  0.628800  0.683000  0.833000  1.0  -0.4819
  C  C125  1  0.637000  0.770000  0.756500  1.0  -0.0748
  C  C126  1  0.612000  0.858100  0.734900  1.0  -0.1641
  C  C127  1  0.760000  0.917200  0.756700  1.0  -0.1603
  C  C128  1  0.750500  0.916600  0.813100  1.0  -0.1673
  C  C129  1  0.766700  0.829300  0.835900  1.0  -0.0728
  C  C130  1  0.734200  0.006800  0.735700  1.0  0.7024
  C  C131  1  0.397900  0.488500  0.562200  1.0  -0.4956
  C  C132  1  0.387000  0.633300  0.524500  1.0  -0.0712
  C  C133  1  0.466000  0.720100  0.529500  1.0  -0.1466
  C  C134  1  0.420000  0.758600  0.580700  1.0  -0.1667
  C  C135  1  0.501300  0.702200  0.621000  1.0  -0.1425
  C  C136  1  0.427700  0.613300  0.616000  1.0  -0.0755
  C  C137  1  0.476400  0.853300  0.581200  1.0  0.7166
  C  C138  1  0.871200  0.317000  0.333000  1.0  -0.4824
  C  C139  1  0.863000  0.230000  0.256500  1.0  -0.0764
  C  C140  1  0.888000  0.141900  0.234900  1.0  -0.1642
  C  C141  1  0.740000  0.082800  0.256700  1.0  -0.1607
  C  C142  1  0.749500  0.083400  0.313100  1.0  -0.166
  C  C143  1  0.733300  0.170700  0.335900  1.0  -0.0731
  C  C144  1  0.765800  0.993200  0.235700  1.0  0.7022
  C  C145  1  0.897900  0.011500  0.437800  1.0  -0.4962
  C  C146  1  0.887000  0.866700  0.475500  1.0  -0.0722
  C  C147  1  0.966000  0.779900  0.470500  1.0  -0.1478
  C  C148  1  0.920000  0.741400  0.419300  1.0  -0.1652
  C  C149  1  0.001300  0.797800  0.379000  1.0  -0.1437
  C  C150  1  0.927700  0.886700  0.384000  1.0  -0.075
  C  C151  1  0.976400  0.646700  0.418800  1.0  0.7186
  C  C152  1  0.371200  0.183000  0.667000  1.0  -0.4813
  C  C153  1  0.363000  0.270000  0.743500  1.0  -0.0758
  C  C154  1  0.388000  0.358100  0.765100  1.0  -0.1622
  C  C155  1  0.240000  0.417200  0.743300  1.0  -0.1609
  C  C156  1  0.249500  0.416600  0.686900  1.0  -0.1655
  C  C157  1  0.233300  0.329300  0.664100  1.0  -0.0738
  C  C158  1  0.265800  0.506800  0.764300  1.0  0.7031
  C  C159  1  0.602100  0.988500  0.937800  1.0  -0.4962
  C  C160  1  0.613000  0.133300  0.975500  1.0  -0.072
  C  C161  1  0.534000  0.220100  0.970500  1.0  -0.1481
  C  C162  1  0.580000  0.258600  0.919300  1.0  -0.1653
  C  C163  1  0.498700  0.202200  0.879000  1.0  -0.1417
  C  C164  1  0.572300  0.113300  0.884000  1.0  -0.0746
  C  C165  1  0.523600  0.353300  0.918800  1.0  0.7168
  C  C166  1  0.128800  0.817000  0.167000  1.0  -0.481
  C  C167  1  0.137000  0.730000  0.243500  1.0  -0.0757
  C  C168  1  0.112000  0.641900  0.265100  1.0  -0.1641
  C  C169  1  0.260000  0.582800  0.243300  1.0  -0.1601
  C  C170  1  0.250500  0.583400  0.186900  1.0  -0.166
  C  C171  1  0.266700  0.670700  0.164100  1.0  -0.0737
  C  C172  1  0.234200  0.493200  0.264300  1.0  0.7026
  N  N173  1  0.035000  0.422300  0.064700  1.0  0.1678
  N  N174  1  0.619000  0.771200  0.813100  1.0  0.1241
  N  N175  1  0.465000  0.577700  0.564700  1.0  0.167
  N  N176  1  0.881000  0.228800  0.313100  1.0  0.1258
  N  N177  1  0.965000  0.922300  0.435300  1.0  0.1675
  N  N178  1  0.381000  0.271200  0.686900  1.0  0.1238
  N  N179  1  0.535000  0.077700  0.935300  1.0  0.1674
  N  N180  1  0.119000  0.728800  0.186900  1.0  0.1256
  Cl  Cl181  1  0.593300  0.437800  0.069150  1.0  -0.6307
  Cl  Cl182  1  0.582000  0.652310  0.041910  1.0  -0.5194
  Cl  Cl183  1  0.906700  0.562200  0.569150  1.0  -0.6314
  Cl  Cl184  1  0.918000  0.347690  0.541910  1.0  -0.52
  Cl  Cl185  1  0.406700  0.937800  0.430850  1.0  -0.6314
  Cl  Cl186  1  0.418000  0.152310  0.458090  1.0  -0.5201
  Cl  Cl187  1  0.093300  0.062200  0.930850  1.0  -0.6309
  Cl  Cl188  1  0.082000  0.847690  0.958090  1.0  -0.5197
  O  O189  1  0.911100  0.529600  0.977000  1.0  -0.8689
  O  O190  1  0.104400  0.654900  0.007100  1.0  -0.8756
  O  O191  1  0.268400  0.526000  0.971700  1.0  -0.9036
  O  O192  1  0.878600  0.127200  0.105400  1.0  -0.6383
  O  O193  1  0.121000  0.099800  0.056000  1.0  -0.6079
  O  O194  1  0.559200  0.577600  0.906400  1.0  -0.8406
  O  O195  1  0.781000  0.698000  0.925600  1.0  -0.8415
  O  O196  1  0.425300  0.724500  0.917300  1.0  -0.8687
  O  O197  1  0.656500  0.016600  0.695400  1.0  -0.6637
  O  O198  1  0.817200  0.063700  0.760400  1.0  -0.6406
  O  O199  1  0.588900  0.470400  0.477000  1.0  -0.8698
  O  O200  1  0.395600  0.345100  0.507100  1.0  -0.8752
  O  O201  1  0.231600  0.474000  0.471700  1.0  -0.9038
  O  O202  1  0.621400  0.872800  0.605400  1.0  -0.6381
  O  O203  1  0.379000  0.900200  0.556000  1.0  -0.6068
  O  O204  1  0.940800  0.422400  0.406400  1.0  -0.842
  O  O205  1  0.719000  0.302000  0.425600  1.0  -0.8422
  O  O206  1  0.074700  0.275500  0.417300  1.0  -0.871
  O  O207  1  0.843500  0.983400  0.195400  1.0  -0.6654
  O  O208  1  0.682800  0.936300  0.260400  1.0  -0.6399
  O  O209  1  0.088900  0.029600  0.523000  1.0  -0.8708
  O  O210  1  0.895600  0.154900  0.492900  1.0  -0.8757
  O  O211  1  0.731600  0.026000  0.528300  1.0  -0.9057
  O  O212  1  0.121400  0.627200  0.394600  1.0  -0.6384
  O  O213  1  0.879000  0.599800  0.444000  1.0  -0.6084
  O  O214  1  0.440800  0.077600  0.593600  1.0  -0.8424
  O  O215  1  0.219000  0.198000  0.574400  1.0  -0.841
  O  O216  1  0.574700  0.224500  0.582700  1.0  -0.8708
  O  O217  1  0.343500  0.516600  0.804600  1.0  -0.6639
  O  O218  1  0.182800  0.563700  0.739600  1.0  -0.64
  O  O219  1  0.411100  0.970400  0.023000  1.0  -0.8696
  O  O220  1  0.604400  0.845100  0.992900  1.0  -0.8747
  O  O221  1  0.768400  0.974000  0.028300  1.0  -0.9053
  O  O222  1  0.378600  0.372800  0.894600  1.0  -0.638
  O  O223  1  0.621000  0.400200  0.944000  1.0  -0.6074
  O  O224  1  0.059200  0.922400  0.093600  1.0  -0.8408
  O  O225  1  0.281000  0.802000  0.074400  1.0  -0.8416
  O  O226  1  0.925300  0.775500  0.082700  1.0  -0.8703
  O  O227  1  0.156500  0.483400  0.304600  1.0  -0.6627
  O  O228  1  0.317200  0.436300  0.239600  1.0  -0.6414
