# generated using pymatgen
data_Mn5H14C28(N2O11)2
_symmetry_space_group_name_H-M   'P 1'
_cell_length_a   11.14000000
_cell_length_b   11.24900000
_cell_length_c   16.81500000
_cell_angle_alpha   98.14100000
_cell_angle_beta   108.84200000
_cell_angle_gamma   91.33300000
_symmetry_Int_Tables_number   1
_chemical_formula_structural   Mn5H14C28(N2O11)2
_chemical_formula_sum   'Mn10 H28 C56 N8 O44'
_cell_volume   1968.77842033
_cell_formula_units_Z   2
loop_
 _symmetry_equiv_pos_site_id
 _symmetry_equiv_pos_as_xyz
  1  'x, y, z'
loop_
 _atom_site_type_symbol
 _atom_site_label
 _atom_site_symmetry_multiplicity
 _atom_site_fract_x
 _atom_site_fract_y
 _atom_site_fract_z
 _atom_site_occupancy
 _atom_site_charge
  Mn  Mn1  1  0.582060  0.729380  0.962450  1.0  1.1923
  Mn  Mn2  1  0.672740  0.301540  0.458030  1.0  1.1545
  Mn  Mn3  1  0.746180  0.583990  0.456500  1.0  1.2027
  Mn  Mn4  1  0.680380  0.365850  0.250450  1.0  1.2367
  Mn  Mn5  1  0.292260  0.789960  0.951560  1.0  1.1614
  Mn  Mn6  1  0.417940  0.270620  0.037550  1.0  1.1931
  Mn  Mn7  1  0.327260  0.698460  0.541970  1.0  1.1544
  Mn  Mn8  1  0.253820  0.416010  0.543500  1.0  1.2043
  Mn  Mn9  1  0.319620  0.634150  0.749550  1.0  1.2409
  Mn  Mn10  1  0.707740  0.210040  0.048440  1.0  1.1609
  H  H11  1  0.874500  0.998700  0.145800  1.0  0.1178
  H  H12  1  0.924000  0.024200  0.290200  1.0  0.1031
  H  H13  1  0.874400  0.867900  0.354600  1.0  0.1226
  H  H14  1  0.562900  0.904500  0.361100  1.0  0.1133
  H  H15  1  0.500500  0.711800  0.287200  1.0  0.1168
  H  H16  1  0.468300  0.675700  0.141000  1.0  0.1342
  H  H17  1  0.867600  0.533500  0.865400  1.0  0.1212
  H  H18  1  0.002400  0.473500  0.791800  1.0  0.1154
  H  H19  1  0.928500  0.440900  0.643900  1.0  0.137
  H  H20  1  0.603600  0.839600  0.627500  1.0  0.1143
  H  H21  1  0.691700  0.884500  0.776200  1.0  0.1223
  H  H22  1  0.876400  0.799400  0.831800  1.0  0.0802
  H  H23  1  0.834100  0.394600  0.406100  1.0  0.4337
  H  H24  1  0.377000  0.597800  0.907200  1.0  0.4442
  H  H25  1  0.125500  0.001300  0.854200  1.0  0.1181
  H  H26  1  0.076000  0.975800  0.709800  1.0  0.103
  H  H27  1  0.125600  0.132100  0.645400  1.0  0.1228
  H  H28  1  0.437100  0.095500  0.638900  1.0  0.1142
  H  H29  1  0.499500  0.288200  0.712800  1.0  0.1157
  H  H30  1  0.531700  0.324300  0.859000  1.0  0.1331
  H  H31  1  0.132400  0.466500  0.134600  1.0  0.1234
  H  H32  1  0.997600  0.526500  0.208200  1.0  0.1166
  H  H33  1  0.071500  0.559100  0.356100  1.0  0.1364
  H  H34  1  0.396400  0.160400  0.372500  1.0  0.1152
  H  H35  1  0.308300  0.115500  0.223800  1.0  0.1259
  H  H36  1  0.123600  0.200600  0.168200  1.0  0.0862
  H  H37  1  0.165900  0.605400  0.593900  1.0  0.4341
  H  H38  1  0.623000  0.402200  0.092800  1.0  0.4428
  C  C39  1  0.859700  0.935400  0.172400  1.0  -0.0075
  C  C40  1  0.887500  0.950600  0.257400  1.0  -0.1206
  C  C41  1  0.861600  0.856000  0.296500  1.0  -0.0276
  C  C42  1  0.816900  0.745200  0.247900  1.0  -0.1849
  C  C43  1  0.780100  0.644700  0.288000  1.0  0.6848
  C  C44  1  0.791300  0.728500  0.161300  1.0  0.0043
  C  C45  1  0.746600  0.613900  0.096800  1.0  0.6496
  C  C46  1  0.538900  0.959600  0.172900  1.0  0.0358
  C  C47  1  0.540700  0.053100  0.118000  1.0  0.6944
  C  C48  1  0.600500  0.110100  0.305400  1.0  0.7377
  C  C49  1  0.559400  0.985000  0.258900  1.0  -0.1632
  C  C50  1  0.546900  0.889500  0.302600  1.0  0.0036
  C  C51  1  0.511200  0.774500  0.259000  1.0  -0.1035
  C  C52  1  0.491200  0.753100  0.171500  1.0  -0.0257
  C  C53  1  0.532200  0.523700  0.618800  1.0  0.6923
  C  C54  1  0.667300  0.511300  0.673900  1.0  0.0193
  C  C55  1  0.620200  0.584000  0.807300  1.0  0.679
  C  C56  1  0.710200  0.535400  0.762800  1.0  -0.1693
  C  C57  1  0.837500  0.519800  0.806300  1.0  -0.0107
  C  C58  1  0.918100  0.484600  0.762400  1.0  -0.0921
  C  C59  1  0.874600  0.465400  0.674300  1.0  -0.0192
  C  C60  1  0.687200  0.824800  0.655900  1.0  0.0185
  C  C61  1  0.735400  0.846400  0.742400  1.0  -0.1306
  C  C62  1  0.852400  0.807500  0.774600  1.0  -0.0149
  C  C63  1  0.937800  0.779200  0.737700  1.0  -0.1542
  C  C64  1  0.071200  0.749000  0.781800  1.0  0.7173
  C  C65  1  0.888300  0.760700  0.649100  1.0  0.0125
  C  C66  1  0.958600  0.726500  0.587900  1.0  0.6471
  C  C67  1  0.140300  0.064600  0.827600  1.0  -0.0065
  C  C68  1  0.112500  0.049400  0.742600  1.0  -0.1219
  C  C69  1  0.138400  0.144000  0.703500  1.0  -0.0281
  C  C70  1  0.183100  0.254800  0.752100  1.0  -0.1853
  C  C71  1  0.219900  0.355300  0.712000  1.0  0.685
  C  C72  1  0.208700  0.271500  0.838700  1.0  0.0037
  C  C73  1  0.253400  0.386100  0.903200  1.0  0.6501
  C  C74  1  0.461100  0.040400  0.827100  1.0  0.0355
  C  C75  1  0.459300  0.946900  0.882000  1.0  0.6941
  C  C76  1  0.399500  0.889900  0.694600  1.0  0.737
  C  C77  1  0.440600  0.015000  0.741100  1.0  -0.1651
  C  C78  1  0.453100  0.110500  0.697400  1.0  0.0025
  C  C79  1  0.488800  0.225500  0.741000  1.0  -0.1027
  C  C80  1  0.508800  0.246900  0.828500  1.0  -0.0253
  C  C81  1  0.467800  0.476300  0.381200  1.0  0.6921
  C  C82  1  0.332700  0.488700  0.326100  1.0  0.0218
  C  C83  1  0.379800  0.416000  0.192700  1.0  0.6779
  C  C84  1  0.289800  0.464600  0.237200  1.0  -0.1681
  C  C85  1  0.162500  0.480200  0.193700  1.0  -0.0057
  C  C86  1  0.081900  0.515400  0.237600  1.0  -0.0927
  C  C87  1  0.125400  0.534600  0.325700  1.0  -0.0185
  C  C88  1  0.312800  0.175200  0.344100  1.0  0.0182
  C  C89  1  0.264600  0.153600  0.257600  1.0  -0.13
  C  C90  1  0.147600  0.192500  0.225400  1.0  -0.0177
  C  C91  1  0.062200  0.220800  0.262300  1.0  -0.1578
  C  C92  1  0.928800  0.251000  0.218200  1.0  0.7168
  C  C93  1  0.111700  0.239300  0.350900  1.0  0.0119
  C  C94  1  0.041400  0.273500  0.412100  1.0  0.646
  N  N95  1  0.809400  0.825500  0.125680  1.0  0.3185
  N  N96  1  0.505400  0.845100  0.132400  1.0  0.3415
  N  N97  1  0.751100  0.483100  0.633400  1.0  0.3326
  N  N98  1  0.765100  0.780300  0.611400  1.0  0.3038
  N  N99  1  0.190600  0.174500  0.874320  1.0  0.318
  N  N100  1  0.494600  0.154900  0.867600  1.0  0.3428
  N  N101  1  0.248900  0.516900  0.366600  1.0  0.331
  N  N102  1  0.234900  0.219700  0.388600  1.0  0.3028
  O  O103  1  0.778300  0.813000  0.041070  1.0  -0.5456
  O  O104  1  0.630200  0.599200  0.055130  1.0  -0.6404
  O  O105  1  0.830600  0.547500  0.089790  1.0  -0.5714
  O  O106  1  0.748000  0.545100  0.242400  1.0  -0.5972
  O  O107  1  0.788000  0.672800  0.364260  1.0  -0.6062
  O  O108  1  0.481700  0.824300  0.048900  1.0  -0.609
  O  O109  1  0.638100  0.069300  0.100800  1.0  -0.5758
  O  O110  1  0.440900  0.106800  0.092640  1.0  -0.5975
  O  O111  1  0.618500  0.187500  0.264020  1.0  -0.6126
  O  O112  1  0.613500  0.129700  0.382370  1.0  -0.6182
  O  O113  1  0.709400  0.470400  0.547540  1.0  -0.6288
  O  O114  1  0.461200  0.427700  0.596290  1.0  -0.5902
  O  O115  1  0.505400  0.626300  0.601140  1.0  -0.5828
  O  O116  1  0.504600  0.569700  0.764730  1.0  -0.6004
  O  O117  1  0.671800  0.637500  0.882430  1.0  -0.5961
  O  O118  1  0.717500  0.761900  0.525730  1.0  -0.5469
  O  O119  1  0.112400  0.784100  0.860350  1.0  -0.6254
  O  O120  1  0.128400  0.691800  0.737740  1.0  -0.5963
  O  O121  1  0.025800  0.813000  0.580400  1.0  -0.553
  O  O122  1  0.940800  0.621400  0.548580  1.0  -0.6225
  O  O123  1  0.755900  0.408200  0.391550  1.0  -0.9902
  O  O124  1  0.388600  0.665100  0.892300  1.0  -0.9935
  O  O125  1  0.221700  0.187000  0.958930  1.0  -0.5459
  O  O126  1  0.369800  0.400800  0.944870  1.0  -0.6413
  O  O127  1  0.169400  0.452500  0.910210  1.0  -0.5721
  O  O128  1  0.252000  0.454900  0.757600  1.0  -0.5982
  O  O129  1  0.212000  0.327200  0.635740  1.0  -0.6071
  O  O130  1  0.518300  0.175700  0.951100  1.0  -0.6091
  O  O131  1  0.361900  0.930700  0.899200  1.0  -0.5764
  O  O132  1  0.559100  0.893200  0.907360  1.0  -0.5965
  O  O133  1  0.381500  0.812500  0.735980  1.0  -0.6121
  O  O134  1  0.386500  0.870300  0.617630  1.0  -0.618
  O  O135  1  0.290600  0.529600  0.452460  1.0  -0.6283
  O  O136  1  0.538800  0.572300  0.403710  1.0  -0.5894
  O  O137  1  0.494600  0.373700  0.398860  1.0  -0.5837
  O  O138  1  0.495400  0.430300  0.235270  1.0  -0.6001
  O  O139  1  0.328200  0.362500  0.117570  1.0  -0.5959
  O  O140  1  0.282500  0.238100  0.474270  1.0  -0.5494
  O  O141  1  0.887600  0.215900  0.139650  1.0  -0.6195
  O  O142  1  0.871600  0.308200  0.262260  1.0  -0.5961
  O  O143  1  0.974200  0.187000  0.419600  1.0  -0.5526
  O  O144  1  0.059200  0.378600  0.451420  1.0  -0.6218
  O  O145  1  0.244100  0.591800  0.608450  1.0  -0.9908
  O  O146  1  0.611400  0.334900  0.107700  1.0  -0.9905
