# generated using pymatgen
data_Zr3SiH16(C7O3)4
_symmetry_space_group_name_H-M   'P 1'
_cell_length_a   15.22800000
_cell_length_b   15.22800000
_cell_length_c   28.79100000
_cell_angle_alpha   90.00000000
_cell_angle_beta   90.00000000
_cell_angle_gamma   90.00000000
_symmetry_Int_Tables_number   1
_chemical_formula_structural   Zr3SiH16(C7O3)4
_chemical_formula_sum   'Zr12 Si4 H64 C112 O48'
_cell_volume   6676.40211134
_cell_formula_units_Z   4
loop_
 _symmetry_equiv_pos_site_id
 _symmetry_equiv_pos_as_xyz
  1  'x, y, z'
loop_
 _atom_site_type_symbol
 _atom_site_label
 _atom_site_symmetry_multiplicity
 _atom_site_fract_x
 _atom_site_fract_y
 _atom_site_fract_z
 _atom_site_occupancy
 _atom_site_charge
  Zr  Zr1  1  0.843210  0.050070  0.500000  1.0  2.0723
  Zr  Zr2  1  0.343210  0.550070  0.000000  1.0  2.0724
  Zr  Zr3  1  0.156790  0.949930  0.500000  1.0  2.0516
  Zr  Zr4  1  0.656790  0.449930  0.000000  1.0  2.0518
  Zr  Zr5  1  0.949930  0.843210  0.500000  1.0  2.0718
  Zr  Zr6  1  0.449930  0.343210  0.000000  1.0  2.0719
  Zr  Zr7  1  0.050070  0.156790  0.500000  1.0  2.0732
  Zr  Zr8  1  0.550070  0.656790  0.000000  1.0  2.0732
  Zr  Zr9  1  0.000000  0.000000  0.414560  1.0  2.1534
  Zr  Zr10  1  0.500000  0.500000  0.914560  1.0  2.1534
  Zr  Zr11  1  0.000000  0.000000  0.585430  1.0  2.1484
  Zr  Zr12  1  0.500000  0.500000  0.085440  1.0  2.1484
  Si  Si13  1  0.500000  0.000000  0.250000  1.0  0.9106
  Si  Si14  1  0.000000  0.500000  0.250000  1.0  0.9106
  Si  Si15  1  0.500000  0.000000  0.750000  1.0  0.9106
  Si  Si16  1  0.000000  0.500000  0.750000  1.0  0.9106
  H  H17  1  0.688600  0.962200  0.252600  1.0  0.1032
  H  H18  1  0.803000  0.984100  0.303200  1.0  0.1131
  H  H19  1  0.641300  0.112400  0.388600  1.0  0.1133
  H  H20  1  0.529800  0.095400  0.336000  1.0  0.1084
  H  H21  1  0.188600  0.462200  0.752600  1.0  0.1032
  H  H22  1  0.303000  0.484100  0.803200  1.0  0.1131
  H  H23  1  0.141300  0.612400  0.888600  1.0  0.1133
  H  H24  1  0.029800  0.595400  0.836000  1.0  0.1084
  H  H25  1  0.311400  0.037800  0.252600  1.0  0.1023
  H  H26  1  0.197000  0.015900  0.303200  1.0  0.1132
  H  H27  1  0.358700  0.887600  0.388600  1.0  0.1132
  H  H28  1  0.470200  0.904600  0.336000  1.0  0.1081
  H  H29  1  0.811400  0.537800  0.752600  1.0  0.1023
  H  H30  1  0.697000  0.515900  0.803200  1.0  0.1132
  H  H31  1  0.858700  0.387600  0.888600  1.0  0.1132
  H  H32  1  0.970200  0.404600  0.836000  1.0  0.1081
  H  H33  1  0.037800  0.688600  0.252600  1.0  0.103
  H  H34  1  0.015900  0.803000  0.303200  1.0  0.113
  H  H35  1  0.887600  0.641300  0.388600  1.0  0.1138
  H  H36  1  0.904600  0.529800  0.336000  1.0  0.1075
  H  H37  1  0.537800  0.188600  0.752600  1.0  0.103
  H  H38  1  0.515900  0.303000  0.803200  1.0  0.113
  H  H39  1  0.387600  0.141300  0.888600  1.0  0.1138
  H  H40  1  0.404600  0.029800  0.836000  1.0  0.1075
  H  H41  1  0.962200  0.311400  0.252600  1.0  0.1031
  H  H42  1  0.984100  0.197000  0.303200  1.0  0.1136
  H  H43  1  0.112400  0.358700  0.388600  1.0  0.1134
  H  H44  1  0.095400  0.470200  0.336000  1.0  0.1073
  H  H45  1  0.462200  0.811400  0.752600  1.0  0.1031
  H  H46  1  0.484100  0.697000  0.803200  1.0  0.1136
  H  H47  1  0.612400  0.858700  0.888600  1.0  0.1134
  H  H48  1  0.595400  0.970200  0.836000  1.0  0.1073
  H  H49  1  0.311400  0.037800  0.747400  1.0  0.1029
  H  H50  1  0.197000  0.015900  0.696800  1.0  0.1134
  H  H51  1  0.358700  0.887600  0.611400  1.0  0.113
  H  H52  1  0.470200  0.904600  0.664000  1.0  0.1079
  H  H53  1  0.811400  0.537800  0.247400  1.0  0.1029
  H  H54  1  0.697000  0.515900  0.196800  1.0  0.1134
  H  H55  1  0.858700  0.387600  0.111400  1.0  0.113
  H  H56  1  0.970200  0.404600  0.164000  1.0  0.1079
  H  H57  1  0.688600  0.962200  0.747400  1.0  0.103
  H  H58  1  0.803000  0.984100  0.696800  1.0  0.1131
  H  H59  1  0.641300  0.112400  0.611400  1.0  0.1132
  H  H60  1  0.529800  0.095400  0.664000  1.0  0.1079
  H  H61  1  0.188600  0.462200  0.247400  1.0  0.103
  H  H62  1  0.303000  0.484100  0.196800  1.0  0.1131
  H  H63  1  0.141300  0.612400  0.111400  1.0  0.1132
  H  H64  1  0.029800  0.595400  0.164000  1.0  0.1079
  H  H65  1  0.962200  0.311400  0.747400  1.0  0.1037
  H  H66  1  0.984100  0.197000  0.696800  1.0  0.1137
  H  H67  1  0.112400  0.358700  0.611400  1.0  0.1139
  H  H68  1  0.095400  0.470200  0.664000  1.0  0.1074
  H  H69  1  0.462200  0.811400  0.247400  1.0  0.1037
  H  H70  1  0.484100  0.697000  0.196800  1.0  0.1137
  H  H71  1  0.612400  0.858700  0.111400  1.0  0.1139
  H  H72  1  0.595400  0.970200  0.164000  1.0  0.1074
  H  H73  1  0.037800  0.688600  0.747400  1.0  0.1032
  H  H74  1  0.015900  0.803000  0.696800  1.0  0.1131
  H  H75  1  0.887600  0.641300  0.611400  1.0  0.1133
  H  H76  1  0.904600  0.529800  0.664000  1.0  0.1069
  H  H77  1  0.537800  0.188600  0.247400  1.0  0.1032
  H  H78  1  0.515900  0.303000  0.196800  1.0  0.1131
  H  H79  1  0.387600  0.141300  0.111400  1.0  0.1133
  H  H80  1  0.404600  0.029800  0.164000  1.0  0.1069
  C  C81  1  0.678500  0.992700  0.280070  1.0  -0.014
  C  C82  1  0.747300  0.004800  0.310680  1.0  -0.0776
  C  C83  1  0.733450  0.047760  0.352530  1.0  -0.1058
  C  C84  1  0.651500  0.081700  0.361210  1.0  -0.051
  C  C85  1  0.584400  0.070800  0.329710  1.0  -0.0572
  C  C86  1  0.595980  0.024130  0.288850  1.0  -0.2223
  C  C87  1  0.803630  0.051310  0.388180  1.0  0.756
  C  C88  1  0.178500  0.492700  0.780070  1.0  -0.014
  C  C89  1  0.247300  0.504800  0.810680  1.0  -0.0776
  C  C90  1  0.233450  0.547760  0.852530  1.0  -0.1058
  C  C91  1  0.151500  0.581700  0.861210  1.0  -0.051
  C  C92  1  0.084400  0.570800  0.829710  1.0  -0.0572
  C  C93  1  0.095980  0.524130  0.788850  1.0  -0.2223
  C  C94  1  0.303630  0.551310  0.888180  1.0  0.756
  C  C95  1  0.321500  0.007300  0.280070  1.0  -0.0127
  C  C96  1  0.252700  0.995200  0.310680  1.0  -0.0788
  C  C97  1  0.266550  0.952240  0.352530  1.0  -0.1058
  C  C98  1  0.348500  0.918300  0.361210  1.0  -0.0498
  C  C99  1  0.415600  0.929200  0.329710  1.0  -0.0556
  C  C100  1  0.404020  0.975870  0.288850  1.0  -0.2215
  C  C101  1  0.196370  0.948690  0.388180  1.0  0.7567
  C  C102  1  0.821500  0.507300  0.780070  1.0  -0.0127
  C  C103  1  0.752700  0.495200  0.810680  1.0  -0.0788
  C  C104  1  0.766550  0.452240  0.852530  1.0  -0.1058
  C  C105  1  0.848500  0.418300  0.861210  1.0  -0.0498
  C  C106  1  0.915600  0.429200  0.829710  1.0  -0.0556
  C  C107  1  0.904020  0.475870  0.788850  1.0  -0.2215
  C  C108  1  0.696370  0.448690  0.888180  1.0  0.7567
  C  C109  1  0.007300  0.678500  0.280070  1.0  -0.0197
  C  C110  1  0.995200  0.747300  0.310680  1.0  -0.0784
  C  C111  1  0.952240  0.733450  0.352530  1.0  -0.1062
  C  C112  1  0.918300  0.651500  0.361210  1.0  -0.0487
  C  C113  1  0.929200  0.584400  0.329710  1.0  -0.0549
  C  C114  1  0.975870  0.595980  0.288850  1.0  -0.2199
  C  C115  1  0.948690  0.803630  0.388180  1.0  0.755
  C  C116  1  0.507300  0.178500  0.780070  1.0  -0.0197
  C  C117  1  0.495200  0.247300  0.810680  1.0  -0.0784
  C  C118  1  0.452240  0.233450  0.852530  1.0  -0.1062
  C  C119  1  0.418300  0.151500  0.861210  1.0  -0.0487
  C  C120  1  0.429200  0.084400  0.829710  1.0  -0.0549
  C  C121  1  0.475870  0.095980  0.788850  1.0  -0.2199
  C  C122  1  0.448690  0.303630  0.888180  1.0  0.755
  C  C123  1  0.992700  0.321500  0.280070  1.0  -0.0189
  C  C124  1  0.004800  0.252700  0.310680  1.0  -0.0764
  C  C125  1  0.047760  0.266550  0.352530  1.0  -0.1059
  C  C126  1  0.081700  0.348500  0.361210  1.0  -0.0495
  C  C127  1  0.070800  0.415600  0.329710  1.0  -0.0541
  C  C128  1  0.024130  0.404020  0.288850  1.0  -0.2204
  C  C129  1  0.051310  0.196370  0.388180  1.0  0.7558
  C  C130  1  0.492700  0.821500  0.780070  1.0  -0.0189
  C  C131  1  0.504800  0.752700  0.810680  1.0  -0.0764
  C  C132  1  0.547760  0.766550  0.852530  1.0  -0.1059
  C  C133  1  0.581700  0.848500  0.861210  1.0  -0.0495
  C  C134  1  0.570800  0.915600  0.829710  1.0  -0.0541
  C  C135  1  0.524130  0.904020  0.788850  1.0  -0.2204
  C  C136  1  0.551310  0.696370  0.888180  1.0  0.7558
  C  C137  1  0.321500  0.007300  0.719930  1.0  -0.0124
  C  C138  1  0.252700  0.995200  0.689320  1.0  -0.0786
  C  C139  1  0.266550  0.952240  0.647470  1.0  -0.1058
  C  C140  1  0.348500  0.918300  0.638790  1.0  -0.0505
  C  C141  1  0.415600  0.929200  0.670290  1.0  -0.0551
  C  C142  1  0.404020  0.975870  0.711150  1.0  -0.2212
  C  C143  1  0.196370  0.948690  0.611820  1.0  0.7568
  C  C144  1  0.821500  0.507300  0.219930  1.0  -0.0124
  C  C145  1  0.752700  0.495200  0.189320  1.0  -0.0786
  C  C146  1  0.766550  0.452240  0.147470  1.0  -0.1058
  C  C147  1  0.848500  0.418300  0.138790  1.0  -0.0505
  C  C148  1  0.915600  0.429200  0.170290  1.0  -0.0551
  C  C149  1  0.904020  0.475870  0.211150  1.0  -0.2212
  C  C150  1  0.696370  0.448690  0.111820  1.0  0.7568
  C  C151  1  0.678500  0.992700  0.719930  1.0  -0.0127
  C  C152  1  0.747300  0.004800  0.689320  1.0  -0.0774
  C  C153  1  0.733450  0.047760  0.647470  1.0  -0.1054
  C  C154  1  0.651500  0.081700  0.638790  1.0  -0.0502
  C  C155  1  0.584400  0.070800  0.670290  1.0  -0.0553
  C  C156  1  0.595980  0.024130  0.711150  1.0  -0.2214
  C  C157  1  0.803630  0.051310  0.611820  1.0  0.7563
  C  C158  1  0.178500  0.492700  0.219930  1.0  -0.0127
  C  C159  1  0.247300  0.504800  0.189320  1.0  -0.0774
  C  C160  1  0.233450  0.547760  0.147470  1.0  -0.1054
  C  C161  1  0.151500  0.581700  0.138790  1.0  -0.0502
  C  C162  1  0.084400  0.570800  0.170290  1.0  -0.0553
  C  C163  1  0.095980  0.524130  0.211150  1.0  -0.2214
  C  C164  1  0.303630  0.551310  0.111820  1.0  0.7563
  C  C165  1  0.992700  0.321500  0.719930  1.0  -0.0185
  C  C166  1  0.004800  0.252700  0.689320  1.0  -0.0764
  C  C167  1  0.047760  0.266550  0.647470  1.0  -0.1061
  C  C168  1  0.081700  0.348500  0.638790  1.0  -0.0493
  C  C169  1  0.070800  0.415600  0.670290  1.0  -0.0535
  C  C170  1  0.024130  0.404020  0.711150  1.0  -0.2205
  C  C171  1  0.051310  0.196370  0.611820  1.0  0.7557
  C  C172  1  0.492700  0.821500  0.219930  1.0  -0.0185
  C  C173  1  0.504800  0.752700  0.189320  1.0  -0.0764
  C  C174  1  0.547760  0.766550  0.147470  1.0  -0.1061
  C  C175  1  0.581700  0.848500  0.138790  1.0  -0.0493
  C  C176  1  0.570800  0.915600  0.170290  1.0  -0.0535
  C  C177  1  0.524130  0.904020  0.211150  1.0  -0.2205
  C  C178  1  0.551310  0.696370  0.111820  1.0  0.7557
  C  C179  1  0.007300  0.678500  0.719930  1.0  -0.0183
  C  C180  1  0.995200  0.747300  0.689320  1.0  -0.0772
  C  C181  1  0.952240  0.733450  0.647470  1.0  -0.1054
  C  C182  1  0.918300  0.651500  0.638790  1.0  -0.0486
  C  C183  1  0.929200  0.584400  0.670290  1.0  -0.0531
  C  C184  1  0.975870  0.595980  0.711150  1.0  -0.219
  C  C185  1  0.948690  0.803630  0.611820  1.0  0.7554
  C  C186  1  0.507300  0.178500  0.219930  1.0  -0.0183
  C  C187  1  0.495200  0.247300  0.189320  1.0  -0.0772
  C  C188  1  0.452240  0.233450  0.147470  1.0  -0.1054
  C  C189  1  0.418300  0.151500  0.138790  1.0  -0.0486
  C  C190  1  0.429200  0.084400  0.170290  1.0  -0.0531
  C  C191  1  0.475870  0.095980  0.211150  1.0  -0.219
  C  C192  1  0.448690  0.303630  0.111820  1.0  0.7554
  O  O193  1  0.781090  0.068580  0.429330  1.0  -0.6947
  O  O194  1  0.881580  0.033730  0.375160  1.0  -0.6069
  O  O195  1  0.896780  0.946240  0.541380  1.0  -1.1669
  O  O196  1  0.281090  0.568580  0.929330  1.0  -0.6947
  O  O197  1  0.381580  0.533730  0.875160  1.0  -0.6069
  O  O198  1  0.396780  0.446240  0.041380  1.0  -1.1668
  O  O199  1  0.218910  0.931420  0.429330  1.0  -0.6956
  O  O200  1  0.118420  0.966270  0.375160  1.0  -0.606
  O  O201  1  0.103220  0.053760  0.541380  1.0  -1.1647
  O  O202  1  0.718910  0.431420  0.929330  1.0  -0.6956
  O  O203  1  0.618420  0.466270  0.875160  1.0  -0.606
  O  O204  1  0.603220  0.553760  0.041380  1.0  -1.1647
  O  O205  1  0.931420  0.781090  0.429330  1.0  -0.6944
  O  O206  1  0.966270  0.881580  0.375160  1.0  -0.6074
  O  O207  1  0.053760  0.896780  0.541380  1.0  -1.1648
  O  O208  1  0.431420  0.281090  0.929330  1.0  -0.6944
  O  O209  1  0.466270  0.381580  0.875160  1.0  -0.6074
  O  O210  1  0.553760  0.396780  0.041380  1.0  -1.1648
  O  O211  1  0.068580  0.218910  0.429330  1.0  -0.6924
  O  O212  1  0.033730  0.118420  0.375160  1.0  -0.6061
  O  O213  1  0.946240  0.103220  0.541380  1.0  -1.1666
  O  O214  1  0.568580  0.718910  0.929330  1.0  -0.6924
  O  O215  1  0.533730  0.618420  0.875160  1.0  -0.6061
  O  O216  1  0.446240  0.603220  0.041380  1.0  -1.1666
  O  O217  1  0.218910  0.931420  0.570670  1.0  -0.6958
  O  O218  1  0.118420  0.966270  0.624840  1.0  -0.6059
  O  O219  1  0.103220  0.053760  0.458620  1.0  -1.1656
  O  O220  1  0.718910  0.431420  0.070670  1.0  -0.6958
  O  O221  1  0.618420  0.466270  0.124840  1.0  -0.6059
  O  O222  1  0.603220  0.553760  0.958620  1.0  -1.1656
  O  O223  1  0.781090  0.068580  0.570670  1.0  -0.6955
  O  O224  1  0.881580  0.033730  0.624840  1.0  -0.6067
  O  O225  1  0.896780  0.946240  0.458620  1.0  -1.1674
  O  O226  1  0.281090  0.568580  0.070670  1.0  -0.6955
  O  O227  1  0.381580  0.533730  0.124840  1.0  -0.6067
  O  O228  1  0.396780  0.446240  0.958620  1.0  -1.1674
  O  O229  1  0.068580  0.218910  0.570670  1.0  -0.6963
  O  O230  1  0.033730  0.118420  0.624840  1.0  -0.6067
  O  O231  1  0.946240  0.103220  0.458620  1.0  -1.1677
  O  O232  1  0.568580  0.718910  0.070670  1.0  -0.6963
  O  O233  1  0.533730  0.618420  0.124840  1.0  -0.6067
  O  O234  1  0.446240  0.603220  0.958620  1.0  -1.1677
  O  O235  1  0.931420  0.781090  0.570670  1.0  -0.6957
  O  O236  1  0.966270  0.881580  0.624840  1.0  -0.6065
  O  O237  1  0.053760  0.896780  0.458620  1.0  -1.1651
  O  O238  1  0.431420  0.281090  0.070670  1.0  -0.6957
  O  O239  1  0.466270  0.381580  0.124840  1.0  -0.6065
  O  O240  1  0.553760  0.396780  0.958620  1.0  -1.1651
