# generated using pymatgen
data_Eu2H6(C3O4)3
_symmetry_space_group_name_H-M   'P 1'
_cell_length_a   10.50850000
_cell_length_b   10.50850000
_cell_length_c   10.87720000
_cell_angle_alpha   101.17300000
_cell_angle_beta   117.53000000
_cell_angle_gamma   108.72300000
_symmetry_Int_Tables_number   1
_chemical_formula_structural   Eu2H6(C3O4)3
_chemical_formula_sum   'Eu4 H12 C18 O24'
_cell_volume   921.27472884
_cell_formula_units_Z   2
loop_
 _symmetry_equiv_pos_site_id
 _symmetry_equiv_pos_as_xyz
  1  'x, y, z'
loop_
 _atom_site_type_symbol
 _atom_site_label
 _atom_site_symmetry_multiplicity
 _atom_site_fract_x
 _atom_site_fract_y
 _atom_site_fract_z
 _atom_site_occupancy
 _atom_site_charge
  Eu  Eu1  1  0.255060  0.068350  0.620390  1.0  2.1945
  Eu  Eu2  1  0.947960  0.634670  0.879610  1.0  2.1942
  Eu  Eu3  1  0.744940  0.931650  0.379610  1.0  2.194
  Eu  Eu4  1  0.052040  0.365330  0.120390  1.0  2.1952
  H  H5  1  0.362300  0.748300  0.852000  1.0  0.168
  H  H6  1  0.298000  0.722100  0.683500  1.0  0.1806
  H  H7  1  0.892600  0.550700  0.283100  1.0  0.146
  H  H8  1  0.396300  0.510300  0.648000  1.0  0.1736
  H  H9  1  0.538600  0.614500  0.816500  1.0  0.1816
  H  H10  1  0.767600  0.609500  0.216900  1.0  0.1519
  H  H11  1  0.637700  0.251700  0.148000  1.0  0.1676
  H  H12  1  0.702000  0.277900  0.316500  1.0  0.1805
  H  H13  1  0.107400  0.449300  0.716900  1.0  0.1435
  H  H14  1  0.603700  0.489700  0.352000  1.0  0.1749
  H  H15  1  0.461400  0.385500  0.183500  1.0  0.183
  H  H16  1  0.232400  0.390500  0.783100  1.0  0.144
  C  C17  1  0.479900  0.928100  0.831000  1.0  0.8354
  C  C18  1  0.330800  0.791400  0.778800  1.0  -0.5824
  C  C19  1  0.184500  0.803500  0.756200  1.0  0.8871
  C  C20  1  0.000800  0.775900  0.374900  1.0  0.8064
  C  C21  1  0.597100  0.648900  0.669000  1.0  0.8385
  C  C22  1  0.512600  0.552000  0.721200  1.0  -0.5802
  C  C23  1  0.547300  0.428300  0.743800  1.0  0.8858
  C  C24  1  0.901000  0.625900  0.125100  1.0  0.8141
  C  C25  1  0.520100  0.071900  0.169000  1.0  0.8361
  C  C26  1  0.669200  0.208600  0.221200  1.0  -0.5817
  C  C27  1  0.815500  0.196500  0.243800  1.0  0.8824
  C  C28  1  0.999200  0.224100  0.625100  1.0  0.807
  C  C29  1  0.402900  0.351100  0.331000  1.0  0.8405
  C  C30  1  0.487400  0.448000  0.278800  1.0  -0.5811
  C  C31  1  0.452700  0.571700  0.256200  1.0  0.8903
  C  C32  1  0.099000  0.374100  0.874900  1.0  0.813
  C  C33  1  0.875600  0.625600  0.250000  1.0  -0.4385
  C  C34  1  0.124400  0.374400  0.750000  1.0  -0.4353
  O  O35  1  0.465300  0.021200  0.774700  1.0  -0.8262
  O  O36  1  0.148700  0.893900  0.707200  1.0  -0.7131
  O  O37  1  0.098600  0.716400  0.783600  1.0  -0.772
  O  O38  1  0.616000  0.944200  0.927800  1.0  -0.6134
  O  O39  1  0.148300  0.809600  0.441700  1.0  -0.6431
  O  O40  1  0.957500  0.869000  0.407900  1.0  -0.8647
  O  O41  1  0.746500  0.690600  0.725300  1.0  -0.8225
  O  O42  1  0.686700  0.441500  0.792800  1.0  -0.7154
  O  O43  1  0.432800  0.315000  0.716400  1.0  -0.7731
  O  O44  1  0.516400  0.688200  0.572200  1.0  -0.6099
  O  O45  1  0.867900  0.706600  0.058300  1.0  -0.6381
  O  O46  1  0.961100  0.549600  0.092100  1.0  -0.8654
  O  O47  1  0.534700  0.978800  0.225300  1.0  -0.8235
  O  O48  1  0.851300  0.106100  0.292800  1.0  -0.7132
  O  O49  1  0.901400  0.283600  0.216400  1.0  -0.7749
  O  O50  1  0.384000  0.055800  0.072200  1.0  -0.6108
  O  O51  1  0.851700  0.190400  0.558300  1.0  -0.6424
  O  O52  1  0.042500  0.131000  0.592100  1.0  -0.8627
  O  O53  1  0.253500  0.309400  0.274700  1.0  -0.8185
  O  O54  1  0.313300  0.558500  0.207200  1.0  -0.7167
  O  O55  1  0.567200  0.685000  0.283600  1.0  -0.7764
  O  O56  1  0.483600  0.311800  0.427800  1.0  -0.6124
  O  O57  1  0.132100  0.293400  0.941700  1.0  -0.6375
  O  O58  1  0.038900  0.450400  0.907900  1.0  -0.8646
