# generated using pymatgen
data_Eu2H6(C3O4)3
_symmetry_space_group_name_H-M   'P 1'
_cell_length_a   10.53030000
_cell_length_b   10.53030000
_cell_length_c   10.88010000
_cell_angle_alpha   78.90160000
_cell_angle_beta   62.49260000
_cell_angle_gamma   108.89900000
_symmetry_Int_Tables_number   1
_chemical_formula_structural   Eu2H6(C3O4)3
_chemical_formula_sum   'Eu4 H12 C18 O24'
_cell_volume   924.44032696
_cell_formula_units_Z   2
loop_
 _symmetry_equiv_pos_site_id
 _symmetry_equiv_pos_as_xyz
  1  'x, y, z'
loop_
 _atom_site_type_symbol
 _atom_site_label
 _atom_site_symmetry_multiplicity
 _atom_site_fract_x
 _atom_site_fract_y
 _atom_site_fract_z
 _atom_site_occupancy
 _atom_site_charge
  Eu  Eu1  1  0.551760  0.365220  0.379710  1.0  2.1836
  Eu  Eu2  1  0.244930  0.931470  0.120290  1.0  2.1827
  Eu  Eu3  1  0.448240  0.634780  0.620290  1.0  2.1833
  Eu  Eu4  1  0.755070  0.068530  0.879710  1.0  2.183
  H  H5  1  0.968400  0.387200  0.312000  1.0  0.1673
  H  H6  1  0.107000  0.492700  0.142500  1.0  0.1567
  H  H7  1  0.603000  0.453000  0.788000  1.0  0.1295
  H  H8  1  0.199200  0.280400  0.188000  1.0  0.1658
  H  H9  1  0.135200  0.249500  0.357500  1.0  0.1542
  H  H10  1  0.741000  0.391000  0.712000  1.0  0.1307
  H  H11  1  0.031600  0.612800  0.688000  1.0  0.1667
  H  H12  1  0.893000  0.507300  0.857500  1.0  0.1578
  H  H13  1  0.397000  0.547000  0.212000  1.0  0.1286
  H  H14  1  0.800800  0.719600  0.812000  1.0  0.1671
  H  H15  1  0.864800  0.750500  0.642500  1.0  0.1545
  H  H16  1  0.259000  0.609000  0.288000  1.0  0.1315
  C  C17  1  0.902400  0.351000  0.167800  1.0  0.8284
  C  C18  1  0.991100  0.449100  0.218200  1.0  -0.5537
  C  C19  1  0.951600  0.571900  0.243700  1.0  0.8793
  C  C20  1  0.599500  0.375100  0.623600  1.0  0.788
  C  C21  1  0.018800  0.070200  0.332200  1.0  0.8274
  C  C22  1  0.167300  0.209300  0.281800  1.0  -0.5551
  C  C23  1  0.315600  0.195300  0.256300  1.0  0.8758
  C  C24  1  0.498700  0.223100  0.876400  1.0  0.781
  C  C25  1  0.097600  0.649000  0.832200  1.0  0.8278
  C  C26  1  0.008900  0.550900  0.781800  1.0  -0.5536
  C  C27  1  0.048400  0.428100  0.756300  1.0  0.8751
  C  C28  1  0.400500  0.624900  0.376400  1.0  0.7878
  C  C29  1  0.981200  0.929800  0.667800  1.0  0.8245
  C  C30  1  0.832700  0.790700  0.718200  1.0  -0.554
  C  C31  1  0.684400  0.804700  0.743700  1.0  0.8787
  C  C32  1  0.501300  0.776900  0.123600  1.0  0.7821
  C  C33  1  0.625400  0.375400  0.750000  1.0  -0.4369
  C  C34  1  0.374600  0.624600  0.250000  1.0  -0.4387
  O  O35  1  0.753700  0.309700  0.225400  1.0  -0.7929
  O  O36  1  0.983900  0.312600  0.072100  1.0  -0.5902
  O  O37  1  0.068300  0.685800  0.214100  1.0  -0.7504
  O  O38  1  0.538900  0.450800  0.591700  1.0  -0.8662
  O  O39  1  0.631700  0.293200  0.558300  1.0  -0.658
  O  O40  1  0.813500  0.557300  0.291800  1.0  -0.6968
  O  O41  1  0.035100  0.979100  0.274600  1.0  -0.7956
  O  O42  1  0.884700  0.056000  0.427900  1.0  -0.5899
  O  O43  1  0.399900  0.282400  0.285900  1.0  -0.7448
  O  O44  1  0.542500  0.130600  0.908300  1.0  -0.8646
  O  O45  1  0.351500  0.190000  0.941700  1.0  -0.6628
  O  O46  1  0.349100  0.105300  0.208200  1.0  -0.692
  O  O47  1  0.246300  0.690300  0.774600  1.0  -0.796
  O  O48  1  0.016100  0.687400  0.927900  1.0  -0.5895
  O  O49  1  0.931700  0.314200  0.785900  1.0  -0.7478
  O  O50  1  0.461100  0.549200  0.408300  1.0  -0.8651
  O  O51  1  0.368300  0.706800  0.441700  1.0  -0.6584
  O  O52  1  0.186500  0.442700  0.708200  1.0  -0.6927
  O  O53  1  0.964900  0.020900  0.725400  1.0  -0.7964
  O  O54  1  0.115300  0.944000  0.572100  1.0  -0.5902
  O  O55  1  0.600100  0.717600  0.714100  1.0  -0.7459
  O  O56  1  0.457500  0.869400  0.091700  1.0  -0.8653
  O  O57  1  0.648500  0.810000  0.058300  1.0  -0.6638
  O  O58  1  0.650900  0.894700  0.791800  1.0  -0.6917
