# generated using pymatgen
data_Eu2H8C9O14
_symmetry_space_group_name_H-M   'P 1'
_cell_length_a   10.54770000
_cell_length_b   10.54770000
_cell_length_c   10.89970000
_cell_angle_alpha   78.83270000
_cell_angle_beta   62.49610000
_cell_angle_gamma   108.82300000
_symmetry_Int_Tables_number   1
_chemical_formula_structural   Eu2H8C9O14
_chemical_formula_sum   'Eu4 H16 C18 O28'
_cell_volume   929.39365944
_cell_formula_units_Z   2
loop_
 _symmetry_equiv_pos_site_id
 _symmetry_equiv_pos_as_xyz
  1  'x, y, z'
loop_
 _atom_site_type_symbol
 _atom_site_label
 _atom_site_symmetry_multiplicity
 _atom_site_fract_x
 _atom_site_fract_y
 _atom_site_fract_z
 _atom_site_occupancy
 _atom_site_charge
  Eu  Eu1  1  0.448230  0.634780  0.620350  1.0  2.1529
  Eu  Eu2  1  0.755130  0.068580  0.879650  1.0  2.146
  Eu  Eu3  1  0.551770  0.365220  0.379650  1.0  2.1536
  Eu  Eu4  1  0.244870  0.931420  0.120350  1.0  2.1433
  H  H5  1  0.212000  0.413000  0.931000  1.0  0.4114
  H  H6  1  0.897200  0.513500  0.849300  1.0  0.1675
  H  H7  1  0.041800  0.616800  0.681600  1.0  0.1761
  H  H8  1  0.732900  0.391600  0.716700  1.0  0.1559
  H  H9  1  0.844000  0.143000  0.569000  1.0  0.4108
  H  H10  1  0.862800  0.746500  0.650700  1.0  0.1612
  H  H11  1  0.798400  0.723400  0.818400  1.0  0.1758
  H  H12  1  0.608300  0.449600  0.783300  1.0  0.1507
  H  H13  1  0.788000  0.587000  0.069000  1.0  0.4118
  H  H14  1  0.102800  0.486500  0.150700  1.0  0.1691
  H  H15  1  0.958200  0.383200  0.318400  1.0  0.1771
  H  H16  1  0.267100  0.608400  0.283300  1.0  0.1577
  H  H17  1  0.156000  0.857000  0.431000  1.0  0.4101
  H  H18  1  0.137200  0.253500  0.349300  1.0  0.1622
  H  H19  1  0.201600  0.276600  0.181600  1.0  0.1751
  H  H20  1  0.391700  0.550400  0.216700  1.0  0.1508
  C  C21  1  0.097100  0.648800  0.831500  1.0  0.8248
  C  C22  1  0.013300  0.553900  0.777800  1.0  -0.5195
  C  C23  1  0.047000  0.427800  0.757000  1.0  0.8169
  C  C24  1  0.598800  0.375100  0.625100  1.0  0.8091
  C  C25  1  0.980300  0.928600  0.668500  1.0  0.8268
  C  C26  1  0.831700  0.791100  0.722200  1.0  -0.5231
  C  C27  1  0.684800  0.804000  0.743000  1.0  0.8151
  C  C28  1  0.500200  0.223900  0.874900  1.0  0.8016
  C  C29  1  0.902900  0.351200  0.168500  1.0  0.8243
  C  C30  1  0.986700  0.446100  0.222200  1.0  -0.5227
  C  C31  1  0.953000  0.572200  0.243000  1.0  0.8182
  C  C32  1  0.401200  0.624900  0.374900  1.0  0.8083
  C  C33  1  0.019700  0.071400  0.331500  1.0  0.826
  C  C34  1  0.168300  0.208900  0.277800  1.0  -0.5219
  C  C35  1  0.315200  0.196000  0.257000  1.0  0.8174
  C  C36  1  0.499800  0.776100  0.125100  1.0  0.8021
  C  C37  1  0.625200  0.375200  0.750000  1.0  -0.3327
  C  C38  1  0.374800  0.624800  0.250000  1.0  -0.3325
  O  O39  1  0.247400  0.691000  0.774000  1.0  -0.7322
  O  O40  1  0.015800  0.687500  0.928100  1.0  -0.5787
  O  O41  1  0.186400  0.441900  0.707900  1.0  -0.6419
  O  O42  1  0.932000  0.314000  0.785800  1.0  -0.6742
  O  O43  1  0.632400  0.293600  0.558200  1.0  -0.6301
  O  O44  1  0.539700  0.451300  0.591400  1.0  -0.8206
  O  O45  1  0.313400  0.446100  0.881500  1.0  -0.7389
  O  O46  1  0.965000  0.021400  0.726000  1.0  -0.7345
  O  O47  1  0.115600  0.943900  0.571900  1.0  -0.5764
  O  O48  1  0.649800  0.894300  0.792100  1.0  -0.6399
  O  O49  1  0.599800  0.717800  0.714200  1.0  -0.6739
  O  O50  1  0.351800  0.190600  0.941800  1.0  -0.6316
  O  O51  1  0.542700  0.131100  0.908600  1.0  -0.8183
  O  O52  1  0.827600  0.194900  0.618500  1.0  -0.743
  O  O53  1  0.752600  0.309000  0.226000  1.0  -0.729
  O  O54  1  0.984200  0.312500  0.071900  1.0  -0.5784
  O  O55  1  0.813600  0.558100  0.292100  1.0  -0.6434
  O  O56  1  0.068000  0.686000  0.214200  1.0  -0.6742
  O  O57  1  0.367600  0.706400  0.441800  1.0  -0.6316
  O  O58  1  0.460300  0.548700  0.408600  1.0  -0.82
  O  O59  1  0.686600  0.553900  0.118500  1.0  -0.7361
  O  O60  1  0.035000  0.978600  0.274000  1.0  -0.7328
  O  O61  1  0.884400  0.056100  0.428100  1.0  -0.5744
  O  O62  1  0.350200  0.105700  0.207900  1.0  -0.6397
  O  O63  1  0.400200  0.282200  0.285800  1.0  -0.6728
  O  O64  1  0.648200  0.809400  0.058200  1.0  -0.6323
  O  O65  1  0.457300  0.868900  0.091400  1.0  -0.8186
  O  O66  1  0.172400  0.805100  0.381500  1.0  -0.7394
