# generated using pymatgen
data_Eu2H6(C3O4)3
_symmetry_space_group_name_H-M   'P 1'
_cell_length_a   10.54410000
_cell_length_b   10.54410000
_cell_length_c   10.77740000
_cell_angle_alpha   101.66900000
_cell_angle_beta   117.57800000
_cell_angle_gamma   108.66700000
_symmetry_Int_Tables_number   1
_chemical_formula_structural   Eu2H6(C3O4)3
_chemical_formula_sum   'Eu4 H12 C18 O24'
_cell_volume   914.40085416
_cell_formula_units_Z   2
loop_
 _symmetry_equiv_pos_site_id
 _symmetry_equiv_pos_as_xyz
  1  'x, y, z'
loop_
 _atom_site_type_symbol
 _atom_site_label
 _atom_site_symmetry_multiplicity
 _atom_site_fract_x
 _atom_site_fract_y
 _atom_site_fract_z
 _atom_site_occupancy
 _atom_site_charge
  Eu  Eu1  1  0.913740  0.501160  0.123700  1.0  2.1339
  Eu  Eu2  1  0.222940  0.934350  0.856430  1.0  2.1618
  Eu  Eu3  1  0.122540  0.209960  0.623700  1.0  2.1344
  Eu  Eu4  1  0.422080  0.633490  0.356430  1.0  2.1613
  H  H5  1  0.805800  0.808300  0.871700  1.0  0.1312
  H  H6  1  0.874000  0.848000  0.048400  1.0  0.1386
  H  H7  1  0.776900  0.048900  0.086600  1.0  0.1628
  H  H8  1  0.625600  0.948900  0.911900  1.0  0.1567
  H  H9  1  0.286600  0.027000  0.451800  1.0  0.1141
  H  H10  1  0.411400  0.963100  0.520900  1.0  0.111
  H  H11  1  0.563400  0.065900  0.371700  1.0  0.1372
  H  H12  1  0.700400  0.174400  0.548400  1.0  0.1369
  H  H13  1  0.537700  0.309700  0.586600  1.0  0.1585
  H  H14  1  0.463000  0.286300  0.411900  1.0  0.1556
  H  H15  1  0.924800  0.165200  0.951800  1.0  0.1186
  H  H16  1  0.057800  0.109500  0.020900  1.0  0.1151
  C  C17  1  0.691900  0.641900  0.907000  1.0  0.7814
  C  C18  1  0.838000  0.770600  0.952200  1.0  -0.4307
  C  C19  1  0.982000  0.752800  0.978000  1.0  0.7012
  C  C20  1  0.171900  0.798400  0.361300  1.0  0.7471
  C  C21  1  0.630400  0.144400  0.003000  1.0  0.7025
  C  C22  1  0.658500  0.011500  0.014400  1.0  -0.4369
  C  C23  1  0.568600  0.910600  0.068200  1.0  0.7646
  C  C24  1  0.273900  0.952000  0.613900  1.0  0.7117
  C  C25  1  0.301200  0.949600  0.486400  1.0  -0.4134
  C  C26  1  0.765100  0.215100  0.407000  1.0  0.78
  C  C27  1  0.681600  0.114200  0.452200  1.0  -0.4312
  C  C28  1  0.725200  0.996000  0.478000  1.0  0.7043
  C  C29  1  0.062900  0.189400  0.861300  1.0  0.751
  C  C30  1  0.358600  0.372600  0.503000  1.0  0.6984
  C  C31  1  0.502900  0.355900  0.514400  1.0  -0.4361
  C  C32  1  0.657600  0.499600  0.568200  1.0  0.7598
  C  C33  1  0.161900  0.340000  0.113900  1.0  0.7061
  C  C34  1  0.036800  0.185200  0.986400  1.0  -0.4162
  O  O35  1  0.708500  0.549400  0.968300  1.0  -0.7636
  O  O36  1  0.556100  0.628900  0.812200  1.0  -0.5748
  O  O37  1  0.015800  0.662500  0.025500  1.0  -0.6481
  O  O38  1  0.070900  0.838300  0.942000  1.0  -0.6991
  O  O39  1  0.212100  0.701300  0.328600  1.0  -0.8725
  O  O40  1  0.028100  0.767800  0.296100  1.0  -0.6359
  O  O41  1  0.489000  0.126700  0.951300  1.0  -0.7221
  O  O42  1  0.743000  0.250600  0.032000  1.0  -0.7055
  O  O43  1  0.422900  0.871200  0.011900  1.0  -0.6886
  O  O44  1  0.648400  0.871800  0.164400  1.0  -0.5366
  O  O45  1  0.216400  0.027800  0.648600  1.0  -0.7348
  O  O46  1  0.305300  0.865900  0.678600  1.0  -0.6601
  O  O47  1  0.918900  0.259800  0.468300  1.0  -0.756
  O  O48  1  0.683300  0.256100  0.312200  1.0  -0.5765
  O  O49  1  0.863000  0.009700  0.525500  1.0  -0.648
  O  O50  1  0.603700  0.871100  0.442000  1.0  -0.6968
  O  O51  1  0.127300  0.116500  0.828600  1.0  -0.872
  O  O52  1  0.028300  0.268000  0.796100  1.0  -0.6305
  O  O53  1  0.324600  0.462300  0.451300  1.0  -0.7221
  O  O54  1  0.281400  0.289000  0.532000  1.0  -0.7046
  O  O55  1  0.640700  0.589000  0.511900  1.0  -0.6892
  O  O56  1  0.792600  0.516000  0.664400  1.0  -0.5381
  O  O57  1  0.120800  0.432200  0.148600  1.0  -0.7347
  O  O58  1  0.312700  0.373300  0.178600  1.0  -0.6611
