# generated using pymatgen
data_ZnH22C29NO4
_symmetry_space_group_name_H-M   'P 1'
_cell_length_a   28.56600000
_cell_length_b   9.26400000
_cell_length_c   26.18800000
_cell_angle_alpha   90.00000000
_cell_angle_beta   117.25400000
_cell_angle_gamma   90.00000000
_symmetry_Int_Tables_number   1
_chemical_formula_structural   ZnH22C29NO4
_chemical_formula_sum   'Zn8 H176 C232 N8 O32'
_cell_volume   6160.90948765
_cell_formula_units_Z   8
loop_
 _symmetry_equiv_pos_site_id
 _symmetry_equiv_pos_as_xyz
  1  'x, y, z'
loop_
 _atom_site_type_symbol
 _atom_site_label
 _atom_site_symmetry_multiplicity
 _atom_site_fract_x
 _atom_site_fract_y
 _atom_site_fract_z
 _atom_site_occupancy
 _atom_site_charge
  Zn  Zn1  1  0.733030  0.138390  0.028230  1.0  0.9015
  Zn  Zn2  1  0.233030  0.638390  0.028230  1.0  0.9015
  Zn  Zn3  1  0.266970  0.138390  0.471770  1.0  0.901
  Zn  Zn4  1  0.766980  0.638390  0.471770  1.0  0.901
  Zn  Zn5  1  0.266970  0.861610  0.971770  1.0  0.901
  Zn  Zn6  1  0.766980  0.361610  0.971770  1.0  0.901
  Zn  Zn7  1  0.733030  0.861610  0.528230  1.0  0.9016
  Zn  Zn8  1  0.233030  0.361610  0.528230  1.0  0.9016
  H  H9  1  0.723900  0.127600  0.808500  1.0  0.0966
  H  H10  1  0.648100  0.892500  0.874900  1.0  0.0882
  H  H11  1  0.687500  0.989200  0.726200  1.0  0.1054
  H  H12  1  0.609200  0.758400  0.791900  1.0  0.1054
  H  H13  1  0.681400  0.790300  0.676500  1.0  0.1057
  H  H14  1  0.643600  0.663000  0.591000  1.0  0.1013
  H  H15  1  0.553300  0.719200  0.698100  1.0  0.1079
  H  H16  1  0.562100  0.557700  0.561000  1.0  0.0986
  H  H17  1  0.507900  0.390500  0.565600  1.0  0.1028
  H  H18  1  0.463500  0.711500  0.636400  1.0  0.0967
  H  H19  1  0.424400  0.292200  0.529900  1.0  0.0903
  H  H20  1  0.380600  0.614000  0.599900  1.0  0.0921
  H  H21  1  0.751800  0.822900  0.042400  1.0  0.075
  H  H22  1  0.649800  0.065800  0.062200  1.0  0.0666
  H  H23  1  0.715500  0.619100  0.059000  1.0  0.1064
  H  H24  1  0.643400  0.639900  0.077000  1.0  0.1
  H  H25  1  0.591600  0.845300  0.117800  1.0  0.1633
  H  H26  1  0.569200  0.055200  0.036000  1.0  0.0806
  H  H27  1  0.510600  0.805700  0.990700  1.0  0.0639
  H  H28  1  0.553700  0.865300  0.974700  1.0  0.0779
  H  H29  1  0.504000  0.073300  0.936200  1.0  0.0833
  H  H30  1  0.470200  0.936900  0.905400  1.0  0.0781
  H  H31  1  0.223900  0.627600  0.808500  1.0  0.0966
  H  H32  1  0.148100  0.392500  0.874900  1.0  0.0882
  H  H33  1  0.187500  0.489200  0.726200  1.0  0.1054
  H  H34  1  0.109200  0.258400  0.791900  1.0  0.1054
  H  H35  1  0.181400  0.290300  0.676500  1.0  0.1057
  H  H36  1  0.143600  0.163000  0.591000  1.0  0.1013
  H  H37  1  0.053300  0.219200  0.698100  1.0  0.1079
  H  H38  1  0.062100  0.057700  0.561000  1.0  0.0986
  H  H39  1  0.007900  0.890500  0.565600  1.0  0.1028
  H  H40  1  0.963500  0.211500  0.636400  1.0  0.0967
  H  H41  1  0.924400  0.792200  0.529900  1.0  0.0903
  H  H42  1  0.880600  0.114000  0.599900  1.0  0.0921
  H  H43  1  0.251800  0.322900  0.042400  1.0  0.075
  H  H44  1  0.149800  0.565800  0.062200  1.0  0.0666
  H  H45  1  0.215500  0.119100  0.059000  1.0  0.1064
  H  H46  1  0.143400  0.139900  0.077000  1.0  0.1
  H  H47  1  0.091600  0.345300  0.117800  1.0  0.1633
  H  H48  1  0.069200  0.555200  0.036000  1.0  0.0806
  H  H49  1  0.010600  0.305700  0.990700  1.0  0.0639
  H  H50  1  0.053700  0.365300  0.974700  1.0  0.0779
  H  H51  1  0.004000  0.573300  0.936200  1.0  0.0833
  H  H52  1  0.970200  0.436900  0.905400  1.0  0.0781
  H  H53  1  0.276100  0.127600  0.691500  1.0  0.0965
  H  H54  1  0.351900  0.892500  0.625100  1.0  0.0887
  H  H55  1  0.312500  0.989200  0.773800  1.0  0.1053
  H  H56  1  0.390800  0.758400  0.708100  1.0  0.1048
  H  H57  1  0.318600  0.790300  0.823500  1.0  0.1056
  H  H58  1  0.356400  0.663000  0.909000  1.0  0.1018
  H  H59  1  0.446700  0.719200  0.801900  1.0  0.1074
  H  H60  1  0.437900  0.557700  0.939000  1.0  0.0984
  H  H61  1  0.492100  0.390500  0.934400  1.0  0.102
  H  H62  1  0.536500  0.711500  0.863600  1.0  0.0978
  H  H63  1  0.575600  0.292200  0.970100  1.0  0.0903
  H  H64  1  0.619400  0.614000  0.900100  1.0  0.0916
  H  H65  1  0.248200  0.822900  0.457600  1.0  0.0754
  H  H66  1  0.350200  0.065800  0.437800  1.0  0.0663
  H  H67  1  0.284500  0.619100  0.441000  1.0  0.106
  H  H68  1  0.356600  0.639900  0.423000  1.0  0.1005
  H  H69  1  0.408400  0.845300  0.382200  1.0  0.1634
  H  H70  1  0.430800  0.055200  0.464000  1.0  0.0815
  H  H71  1  0.489400  0.805700  0.509300  1.0  0.064
  H  H72  1  0.446300  0.865300  0.525300  1.0  0.0777
  H  H73  1  0.496000  0.073300  0.563800  1.0  0.084
  H  H74  1  0.529800  0.936900  0.594600  1.0  0.0795
  H  H75  1  0.776100  0.627600  0.691500  1.0  0.0965
  H  H76  1  0.851900  0.392500  0.625100  1.0  0.0887
  H  H77  1  0.812500  0.489200  0.773800  1.0  0.1053
  H  H78  1  0.890800  0.258400  0.708100  1.0  0.1048
  H  H79  1  0.818600  0.290300  0.823500  1.0  0.1056
  H  H80  1  0.856400  0.163000  0.909000  1.0  0.1018
  H  H81  1  0.946700  0.219200  0.801900  1.0  0.1074
  H  H82  1  0.937900  0.057700  0.939000  1.0  0.0984
  H  H83  1  0.992100  0.890500  0.934400  1.0  0.102
  H  H84  1  0.036500  0.211500  0.863600  1.0  0.0978
  H  H85  1  0.075600  0.792200  0.970100  1.0  0.0903
  H  H86  1  0.119400  0.114000  0.900100  1.0  0.0916
  H  H87  1  0.748200  0.322900  0.457600  1.0  0.0754
  H  H88  1  0.850200  0.565800  0.437800  1.0  0.0663
  H  H89  1  0.784500  0.119100  0.441000  1.0  0.106
  H  H90  1  0.856600  0.139900  0.423000  1.0  0.1005
  H  H91  1  0.908400  0.345300  0.382200  1.0  0.1634
  H  H92  1  0.930800  0.555200  0.464000  1.0  0.0815
  H  H93  1  0.989400  0.305700  0.509300  1.0  0.064
  H  H94  1  0.946300  0.365300  0.525300  1.0  0.0777
  H  H95  1  0.996000  0.573300  0.563800  1.0  0.084
  H  H96  1  0.029800  0.436900  0.594600  1.0  0.0795
  H  H97  1  0.276100  0.872400  0.191500  1.0  0.096
  H  H98  1  0.351900  0.107500  0.125100  1.0  0.0886
  H  H99  1  0.312500  0.010800  0.273800  1.0  0.1051
  H  H100  1  0.390800  0.241600  0.208100  1.0  0.1065
  H  H101  1  0.318600  0.209700  0.323500  1.0  0.1056
  H  H102  1  0.356400  0.337000  0.409000  1.0  0.1015
  H  H103  1  0.446700  0.280800  0.301900  1.0  0.1078
  H  H104  1  0.437900  0.442300  0.439000  1.0  0.0982
  H  H105  1  0.492100  0.609500  0.434400  1.0  0.1022
  H  H106  1  0.536500  0.288500  0.363600  1.0  0.0976
  H  H107  1  0.575600  0.707800  0.470100  1.0  0.0903
  H  H108  1  0.619400  0.386000  0.400100  1.0  0.0918
  H  H109  1  0.248200  0.177100  0.957600  1.0  0.0753
  H  H110  1  0.350200  0.934200  0.937800  1.0  0.0664
  H  H111  1  0.284500  0.380900  0.941000  1.0  0.1057
  H  H112  1  0.356600  0.360100  0.923000  1.0  0.1007
  H  H113  1  0.408400  0.154700  0.882200  1.0  0.164
  H  H114  1  0.430800  0.944800  0.964000  1.0  0.0818
  H  H115  1  0.489400  0.194300  0.009300  1.0  0.0631
  H  H116  1  0.446300  0.134700  0.025300  1.0  0.077
  H  H117  1  0.496000  0.926700  0.063800  1.0  0.0866
  H  H118  1  0.529800  0.063100  0.094600  1.0  0.08
  H  H119  1  0.776100  0.372400  0.191500  1.0  0.096
  H  H120  1  0.851900  0.607500  0.125100  1.0  0.0886
  H  H121  1  0.812500  0.510800  0.273800  1.0  0.1051
  H  H122  1  0.890800  0.741600  0.208100  1.0  0.1065
  H  H123  1  0.818600  0.709700  0.323500  1.0  0.1056
  H  H124  1  0.856400  0.837000  0.409000  1.0  0.1015
  H  H125  1  0.946700  0.780800  0.301900  1.0  0.1078
  H  H126  1  0.937900  0.942300  0.439000  1.0  0.0982
  H  H127  1  0.992100  0.109500  0.434400  1.0  0.1022
  H  H128  1  0.036500  0.788500  0.363600  1.0  0.0976
  H  H129  1  0.075600  0.207800  0.470100  1.0  0.0903
  H  H130  1  0.119400  0.886000  0.400100  1.0  0.0918
  H  H131  1  0.748200  0.677100  0.957600  1.0  0.0753
  H  H132  1  0.850200  0.434200  0.937800  1.0  0.0664
  H  H133  1  0.784500  0.880900  0.941000  1.0  0.1057
  H  H134  1  0.856600  0.860100  0.923000  1.0  0.1007
  H  H135  1  0.908400  0.654700  0.882200  1.0  0.164
  H  H136  1  0.930800  0.444800  0.964000  1.0  0.0818
  H  H137  1  0.989400  0.694300  0.009300  1.0  0.0631
  H  H138  1  0.946300  0.634700  0.025300  1.0  0.077
  H  H139  1  0.996000  0.426700  0.063800  1.0  0.0866
  H  H140  1  0.029800  0.563100  0.094600  1.0  0.08
  H  H141  1  0.723900  0.872400  0.308500  1.0  0.0963
  H  H142  1  0.648100  0.107500  0.374900  1.0  0.0883
  H  H143  1  0.687500  0.010800  0.226200  1.0  0.105
  H  H144  1  0.609200  0.241600  0.291900  1.0  0.1046
  H  H145  1  0.681400  0.209700  0.176500  1.0  0.1057
  H  H146  1  0.643600  0.337000  0.091000  1.0  0.1031
  H  H147  1  0.553300  0.280800  0.198100  1.0  0.1082
  H  H148  1  0.562100  0.442300  0.061000  1.0  0.099
  H  H149  1  0.507900  0.609500  0.065600  1.0  0.1028
  H  H150  1  0.463500  0.288500  0.136400  1.0  0.0977
  H  H151  1  0.424400  0.707800  0.029900  1.0  0.0905
  H  H152  1  0.380600  0.386000  0.099900  1.0  0.0921
  H  H153  1  0.751800  0.177100  0.542400  1.0  0.0748
  H  H154  1  0.649800  0.934200  0.562200  1.0  0.0665
  H  H155  1  0.715500  0.380900  0.559000  1.0  0.106
  H  H156  1  0.643400  0.360100  0.577000  1.0  0.1002
  H  H157  1  0.591600  0.154700  0.617800  1.0  0.1629
  H  H158  1  0.569200  0.944800  0.536000  1.0  0.0811
  H  H159  1  0.510600  0.194300  0.490700  1.0  0.0633
  H  H160  1  0.553700  0.134700  0.474700  1.0  0.0779
  H  H161  1  0.504000  0.926700  0.436200  1.0  0.0837
  H  H162  1  0.470200  0.063100  0.405400  1.0  0.0779
  H  H163  1  0.223900  0.372400  0.308500  1.0  0.0963
  H  H164  1  0.148100  0.607500  0.374900  1.0  0.0883
  H  H165  1  0.187500  0.510800  0.226200  1.0  0.105
  H  H166  1  0.109200  0.741600  0.291900  1.0  0.1046
  H  H167  1  0.181400  0.709700  0.176500  1.0  0.1057
  H  H168  1  0.143600  0.837000  0.091000  1.0  0.1031
  H  H169  1  0.053300  0.780800  0.198100  1.0  0.1082
  H  H170  1  0.062100  0.942300  0.061000  1.0  0.099
  H  H171  1  0.007900  0.109500  0.065600  1.0  0.1028
  H  H172  1  0.963500  0.788500  0.136400  1.0  0.0977
  H  H173  1  0.924400  0.207800  0.029900  1.0  0.0905
  H  H174  1  0.880600  0.886000  0.099900  1.0  0.0921
  H  H175  1  0.251800  0.677100  0.542400  1.0  0.0748
  H  H176  1  0.149800  0.434200  0.562200  1.0  0.0665
  H  H177  1  0.215500  0.880900  0.559000  1.0  0.106
  H  H178  1  0.143400  0.860100  0.577000  1.0  0.1002
  H  H179  1  0.091600  0.654700  0.617800  1.0  0.1629
  H  H180  1  0.069200  0.444800  0.536000  1.0  0.0811
  H  H181  1  0.010600  0.694300  0.490700  1.0  0.0633
  H  H182  1  0.053700  0.634700  0.474700  1.0  0.0779
  H  H183  1  0.004000  0.426700  0.436200  1.0  0.0837
  H  H184  1  0.970200  0.563100  0.405400  1.0  0.0779
  C  C185  1  0.689720  0.024500  0.850300  1.0  -0.1685
  C  C186  1  0.701120  0.052500  0.805400  1.0  -0.0476
  C  C187  1  0.655720  0.913100  0.844700  1.0  -0.0259
  C  C188  1  0.679020  0.969800  0.755830  1.0  -0.1501
  C  C189  1  0.632660  0.831500  0.795090  1.0  -0.1499
  C  C190  1  0.644440  0.858400  0.749760  1.0  0.0559
  C  C191  1  0.620850  0.770200  0.696000  1.0  0.0293
  C  C192  1  0.647960  0.750800  0.663760  1.0  -0.1389
  C  C193  1  0.625640  0.673100  0.612860  1.0  -0.117
  C  C194  1  0.571520  0.707400  0.676740  1.0  -0.1251
  C  C195  1  0.576730  0.611100  0.594770  1.0  -0.1198
  C  C196  1  0.548720  0.627000  0.626260  1.0  0.0327
  C  C197  1  0.495520  0.563100  0.605030  1.0  0.072
  C  C198  1  0.482530  0.436300  0.572790  1.0  -0.1262
  C  C199  1  0.455970  0.627300  0.614800  1.0  -0.0969
  C  C200  1  0.432260  0.377000  0.551190  1.0  -0.0145
  C  C201  1  0.406230  0.568700  0.593060  1.0  -0.0344
  C  C202  1  0.394210  0.442700  0.561140  1.0  -0.1488
  C  C203  1  0.341040  0.375900  0.539070  1.0  0.6718
  C  C204  1  0.723220  0.831500  0.050200  1.0  0.1667
  C  C205  1  0.663290  0.974400  0.062140  1.0  0.1279
  C  C206  1  0.701600  0.709400  0.059900  1.0  -0.1554
  C  C207  1  0.658900  0.722000  0.071000  1.0  -0.0199
  C  C208  1  0.639500  0.857100  0.073090  1.0  0.0402
  C  C209  1  0.713260  0.114800  0.903950  1.0  0.6944
  C  C210  1  0.593500  0.881300  0.085700  1.0  -0.1206
  C  C211  1  0.552690  0.967800  0.041370  1.0  -0.0656
  C  C212  1  0.527410  0.892900  0.986600  1.0  -0.1799
  C  C213  1  0.486940  0.988400  0.941670  1.0  -0.1599
  C  C214  1  0.189720  0.524500  0.850300  1.0  -0.1685
  C  C215  1  0.201120  0.552500  0.805400  1.0  -0.0476
  C  C216  1  0.155720  0.413100  0.844700  1.0  -0.0259
  C  C217  1  0.179020  0.469800  0.755830  1.0  -0.1501
  C  C218  1  0.132660  0.331500  0.795090  1.0  -0.1499
  C  C219  1  0.144440  0.358400  0.749760  1.0  0.0559
  C  C220  1  0.120850  0.270200  0.696000  1.0  0.0293
  C  C221  1  0.147960  0.250800  0.663760  1.0  -0.1389
  C  C222  1  0.125640  0.173100  0.612860  1.0  -0.117
  C  C223  1  0.071520  0.207400  0.676740  1.0  -0.1251
  C  C224  1  0.076730  0.111100  0.594770  1.0  -0.1198
  C  C225  1  0.048720  0.127000  0.626260  1.0  0.0327
  C  C226  1  0.995520  0.063100  0.605030  1.0  0.072
  C  C227  1  0.982530  0.936300  0.572790  1.0  -0.1262
  C  C228  1  0.955970  0.127300  0.614800  1.0  -0.0969
  C  C229  1  0.932260  0.877000  0.551190  1.0  -0.0145
  C  C230  1  0.906230  0.068700  0.593060  1.0  -0.0344
  C  C231  1  0.894210  0.942700  0.561140  1.0  -0.1488
  C  C232  1  0.841040  0.875900  0.539070  1.0  0.6718
  C  C233  1  0.223220  0.331500  0.050200  1.0  0.1667
  C  C234  1  0.163290  0.474400  0.062140  1.0  0.1279
  C  C235  1  0.201600  0.209400  0.059900  1.0  -0.1554
  C  C236  1  0.158900  0.222000  0.071000  1.0  -0.0199
  C  C237  1  0.139500  0.357100  0.073090  1.0  0.0402
  C  C238  1  0.213260  0.614800  0.903950  1.0  0.6944
  C  C239  1  0.093500  0.381300  0.085700  1.0  -0.1206
  C  C240  1  0.052690  0.467800  0.041370  1.0  -0.0656
  C  C241  1  0.027410  0.392900  0.986600  1.0  -0.1799
  C  C242  1  0.986940  0.488400  0.941670  1.0  -0.1599
  C  C243  1  0.310280  0.024500  0.649700  1.0  -0.1673
  C  C244  1  0.298880  0.052500  0.694600  1.0  -0.0457
  C  C245  1  0.344280  0.913100  0.655300  1.0  -0.0232
  C  C246  1  0.320980  0.969800  0.744170  1.0  -0.1505
  C  C247  1  0.367340  0.831500  0.704910  1.0  -0.149
  C  C248  1  0.355560  0.858400  0.750240  1.0  0.0555
  C  C249  1  0.379150  0.770200  0.804000  1.0  0.0303
  C  C250  1  0.352040  0.750800  0.836240  1.0  -0.137
  C  C251  1  0.374360  0.673100  0.887140  1.0  -0.1167
  C  C252  1  0.428480  0.707400  0.823260  1.0  -0.1239
  C  C253  1  0.423270  0.611100  0.905230  1.0  -0.1209
  C  C254  1  0.451280  0.627000  0.873740  1.0  0.0294
  C  C255  1  0.504480  0.563100  0.894970  1.0  0.072
  C  C256  1  0.517470  0.436300  0.927210  1.0  -0.1232
  C  C257  1  0.544030  0.627300  0.885200  1.0  -0.0922
  C  C258  1  0.567740  0.377000  0.948810  1.0  -0.0137
  C  C259  1  0.593770  0.568700  0.906940  1.0  -0.0353
  C  C260  1  0.605790  0.442700  0.938860  1.0  -0.1507
  C  C261  1  0.658960  0.375900  0.960930  1.0  0.6704
  C  C262  1  0.276780  0.831500  0.449800  1.0  0.1673
  C  C263  1  0.336710  0.974400  0.437860  1.0  0.1259
  C  C264  1  0.298400  0.709400  0.440100  1.0  -0.1571
  C  C265  1  0.341100  0.722000  0.429000  1.0  -0.0205
  C  C266  1  0.360500  0.857100  0.426910  1.0  0.0392
  C  C267  1  0.286740  0.114800  0.596050  1.0  0.6944
  C  C268  1  0.406500  0.881300  0.414300  1.0  -0.1232
  C  C269  1  0.447310  0.967800  0.458630  1.0  -0.0669
  C  C270  1  0.472590  0.892900  0.513400  1.0  -0.1793
  C  C271  1  0.513060  0.988400  0.558330  1.0  -0.1588
  C  C272  1  0.810280  0.524500  0.649700  1.0  -0.1673
  C  C273  1  0.798880  0.552500  0.694600  1.0  -0.0457
  C  C274  1  0.844280  0.413100  0.655300  1.0  -0.0232
  C  C275  1  0.820980  0.469800  0.744170  1.0  -0.1505
  C  C276  1  0.867340  0.331500  0.704910  1.0  -0.149
  C  C277  1  0.855560  0.358400  0.750240  1.0  0.0555
  C  C278  1  0.879150  0.270200  0.804000  1.0  0.0303
  C  C279  1  0.852040  0.250800  0.836240  1.0  -0.137
  C  C280  1  0.874360  0.173100  0.887140  1.0  -0.1167
  C  C281  1  0.928480  0.207400  0.823260  1.0  -0.1239
  C  C282  1  0.923270  0.111100  0.905230  1.0  -0.1209
  C  C283  1  0.951280  0.127000  0.873740  1.0  0.0294
  C  C284  1  0.004480  0.063100  0.894970  1.0  0.072
  C  C285  1  0.017470  0.936300  0.927210  1.0  -0.1232
  C  C286  1  0.044030  0.127300  0.885200  1.0  -0.0922
  C  C287  1  0.067740  0.877000  0.948810  1.0  -0.0137
  C  C288  1  0.093770  0.068700  0.906940  1.0  -0.0353
  C  C289  1  0.105790  0.942700  0.938860  1.0  -0.1507
  C  C290  1  0.158960  0.875900  0.960930  1.0  0.6704
  C  C291  1  0.776780  0.331500  0.449800  1.0  0.1673
  C  C292  1  0.836710  0.474400  0.437860  1.0  0.1259
  C  C293  1  0.798400  0.209400  0.440100  1.0  -0.1571
  C  C294  1  0.841100  0.222000  0.429000  1.0  -0.0205
  C  C295  1  0.860500  0.357100  0.426910  1.0  0.0392
  C  C296  1  0.786740  0.614800  0.596050  1.0  0.6944
  C  C297  1  0.906500  0.381300  0.414300  1.0  -0.1232
  C  C298  1  0.947310  0.467800  0.458630  1.0  -0.0669
  C  C299  1  0.972590  0.392900  0.513400  1.0  -0.1793
  C  C300  1  0.013060  0.488400  0.558330  1.0  -0.1588
  C  C301  1  0.310280  0.975500  0.149700  1.0  -0.1681
  C  C302  1  0.298880  0.947500  0.194600  1.0  -0.0456
  C  C303  1  0.344280  0.086900  0.155300  1.0  -0.023
  C  C304  1  0.320980  0.030200  0.244170  1.0  -0.1503
  C  C305  1  0.367340  0.168500  0.204910  1.0  -0.1484
  C  C306  1  0.355560  0.141600  0.250240  1.0  0.0558
  C  C307  1  0.379150  0.229800  0.304000  1.0  0.0294
  C  C308  1  0.352040  0.249200  0.336240  1.0  -0.1375
  C  C309  1  0.374360  0.326900  0.387140  1.0  -0.1154
  C  C310  1  0.428480  0.292600  0.323260  1.0  -0.1232
  C  C311  1  0.423270  0.388900  0.405230  1.0  -0.1208
  C  C312  1  0.451280  0.373000  0.373740  1.0  0.0311
  C  C313  1  0.504480  0.436900  0.394970  1.0  0.0715
  C  C314  1  0.517470  0.563700  0.427210  1.0  -0.1237
  C  C315  1  0.544030  0.372700  0.385200  1.0  -0.0932
  C  C316  1  0.567740  0.623000  0.448810  1.0  -0.0129
  C  C317  1  0.593770  0.431300  0.406940  1.0  -0.0353
  C  C318  1  0.605790  0.557300  0.438860  1.0  -0.1489
  C  C319  1  0.658960  0.624100  0.460930  1.0  0.6706
  C  C320  1  0.276780  0.168500  0.949800  1.0  0.167
  C  C321  1  0.336710  0.025600  0.937860  1.0  0.1253
  C  C322  1  0.298400  0.290600  0.940100  1.0  -0.1569
  C  C323  1  0.341100  0.278000  0.929000  1.0  -0.022
  C  C324  1  0.360500  0.142900  0.926910  1.0  0.0402
  C  C325  1  0.286740  0.885200  0.096050  1.0  0.6944
  C  C326  1  0.406500  0.118700  0.914300  1.0  -0.1227
  C  C327  1  0.447310  0.032200  0.958630  1.0  -0.0663
  C  C328  1  0.472590  0.107100  0.013400  1.0  -0.1807
  C  C329  1  0.513060  0.011600  0.058330  1.0  -0.1585
  C  C330  1  0.810280  0.475500  0.149700  1.0  -0.1681
  C  C331  1  0.798880  0.447500  0.194600  1.0  -0.0456
  C  C332  1  0.844280  0.586900  0.155300  1.0  -0.023
  C  C333  1  0.820980  0.530200  0.244170  1.0  -0.1503
  C  C334  1  0.867340  0.668500  0.204910  1.0  -0.1484
  C  C335  1  0.855560  0.641600  0.250240  1.0  0.0558
  C  C336  1  0.879150  0.729800  0.304000  1.0  0.0294
  C  C337  1  0.852040  0.749200  0.336240  1.0  -0.1375
  C  C338  1  0.874360  0.826900  0.387140  1.0  -0.1154
  C  C339  1  0.928480  0.792600  0.323260  1.0  -0.1232
  C  C340  1  0.923270  0.888900  0.405230  1.0  -0.1208
  C  C341  1  0.951280  0.873000  0.373740  1.0  0.0311
  C  C342  1  0.004480  0.936900  0.394970  1.0  0.0715
  C  C343  1  0.017470  0.063700  0.427210  1.0  -0.1237
  C  C344  1  0.044030  0.872700  0.385200  1.0  -0.0932
  C  C345  1  0.067740  0.123000  0.448810  1.0  -0.0129
  C  C346  1  0.093770  0.931300  0.406940  1.0  -0.0353
  C  C347  1  0.105790  0.057300  0.438860  1.0  -0.1489
  C  C348  1  0.158960  0.124100  0.460930  1.0  0.6706
  C  C349  1  0.776780  0.668500  0.949800  1.0  0.167
  C  C350  1  0.836710  0.525600  0.937860  1.0  0.1253
  C  C351  1  0.798400  0.790600  0.940100  1.0  -0.1569
  C  C352  1  0.841100  0.778000  0.929000  1.0  -0.022
  C  C353  1  0.860500  0.642900  0.926910  1.0  0.0402
  C  C354  1  0.786740  0.385200  0.096050  1.0  0.6944
  C  C355  1  0.906500  0.618700  0.914300  1.0  -0.1227
  C  C356  1  0.947310  0.532200  0.958630  1.0  -0.0663
  C  C357  1  0.972590  0.607100  0.013400  1.0  -0.1807
  C  C358  1  0.013060  0.511600  0.058330  1.0  -0.1585
  C  C359  1  0.689720  0.975500  0.350300  1.0  -0.1692
  C  C360  1  0.701120  0.947500  0.305400  1.0  -0.0476
  C  C361  1  0.655720  0.086900  0.344700  1.0  -0.0259
  C  C362  1  0.679020  0.030200  0.255830  1.0  -0.15
  C  C363  1  0.632660  0.168500  0.295090  1.0  -0.1493
  C  C364  1  0.644440  0.141600  0.249760  1.0  0.056
  C  C365  1  0.620850  0.229800  0.196000  1.0  0.0297
  C  C366  1  0.647960  0.249200  0.163760  1.0  -0.1389
  C  C367  1  0.625640  0.326900  0.112860  1.0  -0.1163
  C  C368  1  0.571520  0.292600  0.176740  1.0  -0.124
  C  C369  1  0.576730  0.388900  0.094770  1.0  -0.1197
  C  C370  1  0.548720  0.373000  0.126260  1.0  0.0307
  C  C371  1  0.495520  0.436900  0.105030  1.0  0.0705
  C  C372  1  0.482530  0.563700  0.072790  1.0  -0.1254
  C  C373  1  0.455970  0.372700  0.114800  1.0  -0.0964
  C  C374  1  0.432260  0.623000  0.051190  1.0  -0.0145
  C  C375  1  0.406230  0.431300  0.093060  1.0  -0.0354
  C  C376  1  0.394210  0.557300  0.061140  1.0  -0.1491
  C  C377  1  0.341040  0.624100  0.039070  1.0  0.6712
  C  C378  1  0.723220  0.168500  0.550200  1.0  0.1665
  C  C379  1  0.663290  0.025600  0.562140  1.0  0.1278
  C  C380  1  0.701600  0.290600  0.559900  1.0  -0.1552
  C  C381  1  0.658900  0.278000  0.571000  1.0  -0.0214
  C  C382  1  0.639500  0.142900  0.573090  1.0  0.0403
  C  C383  1  0.713260  0.885200  0.403950  1.0  0.6939
  C  C384  1  0.593500  0.118700  0.585700  1.0  -0.1204
  C  C385  1  0.552690  0.032200  0.541370  1.0  -0.0662
  C  C386  1  0.527410  0.107100  0.486600  1.0  -0.179
  C  C387  1  0.486940  0.011600  0.441670  1.0  -0.1594
  C  C388  1  0.189720  0.475500  0.350300  1.0  -0.1692
  C  C389  1  0.201120  0.447500  0.305400  1.0  -0.0476
  C  C390  1  0.155720  0.586900  0.344700  1.0  -0.0259
  C  C391  1  0.179020  0.530200  0.255830  1.0  -0.15
  C  C392  1  0.132660  0.668500  0.295090  1.0  -0.1493
  C  C393  1  0.144440  0.641600  0.249760  1.0  0.056
  C  C394  1  0.120850  0.729800  0.196000  1.0  0.0297
  C  C395  1  0.147960  0.749200  0.163760  1.0  -0.1389
  C  C396  1  0.125640  0.826900  0.112860  1.0  -0.1163
  C  C397  1  0.071520  0.792600  0.176740  1.0  -0.124
  C  C398  1  0.076730  0.888900  0.094770  1.0  -0.1197
  C  C399  1  0.048720  0.873000  0.126260  1.0  0.0307
  C  C400  1  0.995520  0.936900  0.105030  1.0  0.0705
  C  C401  1  0.982530  0.063700  0.072790  1.0  -0.1254
  C  C402  1  0.955970  0.872700  0.114800  1.0  -0.0964
  C  C403  1  0.932260  0.123000  0.051190  1.0  -0.0145
  C  C404  1  0.906230  0.931300  0.093060  1.0  -0.0354
  C  C405  1  0.894210  0.057300  0.061140  1.0  -0.1491
  C  C406  1  0.841040  0.124100  0.039070  1.0  0.6712
  C  C407  1  0.223220  0.668500  0.550200  1.0  0.1665
  C  C408  1  0.163290  0.525600  0.562140  1.0  0.1278
  C  C409  1  0.201600  0.790600  0.559900  1.0  -0.1552
  C  C410  1  0.158900  0.778000  0.571000  1.0  -0.0214
  C  C411  1  0.139500  0.642900  0.573090  1.0  0.0403
  C  C412  1  0.213260  0.385200  0.403950  1.0  0.6939
  C  C413  1  0.093500  0.618700  0.585700  1.0  -0.1204
  C  C414  1  0.052690  0.532200  0.541370  1.0  -0.0662
  C  C415  1  0.027410  0.607100  0.486600  1.0  -0.179
  C  C416  1  0.986940  0.511600  0.441670  1.0  -0.1594
  N  N417  1  0.704380  0.963800  0.051490  1.0  -0.3401
  N  N418  1  0.204380  0.463800  0.051490  1.0  -0.3401
  N  N419  1  0.295620  0.963800  0.448510  1.0  -0.3402
  N  N420  1  0.795620  0.463800  0.448510  1.0  -0.3402
  N  N421  1  0.295620  0.036200  0.948510  1.0  -0.3395
  N  N422  1  0.795620  0.536200  0.948510  1.0  -0.3395
  N  N423  1  0.704380  0.036200  0.551490  1.0  -0.3388
  N  N424  1  0.204380  0.536200  0.551490  1.0  -0.3388
  O  O425  1  0.710760  0.065700  0.946450  1.0  -0.5932
  O  O426  1  0.736690  0.228700  0.902750  1.0  -0.5866
  O  O427  1  0.307650  0.434300  0.550820  1.0  -0.6044
  O  O428  1  0.331710  0.269000  0.505590  1.0  -0.5928
  O  O429  1  0.210760  0.565700  0.946450  1.0  -0.5932
  O  O430  1  0.236690  0.728700  0.902750  1.0  -0.5866
  O  O431  1  0.807650  0.934300  0.550820  1.0  -0.6044
  O  O432  1  0.831710  0.769000  0.505590  1.0  -0.5928
  O  O433  1  0.289240  0.065700  0.553550  1.0  -0.5938
  O  O434  1  0.263310  0.228700  0.597250  1.0  -0.5873
  O  O435  1  0.692350  0.434300  0.949180  1.0  -0.6048
  O  O436  1  0.668290  0.269000  0.994410  1.0  -0.593
  O  O437  1  0.789240  0.565700  0.553550  1.0  -0.5938
  O  O438  1  0.763310  0.728700  0.597250  1.0  -0.5873
  O  O439  1  0.192350  0.934300  0.949180  1.0  -0.6048
  O  O440  1  0.168290  0.769000  0.994410  1.0  -0.593
  O  O441  1  0.289240  0.934300  0.053550  1.0  -0.5941
  O  O442  1  0.263310  0.771300  0.097250  1.0  -0.5858
  O  O443  1  0.692350  0.565700  0.449180  1.0  -0.6051
  O  O444  1  0.668290  0.731000  0.494410  1.0  -0.5939
  O  O445  1  0.789240  0.434300  0.053550  1.0  -0.5941
  O  O446  1  0.763310  0.271300  0.097250  1.0  -0.5858
  O  O447  1  0.192350  0.065700  0.449180  1.0  -0.6052
  O  O448  1  0.168290  0.231000  0.494410  1.0  -0.5939
  O  O449  1  0.710760  0.934300  0.446450  1.0  -0.5936
  O  O450  1  0.736690  0.771300  0.402750  1.0  -0.5842
  O  O451  1  0.307650  0.565700  0.050820  1.0  -0.6042
  O  O452  1  0.331710  0.731000  0.005590  1.0  -0.5934
  O  O453  1  0.210760  0.434300  0.446450  1.0  -0.5936
  O  O454  1  0.236690  0.271300  0.402750  1.0  -0.5842
  O  O455  1  0.807650  0.065700  0.050820  1.0  -0.6042
  O  O456  1  0.831710  0.231000  0.005590  1.0  -0.5934
