# generated using pymatgen
data_Zn7Cd2P6H54C36(NO5)6
_symmetry_space_group_name_H-M   'P 1'
_cell_length_a   13.58740000
_cell_length_b   13.58740000
_cell_length_c   25.72430000
_cell_angle_alpha   83.80190000
_cell_angle_beta   75.09660000
_cell_angle_gamma   107.97900000
_symmetry_Int_Tables_number   1
_chemical_formula_structural   Zn7Cd2P6H54C36(NO5)6
_chemical_formula_sum   'Zn14 Cd4 P12 H108 C72 N12 O60'
_cell_volume   4273.65363294
_cell_formula_units_Z   2
loop_
 _symmetry_equiv_pos_site_id
 _symmetry_equiv_pos_as_xyz
  1  'x, y, z'
loop_
 _atom_site_type_symbol
 _atom_site_label
 _atom_site_symmetry_multiplicity
 _atom_site_fract_x
 _atom_site_fract_y
 _atom_site_fract_z
 _atom_site_occupancy
 _atom_site_charge
  Zn  Zn1  1  0.674950  0.886690  0.052540  1.0  1.0606
  Zn  Zn2  1  0.235290  0.826060  0.087050  1.0  1.04
  Zn  Zn3  1  0.490560  0.092650  0.128210  1.0  1.0539
  Zn  Zn4  1  0.439230  0.727490  0.447460  1.0  1.0576
  Zn  Zn5  1  0.413110  0.322340  0.412950  1.0  1.0361
  Zn  Zn6  1  0.720860  0.618770  0.371790  1.0  1.0574
  Zn  Zn7  1  0.325050  0.113310  0.947460  1.0  1.0503
  Zn  Zn8  1  0.764710  0.173940  0.912950  1.0  1.0363
  Zn  Zn9  1  0.509440  0.907350  0.871790  1.0  1.0556
  Zn  Zn10  1  0.560770  0.272510  0.552540  1.0  1.0491
  Zn  Zn11  1  0.586890  0.677660  0.587050  1.0  1.0384
  Zn  Zn12  1  0.279140  0.381230  0.628210  1.0  1.0558
  Zn  Zn13  1  0.500000  0.000000  0.000000  1.0  1.3419
  Zn  Zn14  1  0.500000  0.500000  0.500000  1.0  1.3419
  Cd  Cd15  1  0.867470  0.739200  0.183090  1.0  1.1001
  Cd  Cd16  1  0.422290  0.050560  0.316910  1.0  1.1023
  Cd  Cd17  1  0.132530  0.260800  0.816910  1.0  1.1011
  Cd  Cd18  1  0.577710  0.949440  0.683090  1.0  1.1016
  P  P19  1  0.439330  0.854580  0.123050  1.0  1.5206
  P  P20  1  0.707390  0.127080  0.040870  1.0  1.513
  P  P21  1  0.693200  0.929150  0.927790  1.0  1.4981
  P  P22  1  0.477630  0.562380  0.376950  1.0  1.52
  P  P23  1  0.667950  0.748260  0.459130  1.0  1.5136
  P  P24  1  0.356940  0.620990  0.572210  1.0  1.5021
  P  P25  1  0.560670  0.145420  0.876950  1.0  1.5193
  P  P26  1  0.292610  0.872920  0.959130  1.0  1.5133
  P  P27  1  0.306800  0.070850  0.072210  1.0  1.4976
  P  P28  1  0.522370  0.437620  0.623050  1.0  1.5191
  P  P29  1  0.332050  0.251740  0.540870  1.0  1.5145
  P  P30  1  0.643060  0.379010  0.427790  1.0  1.4997
  H  H31  1  0.043800  0.488100  0.150900  1.0  0.0947
  H  H32  1  0.134300  0.468300  0.174200  1.0  0.0823
  H  H33  1  0.214300  0.490000  0.080900  1.0  0.0798
  H  H34  1  0.169100  0.580600  0.066700  1.0  0.0967
  H  H35  1  0.335700  0.598000  0.118100  1.0  0.0696
  H  H36  1  0.345500  0.675600  0.065100  1.0  0.0865
  H  H37  1  0.341800  0.693500  0.184900  1.0  0.1496
  H  H38  1  0.279400  0.772600  0.196200  1.0  0.1543
  H  H39  1  0.133300  0.610800  0.210500  1.0  0.0976
  H  H40  1  0.694700  0.308700  0.167400  1.0  0.1013
  H  H41  1  0.516900  0.364300  0.190000  1.0  0.0971
  H  H42  1  0.633100  0.440300  0.152400  1.0  0.0821
  H  H43  1  0.542600  0.433000  0.088600  1.0  0.0782
  H  H44  1  0.463200  0.315900  0.116300  1.0  0.0949
  H  H45  1  0.590400  0.290900  0.042500  1.0  0.0862
  H  H46  1  0.688500  0.376300  0.053200  1.0  0.0711
  H  H47  1  0.731700  0.168900  0.123400  1.0  0.1504
  H  H48  1  0.786400  0.271200  0.076800  1.0  0.1459
  H  H49  1  0.866500  0.769700  0.993200  1.0  0.1079
  H  H50  1  0.804100  0.592000  0.004300  1.0  0.0834
  H  H51  1  0.712100  0.577800  0.059500  1.0  0.0821
  H  H52  1  0.700700  0.620200  0.951300  1.0  0.081
  H  H53  1  0.608700  0.539000  0.002300  1.0  0.0756
  H  H54  1  0.568400  0.671700  0.041100  1.0  0.0843
  H  H55  1  0.585100  0.710400  0.978300  1.0  0.0822
  H  H56  1  0.775400  0.801800  0.918600  1.0  0.1343
  H  H57  1  0.845000  0.894900  0.939700  1.0  0.1775
  H  H58  1  0.139000  0.194700  0.349100  1.0  0.0941
  H  H59  1  0.142500  0.308500  0.325800  1.0  0.0811
  H  H60  1  0.070900  0.295200  0.419100  1.0  0.0795
  H  H61  1  0.147300  0.235800  0.433300  1.0  0.0966
  H  H62  1  0.216100  0.453800  0.381900  1.0  0.0711
  H  H63  1  0.240700  0.410600  0.434900  1.0  0.086
  H  H64  1  0.378400  0.526700  0.315100  1.0  0.1477
  H  H65  1  0.468800  0.475600  0.303800  1.0  0.1538
  H  H66  1  0.321300  0.343800  0.289500  1.0  0.0979
  H  H67  1  0.976100  0.862100  0.332600  1.0  0.1022
  H  H68  1  0.054300  0.706900  0.310000  1.0  0.0964
  H  H69  1  0.092700  0.785500  0.347600  1.0  0.084
  H  H70  1  0.021600  0.631200  0.411400  1.0  0.0775
  H  H71  1  0.932200  0.579500  0.383700  1.0  0.097
  H  H72  1  0.833400  0.632900  0.457500  1.0  0.0864
  H  H73  1  0.929500  0.741700  0.446800  1.0  0.0715
  H  H74  1  0.792300  0.855100  0.376600  1.0  0.1519
  H  H75  1  0.848000  0.863200  0.423200  1.0  0.1456
  H  H76  1  0.262900  0.859700  0.506800  1.0  0.1032
  H  H77  1  0.096300  0.808400  0.495700  1.0  0.0806
  H  H78  1  0.137300  0.771600  0.440500  1.0  0.0803
  H  H79  1  0.071500  0.652000  0.548700  1.0  0.0793
  H  H80  1  0.041300  0.611000  0.497700  1.0  0.0739
  H  H81  1  0.212800  0.609500  0.458900  1.0  0.0851
  H  H82  1  0.188700  0.563400  0.521700  1.0  0.0792
  H  H83  1  0.220400  0.694000  0.581400  1.0  0.1331
  H  H84  1  0.334600  0.784700  0.560300  1.0  0.1781
  H  H85  1  0.956200  0.511900  0.849100  1.0  0.0928
  H  H86  1  0.865700  0.531700  0.825800  1.0  0.0817
  H  H87  1  0.785700  0.510000  0.919100  1.0  0.0788
  H  H88  1  0.830900  0.419400  0.933300  1.0  0.0951
  H  H89  1  0.664300  0.402000  0.881900  1.0  0.0667
  H  H90  1  0.654500  0.324400  0.934900  1.0  0.0863
  H  H91  1  0.658200  0.306500  0.815100  1.0  0.1494
  H  H92  1  0.720600  0.227400  0.803800  1.0  0.1544
  H  H93  1  0.866700  0.389200  0.789500  1.0  0.0986
  H  H94  1  0.305300  0.691300  0.832600  1.0  0.1012
  H  H95  1  0.483100  0.635700  0.810000  1.0  0.0955
  H  H96  1  0.366900  0.559700  0.847600  1.0  0.0819
  H  H97  1  0.457400  0.567000  0.911400  1.0  0.0775
  H  H98  1  0.536800  0.684100  0.883700  1.0  0.0947
  H  H99  1  0.409600  0.709100  0.957500  1.0  0.0856
  H  H100  1  0.311500  0.623700  0.946800  1.0  0.071
  H  H101  1  0.268300  0.831100  0.876600  1.0  0.1503
  H  H102  1  0.213600  0.728800  0.923200  1.0  0.1461
  H  H103  1  0.133500  0.230300  0.006800  1.0  0.1075
  H  H104  1  0.195900  0.408000  0.995700  1.0  0.0848
  H  H105  1  0.287900  0.422200  0.940500  1.0  0.0826
  H  H106  1  0.299300  0.379800  0.048700  1.0  0.0828
  H  H107  1  0.391300  0.461000  0.997700  1.0  0.0739
  H  H108  1  0.431600  0.328300  0.958900  1.0  0.0832
  H  H109  1  0.414900  0.289600  0.021700  1.0  0.0804
  H  H110  1  0.224600  0.198200  0.081400  1.0  0.1339
  H  H111  1  0.155000  0.105100  0.060300  1.0  0.1777
  H  H112  1  0.861000  0.805300  0.650900  1.0  0.0949
  H  H113  1  0.857500  0.691500  0.674200  1.0  0.0831
  H  H114  1  0.929100  0.704800  0.580900  1.0  0.0787
  H  H115  1  0.852700  0.764200  0.566700  1.0  0.097
  H  H116  1  0.783900  0.546200  0.618100  1.0  0.0728
  H  H117  1  0.759300  0.589400  0.565100  1.0  0.0878
  H  H118  1  0.621600  0.473300  0.684900  1.0  0.1494
  H  H119  1  0.531200  0.524400  0.696200  1.0  0.1555
  H  H120  1  0.678700  0.656200  0.710500  1.0  0.0986
  H  H121  1  0.023900  0.137900  0.667400  1.0  0.0989
  H  H122  1  0.945700  0.293100  0.690000  1.0  0.0967
  H  H123  1  0.907300  0.214500  0.652400  1.0  0.0841
  H  H124  1  0.978400  0.368800  0.588600  1.0  0.0784
  H  H125  1  0.067800  0.420500  0.616300  1.0  0.0953
  H  H126  1  0.166600  0.367100  0.542500  1.0  0.0855
  H  H127  1  0.070500  0.258300  0.553200  1.0  0.0713
  H  H128  1  0.207700  0.144900  0.623400  1.0  0.1507
  H  H129  1  0.152000  0.136800  0.576800  1.0  0.1447
  H  H130  1  0.737100  0.140300  0.493200  1.0  0.103
  H  H131  1  0.903700  0.191600  0.504300  1.0  0.0813
  H  H132  1  0.862700  0.228400  0.559500  1.0  0.0801
  H  H133  1  0.928500  0.348000  0.451300  1.0  0.0782
  H  H134  1  0.958700  0.389000  0.502300  1.0  0.0731
  H  H135  1  0.787200  0.390500  0.541100  1.0  0.0835
  H  H136  1  0.811300  0.436600  0.478300  1.0  0.0779
  H  H137  1  0.779600  0.306000  0.418600  1.0  0.1334
  H  H138  1  0.665400  0.215300  0.439700  1.0  0.1791
  C  C139  1  0.118300  0.518900  0.151200  1.0  -0.1361
  C  C140  1  0.197400  0.550000  0.092800  1.0  -0.1739
  C  C141  1  0.296500  0.631900  0.100200  1.0  0.0013
  C  C142  1  0.319300  0.746000  0.167500  1.0  -0.4623
  C  C143  1  0.135800  0.622400  0.171800  1.0  -0.0262
  C  C144  1  0.050700  0.668400  0.164500  1.0  0.6268
  C  C145  1  0.545800  0.195100  0.212900  1.0  0.63
  C  C146  1  0.621400  0.281900  0.163900  1.0  -0.0225
  C  C147  1  0.576700  0.372300  0.157600  1.0  -0.1331
  C  C148  1  0.537500  0.364300  0.106800  1.0  -0.1773
  C  C149  1  0.618000  0.321400  0.070600  1.0  0.004
  C  C150  1  0.722100  0.208100  0.092400  1.0  -0.4548
  C  C151  1  0.801100  0.763400  0.076300  1.0  0.6474
  C  C152  1  0.793900  0.739400  0.020100  1.0  -0.0307
  C  C153  1  0.747100  0.617300  0.022000  1.0  -0.1441
  C  C154  1  0.665600  0.608100  0.990500  1.0  -0.1716
  C  C155  1  0.620300  0.693300  0.004600  1.0  0.0117
  C  C156  1  0.771400  0.849200  0.944000  1.0  -0.4352
  C  C157  1  0.170100  0.269500  0.348800  1.0  -0.1353
  C  C158  1  0.142800  0.290200  0.407200  1.0  -0.1737
  C  C159  1  0.232100  0.396700  0.399800  1.0  -0.0034
  C  C160  1  0.413500  0.486800  0.332500  1.0  -0.4614
  C  C161  1  0.294200  0.307600  0.328200  1.0  -0.0231
  C  C162  1  0.332900  0.215200  0.335500  1.0  0.6296
  C  C163  1  0.908000  0.758700  0.287100  1.0  0.6299
  C  C164  1  0.945800  0.785300  0.336100  1.0  -0.0267
  C  C165  1  0.029900  0.734300  0.342400  1.0  -0.128
  C  C166  1  0.971100  0.644300  0.393200  1.0  -0.1815
  C  C167  1  0.892000  0.688600  0.429400  1.0  0.0022
  C  C168  1  0.800500  0.814500  0.407600  1.0  -0.4423
  C  C169  1  0.339700  0.877400  0.423700  1.0  0.6496
  C  C170  1  0.259500  0.814000  0.479900  1.0  -0.0296
  C  C171  1  0.139300  0.769100  0.478000  1.0  -0.1457
  C  C172  1  0.098600  0.656100  0.509500  1.0  -0.1681
  C  C173  1  0.197900  0.624900  0.495400  1.0  0.0066
  C  C174  1  0.293200  0.715400  0.556000  1.0  -0.4372
  C  C175  1  0.881700  0.481100  0.848800  1.0  -0.1382
  C  C176  1  0.802600  0.450000  0.907200  1.0  -0.1741
  C  C177  1  0.703500  0.368100  0.899800  1.0  -0.0004
  C  C178  1  0.680700  0.254000  0.832500  1.0  -0.4599
  C  C179  1  0.864200  0.377600  0.828200  1.0  -0.0244
  C  C180  1  0.949300  0.331600  0.835500  1.0  0.6259
  C  C181  1  0.454200  0.804900  0.787100  1.0  0.6324
  C  C182  1  0.378600  0.718100  0.836100  1.0  -0.0212
  C  C183  1  0.423300  0.627700  0.842400  1.0  -0.1415
  C  C184  1  0.462500  0.635700  0.893200  1.0  -0.1804
  C  C185  1  0.382000  0.678600  0.929400  1.0  0.0047
  C  C186  1  0.277900  0.791900  0.907600  1.0  -0.4494
  C  C187  1  0.198900  0.236600  0.923700  1.0  0.65
  C  C188  1  0.206100  0.260600  0.979900  1.0  -0.0312
  C  C189  1  0.252900  0.382700  0.978000  1.0  -0.1475
  C  C190  1  0.334400  0.391900  0.009500  1.0  -0.1715
  C  C191  1  0.379700  0.306700  0.995400  1.0  0.0109
  C  C192  1  0.228600  0.150800  0.056000  1.0  -0.4331
  C  C193  1  0.829900  0.730500  0.651200  1.0  -0.137
  C  C194  1  0.857200  0.709800  0.592800  1.0  -0.1702
  C  C195  1  0.767900  0.603300  0.600200  1.0  -0.0024
  C  C196  1  0.586500  0.513200  0.667500  1.0  -0.4696
  C  C197  1  0.705800  0.692400  0.671800  1.0  -0.0248
  C  C198  1  0.667100  0.784800  0.664500  1.0  0.631
  C  C199  1  0.092000  0.241300  0.712900  1.0  0.6315
  C  C200  1  0.054200  0.214700  0.663900  1.0  -0.0251
  C  C201  1  0.970100  0.265700  0.657600  1.0  -0.1393
  C  C202  1  0.028900  0.355700  0.606800  1.0  -0.1792
  C  C203  1  0.108000  0.311400  0.570600  1.0  0.0031
  C  C204  1  0.199500  0.185500  0.592400  1.0  -0.4378
  C  C205  1  0.660300  0.122600  0.576300  1.0  0.6548
  C  C206  1  0.740500  0.186000  0.520100  1.0  -0.0294
  C  C207  1  0.860700  0.230900  0.522000  1.0  -0.1476
  C  C208  1  0.901400  0.343900  0.490500  1.0  -0.1695
  C  C209  1  0.802100  0.375100  0.504600  1.0  0.0053
  C  C210  1  0.706800  0.284600  0.444000  1.0  -0.4346
  N  N211  1  0.247800  0.696500  0.136100  1.0  -0.1563
  N  N212  1  0.719600  0.786700  0.001500  1.0  -0.1675
  N  N213  1  0.624000  0.239100  0.111700  1.0  -0.159
  N  N214  1  0.332600  0.383900  0.363900  1.0  -0.1586
  N  N215  1  0.288200  0.721100  0.498500  1.0  -0.1704
  N  N216  1  0.850800  0.735700  0.388300  1.0  -0.1605
  N  N217  1  0.752200  0.303500  0.863900  1.0  -0.1563
  N  N218  1  0.280400  0.213300  0.998500  1.0  -0.1689
  N  N219  1  0.376000  0.760900  0.888300  1.0  -0.1589
  N  N220  1  0.667400  0.616100  0.636100  1.0  -0.1591
  N  N221  1  0.711800  0.278900  0.501500  1.0  -0.1702
  N  N222  1  0.149200  0.264300  0.611700  1.0  -0.1611
  O  O223  1  0.533260  0.813600  0.107140  1.0  -0.8434
  O  O224  1  0.406210  0.886100  0.072290  1.0  -0.9108
  O  O225  1  0.461700  0.941000  0.155900  1.0  -0.8321
  O  O226  1  0.074960  0.754000  0.131240  1.0  -0.5736
  O  O227  1  0.953630  0.618300  0.194670  1.0  -0.6047
  O  O228  1  0.477260  0.113100  0.206440  1.0  -0.5858
  O  O229  1  0.553800  0.208400  0.259400  1.0  -0.5686
  O  O230  1  0.583980  0.086200  0.048420  1.0  -0.9169
  O  O231  1  0.749460  0.037700  0.053440  1.0  -0.8303
  O  O232  1  0.774190  0.198900  0.984910  1.0  -0.8313
  O  O233  1  0.849800  0.714100  0.098900  1.0  -0.591
  O  O234  1  0.761520  0.828100  0.095380  1.0  -0.5787
  O  O235  1  0.778010  0.038400  0.896990  1.0  -0.8189
  O  O236  1  0.627790  0.877900  0.891910  1.0  -0.8422
  O  O237  1  0.622000  0.932900  0.984500  1.0  -0.9155
  O  O238  1  0.420740  0.640400  0.392860  1.0  -0.8441
  O  O239  1  0.458390  0.478500  0.427710  1.0  -0.9106
  O  O240  1  0.596900  0.617600  0.344100  1.0  -0.8322
  O  O241  1  0.385240  0.206200  0.368760  1.0  -0.5762
  O  O242  1  0.312970  0.148300  0.305330  1.0  -0.601
  O  O243  1  0.819540  0.683700  0.293560  1.0  -0.5917
  O  O244  1  0.967800  0.813200  0.240600  1.0  -0.5704
  O  O245  1  0.634620  0.632400  0.451580  1.0  -0.9144
  O  O246  1  0.591140  0.802900  0.446560  1.0  -0.8266
  O  O247  1  0.683810  0.759100  0.515090  1.0  -0.8311
  O  O248  1  0.313000  0.948700  0.401100  1.0  -0.586
  O  O249  1  0.423480  0.856900  0.404620  1.0  -0.5802
  O  O250  1  0.435390  0.675000  0.603010  1.0  -0.8183
  O  O251  1  0.269810  0.519700  0.608090  1.0  -0.8413
  O  O252  1  0.417400  0.606500  0.515500  1.0  -0.9149
  O  O253  1  0.466740  0.186400  0.892860  1.0  -0.8457
  O  O254  1  0.593790  0.113900  0.927710  1.0  -0.9091
  O  O255  1  0.538300  0.059000  0.844100  1.0  -0.8369
  O  O256  1  0.925040  0.246000  0.868760  1.0  -0.573
  O  O257  1  0.046370  0.381700  0.805330  1.0  -0.6006
  O  O258  1  0.522740  0.886900  0.793560  1.0  -0.5876
  O  O259  1  0.446200  0.791600  0.740600  1.0  -0.5654
  O  O260  1  0.416020  0.913800  0.951580  1.0  -0.9159
  O  O261  1  0.250540  0.962300  0.946560  1.0  -0.8262
  O  O262  1  0.225810  0.801100  0.015090  1.0  -0.8305
  O  O263  1  0.150200  0.285900  0.901100  1.0  -0.5902
  O  O264  1  0.238480  0.171900  0.904620  1.0  -0.5815
  O  O265  1  0.221990  0.961600  0.103010  1.0  -0.8186
  O  O266  1  0.372210  0.122100  0.108090  1.0  -0.8379
  O  O267  1  0.378000  0.067100  0.015500  1.0  -0.9149
  O  O268  1  0.579260  0.359600  0.607140  1.0  -0.8455
  O  O269  1  0.541610  0.521500  0.572290  1.0  -0.9105
  O  O270  1  0.403100  0.382400  0.655900  1.0  -0.8312
  O  O271  1  0.614760  0.793800  0.631240  1.0  -0.5752
  O  O272  1  0.687030  0.851700  0.694670  1.0  -0.6033
  O  O273  1  0.180460  0.316300  0.706440  1.0  -0.5901
  O  O274  1  0.032200  0.186800  0.759400  1.0  -0.5707
  O  O275  1  0.365380  0.367600  0.548420  1.0  -0.9149
  O  O276  1  0.408860  0.197100  0.553440  1.0  -0.8305
  O  O277  1  0.316190  0.240900  0.484910  1.0  -0.828
  O  O278  1  0.687000  0.051300  0.598900  1.0  -0.5844
  O  O279  1  0.576520  0.143100  0.595380  1.0  -0.5805
  O  O280  1  0.564610  0.325000  0.396990  1.0  -0.8206
  O  O281  1  0.730190  0.480300  0.391910  1.0  -0.8403
  O  O282  1  0.582600  0.393500  0.484500  1.0  -0.9142
