# generated using pymatgen
data_YH2C7(NO3)2
_symmetry_space_group_name_H-M   'P 1'
_cell_length_a   9.60840000
_cell_length_b   15.80300000
_cell_length_c   7.93090000
_cell_angle_alpha   90.00000000
_cell_angle_beta   96.84000000
_cell_angle_gamma   90.00000000
_symmetry_Int_Tables_number   1
_chemical_formula_structural   YH2C7(NO3)2
_chemical_formula_sum   'Y4 H8 C28 N8 O24'
_cell_volume   1195.66905777
_cell_formula_units_Z   4
loop_
 _symmetry_equiv_pos_site_id
 _symmetry_equiv_pos_as_xyz
  1  'x, y, z'
loop_
 _atom_site_type_symbol
 _atom_site_label
 _atom_site_symmetry_multiplicity
 _atom_site_fract_x
 _atom_site_fract_y
 _atom_site_fract_z
 _atom_site_occupancy
 _atom_site_charge
  Y  Y1  1  0.866940  0.672630  0.072570  1.0  2.0204
  Y  Y2  1  0.633060  0.172630  0.427430  1.0  2.0196
  Y  Y3  1  0.133060  0.327370  0.927430  1.0  2.0188
  Y  Y4  1  0.366940  0.827370  0.572570  1.0  2.0196
  H  H5  1  0.313930  0.610830  0.030170  1.0  0.119
  H  H6  1  0.655100  0.750700  0.377570  1.0  0.0439
  H  H7  1  0.186070  0.110830  0.469830  1.0  0.1199
  H  H8  1  0.844900  0.250700  0.122430  1.0  0.0439
  H  H9  1  0.686070  0.389170  0.969830  1.0  0.1195
  H  H10  1  0.344900  0.249300  0.622430  1.0  0.0436
  H  H11  1  0.813930  0.889170  0.530170  1.0  0.1191
  H  H12  1  0.155100  0.749300  0.877570  1.0  0.0438
  C  C13  1  0.526800  0.632300  0.080800  1.0  0.1496
  C  C14  1  0.203300  0.717400  0.251500  1.0  0.6996
  C  C15  1  0.385400  0.641200  0.100500  1.0  -0.1403
  C  C16  1  0.353200  0.695300  0.224700  1.0  0.1625
  C  C17  1  0.576800  0.581300  0.940400  1.0  0.6182
  C  C18  1  0.583600  0.722300  0.303700  1.0  0.4399
  C  C19  1  0.990200  0.485000  0.090700  1.0  0.5587
  C  C20  1  0.973200  0.132300  0.419200  1.0  0.1484
  C  C21  1  0.296700  0.217400  0.248500  1.0  0.6986
  C  C22  1  0.114600  0.141200  0.399500  1.0  -0.1386
  C  C23  1  0.146800  0.195300  0.275300  1.0  0.163
  C  C24  1  0.923200  0.081300  0.559600  1.0  0.6175
  C  C25  1  0.916400  0.222300  0.196300  1.0  0.4402
  C  C26  1  0.509800  0.985000  0.409300  1.0  0.5626
  C  C27  1  0.473200  0.367700  0.919200  1.0  0.1487
  C  C28  1  0.796700  0.282600  0.748500  1.0  0.6966
  C  C29  1  0.614600  0.358800  0.899500  1.0  -0.1386
  C  C30  1  0.646800  0.304700  0.775300  1.0  0.1631
  C  C31  1  0.423200  0.418700  0.059600  1.0  0.6146
  C  C32  1  0.416400  0.277700  0.696300  1.0  0.4405
  C  C33  1  0.009800  0.515000  0.909300  1.0  0.5628
  C  C34  1  0.026800  0.867700  0.580800  1.0  0.1497
  C  C35  1  0.703300  0.782600  0.751500  1.0  0.6979
  C  C36  1  0.885400  0.858800  0.600500  1.0  -0.14
  C  C37  1  0.853200  0.804700  0.724700  1.0  0.1631
  C  C38  1  0.076800  0.918700  0.440400  1.0  0.6153
  C  C39  1  0.083600  0.777700  0.803700  1.0  0.4398
  C  C40  1  0.490200  0.015000  0.590700  1.0  0.5592
  N  N41  1  0.625900  0.673000  0.182900  1.0  -0.5072
  N  N42  1  0.452000  0.735500  0.330500  1.0  -0.4819
  N  N43  1  0.874100  0.173000  0.317100  1.0  -0.5076
  N  N44  1  0.048000  0.235500  0.169500  1.0  -0.4802
  N  N45  1  0.374100  0.327000  0.817100  1.0  -0.508
  N  N46  1  0.548000  0.264500  0.669500  1.0  -0.4811
  N  N47  1  0.125900  0.827000  0.682900  1.0  -0.5076
  N  N48  1  0.952000  0.764500  0.830500  1.0  -0.482
  O  O49  1  0.708700  0.570600  0.948500  1.0  -0.6123
  O  O50  1  0.108600  0.689720  0.144200  1.0  -0.6956
  O  O51  1  0.943300  0.538000  0.186500  1.0  -0.6121
  O  O52  1  0.187200  0.762500  0.375700  1.0  -0.6623
  O  O53  1  0.023500  0.410040  0.126900  1.0  -0.5702
  O  O54  1  0.488000  0.555510  0.825100  1.0  -0.5318
  O  O55  1  0.791300  0.070600  0.551500  1.0  -0.613
  O  O56  1  0.391400  0.189720  0.355800  1.0  -0.6955
  O  O57  1  0.556700  0.038000  0.313500  1.0  -0.6087
  O  O58  1  0.312800  0.262500  0.124300  1.0  -0.6625
  O  O59  1  0.476500  0.910040  0.373100  1.0  -0.5689
  O  O60  1  0.012000  0.055510  0.674900  1.0  -0.5328
  O  O61  1  0.291300  0.429400  0.051500  1.0  -0.6129
  O  O62  1  0.891400  0.310280  0.855800  1.0  -0.6958
  O  O63  1  0.056700  0.462000  0.813500  1.0  -0.609
  O  O64  1  0.812800  0.237500  0.624300  1.0  -0.6632
  O  O65  1  0.976500  0.589960  0.873100  1.0  -0.5662
  O  O66  1  0.512000  0.444490  0.174900  1.0  -0.5329
  O  O67  1  0.208700  0.929400  0.448500  1.0  -0.6119
  O  O68  1  0.608600  0.810280  0.644200  1.0  -0.6957
  O  O69  1  0.443300  0.962000  0.686500  1.0  -0.6116
  O  O70  1  0.687200  0.737500  0.875700  1.0  -0.6634
  O  O71  1  0.523500  0.089960  0.626900  1.0  -0.5673
  O  O72  1  0.988000  0.944490  0.325100  1.0  -0.5318
