# generated using pymatgen
data_YH2C7(NO3)2
_symmetry_space_group_name_H-M   'P 1'
_cell_length_a   9.60840000
_cell_length_b   15.80320000
_cell_length_c   23.79270000
_cell_angle_alpha   90.00000000
_cell_angle_beta   96.84000000
_cell_angle_gamma   90.00000000
_symmetry_Int_Tables_number   1
_chemical_formula_structural   YH2C7(NO3)2
_chemical_formula_sum   'Y12 H24 C84 N24 O72'
_cell_volume   3587.05256983
_cell_formula_units_Z   12
loop_
 _symmetry_equiv_pos_site_id
 _symmetry_equiv_pos_as_xyz
  1  'x, y, z'
loop_
 _atom_site_type_symbol
 _atom_site_label
 _atom_site_symmetry_multiplicity
 _atom_site_fract_x
 _atom_site_fract_y
 _atom_site_fract_z
 _atom_site_occupancy
 _atom_site_charge
  Y  Y1  1  0.869190  0.674580  0.021990  1.0  2.0177
  Y  Y2  1  0.366140  0.834800  0.857580  1.0  2.0201
  Y  Y3  1  0.365510  0.821870  0.192990  1.0  2.0357
  Y  Y4  1  0.630810  0.174580  0.478010  1.0  2.0154
  Y  Y5  1  0.133860  0.334800  0.642420  1.0  2.0201
  Y  Y6  1  0.134490  0.321870  0.307010  1.0  2.0334
  Y  Y7  1  0.130810  0.325420  0.978010  1.0  2.0145
  Y  Y8  1  0.633860  0.165200  0.142420  1.0  2.0208
  Y  Y9  1  0.634490  0.178130  0.807010  1.0  2.0343
  Y  Y10  1  0.369190  0.825420  0.521990  1.0  2.0171
  Y  Y11  1  0.866140  0.665200  0.357580  1.0  2.0203
  Y  Y12  1  0.865510  0.678130  0.692990  1.0  2.0362
  H  H13  1  0.321000  0.606000  0.013000  1.0  0.105
  H  H14  1  0.646000  0.753000  0.127000  1.0  0.0636
  H  H15  1  0.816000  0.886000  0.845000  1.0  0.1858
  H  H16  1  0.156000  0.758000  0.952000  1.0  0.1408
  H  H17  1  0.799000  0.884000  0.177000  1.0  0.0905
  H  H18  1  0.150000  0.741000  0.291000  1.0  0.0131
  H  H19  1  0.179000  0.106000  0.487000  1.0  0.1052
  H  H20  1  0.854000  0.253000  0.373000  1.0  0.0628
  H  H21  1  0.684000  0.386000  0.655000  1.0  0.1851
  H  H22  1  0.344000  0.258000  0.548000  1.0  0.1427
  H  H23  1  0.701000  0.384000  0.323000  1.0  0.0906
  H  H24  1  0.350000  0.241000  0.209000  1.0  0.0128
  H  H25  1  0.679000  0.394000  0.987000  1.0  0.1038
  H  H26  1  0.354000  0.247000  0.873000  1.0  0.063
  H  H27  1  0.184000  0.114000  0.155000  1.0  0.1857
  H  H28  1  0.844000  0.242000  0.048000  1.0  0.1423
  H  H29  1  0.201000  0.116000  0.823000  1.0  0.0909
  H  H30  1  0.850000  0.259000  0.709000  1.0  0.013
  H  H31  1  0.821000  0.894000  0.513000  1.0  0.1042
  H  H32  1  0.146000  0.747000  0.627000  1.0  0.0638
  H  H33  1  0.316000  0.614000  0.345000  1.0  0.1859
  H  H34  1  0.656000  0.742000  0.452000  1.0  0.1406
  H  H35  1  0.299000  0.616000  0.677000  1.0  0.0904
  H  H36  1  0.650000  0.759000  0.791000  1.0  0.0131
  C  C37  1  0.530100  0.632300  0.026100  1.0  0.1478
  C  C38  1  0.205400  0.715600  0.082900  1.0  0.7194
  C  C39  1  0.388200  0.641200  0.032000  1.0  -0.0919
  C  C40  1  0.355200  0.693900  0.074700  1.0  0.1251
  C  C41  1  0.581000  0.582100  0.979400  1.0  0.628
  C  C42  1  0.586800  0.719100  0.103200  1.0  0.2974
  C  C43  1  0.989700  0.486900  0.030600  1.0  0.5615
  C  C44  1  0.025400  0.871900  0.859300  1.0  0.0707
  C  C45  1  0.702700  0.785700  0.916500  1.0  0.7027
  C  C46  1  0.884600  0.862500  0.866500  1.0  -0.0371
  C  C47  1  0.853300  0.807800  0.906800  1.0  0.1487
  C  C48  1  0.074100  0.924300  0.812000  1.0  0.6016
  C  C49  1  0.083400  0.780700  0.932600  1.0  0.3693
  C  C50  1  0.494200  0.022300  0.862400  1.0  0.5599
  C  C51  1  0.513500  0.990100  0.802200  1.0  0.5635
  C  C52  1  0.025300  0.864000  0.195500  1.0  0.1602
  C  C53  1  0.702200  0.777500  0.252100  1.0  0.6593
  C  C54  1  0.883300  0.855300  0.202100  1.0  -0.0695
  C  C55  1  0.851100  0.800800  0.243400  1.0  0.1428
  C  C56  1  0.075800  0.913900  0.148900  1.0  0.6355
  C  C57  1  0.080200  0.771500  0.268100  1.0  0.4096
  C  C58  1  0.969900  0.132300  0.473900  1.0  0.148
  C  C59  1  0.294600  0.215600  0.417100  1.0  0.7195
  C  C60  1  0.111800  0.141200  0.468000  1.0  -0.0911
  C  C61  1  0.144800  0.193900  0.425300  1.0  0.1256
  C  C62  1  0.919000  0.082100  0.520600  1.0  0.629
  C  C63  1  0.913200  0.219100  0.396800  1.0  0.296
  C  C64  1  0.510300  0.986900  0.469400  1.0  0.5655
  C  C65  1  0.474600  0.371900  0.640700  1.0  0.0701
  C  C66  1  0.797300  0.285700  0.583500  1.0  0.7031
  C  C67  1  0.615400  0.362500  0.633500  1.0  -0.0359
  C  C68  1  0.646700  0.307800  0.593200  1.0  0.1489
  C  C69  1  0.425900  0.424300  0.688000  1.0  0.6007
  C  C70  1  0.416600  0.280700  0.567400  1.0  0.3709
  C  C71  1  0.005800  0.522300  0.637600  1.0  0.5631
  C  C72  1  0.986500  0.490100  0.697800  1.0  0.5617
  C  C73  1  0.474700  0.364000  0.304500  1.0  0.1598
  C  C74  1  0.797800  0.277500  0.247900  1.0  0.6587
  C  C75  1  0.616700  0.355300  0.297900  1.0  -0.0685
  C  C76  1  0.648900  0.300800  0.256600  1.0  0.1432
  C  C77  1  0.424200  0.413900  0.351100  1.0  0.6374
  C  C78  1  0.419800  0.271500  0.231900  1.0  0.4108
  C  C79  1  0.469900  0.367700  0.973900  1.0  0.1479
  C  C80  1  0.794600  0.284400  0.917100  1.0  0.7193
  C  C81  1  0.611800  0.358800  0.968000  1.0  -0.0912
  C  C82  1  0.644800  0.306100  0.925300  1.0  0.1257
  C  C83  1  0.419000  0.417900  0.020600  1.0  0.6336
  C  C84  1  0.413200  0.280900  0.896800  1.0  0.296
  C  C85  1  0.010300  0.513100  0.969400  1.0  0.5655
  C  C86  1  0.974600  0.128100  0.140700  1.0  0.07
  C  C87  1  0.297300  0.214300  0.083500  1.0  0.7015
  C  C88  1  0.115400  0.137500  0.133500  1.0  -0.0361
  C  C89  1  0.146700  0.192200  0.093200  1.0  0.149
  C  C90  1  0.925900  0.075700  0.188000  1.0  0.6007
  C  C91  1  0.916600  0.219300  0.067400  1.0  0.3707
  C  C92  1  0.505800  0.977700  0.137600  1.0  0.5631
  C  C93  1  0.486500  0.009900  0.197800  1.0  0.5618
  C  C94  1  0.974700  0.136000  0.804500  1.0  0.1599
  C  C95  1  0.297800  0.222500  0.747900  1.0  0.6589
  C  C96  1  0.116700  0.144700  0.797900  1.0  -0.0683
  C  C97  1  0.148900  0.199200  0.756600  1.0  0.1434
  C  C98  1  0.924200  0.086100  0.851100  1.0  0.6348
  C  C99  1  0.919800  0.228500  0.731900  1.0  0.4105
  C  C100  1  0.030100  0.867700  0.526100  1.0  0.1477
  C  C101  1  0.705400  0.784400  0.582900  1.0  0.7192
  C  C102  1  0.888200  0.858800  0.532000  1.0  -0.0917
  C  C103  1  0.855200  0.806100  0.574700  1.0  0.1255
  C  C104  1  0.081000  0.917900  0.479400  1.0  0.6331
  C  C105  1  0.086800  0.780900  0.603200  1.0  0.2976
  C  C106  1  0.489700  0.013100  0.530600  1.0  0.5617
  C  C107  1  0.525400  0.628100  0.359300  1.0  0.0707
  C  C108  1  0.202700  0.714300  0.416500  1.0  0.7013
  C  C109  1  0.384600  0.637500  0.366500  1.0  -0.0375
  C  C110  1  0.353300  0.692200  0.406800  1.0  0.1482
  C  C111  1  0.574100  0.575700  0.312000  1.0  0.6015
  C  C112  1  0.583400  0.719300  0.432600  1.0  0.3694
  C  C113  1  0.994200  0.477700  0.362400  1.0  0.5598
  C  C114  1  0.013500  0.509900  0.302200  1.0  0.5638
  C  C115  1  0.525300  0.636000  0.695500  1.0  0.1603
  C  C116  1  0.202200  0.722500  0.752100  1.0  0.6593
  C  C117  1  0.383300  0.644700  0.702100  1.0  -0.0699
  C  C118  1  0.351100  0.699200  0.743400  1.0  0.1427
  C  C119  1  0.575800  0.586100  0.648900  1.0  0.6331
  C  C120  1  0.580200  0.728500  0.768100  1.0  0.4095
  N  N121  1  0.629700  0.671900  0.061400  1.0  -0.3802
  N  N122  1  0.453900  0.732000  0.111700  1.0  -0.4454
  N  N123  1  0.125100  0.831200  0.893400  1.0  -0.3974
  N  N124  1  0.952300  0.766800  0.941400  1.0  -0.4918
  N  N125  1  0.123100  0.821800  0.228100  1.0  -0.4643
  N  N126  1  0.949900  0.758600  0.277400  1.0  -0.428
  N  N127  1  0.870300  0.171900  0.438600  1.0  -0.3806
  N  N128  1  0.046100  0.232000  0.388300  1.0  -0.4436
  N  N129  1  0.374900  0.331200  0.606600  1.0  -0.3969
  N  N130  1  0.547700  0.266800  0.558600  1.0  -0.4916
  N  N131  1  0.376900  0.321800  0.271900  1.0  -0.4629
  N  N132  1  0.550100  0.258600  0.222600  1.0  -0.4269
  N  N133  1  0.370300  0.328100  0.938600  1.0  -0.3805
  N  N134  1  0.546100  0.268000  0.888300  1.0  -0.4443
  N  N135  1  0.874900  0.168800  0.106600  1.0  -0.3972
  N  N136  1  0.047700  0.233200  0.058600  1.0  -0.491
  N  N137  1  0.876900  0.178200  0.771900  1.0  -0.4627
  N  N138  1  0.050100  0.241400  0.722600  1.0  -0.4258
  N  N139  1  0.129700  0.828100  0.561400  1.0  -0.3801
  N  N140  1  0.953900  0.768000  0.611700  1.0  -0.4451
  N  N141  1  0.625100  0.668800  0.393400  1.0  -0.3973
  N  N142  1  0.452300  0.733200  0.441400  1.0  -0.4919
  N  N143  1  0.623100  0.678200  0.728100  1.0  -0.4641
  N  N144  1  0.449900  0.741400  0.777400  1.0  -0.4281
  O  O145  1  0.711700  0.571100  0.981700  1.0  -0.6472
  O  O146  1  0.112100  0.693200  0.044900  1.0  -0.7333
  O  O147  1  0.950600  0.542800  0.061900  1.0  -0.5996
  O  O148  1  0.186800  0.754200  0.127000  1.0  -0.6657
  O  O149  1  0.018300  0.411600  0.043500  1.0  -0.6007
  O  O150  1  0.491000  0.557200  0.940900  1.0  -0.5711
  O  O151  1  0.206700  0.936300  0.816400  1.0  -0.625
  O  O152  1  0.607100  0.816100  0.882300  1.0  -0.7297
  O  O153  1  0.443000  0.969600  0.894400  1.0  -0.642
  O  O154  1  0.564000  0.040400  0.769900  1.0  -0.6242
  O  O155  1  0.687400  0.737000  0.956400  1.0  -0.6763
  O  O156  1  0.474800  0.915100  0.790500  1.0  -0.5995
  O  O157  1  0.526800  0.096500  0.874000  1.0  -0.5934
  O  O158  1  0.985100  0.949900  0.774700  1.0  -0.5442
  O  O159  1  0.207200  0.922900  0.150500  1.0  -0.635
  O  O160  1  0.606400  0.807800  0.217000  1.0  -0.6974
  O  O161  1  0.687700  0.729500  0.292300  1.0  -0.642
  O  O162  1  0.987300  0.940800  0.109500  1.0  -0.5489
  O  O163  1  0.788300  0.071100  0.518300  1.0  -0.648
  O  O164  1  0.387900  0.193200  0.455100  1.0  -0.7322
  O  O165  1  0.549400  0.042800  0.438100  1.0  -0.5967
  O  O166  1  0.313200  0.254200  0.373000  1.0  -0.6646
  O  O167  1  0.481700  0.911600  0.456500  1.0  -0.5998
  O  O168  1  0.009000  0.057200  0.559100  1.0  -0.5734
  O  O169  1  0.293300  0.436300  0.683600  1.0  -0.6249
  O  O170  1  0.892900  0.316100  0.617700  1.0  -0.7285
  O  O171  1  0.057000  0.469600  0.605600  1.0  -0.6423
  O  O172  1  0.936000  0.540400  0.730100  1.0  -0.6267
  O  O173  1  0.812600  0.237000  0.543600  1.0  -0.6762
  O  O174  1  0.025200  0.415100  0.709500  1.0  -0.6003
  O  O175  1  0.973200  0.596500  0.626000  1.0  -0.5914
  O  O176  1  0.514900  0.449900  0.725300  1.0  -0.544
  O  O177  1  0.292800  0.422900  0.349500  1.0  -0.6348
  O  O178  1  0.893600  0.307800  0.283000  1.0  -0.697
  O  O179  1  0.812300  0.229500  0.207700  1.0  -0.6424
  O  O180  1  0.512700  0.440800  0.390500  1.0  -0.5498
  O  O181  1  0.288300  0.428900  0.018300  1.0  -0.6473
  O  O182  1  0.887900  0.306800  0.955100  1.0  -0.7319
  O  O183  1  0.049400  0.457200  0.938100  1.0  -0.5977
  O  O184  1  0.813200  0.245800  0.873000  1.0  -0.6652
  O  O185  1  0.981700  0.588400  0.956500  1.0  -0.5996
  O  O186  1  0.509000  0.442800  0.059100  1.0  -0.5754
  O  O187  1  0.793300  0.063700  0.183600  1.0  -0.6252
  O  O188  1  0.392900  0.183900  0.117700  1.0  -0.7289
  O  O189  1  0.557000  0.030400  0.105600  1.0  -0.6418
  O  O190  1  0.436000  0.959600  0.230100  1.0  -0.6267
  O  O191  1  0.312600  0.263000  0.043600  1.0  -0.6758
  O  O192  1  0.525200  0.084900  0.209500  1.0  -0.6002
  O  O193  1  0.473200  0.903500  0.126000  1.0  -0.5915
  O  O194  1  0.014900  0.050100  0.225300  1.0  -0.5437
  O  O195  1  0.792800  0.077100  0.849500  1.0  -0.6373
  O  O196  1  0.393600  0.192200  0.783000  1.0  -0.6972
  O  O197  1  0.312300  0.270500  0.707700  1.0  -0.6421
  O  O198  1  0.012700  0.059200  0.890500  1.0  -0.5495
  O  O199  1  0.211700  0.928900  0.481700  1.0  -0.6464
  O  O200  1  0.612100  0.806800  0.544900  1.0  -0.733
  O  O201  1  0.450600  0.957200  0.561900  1.0  -0.5997
  O  O202  1  0.686800  0.745800  0.627000  1.0  -0.6669
  O  O203  1  0.518300  0.088400  0.543500  1.0  -0.5999
  O  O204  1  0.991000  0.942800  0.440900  1.0  -0.5733
  O  O205  1  0.706700  0.563700  0.316400  1.0  -0.6255
  O  O206  1  0.107100  0.683900  0.382300  1.0  -0.7296
  O  O207  1  0.943000  0.530400  0.394400  1.0  -0.6428
  O  O208  1  0.064000  0.459600  0.269900  1.0  -0.6253
  O  O209  1  0.187400  0.763000  0.456400  1.0  -0.6761
  O  O210  1  0.974800  0.584900  0.290500  1.0  -0.5992
  O  O211  1  0.026800  0.403500  0.374000  1.0  -0.5938
  O  O212  1  0.485100  0.550100  0.274700  1.0  -0.5439
  O  O213  1  0.707200  0.577100  0.650500  1.0  -0.6371
  O  O214  1  0.106400  0.692200  0.717000  1.0  -0.6972
  O  O215  1  0.187700  0.770500  0.792300  1.0  -0.6414
  O  O216  1  0.487300  0.559200  0.609500  1.0  -0.5488
