# generated using pymatgen
data_Y6H12C36N13O27
_symmetry_space_group_name_H-M   'P 1'
_cell_length_a   12.00200000
_cell_length_b   15.37200000
_cell_length_c   18.01800000
_cell_angle_alpha   90.15000000
_cell_angle_beta   96.90100000
_cell_angle_gamma   92.01300000
_symmetry_Int_Tables_number   1
_chemical_formula_structural   Y6H12C36N13O27
_chemical_formula_sum   'Y12 H24 C72 N26 O54'
_cell_volume   3298.02817073
_cell_formula_units_Z   2
loop_
 _symmetry_equiv_pos_site_id
 _symmetry_equiv_pos_as_xyz
  1  'x, y, z'
loop_
 _atom_site_type_symbol
 _atom_site_label
 _atom_site_symmetry_multiplicity
 _atom_site_fract_x
 _atom_site_fract_y
 _atom_site_fract_z
 _atom_site_occupancy
 _atom_site_charge
  Y  Y1  1  0.306640  0.417350  0.772430  1.0  2.0155
  Y  Y2  1  0.191660  0.212790  0.467250  1.0  1.9965
  Y  Y3  1  0.704130  0.311850  0.468550  1.0  2.013
  Y  Y4  1  0.401600  0.228090  0.070690  1.0  2.0223
  Y  Y5  1  0.901270  0.265270  0.069990  1.0  2.0076
  Y  Y6  1  0.792830  0.088370  0.763120  1.0  2.0002
  Y  Y7  1  0.693360  0.582650  0.227570  1.0  2.0156
  Y  Y8  1  0.808340  0.787210  0.532750  1.0  1.9982
  Y  Y9  1  0.295870  0.688150  0.531450  1.0  2.0133
  Y  Y10  1  0.598400  0.771910  0.929310  1.0  2.0226
  Y  Y11  1  0.098730  0.734730  0.930010  1.0  2.007
  Y  Y12  1  0.207170  0.911630  0.236880  1.0  2.0011
  H  H13  1  0.625400  0.205800  0.877300  1.0  0.0305
  H  H14  1  0.474900  0.306900  0.654700  1.0  0.0509
  H  H15  1  0.958000  0.221600  0.648500  1.0  0.0641
  H  H16  1  0.121500  0.305200  0.875600  1.0  0.017
  H  H17  1  0.988500  0.896000  0.412000  1.0  0.0463
  H  H18  1  0.884000  0.339200  0.258200  1.0  0.0611
  H  H19  1  0.246200  0.274500  0.280400  1.0  0.0603
  H  H20  1  0.375900  0.172100  0.265400  1.0  0.0814
  H  H21  1  0.750600  0.219400  0.288900  1.0  0.0443
  H  H22  1  0.451200  0.585300  0.401300  1.0  0.0241
  H  H23  1  0.424200  0.877900  0.043500  1.0  0.0679
  H  H24  1  0.905400  0.613100  0.030000  1.0  0.0236
  H  H25  1  0.374600  0.794200  0.122700  1.0  0.0314
  H  H26  1  0.525100  0.693100  0.345300  1.0  0.0508
  H  H27  1  0.042000  0.778400  0.351500  1.0  0.0644
  H  H28  1  0.878500  0.694800  0.124400  1.0  0.0166
  H  H29  1  0.011500  0.104000  0.588000  1.0  0.0457
  H  H30  1  0.116000  0.660800  0.741800  1.0  0.0603
  H  H31  1  0.753800  0.725500  0.719600  1.0  0.0599
  H  H32  1  0.624100  0.827900  0.734600  1.0  0.0811
  H  H33  1  0.249400  0.780600  0.711100  1.0  0.0444
  H  H34  1  0.548800  0.414700  0.598700  1.0  0.0239
  H  H35  1  0.575800  0.122100  0.956500  1.0  0.0679
  H  H36  1  0.094600  0.386900  0.970000  1.0  0.0234
  C  C37  1  0.500500  0.265700  0.823800  1.0  0.0821
  C  C38  1  0.594800  0.223400  0.830100  1.0  0.1571
  C  C39  1  0.608900  0.240100  0.704700  1.0  0.0119
  C  C40  1  0.505300  0.285000  0.700500  1.0  0.1539
  C  C41  1  0.674600  0.229100  0.638600  1.0  0.6869
  C  C42  1  0.430600  0.285500  0.888900  1.0  0.6253
  C  C43  1  0.098200  0.275400  0.705400  1.0  0.0807
  C  C44  1  0.991000  0.236600  0.696400  1.0  0.0842
  C  C45  1  0.985300  0.247300  0.823400  1.0  -0.0064
  C  C46  1  0.088300  0.287800  0.828400  1.0  0.1622
  C  C47  1  0.169300  0.286000  0.643500  1.0  0.6651
  C  C48  1  0.921300  0.221800  0.887700  1.0  0.7148
  C  C49  1  0.057300  0.014600  0.441800  1.0  0.0659
  C  C50  1  0.991900  0.938300  0.449400  1.0  0.163
  C  C51  1  0.123100  0.027900  0.377600  1.0  0.7113
  C  C52  1  0.008100  0.294600  0.332400  1.0  0.0748
  C  C53  1  0.955700  0.317300  0.261600  1.0  0.1361
  C  C54  1  0.108600  0.293600  0.207000  1.0  0.0911
  C  C55  1  0.169000  0.281100  0.276900  1.0  0.1225
  C  C56  1  0.952600  0.282200  0.400900  1.0  0.6379
  C  C57  1  0.165200  0.270600  0.139600  1.0  0.6869
  C  C58  1  0.510200  0.214400  0.336300  1.0  0.0708
  C  C59  1  0.450700  0.191300  0.268000  1.0  0.1154
  C  C60  1  0.614400  0.206900  0.216100  1.0  0.0888
  C  C61  1  0.672500  0.217800  0.284500  1.0  0.1286
  C  C62  1  0.450200  0.232500  0.404700  1.0  0.6418
  C  C63  1  0.666000  0.223000  0.143400  1.0  0.622
  C  C64  1  0.546400  0.488400  0.436900  1.0  0.0821
  C  C65  1  0.470500  0.550600  0.442800  1.0  0.135
  C  C66  1  0.603300  0.471000  0.368700  1.0  0.6829
  C  C67  1  0.427000  0.009600  0.050100  1.0  0.0809
  C  C68  1  0.456800  0.927800  0.024900  1.0  0.1645
  C  C69  1  0.354700  0.020500  0.110000  1.0  0.7045
  C  C70  1  0.924100  0.488400  0.048500  1.0  0.0824
  C  C71  1  0.947000  0.566400  0.017700  1.0  0.1673
  C  C72  1  0.839400  0.474600  0.102800  1.0  0.6815
  C  C73  1  0.499500  0.734300  0.176200  1.0  0.0814
  C  C74  1  0.405200  0.776600  0.169900  1.0  0.1562
  C  C75  1  0.391100  0.759900  0.295300  1.0  0.0122
  C  C76  1  0.494700  0.715000  0.299500  1.0  0.1534
  C  C77  1  0.325400  0.770900  0.361400  1.0  0.6883
  C  C78  1  0.569400  0.714500  0.111100  1.0  0.6261
  C  C79  1  0.901800  0.724600  0.294600  1.0  0.0815
  C  C80  1  0.009000  0.763400  0.303600  1.0  0.0855
  C  C81  1  0.014700  0.752700  0.176600  1.0  -0.0058
  C  C82  1  0.911700  0.712200  0.171600  1.0  0.1633
  C  C83  1  0.830700  0.714000  0.356500  1.0  0.6635
  C  C84  1  0.078700  0.778200  0.112300  1.0  0.7136
  C  C85  1  0.942700  0.985400  0.558200  1.0  0.0679
  C  C86  1  0.008100  0.061700  0.550600  1.0  0.1576
  C  C87  1  0.876900  0.972100  0.622400  1.0  0.7117
  C  C88  1  0.991900  0.705400  0.667600  1.0  0.0737
  C  C89  1  0.044300  0.682700  0.738400  1.0  0.135
  C  C90  1  0.891400  0.706400  0.793000  1.0  0.0883
  C  C91  1  0.831000  0.718900  0.723100  1.0  0.1225
  C  C92  1  0.047400  0.717800  0.599100  1.0  0.6389
  C  C93  1  0.834800  0.729400  0.860400  1.0  0.6864
  C  C94  1  0.489800  0.785600  0.663700  1.0  0.0721
  C  C95  1  0.549300  0.808700  0.732000  1.0  0.1142
  C  C96  1  0.385600  0.793100  0.783900  1.0  0.0893
  C  C97  1  0.327500  0.782200  0.715500  1.0  0.1286
  C  C98  1  0.549800  0.767500  0.595300  1.0  0.6439
  C  C99  1  0.334000  0.777000  0.856600  1.0  0.621
  C  C100  1  0.453600  0.511600  0.563100  1.0  0.0844
  C  C101  1  0.529500  0.449400  0.557200  1.0  0.1332
  C  C102  1  0.396700  0.529000  0.631300  1.0  0.683
  C  C103  1  0.573000  0.990400  0.949900  1.0  0.0818
  C  C104  1  0.543200  0.072200  0.975100  1.0  0.1636
  C  C105  1  0.645300  0.979500  0.890000  1.0  0.7059
  C  C106  1  0.075900  0.511600  0.951500  1.0  0.0819
  C  C107  1  0.053000  0.433600  0.982300  1.0  0.162
  C  C108  1  0.160600  0.525400  0.897200  1.0  0.6806
  N  N109  1  0.451500  0.296400  0.760100  1.0  -0.4654
  N  N110  1  0.648900  0.204600  0.770700  1.0  -0.447
  N  N111  1  0.144800  0.304500  0.771300  1.0  -0.4238
  N  N112  1  0.933400  0.220100  0.754700  1.0  -0.3787
  N  N113  1  0.065500  0.076900  0.492900  1.0  -0.483
  N  N114  1  0.116800  0.278200  0.341100  1.0  -0.4874
  N  N115  1  0.002800  0.309400  0.200000  1.0  -0.3724
  N  N116  1  0.621600  0.226500  0.346700  1.0  -0.4887
  N  N117  1  0.500800  0.196800  0.206000  1.0  -0.4464
  N  N118  1  0.578400  0.434600  0.495500  1.0  -0.4185
  N  N119  1  0.470700  0.081000  0.024100  1.0  -0.4588
  N  N120  1  0.975400  0.417800  0.029000  1.0  -0.4816
  N  N121  1  0.878400  0.432000  0.541900  1.0  0.8094
  N  N122  1  0.548500  0.703600  0.239900  1.0  -0.4632
  N  N123  1  0.351100  0.795400  0.229300  1.0  -0.4498
  N  N124  1  0.855200  0.695500  0.228700  1.0  -0.4263
  N  N125  1  0.066600  0.779900  0.245300  1.0  -0.3777
  N  N126  1  0.934500  0.923100  0.507100  1.0  -0.4853
  N  N127  1  0.883200  0.721800  0.658900  1.0  -0.4861
  N  N128  1  0.997200  0.690600  0.800000  1.0  -0.3701
  N  N129  1  0.378400  0.773500  0.653300  1.0  -0.4869
  N  N130  1  0.499200  0.803200  0.794000  1.0  -0.4467
  N  N131  1  0.421600  0.565400  0.504500  1.0  -0.4185
  N  N132  1  0.529300  0.919000  0.975900  1.0  -0.4556
  N  N133  1  0.024600  0.582200  0.971000  1.0  -0.4833
  N  N134  1  0.121600  0.568000  0.458100  1.0  0.8097
  O  O135  1  0.744900  0.173700  0.648700  1.0  -0.6512
  O  O136  1  0.653100  0.280400  0.586400  1.0  -0.697
  O  O137  1  0.347600  0.329800  0.876500  1.0  -0.6245
  O  O138  1  0.469700  0.252000  0.952800  1.0  -0.7096
  O  O139  1  0.254100  0.339500  0.657400  1.0  -0.6709
  O  O140  1  0.141900  0.242000  0.584900  1.0  -0.697
  O  O141  1  0.842800  0.167500  0.874700  1.0  -0.6513
  O  O142  1  0.958600  0.254000  0.947700  1.0  -0.7247
  O  O143  1  0.168800  0.100000  0.374900  1.0  -0.6705
  O  O144  1  0.125100  0.965500  0.334700  1.0  -0.7497
  O  O145  1  0.008600  0.250700  0.456900  1.0  -0.632
  O  O146  1  0.849600  0.305800  0.393900  1.0  -0.7765
  O  O147  1  0.098900  0.263400  0.080700  1.0  -0.6893
  O  O148  1  0.268200  0.258600  0.147900  1.0  -0.7504
  O  O149  1  0.514300  0.267600  0.459600  1.0  -0.6529
  O  O150  1  0.348200  0.218700  0.400100  1.0  -0.7004
  O  O151  1  0.600800  0.233400  0.084600  1.0  -0.6923
  O  O152  1  0.769500  0.230200  0.151200  1.0  -0.7228
  O  O153  1  0.652000  0.403200  0.364900  1.0  -0.6306
  O  O154  1  0.596500  0.530600  0.322200  1.0  -0.7668
  O  O155  1  0.330800  0.097100  0.123000  1.0  -0.6873
  O  O156  1  0.317100  0.954700  0.143100  1.0  -0.7789
  O  O157  1  0.822400  0.398300  0.120600  1.0  -0.6732
  O  O158  1  0.795200  0.539200  0.126900  1.0  -0.7572
  O  O159  1  0.866000  0.351300  0.560600  1.0  -0.6891
  O  O160  1  0.807300  0.455400  0.487700  1.0  -0.7041
  O  O161  1  0.953200  0.480600  0.573800  1.0  -0.4861
  O  O162  1  0.255100  0.826300  0.351300  1.0  -0.6535
  O  O163  1  0.346900  0.719600  0.413600  1.0  -0.6994
  O  O164  1  0.652400  0.670200  0.123500  1.0  -0.6234
  O  O165  1  0.530300  0.748000  0.047200  1.0  -0.7099
  O  O166  1  0.745900  0.660500  0.342600  1.0  -0.671
  O  O167  1  0.858100  0.758000  0.415100  1.0  -0.6986
  O  O168  1  0.157200  0.832500  0.125300  1.0  -0.6522
  O  O169  1  0.041400  0.746000  0.052300  1.0  -0.7237
  O  O170  1  0.831200  0.900000  0.625100  1.0  -0.6702
  O  O171  1  0.874900  0.034500  0.665300  1.0  -0.7498
  O  O172  1  0.991400  0.749300  0.543100  1.0  -0.6307
  O  O173  1  0.150400  0.694200  0.606100  1.0  -0.7769
  O  O174  1  0.901100  0.736600  0.919300  1.0  -0.6902
  O  O175  1  0.731800  0.741400  0.852100  1.0  -0.7486
  O  O176  1  0.485700  0.732400  0.540400  1.0  -0.6523
  O  O177  1  0.651800  0.781300  0.599900  1.0  -0.7018
  O  O178  1  0.399200  0.766600  0.915400  1.0  -0.6924
  O  O179  1  0.230500  0.769800  0.848800  1.0  -0.7226
  O  O180  1  0.348000  0.596800  0.635100  1.0  -0.6308
  O  O181  1  0.403500  0.469400  0.677800  1.0  -0.7659
  O  O182  1  0.669200  0.902900  0.877000  1.0  -0.6868
  O  O183  1  0.682900  0.045300  0.856900  1.0  -0.7777
  O  O184  1  0.177600  0.601700  0.879400  1.0  -0.6721
  O  O185  1  0.204800  0.460800  0.873100  1.0  -0.7584
  O  O186  1  0.134000  0.648700  0.439400  1.0  -0.6875
  O  O187  1  0.192700  0.544600  0.512300  1.0  -0.7041
  O  O188  1  0.046800  0.519400  0.426200  1.0  -0.4875
