# generated using pymatgen
data_Tb2H36(C17O4)3
_symmetry_space_group_name_H-M   'P 1'
_cell_length_a   13.00220000
_cell_length_b   13.37930000
_cell_length_c   25.89290000
_cell_angle_alpha   84.06000000
_cell_angle_beta   88.10400000
_cell_angle_gamma   66.36100000
_symmetry_Int_Tables_number   1
_chemical_formula_structural   Tb2H36(C17O4)3
_chemical_formula_sum   'Tb4 H72 C102 O24'
_cell_volume   4104.04848996
_cell_formula_units_Z   2
loop_
 _symmetry_equiv_pos_site_id
 _symmetry_equiv_pos_as_xyz
  1  'x, y, z'
loop_
 _atom_site_type_symbol
 _atom_site_label
 _atom_site_symmetry_multiplicity
 _atom_site_fract_x
 _atom_site_fract_y
 _atom_site_fract_z
 _atom_site_occupancy
 _atom_site_charge
  Tb  Tb1  1  0.625160  0.306720  0.505820  1.0  2.0847
  Tb  Tb2  1  0.842120  0.625550  0.042990  1.0  2.1845
  Tb  Tb3  1  0.374840  0.693280  0.494180  1.0  2.0835
  Tb  Tb4  1  0.157880  0.374450  0.957010  1.0  2.1841
  H  H5  1  0.823400  0.893800  0.165100  1.0  0.1214
  H  H6  1  0.758300  0.636400  0.228900  1.0  0.1024
  H  H7  1  0.712700  0.714200  0.307300  1.0  0.1272
  H  H8  1  0.732100  0.101900  0.184700  1.0  0.1112
  H  H9  1  0.707900  0.174100  0.231200  1.0  0.1093
  H  H10  1  0.629700  0.114300  0.221000  1.0  0.1246
  H  H11  1  0.948400  0.937100  0.275700  1.0  0.1137
  H  H12  1  0.904300  0.065100  0.265800  1.0  0.1081
  H  H13  1  0.929400  0.994000  0.218700  1.0  0.1162
  H  H14  1  0.658000  0.841600  0.384800  1.0  0.1239
  H  H15  1  0.628100  0.974800  0.442200  1.0  0.1038
  H  H16  1  0.738500  0.149400  0.335300  1.0  0.1126
  H  H17  1  0.501100  0.164300  0.716300  1.0  0.1014
  H  H18  1  0.794200  0.091900  0.641100  1.0  0.1048
  H  H19  1  0.893000  0.994900  0.715900  1.0  0.1248
  H  H20  1  0.557900  0.918700  0.790800  1.0  0.114
  H  H21  1  0.452000  0.030000  0.784900  1.0  0.1074
  H  H22  1  0.489900  0.966600  0.840000  1.0  0.1078
  H  H23  1  0.498700  0.132900  0.872200  1.0  0.1107
  H  H24  1  0.463600  0.199600  0.817600  1.0  0.1147
  H  H25  1  0.575000  0.187300  0.844400  1.0  0.1257
  H  H26  1  0.963600  0.896700  0.814700  1.0  0.1206
  H  H27  1  0.644900  0.926600  0.911400  1.0  0.1086
  H  H28  1  0.981100  0.808600  0.897800  1.0  0.1009
  H  H29  1  0.905300  0.375300  0.851600  1.0  0.1134
  H  H30  1  0.693400  0.666500  0.895000  1.0  0.0968
  H  H31  1  0.591300  0.703100  0.818500  1.0  0.1094
  H  H32  1  0.922300  0.403900  0.718500  1.0  0.1177
  H  H33  1  0.913900  0.294100  0.708000  1.0  0.1088
  H  H34  1  0.964200  0.302900  0.760700  1.0  0.1087
  H  H35  1  0.813400  0.246700  0.806700  1.0  0.1196
  H  H36  1  0.773800  0.240700  0.751000  1.0  0.1166
  H  H37  1  0.687900  0.314100  0.789500  1.0  0.1226
  H  H38  1  0.505700  0.706900  0.724200  1.0  0.1092
  H  H39  1  0.467700  0.676000  0.642000  1.0  0.086
  H  H40  1  0.720100  0.377900  0.655700  1.0  0.1117
  H  H41  1  0.176600  0.106200  0.834900  1.0  0.1214
  H  H42  1  0.241700  0.363600  0.771100  1.0  0.103
  H  H43  1  0.287300  0.285800  0.692700  1.0  0.1272
  H  H44  1  0.267900  0.898100  0.815300  1.0  0.1106
  H  H45  1  0.292100  0.825900  0.768800  1.0  0.1074
  H  H46  1  0.370300  0.885700  0.779000  1.0  0.1245
  H  H47  1  0.051600  0.062900  0.724300  1.0  0.1152
  H  H48  1  0.095700  0.934900  0.734200  1.0  0.1093
  H  H49  1  0.070600  0.006000  0.781300  1.0  0.1149
  H  H50  1  0.342000  0.158400  0.615200  1.0  0.1239
  H  H51  1  0.371900  0.025200  0.557800  1.0  0.1037
  H  H52  1  0.261500  0.850600  0.664700  1.0  0.1122
  H  H53  1  0.498900  0.835700  0.283700  1.0  0.1012
  H  H54  1  0.205800  0.908100  0.358900  1.0  0.105
  H  H55  1  0.107000  0.005100  0.284100  1.0  0.1247
  H  H56  1  0.442100  0.081300  0.209200  1.0  0.1136
  H  H57  1  0.548000  0.970000  0.215100  1.0  0.107
  H  H58  1  0.510100  0.033400  0.160000  1.0  0.1089
  H  H59  1  0.501300  0.867100  0.127800  1.0  0.1109
  H  H60  1  0.536400  0.800400  0.182400  1.0  0.1148
  H  H61  1  0.425000  0.812700  0.155600  1.0  0.1262
  H  H62  1  0.036400  0.103300  0.185300  1.0  0.1205
  H  H63  1  0.355100  0.073400  0.088600  1.0  0.1083
  H  H64  1  0.018900  0.191400  0.102200  1.0  0.1008
  H  H65  1  0.094700  0.624700  0.148400  1.0  0.1134
  H  H66  1  0.306600  0.333500  0.105000  1.0  0.0965
  H  H67  1  0.408700  0.296900  0.181500  1.0  0.109
  H  H68  1  0.077700  0.596100  0.281500  1.0  0.1186
  H  H69  1  0.086100  0.705900  0.292000  1.0  0.109
  H  H70  1  0.035800  0.697100  0.239300  1.0  0.1076
  H  H71  1  0.186600  0.753300  0.193300  1.0  0.1194
  H  H72  1  0.226200  0.759300  0.249000  1.0  0.1173
  H  H73  1  0.312100  0.685900  0.210500  1.0  0.1233
  H  H74  1  0.494300  0.293100  0.275800  1.0  0.1098
  H  H75  1  0.532300  0.324000  0.358000  1.0  0.0865
  H  H76  1  0.279900  0.622100  0.344300  1.0  0.1113
  C  C77  1  0.809400  0.711900  0.138100  1.0  0.6753
  C  C78  1  0.791500  0.759000  0.189200  1.0  -0.1292
  C  C79  1  0.801200  0.858400  0.193300  1.0  -0.0765
  C  C80  1  0.761000  0.704000  0.232000  1.0  -0.0173
  C  C81  1  0.734800  0.749500  0.279100  1.0  -0.0818
  C  C82  1  0.742300  0.849000  0.282700  1.0  -0.0549
  C  C83  1  0.777200  0.902400  0.240400  1.0  -0.0055
  C  C84  1  0.780700  0.008800  0.255100  1.0  -0.0151
  C  C85  1  0.705600  0.109100  0.219700  1.0  -0.3551
  C  C86  1  0.902100  0.000500  0.253700  1.0  -0.3383
  C  C87  1  0.737600  0.010800  0.310700  1.0  0.0312
  C  C88  1  0.715800  0.918300  0.325800  1.0  -0.0579
  C  C89  1  0.673900  0.902800  0.375100  1.0  -0.1162
  C  C90  1  0.656500  0.982700  0.409300  1.0  -0.0534
  C  C91  1  0.722100  0.088500  0.345000  1.0  -0.0842
  C  C92  1  0.681300  0.073500  0.394600  1.0  -0.1342
  C  C93  1  0.666900  0.154300  0.433100  1.0  0.6938
  C  C94  1  0.576100  0.200800  0.622400  1.0  0.7121
  C  C95  1  0.638400  0.138300  0.671500  1.0  -0.1189
  C  C96  1  0.579100  0.130400  0.716300  1.0  -0.0708
  C  C97  1  0.755500  0.086900  0.671500  1.0  -0.0191
  C  C98  1  0.815000  0.028500  0.716000  1.0  -0.1021
  C  C99  1  0.755000  0.021400  0.761100  1.0  -0.0542
  C  C100  1  0.637600  0.071200  0.761000  1.0  -0.0192
  C  C101  1  0.589800  0.046900  0.813100  1.0  1e-04
  C  C102  1  0.515500  0.984800  0.806600  1.0  -0.3384
  C  C103  1  0.525900  0.151400  0.839200  1.0  -0.3572
  C  C104  1  0.696700  0.974700  0.842800  1.0  0.0199
  C  C105  1  0.793000  0.963900  0.813300  1.0  -0.0685
  C  C106  1  0.900100  0.902100  0.833800  1.0  -0.1156
  C  C107  1  0.708300  0.919900  0.892000  1.0  -0.0737
  C  C108  1  0.910000  0.849000  0.883400  1.0  -0.0573
  C  C109  1  0.815000  0.854700  0.912400  1.0  -0.1591
  C  C110  1  0.825400  0.787700  0.963100  1.0  0.6737
  C  C111  1  0.878300  0.502600  0.928700  1.0  0.7593
  C  C112  1  0.809100  0.519400  0.880500  1.0  -0.1603
  C  C113  1  0.842100  0.440200  0.845100  1.0  -0.0363
  C  C114  1  0.715500  0.615400  0.870700  1.0  -0.0306
  C  C115  1  0.653400  0.637300  0.825200  1.0  -0.0916
  C  C116  1  0.685800  0.559100  0.789800  1.0  -0.0681
  C  C117  1  0.778600  0.460200  0.799700  1.0  0.0057
  C  C118  1  0.793600  0.386400  0.756900  1.0  0.006
  C  C119  1  0.909000  0.341900  0.734000  1.0  -0.3814
  C  C120  1  0.764300  0.287500  0.778100  1.0  -0.3253
  C  C121  1  0.703100  0.462200  0.718200  1.0  0.0165
  C  C122  1  0.639900  0.561100  0.738600  1.0  -0.0334
  C  C123  1  0.549500  0.641800  0.710400  1.0  -0.1136
  C  C124  1  0.526800  0.622400  0.661400  1.0  -0.0108
  C  C125  1  0.678100  0.443900  0.669200  1.0  -0.0662
  C  C126  1  0.590200  0.524700  0.640600  1.0  -0.1504
  C  C127  1  0.561500  0.505000  0.587800  1.0  0.7433
  C  C128  1  0.190600  0.288100  0.861900  1.0  0.6753
  C  C129  1  0.208500  0.241000  0.810800  1.0  -0.1268
  C  C130  1  0.198800  0.141600  0.806700  1.0  -0.0775
  C  C131  1  0.239000  0.296000  0.768000  1.0  -0.0157
  C  C132  1  0.265200  0.250500  0.720900  1.0  -0.0836
  C  C133  1  0.257700  0.151000  0.717300  1.0  -0.0576
  C  C134  1  0.222800  0.097600  0.759600  1.0  -0.0045
  C  C135  1  0.219300  0.991200  0.744900  1.0  -0.0136
  C  C136  1  0.294400  0.890900  0.780300  1.0  -0.3542
  C  C137  1  0.097900  0.999500  0.746300  1.0  -0.339
  C  C138  1  0.262400  0.989200  0.689300  1.0  0.0319
  C  C139  1  0.284200  0.081700  0.674200  1.0  -0.0619
  C  C140  1  0.326100  0.097200  0.624900  1.0  -0.1148
  C  C141  1  0.343500  0.017300  0.590700  1.0  -0.0517
  C  C142  1  0.277900  0.911500  0.655000  1.0  -0.0835
  C  C143  1  0.318700  0.926500  0.605400  1.0  -0.1387
  C  C144  1  0.333100  0.845700  0.566900  1.0  0.6943
  C  C145  1  0.423900  0.799200  0.377600  1.0  0.7133
  C  C146  1  0.361600  0.861700  0.328500  1.0  -0.1192
  C  C147  1  0.420900  0.869600  0.283700  1.0  -0.0698
  C  C148  1  0.244500  0.913100  0.328500  1.0  -0.0211
  C  C149  1  0.185000  0.971500  0.284000  1.0  -0.1047
  C  C150  1  0.245000  0.978600  0.238900  1.0  -0.0543
  C  C151  1  0.362400  0.928800  0.239000  1.0  -0.017
  C  C152  1  0.410200  0.953100  0.186900  1.0  -0.0002
  C  C153  1  0.484500  0.015200  0.193400  1.0  -0.3384
  C  C154  1  0.474100  0.848600  0.160800  1.0  -0.3569
  C  C155  1  0.303300  0.025300  0.157200  1.0  0.0165
  C  C156  1  0.207000  0.036100  0.186700  1.0  -0.0681
  C  C157  1  0.099900  0.097900  0.166200  1.0  -0.1161
  C  C158  1  0.291700  0.080100  0.108000  1.0  -0.0713
  C  C159  1  0.090000  0.151000  0.116600  1.0  -0.0579
  C  C160  1  0.185000  0.145300  0.087600  1.0  -0.159
  C  C161  1  0.174600  0.212300  0.036900  1.0  0.6694
  C  C162  1  0.121700  0.497400  0.071300  1.0  0.7601
  C  C163  1  0.190900  0.480600  0.119500  1.0  -0.1607
  C  C164  1  0.157900  0.559800  0.154900  1.0  -0.0364
  C  C165  1  0.284500  0.384600  0.129300  1.0  -0.0302
  C  C166  1  0.346600  0.362700  0.174800  1.0  -0.0924
  C  C167  1  0.314200  0.440900  0.210200  1.0  -0.0683
  C  C168  1  0.221400  0.539800  0.200300  1.0  0.0039
  C  C169  1  0.206400  0.613600  0.243100  1.0  0.0062
  C  C170  1  0.091000  0.658100  0.266000  1.0  -0.3825
  C  C171  1  0.235700  0.712500  0.221900  1.0  -0.3259
  C  C172  1  0.296900  0.537800  0.281800  1.0  0.0174
  C  C173  1  0.360100  0.438900  0.261400  1.0  -0.0343
  C  C174  1  0.450500  0.358200  0.289600  1.0  -0.1138
  C  C175  1  0.473200  0.377600  0.338600  1.0  -0.0101
  C  C176  1  0.321900  0.556100  0.330800  1.0  -0.067
  C  C177  1  0.409800  0.475300  0.359400  1.0  -0.1522
  C  C178  1  0.438500  0.495000  0.412200  1.0  0.7425
  O  O179  1  0.819500  0.768700  0.097300  1.0  -0.6255
  O  O180  1  0.812300  0.617000  0.135710  1.0  -0.6469
  O  O181  1  0.717900  0.217300  0.427030  1.0  -0.624
  O  O182  1  0.603900  0.156200  0.472140  1.0  -0.6153
  O  O183  1  0.632700  0.192700  0.581380  1.0  -0.7238
  O  O184  1  0.471800  0.256300  0.625400  1.0  -0.5495
  O  O185  1  0.922700  0.724400  0.980930  1.0  -0.6191
  O  O186  1  0.738500  0.791200  0.986910  1.0  -0.6838
  O  O187  1  0.836700  0.563100  0.963450  1.0  -0.7443
  O  O188  1  0.975800  0.428800  0.930040  1.0  -0.702
  O  O189  1  0.488700  0.583500  0.560910  1.0  -0.7589
  O  O190  1  0.611700  0.411800  0.573470  1.0  -0.7971
  O  O191  1  0.180500  0.231300  0.902700  1.0  -0.6263
  O  O192  1  0.187700  0.383000  0.864290  1.0  -0.645
  O  O193  1  0.282100  0.782700  0.572970  1.0  -0.6258
  O  O194  1  0.396100  0.843800  0.527860  1.0  -0.618
  O  O195  1  0.367300  0.807300  0.418620  1.0  -0.7247
  O  O196  1  0.528200  0.743700  0.374600  1.0  -0.5472
  O  O197  1  0.077300  0.275600  0.019070  1.0  -0.6188
  O  O198  1  0.261500  0.208800  0.013090  1.0  -0.6854
  O  O199  1  0.163300  0.436900  0.036550  1.0  -0.7463
  O  O200  1  0.024200  0.571200  0.069960  1.0  -0.7015
  O  O201  1  0.511300  0.416500  0.439090  1.0  -0.756
  O  O202  1  0.388300  0.588200  0.426530  1.0  -0.7989
