# generated using pymatgen
data_CuH10C17NO4
_symmetry_space_group_name_H-M   'P 1'
_cell_length_a   26.60000000
_cell_length_b   26.60000000
_cell_length_c   27.12000000
_cell_angle_alpha   90.00000000
_cell_angle_beta   90.00000000
_cell_angle_gamma   90.00000000
_symmetry_Int_Tables_number   1
_chemical_formula_structural   CuH10C17NO4
_chemical_formula_sum   'Cu16 H160 C272 N16 O64'
_cell_volume   19189.02720000
_cell_formula_units_Z   16
loop_
 _symmetry_equiv_pos_site_id
 _symmetry_equiv_pos_as_xyz
  1  'x, y, z'
loop_
 _atom_site_type_symbol
 _atom_site_label
 _atom_site_symmetry_multiplicity
 _atom_site_fract_x
 _atom_site_fract_y
 _atom_site_fract_z
 _atom_site_occupancy
 _atom_site_charge
  Cu  Cu1  1  0.000000  0.000000  0.147560  1.0  0.8623
  Cu  Cu2  1  0.000000  0.000000  0.244790  1.0  0.8823
  Cu  Cu3  1  0.500000  0.500000  0.352440  1.0  0.8637
  Cu  Cu4  1  0.500000  0.500000  0.255210  1.0  0.8891
  Cu  Cu5  1  0.000000  0.000000  0.852440  1.0  0.8637
  Cu  Cu6  1  0.000000  0.000000  0.755210  1.0  0.8814
  Cu  Cu7  1  0.500000  0.500000  0.647560  1.0  0.8623
  Cu  Cu8  1  0.500000  0.500000  0.744790  1.0  0.89
  Cu  Cu9  1  0.522090  0.044210  0.000000  1.0  0.9028
  Cu  Cu10  1  0.477910  0.955790  0.000000  1.0  0.9049
  Cu  Cu11  1  0.955790  0.522090  0.000000  1.0  0.9048
  Cu  Cu12  1  0.044210  0.477910  0.000000  1.0  0.9047
  Cu  Cu13  1  0.977910  0.544210  0.500000  1.0  0.9017
  Cu  Cu14  1  0.022090  0.455790  0.500000  1.0  0.9028
  Cu  Cu15  1  0.544210  0.022090  0.500000  1.0  0.9043
  Cu  Cu16  1  0.455790  0.977910  0.500000  1.0  0.9039
  H  H17  1  0.846000  0.954800  0.121900  1.0  0.1146
  H  H18  1  0.764700  0.923600  0.122800  1.0  0.1169
  H  H19  1  0.769100  0.913100  0.269000  1.0  0.1142
  H  H20  1  0.849100  0.946100  0.269600  1.0  0.1064
  H  H21  1  0.692600  0.985600  0.167200  1.0  0.106
  H  H22  1  0.632700  0.016700  0.117200  1.0  0.1138
  H  H23  1  0.577100  0.877900  0.099700  1.0  0.1016
  H  H24  1  0.638500  0.846200  0.149200  1.0  0.1203
  H  H25  1  0.768700  0.816600  0.207000  1.0  0.1266
  H  H26  1  0.154000  0.045200  0.121900  1.0  0.1144
  H  H27  1  0.235300  0.076400  0.122800  1.0  0.1174
  H  H28  1  0.230900  0.086900  0.269000  1.0  0.115
  H  H29  1  0.150900  0.053900  0.269600  1.0  0.1064
  H  H30  1  0.307400  0.014400  0.167200  1.0  0.1059
  H  H31  1  0.367300  0.983300  0.117200  1.0  0.1134
  H  H32  1  0.422900  0.122100  0.099700  1.0  0.102
  H  H33  1  0.361500  0.153800  0.149200  1.0  0.1195
  H  H34  1  0.231300  0.183400  0.207000  1.0  0.1258
  H  H35  1  0.045200  0.846000  0.121900  1.0  0.1143
  H  H36  1  0.076400  0.764700  0.122800  1.0  0.116
  H  H37  1  0.086900  0.769100  0.269000  1.0  0.1144
  H  H38  1  0.053900  0.849100  0.269600  1.0  0.1059
  H  H39  1  0.014400  0.692600  0.167200  1.0  0.1077
  H  H40  1  0.983300  0.632700  0.117200  1.0  0.1157
  H  H41  1  0.122100  0.577100  0.099700  1.0  0.1024
  H  H42  1  0.153800  0.638500  0.149200  1.0  0.1218
  H  H43  1  0.183400  0.768700  0.207000  1.0  0.1246
  H  H44  1  0.954800  0.154000  0.121900  1.0  0.1143
  H  H45  1  0.923600  0.235300  0.122800  1.0  0.1162
  H  H46  1  0.913100  0.230900  0.269000  1.0  0.1141
  H  H47  1  0.946100  0.150900  0.269600  1.0  0.1059
  H  H48  1  0.985600  0.307400  0.167200  1.0  0.1077
  H  H49  1  0.016700  0.367300  0.117200  1.0  0.1156
  H  H50  1  0.877900  0.422900  0.099700  1.0  0.1024
  H  H51  1  0.846200  0.361500  0.149200  1.0  0.1218
  H  H52  1  0.816600  0.231300  0.207000  1.0  0.1245
  H  H53  1  0.654000  0.454800  0.378100  1.0  0.1146
  H  H54  1  0.735300  0.423600  0.377200  1.0  0.1165
  H  H55  1  0.730900  0.413100  0.231000  1.0  0.1157
  H  H56  1  0.650900  0.446100  0.230400  1.0  0.107
  H  H57  1  0.807400  0.485600  0.332800  1.0  0.1073
  H  H58  1  0.867300  0.516700  0.382800  1.0  0.1135
  H  H59  1  0.922900  0.377900  0.400300  1.0  0.1016
  H  H60  1  0.861500  0.346200  0.350800  1.0  0.1193
  H  H61  1  0.731300  0.316600  0.293000  1.0  0.1271
  H  H62  1  0.346000  0.545200  0.378100  1.0  0.1148
  H  H63  1  0.264700  0.576400  0.377200  1.0  0.1157
  H  H64  1  0.269100  0.586900  0.231000  1.0  0.115
  H  H65  1  0.349100  0.553900  0.230400  1.0  0.1067
  H  H66  1  0.192600  0.514400  0.332800  1.0  0.1058
  H  H67  1  0.132700  0.483300  0.382800  1.0  0.1137
  H  H68  1  0.077100  0.622100  0.400300  1.0  0.1022
  H  H69  1  0.138500  0.653800  0.350800  1.0  0.1202
  H  H70  1  0.268700  0.683400  0.293000  1.0  0.1265
  H  H71  1  0.454800  0.346000  0.378100  1.0  0.1144
  H  H72  1  0.423600  0.264700  0.377200  1.0  0.1147
  H  H73  1  0.413100  0.269100  0.231000  1.0  0.1149
  H  H74  1  0.446100  0.349100  0.230400  1.0  0.1065
  H  H75  1  0.485600  0.192600  0.332800  1.0  0.1078
  H  H76  1  0.516700  0.132700  0.382800  1.0  0.1155
  H  H77  1  0.377900  0.077100  0.400300  1.0  0.1021
  H  H78  1  0.346200  0.138500  0.350800  1.0  0.1221
  H  H79  1  0.316600  0.268700  0.293000  1.0  0.1251
  H  H80  1  0.545200  0.654000  0.378100  1.0  0.1146
  H  H81  1  0.576400  0.735300  0.377200  1.0  0.1154
  H  H82  1  0.586900  0.730900  0.231000  1.0  0.1148
  H  H83  1  0.553900  0.650900  0.230400  1.0  0.1062
  H  H84  1  0.514400  0.807400  0.332800  1.0  0.1074
  H  H85  1  0.483300  0.867300  0.382800  1.0  0.1154
  H  H86  1  0.622100  0.922900  0.400300  1.0  0.1022
  H  H87  1  0.653800  0.861500  0.350800  1.0  0.1206
  H  H88  1  0.683400  0.731300  0.293000  1.0  0.1242
  H  H89  1  0.154000  0.045200  0.878100  1.0  0.1148
  H  H90  1  0.235300  0.076400  0.877200  1.0  0.1163
  H  H91  1  0.230900  0.086900  0.731000  1.0  0.1154
  H  H92  1  0.150900  0.053900  0.730400  1.0  0.1063
  H  H93  1  0.307400  0.014400  0.832800  1.0  0.1058
  H  H94  1  0.367300  0.983300  0.882800  1.0  0.1136
  H  H95  1  0.422900  0.122100  0.900300  1.0  0.1018
  H  H96  1  0.361500  0.153800  0.850800  1.0  0.1199
  H  H97  1  0.231300  0.183400  0.793000  1.0  0.1263
  H  H98  1  0.846000  0.954800  0.878100  1.0  0.1145
  H  H99  1  0.764700  0.923600  0.877200  1.0  0.1158
  H  H100  1  0.769100  0.913100  0.731000  1.0  0.1153
  H  H101  1  0.849100  0.946100  0.730400  1.0  0.1065
  H  H102  1  0.692600  0.985600  0.832800  1.0  0.107
  H  H103  1  0.632700  0.016700  0.882800  1.0  0.1135
  H  H104  1  0.577100  0.877900  0.900300  1.0  0.1017
  H  H105  1  0.638500  0.846200  0.850800  1.0  0.1198
  H  H106  1  0.768700  0.816600  0.793000  1.0  0.1267
  H  H107  1  0.954800  0.154000  0.878100  1.0  0.1145
  H  H108  1  0.923600  0.235300  0.877200  1.0  0.1151
  H  H109  1  0.913100  0.230900  0.731000  1.0  0.1148
  H  H110  1  0.946100  0.150900  0.730400  1.0  0.106
  H  H111  1  0.985600  0.307400  0.832800  1.0  0.1078
  H  H112  1  0.016700  0.367300  0.882800  1.0  0.1153
  H  H113  1  0.877900  0.422900  0.900300  1.0  0.1022
  H  H114  1  0.846200  0.361500  0.850800  1.0  0.1223
  H  H115  1  0.816600  0.231300  0.793000  1.0  0.125
  H  H116  1  0.045200  0.846000  0.878100  1.0  0.1143
  H  H117  1  0.076400  0.764700  0.877200  1.0  0.1147
  H  H118  1  0.086900  0.769100  0.731000  1.0  0.1151
  H  H119  1  0.053900  0.849100  0.730400  1.0  0.1058
  H  H120  1  0.014400  0.692600  0.832800  1.0  0.1078
  H  H121  1  0.983300  0.632700  0.882800  1.0  0.1155
  H  H122  1  0.122100  0.577100  0.900300  1.0  0.1022
  H  H123  1  0.153800  0.638500  0.850800  1.0  0.1211
  H  H124  1  0.183400  0.768700  0.793000  1.0  0.1242
  H  H125  1  0.346000  0.545200  0.621900  1.0  0.1146
  H  H126  1  0.264700  0.576400  0.622800  1.0  0.117
  H  H127  1  0.269100  0.586900  0.769000  1.0  0.1142
  H  H128  1  0.349100  0.553900  0.769600  1.0  0.1068
  H  H129  1  0.192600  0.514400  0.667200  1.0  0.1059
  H  H130  1  0.132700  0.483300  0.617200  1.0  0.1135
  H  H131  1  0.077100  0.622100  0.599700  1.0  0.1022
  H  H132  1  0.138500  0.653800  0.649200  1.0  0.1198
  H  H133  1  0.268700  0.683400  0.707000  1.0  0.126
  H  H134  1  0.654000  0.454800  0.621900  1.0  0.1145
  H  H135  1  0.735300  0.423600  0.622800  1.0  0.1174
  H  H136  1  0.730900  0.413100  0.769000  1.0  0.1149
  H  H137  1  0.650900  0.446100  0.769600  1.0  0.107
  H  H138  1  0.807400  0.485600  0.667200  1.0  0.1064
  H  H139  1  0.867300  0.516700  0.617200  1.0  0.1137
  H  H140  1  0.922900  0.377900  0.599700  1.0  0.1018
  H  H141  1  0.861500  0.346200  0.649200  1.0  0.1197
  H  H142  1  0.731300  0.316600  0.707000  1.0  0.1271
  H  H143  1  0.545200  0.654000  0.621900  1.0  0.1144
  H  H144  1  0.576400  0.735300  0.622800  1.0  0.1164
  H  H145  1  0.586900  0.730900  0.769000  1.0  0.1145
  H  H146  1  0.553900  0.650900  0.769600  1.0  0.1064
  H  H147  1  0.514400  0.807400  0.667200  1.0  0.1077
  H  H148  1  0.483300  0.867300  0.617200  1.0  0.1156
  H  H149  1  0.622100  0.922900  0.599700  1.0  0.1025
  H  H150  1  0.653800  0.861500  0.649200  1.0  0.1212
  H  H151  1  0.683400  0.731300  0.707000  1.0  0.1244
  H  H152  1  0.454800  0.346000  0.621900  1.0  0.1143
  H  H153  1  0.423600  0.264700  0.622800  1.0  0.116
  H  H154  1  0.413100  0.269100  0.769000  1.0  0.1139
  H  H155  1  0.446100  0.349100  0.769600  1.0  0.1063
  H  H156  1  0.485600  0.192600  0.667200  1.0  0.1072
  H  H157  1  0.516700  0.132700  0.617200  1.0  0.1157
  H  H158  1  0.377900  0.077100  0.599700  1.0  0.1021
  H  H159  1  0.346200  0.138500  0.649200  1.0  0.1222
  H  H160  1  0.316600  0.268700  0.707000  1.0  0.125
  H  H161  1  0.634000  0.866000  0.250000  1.0  0.0986
  H  H162  1  0.756000  0.744000  0.250000  1.0  0.1004
  H  H163  1  0.366000  0.134000  0.250000  1.0  0.0985
  H  H164  1  0.244000  0.256000  0.250000  1.0  0.0994
  H  H165  1  0.134000  0.634000  0.250000  1.0  0.0985
  H  H166  1  0.256000  0.756000  0.250000  1.0  0.1001
  H  H167  1  0.866000  0.366000  0.250000  1.0  0.0986
  H  H168  1  0.744000  0.244000  0.250000  1.0  0.0993
  H  H169  1  0.366000  0.134000  0.750000  1.0  0.0985
  H  H170  1  0.244000  0.256000  0.750000  1.0  0.0994
  H  H171  1  0.634000  0.866000  0.750000  1.0  0.0986
  H  H172  1  0.756000  0.744000  0.750000  1.0  0.1004
  H  H173  1  0.866000  0.366000  0.750000  1.0  0.0986
  H  H174  1  0.744000  0.244000  0.750000  1.0  0.0993
  H  H175  1  0.134000  0.634000  0.750000  1.0  0.0985
  H  H176  1  0.256000  0.756000  0.750000  1.0  0.1001
  C  C177  1  0.909420  0.971460  0.196140  1.0  0.6769
  C  C178  1  0.856290  0.953320  0.196500  1.0  -0.133
  C  C179  1  0.830590  0.946700  0.151610  1.0  -0.0289
  C  C180  1  0.781970  0.927890  0.152290  1.0  -0.2095
  C  C181  1  0.758900  0.915530  0.196070  1.0  0.1676
  C  C182  1  0.784410  0.921880  0.239430  1.0  -0.1976
  C  C183  1  0.832630  0.941240  0.239780  1.0  -0.0061
  C  C184  1  0.672330  0.913180  0.164890  1.0  0.1953
  C  C185  1  0.669250  0.963640  0.153390  1.0  -0.1414
  C  C186  1  0.634090  0.982270  0.123230  1.0  -0.0797
  C  C187  1  0.598910  0.949660  0.100400  1.0  -0.1373
  C  C188  1  0.601140  0.899650  0.112660  1.0  -0.0175
  C  C189  1  0.637140  0.880600  0.142980  1.0  -0.26
  C  C190  1  0.561430  0.969840  0.064240  1.0  0.672
  C  C191  1  0.702210  0.849040  0.224080  1.0  0.1733
  C  C192  1  0.738880  0.811880  0.224400  1.0  -0.1847
  C  C193  1  0.090580  0.028540  0.196140  1.0  0.6773
  C  C194  1  0.143710  0.046680  0.196500  1.0  -0.1332
  C  C195  1  0.169410  0.053300  0.151610  1.0  -0.0258
  C  C196  1  0.218030  0.072110  0.152290  1.0  -0.2104
  C  C197  1  0.241100  0.084470  0.196070  1.0  0.1683
  C  C198  1  0.215590  0.078120  0.239430  1.0  -0.197
  C  C199  1  0.167370  0.058760  0.239780  1.0  -0.0058
  C  C200  1  0.327670  0.086820  0.164890  1.0  0.1953
  C  C201  1  0.330750  0.036360  0.153390  1.0  -0.1416
  C  C202  1  0.365910  0.017730  0.123230  1.0  -0.0798
  C  C203  1  0.401090  0.050340  0.100400  1.0  -0.1354
  C  C204  1  0.398860  0.100350  0.112660  1.0  -0.0183
  C  C205  1  0.362860  0.119400  0.142980  1.0  -0.2595
  C  C206  1  0.438570  0.030160  0.064240  1.0  0.6718
  C  C207  1  0.297790  0.150960  0.224080  1.0  0.1717
  C  C208  1  0.261120  0.188120  0.224400  1.0  -0.1835
  C  C209  1  0.028540  0.909420  0.196140  1.0  0.6782
  C  C210  1  0.046680  0.856290  0.196500  1.0  -0.1328
  C  C211  1  0.053300  0.830590  0.151610  1.0  -0.028
  C  C212  1  0.072110  0.781970  0.152290  1.0  -0.2091
  C  C213  1  0.084470  0.758900  0.196070  1.0  0.1682
  C  C214  1  0.078120  0.784410  0.239430  1.0  -0.1959
  C  C215  1  0.058760  0.832630  0.239780  1.0  -0.0059
  C  C216  1  0.086820  0.672330  0.164890  1.0  0.1953
  C  C217  1  0.036360  0.669250  0.153390  1.0  -0.1393
  C  C218  1  0.017730  0.634090  0.123230  1.0  -0.0773
  C  C219  1  0.050340  0.598910  0.100400  1.0  -0.1358
  C  C220  1  0.100350  0.601140  0.112660  1.0  -0.018
  C  C221  1  0.119400  0.637140  0.142980  1.0  -0.2613
  C  C222  1  0.030160  0.561430  0.064240  1.0  0.6719
  C  C223  1  0.150960  0.702210  0.224080  1.0  0.1711
  C  C224  1  0.188120  0.738880  0.224400  1.0  -0.1812
  C  C225  1  0.971460  0.090580  0.196140  1.0  0.6781
  C  C226  1  0.953320  0.143710  0.196500  1.0  -0.133
  C  C227  1  0.946700  0.169410  0.151610  1.0  -0.0285
  C  C228  1  0.927890  0.218030  0.152290  1.0  -0.2087
  C  C229  1  0.915530  0.241100  0.196070  1.0  0.169
  C  C230  1  0.921880  0.215590  0.239430  1.0  -0.1964
  C  C231  1  0.941240  0.167370  0.239780  1.0  -0.0049
  C  C232  1  0.913180  0.327670  0.164890  1.0  0.1948
  C  C233  1  0.963640  0.330750  0.153390  1.0  -0.1374
  C  C234  1  0.982270  0.365910  0.123230  1.0  -0.0803
  C  C235  1  0.949660  0.401090  0.100400  1.0  -0.1358
  C  C236  1  0.899650  0.398860  0.112660  1.0  -0.0173
  C  C237  1  0.880600  0.362860  0.142980  1.0  -0.2622
  C  C238  1  0.969840  0.438570  0.064240  1.0  0.6722
  C  C239  1  0.849040  0.297790  0.224080  1.0  0.1711
  C  C240  1  0.811880  0.261120  0.224400  1.0  -0.1783
  C  C241  1  0.590580  0.471460  0.303860  1.0  0.6774
  C  C242  1  0.643710  0.453320  0.303500  1.0  -0.1329
  C  C243  1  0.669410  0.446700  0.348390  1.0  -0.0291
  C  C244  1  0.718030  0.427890  0.347710  1.0  -0.2117
  C  C245  1  0.741100  0.415530  0.303930  1.0  0.1683
  C  C246  1  0.715590  0.421880  0.260570  1.0  -0.195
  C  C247  1  0.667370  0.441240  0.260220  1.0  -0.004
  C  C248  1  0.827670  0.413180  0.335110  1.0  0.1956
  C  C249  1  0.830750  0.463640  0.346610  1.0  -0.1413
  C  C250  1  0.865910  0.482270  0.376770  1.0  -0.08
  C  C251  1  0.901090  0.449660  0.399600  1.0  -0.1353
  C  C252  1  0.898860  0.399650  0.387340  1.0  -0.0188
  C  C253  1  0.862860  0.380600  0.357020  1.0  -0.2592
  C  C254  1  0.938570  0.469840  0.435760  1.0  0.6718
  C  C255  1  0.797790  0.349040  0.275920  1.0  0.1723
  C  C256  1  0.761120  0.311880  0.275600  1.0  -0.184
  C  C257  1  0.409420  0.528540  0.303860  1.0  0.6767
  C  C258  1  0.356290  0.546680  0.303500  1.0  -0.1333
  C  C259  1  0.330590  0.553300  0.348390  1.0  -0.0285
  C  C260  1  0.281970  0.572110  0.347710  1.0  -0.2111
  C  C261  1  0.258900  0.584470  0.303930  1.0  0.1674
  C  C262  1  0.284410  0.578120  0.260570  1.0  -0.1954
  C  C263  1  0.332630  0.558760  0.260220  1.0  -0.0054
  C  C264  1  0.172330  0.586820  0.335110  1.0  0.1958
  C  C265  1  0.169250  0.536360  0.346610  1.0  -0.1425
  C  C266  1  0.134090  0.517730  0.376770  1.0  -0.0801
  C  C267  1  0.098910  0.550340  0.399600  1.0  -0.1354
  C  C268  1  0.101140  0.600350  0.387340  1.0  -0.0167
  C  C269  1  0.137140  0.619400  0.357020  1.0  -0.2605
  C  C270  1  0.061430  0.530160  0.435760  1.0  0.6716
  C  C271  1  0.202210  0.650960  0.275920  1.0  0.1724
  C  C272  1  0.238880  0.688120  0.275600  1.0  -0.1839
  C  C273  1  0.471460  0.409420  0.303860  1.0  0.6782
  C  C274  1  0.453320  0.356290  0.303500  1.0  -0.1329
  C  C275  1  0.446700  0.330590  0.348390  1.0  -0.0285
  C  C276  1  0.427890  0.281970  0.347710  1.0  -0.2097
  C  C277  1  0.415530  0.258900  0.303930  1.0  0.1687
  C  C278  1  0.421880  0.284410  0.260570  1.0  -0.1943
  C  C279  1  0.441240  0.332630  0.260220  1.0  -0.0053
  C  C280  1  0.413180  0.172330  0.335110  1.0  0.1952
  C  C281  1  0.463640  0.169250  0.346610  1.0  -0.1375
  C  C282  1  0.482270  0.134090  0.376770  1.0  -0.0798
  C  C283  1  0.449660  0.098910  0.399600  1.0  -0.1343
  C  C284  1  0.399650  0.101140  0.387340  1.0  -0.0166
  C  C285  1  0.380600  0.137140  0.357020  1.0  -0.2639
  C  C286  1  0.469840  0.061430  0.435760  1.0  0.6716
  C  C287  1  0.349040  0.202210  0.275920  1.0  0.1702
  C  C288  1  0.311880  0.238880  0.275600  1.0  -0.1794
  C  C289  1  0.528540  0.590580  0.303860  1.0  0.6782
  C  C290  1  0.546680  0.643710  0.303500  1.0  -0.1329
  C  C291  1  0.553300  0.669410  0.348390  1.0  -0.0301
  C  C292  1  0.572110  0.718030  0.347710  1.0  -0.2105
  C  C293  1  0.584470  0.741100  0.303930  1.0  0.1682
  C  C294  1  0.578120  0.715590  0.260570  1.0  -0.1943
  C  C295  1  0.558760  0.667370  0.260220  1.0  -0.004
  C  C296  1  0.586820  0.827670  0.335110  1.0  0.1957
  C  C297  1  0.536360  0.830750  0.346610  1.0  -0.1392
  C  C298  1  0.517730  0.865910  0.376770  1.0  -0.0784
  C  C299  1  0.550340  0.901090  0.399600  1.0  -0.1341
  C  C300  1  0.600350  0.898860  0.387340  1.0  -0.0177
  C  C301  1  0.619400  0.862860  0.357020  1.0  -0.2611
  C  C302  1  0.530160  0.938570  0.435760  1.0  0.6718
  C  C303  1  0.650960  0.797790  0.275920  1.0  0.1713
  C  C304  1  0.688120  0.761120  0.275600  1.0  -0.1806
  C  C305  1  0.090580  0.028540  0.803860  1.0  0.6772
  C  C306  1  0.143710  0.046680  0.803500  1.0  -0.1332
  C  C307  1  0.169410  0.053300  0.848390  1.0  -0.0291
  C  C308  1  0.218030  0.072110  0.847710  1.0  -0.2119
  C  C309  1  0.241100  0.084470  0.803930  1.0  0.1682
  C  C310  1  0.215590  0.078120  0.760570  1.0  -0.1949
  C  C311  1  0.167370  0.058760  0.760220  1.0  -0.0037
  C  C312  1  0.327670  0.086820  0.835110  1.0  0.1957
  C  C313  1  0.330750  0.036360  0.846610  1.0  -0.1417
  C  C314  1  0.365910  0.017730  0.876770  1.0  -0.0804
  C  C315  1  0.401090  0.050340  0.899600  1.0  -0.1345
  C  C316  1  0.398860  0.100350  0.887340  1.0  -0.0185
  C  C317  1  0.362860  0.119400  0.857020  1.0  -0.2607
  C  C318  1  0.438570  0.030160  0.935760  1.0  0.6716
  C  C319  1  0.297790  0.150960  0.775920  1.0  0.1715
  C  C320  1  0.261120  0.188120  0.775600  1.0  -0.1842
  C  C321  1  0.909420  0.971460  0.803860  1.0  0.6769
  C  C322  1  0.856290  0.953320  0.803500  1.0  -0.1331
  C  C323  1  0.830590  0.946700  0.848390  1.0  -0.0283
  C  C324  1  0.781970  0.927890  0.847710  1.0  -0.2111
  C  C325  1  0.758900  0.915530  0.803930  1.0  0.1675
  C  C326  1  0.784410  0.921880  0.760570  1.0  -0.1952
  C  C327  1  0.832630  0.941240  0.760220  1.0  -0.0055
  C  C328  1  0.672330  0.913180  0.835110  1.0  0.1956
  C  C329  1  0.669250  0.963640  0.846610  1.0  -0.1414
  C  C330  1  0.634090  0.982270  0.876770  1.0  -0.0795
  C  C331  1  0.598910  0.949660  0.899600  1.0  -0.1356
  C  C332  1  0.601140  0.899650  0.887340  1.0  -0.0171
  C  C333  1  0.637140  0.880600  0.857020  1.0  -0.2591
  C  C334  1  0.561430  0.969840  0.935760  1.0  0.6717
  C  C335  1  0.702210  0.849040  0.775920  1.0  0.173
  C  C336  1  0.738880  0.811880  0.775600  1.0  -0.1847
  C  C337  1  0.971460  0.090580  0.803860  1.0  0.6781
  C  C338  1  0.953320  0.143710  0.803500  1.0  -0.1329
  C  C339  1  0.946700  0.169410  0.848390  1.0  -0.029
  C  C340  1  0.927890  0.218030  0.847710  1.0  -0.2101
  C  C341  1  0.915530  0.241100  0.803930  1.0  0.1689
  C  C342  1  0.921880  0.215590  0.760570  1.0  -0.1944
  C  C343  1  0.941240  0.167370  0.760220  1.0  -0.0049
  C  C344  1  0.913180  0.327670  0.835110  1.0  0.1952
  C  C345  1  0.963640  0.330750  0.846610  1.0  -0.138
  C  C346  1  0.982270  0.365910  0.876770  1.0  -0.0797
  C  C347  1  0.949660  0.401090  0.899600  1.0  -0.1346
  C  C348  1  0.899650  0.398860  0.887340  1.0  -0.0174
  C  C349  1  0.880600  0.362860  0.857020  1.0  -0.2632
  C  C350  1  0.969840  0.438570  0.935760  1.0  0.672
  C  C351  1  0.849040  0.297790  0.775920  1.0  0.1708
  C  C352  1  0.811880  0.261120  0.775600  1.0  -0.1782
  C  C353  1  0.028540  0.909420  0.803860  1.0  0.6782
  C  C354  1  0.046680  0.856290  0.803500  1.0  -0.1328
  C  C355  1  0.053300  0.830590  0.848390  1.0  -0.0299
  C  C356  1  0.072110  0.781970  0.847710  1.0  -0.2099
  C  C357  1  0.084470  0.758900  0.803930  1.0  0.1681
  C  C358  1  0.078120  0.784410  0.760570  1.0  -0.194
  C  C359  1  0.058760  0.832630  0.760220  1.0  -0.0045
  C  C360  1  0.086820  0.672330  0.835110  1.0  0.1957
  C  C361  1  0.036360  0.669250  0.846610  1.0  -0.1393
  C  C362  1  0.017730  0.634090  0.876770  1.0  -0.0779
  C  C363  1  0.050340  0.598910  0.899600  1.0  -0.1341
  C  C364  1  0.100350  0.601140  0.887340  1.0  -0.0174
  C  C365  1  0.119400  0.637140  0.857020  1.0  -0.2611
  C  C366  1  0.030160  0.561430  0.935760  1.0  0.6715
  C  C367  1  0.150960  0.702210  0.775920  1.0  0.1708
  C  C368  1  0.188120  0.738880  0.775600  1.0  -0.1818
  C  C369  1  0.409420  0.528540  0.696140  1.0  0.6766
  C  C370  1  0.356290  0.546680  0.696500  1.0  -0.1331
  C  C371  1  0.330590  0.553300  0.651610  1.0  -0.0282
  C  C372  1  0.281970  0.572110  0.652290  1.0  -0.2096
  C  C373  1  0.258900  0.584470  0.696070  1.0  0.1676
  C  C374  1  0.284410  0.578120  0.739430  1.0  -0.1973
  C  C375  1  0.332630  0.558760  0.739780  1.0  -0.0056
  C  C376  1  0.172330  0.586820  0.664890  1.0  0.1955
  C  C377  1  0.169250  0.536360  0.653390  1.0  -0.1421
  C  C378  1  0.134090  0.517730  0.623230  1.0  -0.0794
  C  C379  1  0.098910  0.550340  0.600400  1.0  -0.1375
  C  C380  1  0.101140  0.600350  0.612660  1.0  -0.0164
  C  C381  1  0.137140  0.619400  0.642980  1.0  -0.2591
  C  C382  1  0.061430  0.530160  0.564240  1.0  0.6719
  C  C383  1  0.202210  0.650960  0.724080  1.0  0.1728
  C  C384  1  0.238880  0.688120  0.724400  1.0  -0.183
  C  C385  1  0.590580  0.471460  0.696140  1.0  0.6775
  C  C386  1  0.643710  0.453320  0.696500  1.0  -0.1329
  C  C387  1  0.669410  0.446700  0.651610  1.0  -0.0269
  C  C388  1  0.718030  0.427890  0.652290  1.0  -0.2103
  C  C389  1  0.741100  0.415530  0.696070  1.0  0.1684
  C  C390  1  0.715590  0.421880  0.739430  1.0  -0.1974
  C  C391  1  0.667370  0.441240  0.739780  1.0  -0.0065
  C  C392  1  0.827670  0.413180  0.664890  1.0  0.1951
  C  C393  1  0.830750  0.463640  0.653390  1.0  -0.1413
  C  C394  1  0.865910  0.482270  0.623230  1.0  -0.08
  C  C395  1  0.901090  0.449660  0.600400  1.0  -0.1358
  C  C396  1  0.898860  0.399650  0.612660  1.0  -0.0192
  C  C397  1  0.862860  0.380600  0.642980  1.0  -0.2605
  C  C398  1  0.938570  0.469840  0.564240  1.0  0.6721
  C  C399  1  0.797790  0.349040  0.724080  1.0  0.1724
  C  C400  1  0.761120  0.311880  0.724400  1.0  -0.1839
  C  C401  1  0.528540  0.590580  0.696140  1.0  0.6782
  C  C402  1  0.546680  0.643710  0.696500  1.0  -0.1331
  C  C403  1  0.553300  0.669410  0.651610  1.0  -0.0272
  C  C404  1  0.572110  0.718030  0.652290  1.0  -0.2095
  C  C405  1  0.584470  0.741100  0.696070  1.0  0.1683
  C  C406  1  0.578120  0.715590  0.739430  1.0  -0.1965
  C  C407  1  0.558760  0.667370  0.739780  1.0  -0.006
  C  C408  1  0.586820  0.827670  0.664890  1.0  0.1953
  C  C409  1  0.536360  0.830750  0.653390  1.0  -0.1391
  C  C410  1  0.517730  0.865910  0.623230  1.0  -0.078
  C  C411  1  0.550340  0.901090  0.600400  1.0  -0.1355
  C  C412  1  0.600350  0.898860  0.612660  1.0  -0.0179
  C  C413  1  0.619400  0.862860  0.642980  1.0  -0.2606
  C  C414  1  0.530160  0.938570  0.564240  1.0  0.6721
  C  C415  1  0.650960  0.797790  0.724080  1.0  0.1716
  C  C416  1  0.688120  0.761120  0.724400  1.0  -0.1805
  C  C417  1  0.471460  0.409420  0.696140  1.0  0.6782
  C  C418  1  0.453320  0.356290  0.696500  1.0  -0.1328
  C  C419  1  0.446700  0.330590  0.651610  1.0  -0.0288
  C  C420  1  0.427890  0.281970  0.652290  1.0  -0.2083
  C  C421  1  0.415530  0.258900  0.696070  1.0  0.1688
  C  C422  1  0.421880  0.284410  0.739430  1.0  -0.1961
  C  C423  1  0.441240  0.332630  0.739780  1.0  -0.0047
  C  C424  1  0.413180  0.172330  0.664890  1.0  0.1949
  C  C425  1  0.463640  0.169250  0.653390  1.0  -0.1372
  C  C426  1  0.482270  0.134090  0.623230  1.0  -0.0805
  C  C427  1  0.449660  0.098910  0.600400  1.0  -0.1358
  C  C428  1  0.399650  0.101140  0.612660  1.0  -0.0172
  C  C429  1  0.380600  0.137140  0.642980  1.0  -0.2636
  C  C430  1  0.469840  0.061430  0.564240  1.0  0.6719
  C  C431  1  0.349040  0.202210  0.724080  1.0  0.1705
  C  C432  1  0.311880  0.238880  0.724400  1.0  -0.1788
  C  C433  1  0.658700  0.841300  0.250000  1.0  -0.0796
  C  C434  1  0.731250  0.768750  0.250000  1.0  -0.1514
  C  C435  1  0.341300  0.158700  0.250000  1.0  -0.0791
  C  C436  1  0.268750  0.231250  0.250000  1.0  -0.1519
  C  C437  1  0.158700  0.658700  0.250000  1.0  -0.0792
  C  C438  1  0.231250  0.731250  0.250000  1.0  -0.153
  C  C439  1  0.841300  0.341300  0.250000  1.0  -0.0791
  C  C440  1  0.768750  0.268750  0.250000  1.0  -0.1511
  C  C441  1  0.341300  0.158700  0.750000  1.0  -0.0791
  C  C442  1  0.268750  0.231250  0.750000  1.0  -0.1519
  C  C443  1  0.658700  0.841300  0.750000  1.0  -0.0796
  C  C444  1  0.731250  0.768750  0.750000  1.0  -0.1514
  C  C445  1  0.841300  0.341300  0.750000  1.0  -0.0791
  C  C446  1  0.768750  0.268750  0.750000  1.0  -0.1511
  C  C447  1  0.158700  0.658700  0.750000  1.0  -0.0792
  C  C448  1  0.231250  0.731250  0.750000  1.0  -0.153
  N  N449  1  0.709660  0.894120  0.196240  1.0  -0.1373
  N  N450  1  0.290340  0.105880  0.196240  1.0  -0.1377
  N  N451  1  0.105880  0.709660  0.196240  1.0  -0.1383
  N  N452  1  0.894120  0.290340  0.196240  1.0  -0.1374
  N  N453  1  0.790340  0.394120  0.303760  1.0  -0.1375
  N  N454  1  0.209660  0.605880  0.303760  1.0  -0.1377
  N  N455  1  0.394120  0.209660  0.303760  1.0  -0.1376
  N  N456  1  0.605880  0.790340  0.303760  1.0  -0.1382
  N  N457  1  0.290340  0.105880  0.803760  1.0  -0.1378
  N  N458  1  0.709660  0.894120  0.803760  1.0  -0.1373
  N  N459  1  0.894120  0.290340  0.803760  1.0  -0.1374
  N  N460  1  0.105880  0.709660  0.803760  1.0  -0.1383
  N  N461  1  0.209660  0.605880  0.696240  1.0  -0.1375
  N  N462  1  0.790340  0.394120  0.696240  1.0  -0.1374
  N  N463  1  0.605880  0.790340  0.696240  1.0  -0.1381
  N  N464  1  0.394120  0.209660  0.696240  1.0  -0.1375
  O  O465  1  0.930600  0.975590  0.237400  1.0  -0.562
  O  O466  1  0.929030  0.980800  0.154570  1.0  -0.5642
  O  O467  1  0.565330  0.014750  0.050780  1.0  -0.5598
  O  O468  1  0.527900  0.938410  0.050370  1.0  -0.5677
  O  O469  1  0.069400  0.024410  0.237400  1.0  -0.562
  O  O470  1  0.070970  0.019200  0.154570  1.0  -0.5646
  O  O471  1  0.434670  0.985250  0.050780  1.0  -0.5615
  O  O472  1  0.472100  0.061590  0.050370  1.0  -0.5678
  O  O473  1  0.024410  0.930600  0.237400  1.0  -0.5607
  O  O474  1  0.019200  0.929030  0.154570  1.0  -0.5633
  O  O475  1  0.985250  0.565330  0.050780  1.0  -0.5622
  O  O476  1  0.061590  0.527900  0.050370  1.0  -0.5671
  O  O477  1  0.975590  0.069400  0.237400  1.0  -0.561
  O  O478  1  0.980800  0.070970  0.154570  1.0  -0.5631
  O  O479  1  0.014750  0.434670  0.050780  1.0  -0.5613
  O  O480  1  0.938410  0.472100  0.050370  1.0  -0.5662
  O  O481  1  0.569400  0.475590  0.262600  1.0  -0.5624
  O  O482  1  0.570970  0.480800  0.345430  1.0  -0.5637
  O  O483  1  0.934670  0.514750  0.449220  1.0  -0.5606
  O  O484  1  0.972100  0.438410  0.449630  1.0  -0.5682
  O  O485  1  0.430600  0.524410  0.262600  1.0  -0.5618
  O  O486  1  0.429030  0.519200  0.345430  1.0  -0.5643
  O  O487  1  0.065330  0.485250  0.449220  1.0  -0.5619
  O  O488  1  0.027900  0.561590  0.449630  1.0  -0.5681
  O  O489  1  0.475590  0.430600  0.262600  1.0  -0.5604
  O  O490  1  0.480800  0.429030  0.345430  1.0  -0.5619
  O  O491  1  0.514750  0.065330  0.449220  1.0  -0.561
  O  O492  1  0.438410  0.027900  0.449630  1.0  -0.5666
  O  O493  1  0.524410  0.569400  0.262600  1.0  -0.5608
  O  O494  1  0.519200  0.570970  0.345430  1.0  -0.5625
  O  O495  1  0.485250  0.934670  0.449220  1.0  -0.5628
  O  O496  1  0.561590  0.972100  0.449630  1.0  -0.5669
  O  O497  1  0.069400  0.024410  0.762600  1.0  -0.5621
  O  O498  1  0.070970  0.019200  0.845430  1.0  -0.5637
  O  O499  1  0.434670  0.985250  0.949220  1.0  -0.562
  O  O500  1  0.472100  0.061590  0.949630  1.0  -0.5677
  O  O501  1  0.930600  0.975590  0.762600  1.0  -0.5619
  O  O502  1  0.929030  0.980800  0.845430  1.0  -0.5643
  O  O503  1  0.565330  0.014750  0.949220  1.0  -0.5597
  O  O504  1  0.527900  0.938410  0.949630  1.0  -0.5682
  O  O505  1  0.975590  0.069400  0.762600  1.0  -0.5606
  O  O506  1  0.980800  0.070970  0.845430  1.0  -0.5622
  O  O507  1  0.014750  0.434670  0.949220  1.0  -0.5617
  O  O508  1  0.938410  0.472100  0.949630  1.0  -0.566
  O  O509  1  0.024410  0.930600  0.762600  1.0  -0.5608
  O  O510  1  0.019200  0.929030  0.845430  1.0  -0.5623
  O  O511  1  0.985250  0.565330  0.949220  1.0  -0.5622
  O  O512  1  0.061590  0.527900  0.949630  1.0  -0.568
  O  O513  1  0.430600  0.524410  0.737400  1.0  -0.562
  O  O514  1  0.429030  0.519200  0.654570  1.0  -0.5645
  O  O515  1  0.065330  0.485250  0.550780  1.0  -0.5618
  O  O516  1  0.027900  0.561590  0.550370  1.0  -0.5677
  O  O517  1  0.569400  0.475590  0.737400  1.0  -0.5621
  O  O518  1  0.570970  0.480800  0.654570  1.0  -0.5644
  O  O519  1  0.934670  0.514750  0.550780  1.0  -0.5607
  O  O520  1  0.972100  0.438410  0.550370  1.0  -0.568
  O  O521  1  0.524410  0.569400  0.737400  1.0  -0.5611
  O  O522  1  0.519200  0.570970  0.654570  1.0  -0.5634
  O  O523  1  0.485250  0.934670  0.550780  1.0  -0.5627
  O  O524  1  0.561590  0.972100  0.550370  1.0  -0.5664
  O  O525  1  0.475590  0.430600  0.737400  1.0  -0.5605
  O  O526  1  0.480800  0.429030  0.654570  1.0  -0.5629
  O  O527  1  0.514750  0.065330  0.550780  1.0  -0.5608
  O  O528  1  0.438410  0.027900  0.550370  1.0  -0.5664
