# generated using pymatgen
data_CdH7C9(N2O)2
_symmetry_space_group_name_H-M   'P 1'
_cell_length_a   36.41700000
_cell_length_b   9.83100000
_cell_length_c   10.99500000
_cell_angle_alpha   90.00000000
_cell_angle_beta   106.18900000
_cell_angle_gamma   90.00000000
_symmetry_Int_Tables_number   1
_chemical_formula_structural   CdH7C9(N2O)2
_chemical_formula_sum   'Cd8 H56 C72 N32 O16'
_cell_volume   3780.29232175
_cell_formula_units_Z   8
loop_
 _symmetry_equiv_pos_site_id
 _symmetry_equiv_pos_as_xyz
  1  'x, y, z'
loop_
 _atom_site_type_symbol
 _atom_site_label
 _atom_site_symmetry_multiplicity
 _atom_site_fract_x
 _atom_site_fract_y
 _atom_site_fract_z
 _atom_site_occupancy
 _atom_site_charge
  Cd  Cd1  1  0.210250  0.668230  0.366600  1.0  0.96
  Cd  Cd2  1  0.710250  0.168230  0.366600  1.0  0.96
  Cd  Cd3  1  0.789750  0.668230  0.133400  1.0  0.9619
  Cd  Cd4  1  0.289750  0.168230  0.133400  1.0  0.9619
  Cd  Cd5  1  0.789750  0.331770  0.633400  1.0  0.9614
  Cd  Cd6  1  0.289750  0.831770  0.633400  1.0  0.9614
  Cd  Cd7  1  0.210250  0.331770  0.866600  1.0  0.9607
  Cd  Cd8  1  0.710250  0.831770  0.866600  1.0  0.9607
  H  H9  1  0.029900  0.662500  0.923000  1.0  0.097
  H  H10  1  0.092100  0.703200  0.027200  1.0  0.0957
  H  H11  1  0.088600  0.416900  0.278000  1.0  0.0942
  H  H12  1  0.026300  0.374800  0.169700  1.0  0.0957
  H  H13  1  0.267200  0.609100  0.839800  1.0  0.0645
  H  H14  1  0.194200  0.367000  0.454700  1.0  0.3432
  H  H15  1  0.191700  0.300400  0.573900  1.0  0.3335
  H  H16  1  0.529900  0.162500  0.923000  1.0  0.097
  H  H17  1  0.592100  0.203200  0.027200  1.0  0.0957
  H  H18  1  0.588600  0.916900  0.278000  1.0  0.0942
  H  H19  1  0.526300  0.874800  0.169700  1.0  0.0957
  H  H20  1  0.767200  0.109100  0.839800  1.0  0.0645
  H  H21  1  0.694200  0.867000  0.454700  1.0  0.3432
  H  H22  1  0.691700  0.800400  0.573900  1.0  0.3335
  H  H23  1  0.970100  0.662500  0.577000  1.0  0.0976
  H  H24  1  0.907900  0.703200  0.472800  1.0  0.0952
  H  H25  1  0.911400  0.416900  0.222000  1.0  0.094
  H  H26  1  0.973700  0.374800  0.330300  1.0  0.0964
  H  H27  1  0.732800  0.609100  0.660200  1.0  0.0649
  H  H28  1  0.805800  0.367000  0.045300  1.0  0.344
  H  H29  1  0.808300  0.300400  0.926100  1.0  0.334
  H  H30  1  0.470100  0.162500  0.577000  1.0  0.0976
  H  H31  1  0.407900  0.203200  0.472800  1.0  0.0952
  H  H32  1  0.411400  0.916900  0.222000  1.0  0.094
  H  H33  1  0.473700  0.874800  0.330300  1.0  0.0964
  H  H34  1  0.232800  0.109100  0.660200  1.0  0.0649
  H  H35  1  0.305800  0.867000  0.045300  1.0  0.344
  H  H36  1  0.308300  0.800400  0.926100  1.0  0.334
  H  H37  1  0.970100  0.337500  0.077000  1.0  0.0994
  H  H38  1  0.907900  0.296800  0.972800  1.0  0.0953
  H  H39  1  0.911400  0.583100  0.722000  1.0  0.0944
  H  H40  1  0.973700  0.625200  0.830300  1.0  0.0941
  H  H41  1  0.732800  0.390900  0.160200  1.0  0.0652
  H  H42  1  0.805800  0.633000  0.545300  1.0  0.3441
  H  H43  1  0.808300  0.699600  0.426100  1.0  0.3331
  H  H44  1  0.470100  0.837500  0.077000  1.0  0.0994
  H  H45  1  0.407900  0.796800  0.972800  1.0  0.0953
  H  H46  1  0.411400  0.083100  0.722000  1.0  0.0944
  H  H47  1  0.473700  0.125200  0.830300  1.0  0.0941
  H  H48  1  0.232800  0.890900  0.160200  1.0  0.0652
  H  H49  1  0.305800  0.133000  0.545300  1.0  0.3441
  H  H50  1  0.308300  0.199600  0.426100  1.0  0.3331
  H  H51  1  0.029900  0.337500  0.423000  1.0  0.0974
  H  H52  1  0.092100  0.296800  0.527200  1.0  0.0953
  H  H53  1  0.088600  0.583100  0.778000  1.0  0.0942
  H  H54  1  0.026300  0.625200  0.669700  1.0  0.0948
  H  H55  1  0.267200  0.390900  0.339800  1.0  0.0644
  H  H56  1  0.194200  0.633000  0.954700  1.0  0.3433
  H  H57  1  0.191700  0.699600  0.073900  1.0  0.3334
  H  H58  1  0.529900  0.837500  0.423000  1.0  0.0974
  H  H59  1  0.592100  0.796800  0.527200  1.0  0.0953
  H  H60  1  0.588600  0.083100  0.778000  1.0  0.0942
  H  H61  1  0.526300  0.125200  0.669700  1.0  0.0948
  H  H62  1  0.767200  0.890900  0.339800  1.0  0.0644
  H  H63  1  0.694200  0.133000  0.954700  1.0  0.3433
  H  H64  1  0.691700  0.199600  0.073900  1.0  0.3334
  C  C65  1  0.020600  0.515100  0.035600  1.0  0.0385
  C  C66  1  0.137570  0.594300  0.235000  1.0  0.7034
  C  C67  1  0.097500  0.562200  0.163800  1.0  -0.1046
  C  C68  1  0.041500  0.611900  0.994900  1.0  -0.1384
  C  C69  1  0.078900  0.636000  0.057000  1.0  -0.0712
  C  C70  1  0.077100  0.466700  0.205400  1.0  -0.1021
  C  C71  1  0.039400  0.442900  0.140700  1.0  -0.1127
  C  C72  1  0.222330  0.465400  0.605200  1.0  0.6159
  C  C73  1  0.255390  0.579000  0.758100  1.0  0.2315
  C  C74  1  0.520600  0.015100  0.035600  1.0  0.0385
  C  C75  1  0.637570  0.094300  0.235000  1.0  0.7034
  C  C76  1  0.597500  0.062200  0.163800  1.0  -0.1046
  C  C77  1  0.541500  0.111900  0.994900  1.0  -0.1384
  C  C78  1  0.578900  0.136000  0.057000  1.0  -0.0712
  C  C79  1  0.577100  0.966700  0.205400  1.0  -0.1021
  C  C80  1  0.539400  0.942900  0.140700  1.0  -0.1127
  C  C81  1  0.722330  0.965400  0.605200  1.0  0.6159
  C  C82  1  0.755390  0.079000  0.758100  1.0  0.2315
  C  C83  1  0.979400  0.515100  0.464400  1.0  0.0392
  C  C84  1  0.862430  0.594300  0.265000  1.0  0.7035
  C  C85  1  0.902500  0.562200  0.336200  1.0  -0.1056
  C  C86  1  0.958500  0.611900  0.505100  1.0  -0.1386
  C  C87  1  0.921100  0.636000  0.443000  1.0  -0.0709
  C  C88  1  0.922900  0.466700  0.294600  1.0  -0.1024
  C  C89  1  0.960600  0.442900  0.359300  1.0  -0.1133
  C  C90  1  0.777670  0.465400  0.894800  1.0  0.6162
  C  C91  1  0.744610  0.579000  0.741900  1.0  0.2321
  C  C92  1  0.479400  0.015100  0.464400  1.0  0.0392
  C  C93  1  0.362430  0.094300  0.265000  1.0  0.7035
  C  C94  1  0.402500  0.062200  0.336200  1.0  -0.1056
  C  C95  1  0.458500  0.111900  0.505100  1.0  -0.1386
  C  C96  1  0.421100  0.136000  0.443000  1.0  -0.0709
  C  C97  1  0.422900  0.966700  0.294600  1.0  -0.1024
  C  C98  1  0.460600  0.942900  0.359300  1.0  -0.1133
  C  C99  1  0.277670  0.965400  0.894800  1.0  0.6162
  C  C100  1  0.244610  0.079000  0.741900  1.0  0.2321
  C  C101  1  0.979400  0.484900  0.964400  1.0  0.0392
  C  C102  1  0.862430  0.405700  0.765000  1.0  0.7038
  C  C103  1  0.902500  0.437800  0.836200  1.0  -0.106
  C  C104  1  0.958500  0.388100  0.005100  1.0  -0.1351
  C  C105  1  0.921100  0.364000  0.943000  1.0  -0.0717
  C  C106  1  0.922900  0.533300  0.794600  1.0  -0.1024
  C  C107  1  0.960600  0.557100  0.859300  1.0  -0.1132
  C  C108  1  0.777670  0.534600  0.394800  1.0  0.6164
  C  C109  1  0.744610  0.421000  0.241900  1.0  0.2317
  C  C110  1  0.479400  0.984900  0.964400  1.0  0.0392
  C  C111  1  0.362430  0.905700  0.765000  1.0  0.7038
  C  C112  1  0.402500  0.937800  0.836200  1.0  -0.106
  C  C113  1  0.458500  0.888100  0.005100  1.0  -0.1351
  C  C114  1  0.421100  0.864000  0.943000  1.0  -0.0717
  C  C115  1  0.422900  0.033300  0.794600  1.0  -0.1024
  C  C116  1  0.460600  0.057100  0.859300  1.0  -0.1132
  C  C117  1  0.277670  0.034600  0.394800  1.0  0.6164
  C  C118  1  0.244610  0.921000  0.241900  1.0  0.2317
  C  C119  1  0.020600  0.484900  0.535600  1.0  0.0384
  C  C120  1  0.137570  0.405700  0.735000  1.0  0.704
  C  C121  1  0.097500  0.437800  0.663800  1.0  -0.1044
  C  C122  1  0.041500  0.388100  0.494900  1.0  -0.1347
  C  C123  1  0.078900  0.364000  0.557000  1.0  -0.0727
  C  C124  1  0.077100  0.533300  0.705400  1.0  -0.1024
  C  C125  1  0.039400  0.557100  0.640700  1.0  -0.1127
  C  C126  1  0.222330  0.534600  0.105200  1.0  0.6162
  C  C127  1  0.255390  0.421000  0.258100  1.0  0.2317
  C  C128  1  0.520600  0.984900  0.535600  1.0  0.0384
  C  C129  1  0.637570  0.905700  0.735000  1.0  0.704
  C  C130  1  0.597500  0.937800  0.663800  1.0  -0.1044
  C  C131  1  0.541500  0.888100  0.494900  1.0  -0.1347
  C  C132  1  0.578900  0.864000  0.557000  1.0  -0.0727
  C  C133  1  0.577100  0.033300  0.705400  1.0  -0.1024
  C  C134  1  0.539400  0.057100  0.640700  1.0  -0.1127
  C  C135  1  0.722330  0.034600  0.105200  1.0  0.6162
  C  C136  1  0.755390  0.921000  0.258100  1.0  0.2317
  N  N137  1  0.236200  0.568300  0.555500  1.0  -0.289
  N  N138  1  0.233550  0.465600  0.732200  1.0  -0.4933
  N  N139  1  0.258140  0.641200  0.657000  1.0  -0.2493
  N  N140  1  0.200000  0.365200  0.536100  1.0  -0.7663
  N  N141  1  0.736200  0.068300  0.555500  1.0  -0.289
  N  N142  1  0.733550  0.965600  0.732200  1.0  -0.4933
  N  N143  1  0.758140  0.141200  0.657000  1.0  -0.2493
  N  N144  1  0.700000  0.865200  0.536100  1.0  -0.7663
  N  N145  1  0.763800  0.568300  0.944500  1.0  -0.289
  N  N146  1  0.766450  0.465600  0.767800  1.0  -0.493
  N  N147  1  0.741860  0.641200  0.843000  1.0  -0.2498
  N  N148  1  0.800000  0.365200  0.963900  1.0  -0.7657
  N  N149  1  0.263800  0.068300  0.944500  1.0  -0.289
  N  N150  1  0.266450  0.965600  0.767800  1.0  -0.493
  N  N151  1  0.241860  0.141200  0.843000  1.0  -0.2498
  N  N152  1  0.300000  0.865200  0.963900  1.0  -0.7657
  N  N153  1  0.763800  0.431700  0.444500  1.0  -0.288
  N  N154  1  0.766450  0.534400  0.267800  1.0  -0.4928
  N  N155  1  0.741860  0.358800  0.343000  1.0  -0.2494
  N  N156  1  0.800000  0.634800  0.463900  1.0  -0.768
  N  N157  1  0.263800  0.931700  0.444500  1.0  -0.288
  N  N158  1  0.266450  0.034400  0.267800  1.0  -0.4928
  N  N159  1  0.241860  0.858800  0.343000  1.0  -0.2494
  N  N160  1  0.300000  0.134800  0.463900  1.0  -0.768
  N  N161  1  0.236200  0.431700  0.055500  1.0  -0.2882
  N  N162  1  0.233550  0.534400  0.232200  1.0  -0.4935
  N  N163  1  0.258140  0.358800  0.157000  1.0  -0.2491
  N  N164  1  0.200000  0.634800  0.036100  1.0  -0.7675
  N  N165  1  0.736200  0.931700  0.055500  1.0  -0.2882
  N  N166  1  0.733550  0.034400  0.232200  1.0  -0.4935
  N  N167  1  0.758140  0.858800  0.157000  1.0  -0.2491
  N  N168  1  0.700000  0.134800  0.036100  1.0  -0.7675
  O  O169  1  0.153340  0.697300  0.203400  1.0  -0.6848
  O  O170  1  0.154020  0.522900  0.323500  1.0  -0.6638
  O  O171  1  0.653340  0.197300  0.203400  1.0  -0.6848
  O  O172  1  0.654020  0.022900  0.323500  1.0  -0.6638
  O  O173  1  0.846660  0.697300  0.296600  1.0  -0.6853
  O  O174  1  0.845980  0.522900  0.176500  1.0  -0.6638
  O  O175  1  0.346660  0.197300  0.296600  1.0  -0.6853
  O  O176  1  0.345980  0.022900  0.176500  1.0  -0.6638
  O  O177  1  0.846660  0.302700  0.796600  1.0  -0.6866
  O  O178  1  0.845980  0.477100  0.676500  1.0  -0.6632
  O  O179  1  0.346660  0.802700  0.796600  1.0  -0.6866
  O  O180  1  0.345980  0.977100  0.676500  1.0  -0.6632
  O  O181  1  0.153340  0.302700  0.703400  1.0  -0.686
  O  O182  1  0.154020  0.477100  0.823500  1.0  -0.6637
  O  O183  1  0.653340  0.802700  0.703400  1.0  -0.686
  O  O184  1  0.654020  0.977100  0.823500  1.0  -0.6637
