# generated using pymatgen
data_In2H3C10(NO7)2
_symmetry_space_group_name_H-M   'P 1'
_cell_length_a   9.33660000
_cell_length_b   21.91700000
_cell_length_c   24.05700000
_cell_angle_alpha   90.00000000
_cell_angle_beta   90.00000000
_cell_angle_gamma   90.00000000
_symmetry_Int_Tables_number   1
_chemical_formula_structural   In2H3C10(NO7)2
_chemical_formula_sum   'In16 H24 C80 N16 O112'
_cell_volume   4922.79021775
_cell_formula_units_Z   8
loop_
 _symmetry_equiv_pos_site_id
 _symmetry_equiv_pos_as_xyz
  1  'x, y, z'
loop_
 _atom_site_type_symbol
 _atom_site_label
 _atom_site_symmetry_multiplicity
 _atom_site_fract_x
 _atom_site_fract_y
 _atom_site_fract_z
 _atom_site_occupancy
 _atom_site_charge
  In  In1  1  0.159520  0.109850  0.025020  1.0  1.5227
  In  In2  1  0.824460  0.263980  0.178200  1.0  1.519
  In  In3  1  0.340480  0.890150  0.525020  1.0  1.5217
  In  In4  1  0.675540  0.736020  0.678200  1.0  1.5238
  In  In5  1  0.840480  0.609850  0.474980  1.0  1.5218
  In  In6  1  0.175540  0.763980  0.321800  1.0  1.5207
  In  In7  1  0.659520  0.390150  0.974980  1.0  1.5233
  In  In8  1  0.324460  0.236020  0.821800  1.0  1.5231
  In  In9  1  0.840480  0.890150  0.974980  1.0  1.5221
  In  In10  1  0.175540  0.736020  0.821800  1.0  1.524
  In  In11  1  0.659520  0.109850  0.474980  1.0  1.523
  In  In12  1  0.324460  0.263980  0.321800  1.0  1.5187
  In  In13  1  0.159520  0.390150  0.525020  1.0  1.5229
  In  In14  1  0.824460  0.236020  0.678200  1.0  1.5215
  In  In15  1  0.340480  0.609850  0.025020  1.0  1.5215
  In  In16  1  0.675540  0.763980  0.178200  1.0  1.521
  H  H17  1  0.421300  0.010100  0.042400  1.0  0.1368
  H  H18  1  0.426900  0.177400  0.099000  1.0  0.1115
  H  H19  1  0.659300  0.030500  0.080200  1.0  0.1361
  H  H20  1  0.078700  0.989900  0.542400  1.0  0.1368
  H  H21  1  0.073100  0.822600  0.599000  1.0  0.1115
  H  H22  1  0.840700  0.969500  0.580200  1.0  0.1357
  H  H23  1  0.578700  0.510100  0.457600  1.0  0.1372
  H  H24  1  0.573100  0.677400  0.401000  1.0  0.1118
  H  H25  1  0.340700  0.530500  0.419800  1.0  0.1361
  H  H26  1  0.921300  0.489900  0.957600  1.0  0.1372
  H  H27  1  0.926900  0.322600  0.901000  1.0  0.1126
  H  H28  1  0.159300  0.469500  0.919800  1.0  0.1365
  H  H29  1  0.578700  0.989900  0.957600  1.0  0.1372
  H  H30  1  0.573100  0.822600  0.901000  1.0  0.1125
  H  H31  1  0.340700  0.969500  0.919800  1.0  0.1365
  H  H32  1  0.921300  0.010100  0.457600  1.0  0.1369
  H  H33  1  0.926900  0.177400  0.401000  1.0  0.1127
  H  H34  1  0.159300  0.030500  0.419800  1.0  0.1363
  H  H35  1  0.421300  0.489900  0.542400  1.0  0.1369
  H  H36  1  0.426900  0.322600  0.599000  1.0  0.1124
  H  H37  1  0.659300  0.469500  0.580200  1.0  0.136
  H  H38  1  0.078700  0.510100  0.042400  1.0  0.1368
  H  H39  1  0.073100  0.677400  0.099000  1.0  0.1112
  H  H40  1  0.840700  0.530500  0.080200  1.0  0.1355
  C  C41  1  0.944600  0.158900  0.105800  1.0  0.6599
  C  C42  1  0.065200  0.207000  0.106000  1.0  0.6194
  C  C43  1  0.957200  0.017100  0.978200  1.0  0.6455
  C  C44  1  0.047400  0.231600  0.263200  1.0  0.5941
  C  C45  1  0.073200  0.301000  0.251900  1.0  0.6067
  C  C46  1  0.674200  0.307400  0.072300  1.0  0.6302
  C  C47  1  0.784500  0.358100  0.084700  1.0  0.6134
  C  C48  1  0.451000  0.046600  0.058400  1.0  0.0276
  C  C49  1  0.454100  0.137900  0.089600  1.0  0.2899
  C  C50  1  0.582600  0.057600  0.079600  1.0  0.0276
  C  C51  1  0.555400  0.841100  0.605800  1.0  0.661
  C  C52  1  0.434800  0.793000  0.606000  1.0  0.6204
  C  C53  1  0.542800  0.982900  0.478200  1.0  0.644
  C  C54  1  0.452600  0.768400  0.763200  1.0  0.593
  C  C55  1  0.426800  0.699000  0.751900  1.0  0.6068
  C  C56  1  0.825800  0.692600  0.572300  1.0  0.624
  C  C57  1  0.715500  0.641900  0.584700  1.0  0.6138
  C  C58  1  0.049000  0.953400  0.558400  1.0  0.0291
  C  C59  1  0.045900  0.862100  0.589600  1.0  0.2974
  C  C60  1  0.917400  0.942400  0.579600  1.0  0.0255
  C  C61  1  0.055400  0.658900  0.394200  1.0  0.6602
  C  C62  1  0.934800  0.707000  0.394000  1.0  0.6201
  C  C63  1  0.042800  0.517100  0.521800  1.0  0.6441
  C  C64  1  0.952600  0.731600  0.236800  1.0  0.595
  C  C65  1  0.926800  0.801000  0.248100  1.0  0.6069
  C  C66  1  0.325800  0.807400  0.427700  1.0  0.6231
  C  C67  1  0.215500  0.858100  0.415300  1.0  0.6127
  C  C68  1  0.549000  0.546600  0.441600  1.0  0.0333
  C  C69  1  0.545900  0.637900  0.410400  1.0  0.2905
  C  C70  1  0.417400  0.557600  0.420400  1.0  0.0233
  C  C71  1  0.444600  0.341100  0.894200  1.0  0.6598
  C  C72  1  0.565200  0.293000  0.894000  1.0  0.6198
  C  C73  1  0.457200  0.482900  0.021800  1.0  0.6442
  C  C74  1  0.547400  0.268400  0.736800  1.0  0.5927
  C  C75  1  0.573200  0.199000  0.748100  1.0  0.6121
  C  C76  1  0.174200  0.192600  0.927700  1.0  0.6304
  C  C77  1  0.284500  0.141900  0.915300  1.0  0.6124
  C  C78  1  0.951000  0.453400  0.941600  1.0  0.0268
  C  C79  1  0.954100  0.362100  0.910400  1.0  0.2886
  C  C80  1  0.082600  0.442400  0.920400  1.0  0.025
  C  C81  1  0.055400  0.841100  0.894200  1.0  0.6608
  C  C82  1  0.934800  0.793000  0.894000  1.0  0.6204
  C  C83  1  0.042800  0.982900  0.021800  1.0  0.6456
  C  C84  1  0.952600  0.768400  0.736800  1.0  0.5931
  C  C85  1  0.926800  0.699000  0.748100  1.0  0.6068
  C  C86  1  0.325800  0.692600  0.927700  1.0  0.6311
  C  C87  1  0.215500  0.641900  0.915300  1.0  0.6133
  C  C88  1  0.549000  0.953400  0.941600  1.0  0.031
  C  C89  1  0.545900  0.862100  0.910400  1.0  0.2905
  C  C90  1  0.417400  0.942400  0.920400  1.0  0.0242
  C  C91  1  0.444600  0.158900  0.394200  1.0  0.6595
  C  C92  1  0.565200  0.207000  0.394000  1.0  0.6162
  C  C93  1  0.457200  0.017100  0.521800  1.0  0.644
  C  C94  1  0.547400  0.231600  0.236800  1.0  0.5943
  C  C95  1  0.573200  0.301000  0.248100  1.0  0.6071
  C  C96  1  0.174200  0.307400  0.427700  1.0  0.6302
  C  C97  1  0.284500  0.358100  0.415300  1.0  0.6131
  C  C98  1  0.951000  0.046600  0.441600  1.0  0.0279
  C  C99  1  0.954100  0.137900  0.410400  1.0  0.2905
  C  C100  1  0.082600  0.057600  0.420400  1.0  0.0239
  C  C101  1  0.944600  0.341100  0.605800  1.0  0.66
  C  C102  1  0.065200  0.293000  0.606000  1.0  0.6198
  C  C103  1  0.957200  0.482900  0.478200  1.0  0.6448
  C  C104  1  0.047400  0.268400  0.763200  1.0  0.5964
  C  C105  1  0.073200  0.199000  0.751900  1.0  0.6079
  C  C106  1  0.674200  0.192600  0.572300  1.0  0.6306
  C  C107  1  0.784500  0.141900  0.584700  1.0  0.613
  C  C108  1  0.451000  0.453400  0.558400  1.0  0.0276
  C  C109  1  0.454100  0.362100  0.589600  1.0  0.2906
  C  C110  1  0.582600  0.442400  0.579600  1.0  0.0274
  C  C111  1  0.555400  0.658900  0.105800  1.0  0.6606
  C  C112  1  0.434800  0.707000  0.106000  1.0  0.6201
  C  C113  1  0.542800  0.517100  0.978200  1.0  0.6449
  C  C114  1  0.452600  0.731600  0.263200  1.0  0.5948
  C  C115  1  0.426800  0.801000  0.251900  1.0  0.6068
  C  C116  1  0.825800  0.807400  0.072300  1.0  0.624
  C  C117  1  0.715500  0.858100  0.084700  1.0  0.6129
  C  C118  1  0.049000  0.546600  0.058400  1.0  0.0297
  C  C119  1  0.045900  0.637900  0.089600  1.0  0.2936
  C  C120  1  0.917400  0.557600  0.079600  1.0  0.0244
  N  N121  1  0.368100  0.098300  0.064400  1.0  -0.3862
  N  N122  1  0.582700  0.115200  0.099900  1.0  -0.185
  N  N123  1  0.131900  0.901700  0.564400  1.0  -0.3854
  N  N124  1  0.917300  0.884800  0.599900  1.0  -0.1863
  N  N125  1  0.631900  0.598300  0.435600  1.0  -0.3858
  N  N126  1  0.417300  0.615200  0.400100  1.0  -0.1862
  N  N127  1  0.868100  0.401700  0.935600  1.0  -0.3873
  N  N128  1  0.082700  0.384800  0.900100  1.0  -0.1866
  N  N129  1  0.631900  0.901700  0.935600  1.0  -0.3858
  N  N130  1  0.417300  0.884800  0.900100  1.0  -0.1864
  N  N131  1  0.868100  0.098300  0.435600  1.0  -0.3869
  N  N132  1  0.082700  0.115200  0.400100  1.0  -0.1866
  N  N133  1  0.368100  0.401700  0.564400  1.0  -0.3866
  N  N134  1  0.582700  0.384800  0.599900  1.0  -0.1853
  N  N135  1  0.131900  0.598300  0.064400  1.0  -0.3854
  N  N136  1  0.917300  0.615200  0.099900  1.0  -0.1858
  O  O137  1  0.965700  0.112500  0.076700  1.0  -0.5466
  O  O138  1  0.175600  0.195900  0.079800  1.0  -0.6021
  O  O139  1  0.037400  0.254600  0.133500  1.0  -0.5458
  O  O140  1  0.837600  0.169300  0.134800  1.0  -0.5598
  O  O141  1  0.854800  0.988800  0.955700  1.0  -0.5533
  O  O142  1  0.992200  0.070700  0.966900  1.0  -0.5338
  O  O143  1  0.934700  0.209600  0.242600  1.0  -0.5437
  O  O144  1  0.983300  0.328400  0.223700  1.0  -0.4805
  O  O145  1  0.184400  0.324000  0.274300  1.0  -0.5097
  O  O146  1  0.140200  0.204500  0.290900  1.0  -0.5196
  O  O147  1  0.663600  0.265300  0.107800  1.0  -0.5381
  O  O148  1  0.855700  0.352200  0.128400  1.0  -0.5513
  O  O149  1  0.794500  0.400800  0.050500  1.0  -0.5449
  O  O150  1  0.603800  0.311500  0.028000  1.0  -0.5396
  O  O151  1  0.534300  0.887500  0.576700  1.0  -0.5473
  O  O152  1  0.324400  0.804100  0.579800  1.0  -0.6024
  O  O153  1  0.462600  0.745400  0.633500  1.0  -0.5428
  O  O154  1  0.662400  0.830700  0.634800  1.0  -0.5575
  O  O155  1  0.645200  0.011200  0.455700  1.0  -0.5507
  O  O156  1  0.507800  0.929300  0.466900  1.0  -0.533
  O  O157  1  0.565300  0.790400  0.742600  1.0  -0.545
  O  O158  1  0.516700  0.671600  0.723700  1.0  -0.4835
  O  O159  1  0.315600  0.676000  0.774300  1.0  -0.5117
  O  O160  1  0.359800  0.795500  0.790900  1.0  -0.523
  O  O161  1  0.836400  0.734700  0.607800  1.0  -0.539
  O  O162  1  0.644300  0.647800  0.628400  1.0  -0.5494
  O  O163  1  0.705500  0.599200  0.550500  1.0  -0.5442
  O  O164  1  0.896200  0.688500  0.528000  1.0  -0.5407
  O  O165  1  0.034300  0.612500  0.423300  1.0  -0.5469
  O  O166  1  0.824400  0.695900  0.420200  1.0  -0.6019
  O  O167  1  0.962600  0.754600  0.366500  1.0  -0.5447
  O  O168  1  0.162400  0.669300  0.365200  1.0  -0.5603
  O  O169  1  0.145200  0.488800  0.544300  1.0  -0.554
  O  O170  1  0.007800  0.570700  0.533100  1.0  -0.5336
  O  O171  1  0.065300  0.709600  0.257400  1.0  -0.5446
  O  O172  1  0.016700  0.828400  0.276300  1.0  -0.4817
  O  O173  1  0.815600  0.824000  0.225700  1.0  -0.5087
  O  O174  1  0.859800  0.704500  0.209100  1.0  -0.5226
  O  O175  1  0.336400  0.765300  0.392200  1.0  -0.5384
  O  O176  1  0.144300  0.852200  0.371600  1.0  -0.5518
  O  O177  1  0.205500  0.900800  0.449500  1.0  -0.5447
  O  O178  1  0.396200  0.811500  0.472000  1.0  -0.5399
  O  O179  1  0.465700  0.387500  0.923300  1.0  -0.5473
  O  O180  1  0.675600  0.304100  0.920200  1.0  -0.6029
  O  O181  1  0.537400  0.245400  0.866500  1.0  -0.5422
  O  O182  1  0.337600  0.330700  0.865200  1.0  -0.5588
  O  O183  1  0.354800  0.511200  0.044300  1.0  -0.5535
  O  O184  1  0.492200  0.429300  0.033100  1.0  -0.5333
  O  O185  1  0.434700  0.290400  0.757400  1.0  -0.5434
  O  O186  1  0.483300  0.171600  0.776300  1.0  -0.4815
  O  O187  1  0.684400  0.176000  0.725700  1.0  -0.51
  O  O188  1  0.640200  0.295500  0.709100  1.0  -0.5222
  O  O189  1  0.163600  0.234700  0.892200  1.0  -0.5376
  O  O190  1  0.355700  0.147800  0.871600  1.0  -0.5523
  O  O191  1  0.294500  0.099200  0.949500  1.0  -0.5441
  O  O192  1  0.103800  0.188500  0.972000  1.0  -0.5385
  O  O193  1  0.034300  0.887500  0.923300  1.0  -0.5476
  O  O194  1  0.824400  0.804100  0.920200  1.0  -0.6026
  O  O195  1  0.962600  0.745400  0.866500  1.0  -0.5425
  O  O196  1  0.162400  0.830700  0.865200  1.0  -0.5582
  O  O197  1  0.145200  0.011200  0.044300  1.0  -0.5504
  O  O198  1  0.007800  0.929300  0.033100  1.0  -0.5342
  O  O199  1  0.065300  0.790400  0.757400  1.0  -0.5443
  O  O200  1  0.016700  0.671600  0.776300  1.0  -0.4812
  O  O201  1  0.815600  0.676000  0.725700  1.0  -0.5111
  O  O202  1  0.859800  0.795500  0.709100  1.0  -0.5226
  O  O203  1  0.336400  0.734700  0.892200  1.0  -0.5379
  O  O204  1  0.144300  0.647800  0.871600  1.0  -0.5518
  O  O205  1  0.205500  0.599200  0.949500  1.0  -0.544
  O  O206  1  0.396200  0.688500  0.972000  1.0  -0.5401
  O  O207  1  0.465700  0.112500  0.423300  1.0  -0.5469
  O  O208  1  0.675600  0.195900  0.420200  1.0  -0.6021
  O  O209  1  0.537400  0.254600  0.366500  1.0  -0.5437
  O  O210  1  0.337600  0.169300  0.365200  1.0  -0.5605
  O  O211  1  0.354800  0.988800  0.544300  1.0  -0.5537
  O  O212  1  0.492200  0.070700  0.533100  1.0  -0.5348
  O  O213  1  0.434700  0.209600  0.257400  1.0  -0.5438
  O  O214  1  0.483300  0.328400  0.276300  1.0  -0.481
  O  O215  1  0.684400  0.324000  0.225700  1.0  -0.5098
  O  O216  1  0.640200  0.204500  0.209100  1.0  -0.5209
  O  O217  1  0.163600  0.265300  0.392200  1.0  -0.5374
  O  O218  1  0.355700  0.352200  0.371600  1.0  -0.5515
  O  O219  1  0.294500  0.400800  0.449500  1.0  -0.5445
  O  O220  1  0.103800  0.311500  0.472000  1.0  -0.5382
  O  O221  1  0.965700  0.387500  0.576700  1.0  -0.5471
  O  O222  1  0.175600  0.304100  0.579800  1.0  -0.6028
  O  O223  1  0.037400  0.245400  0.633500  1.0  -0.5429
  O  O224  1  0.837600  0.330700  0.634800  1.0  -0.5584
  O  O225  1  0.854800  0.511200  0.455700  1.0  -0.5532
  O  O226  1  0.992200  0.429300  0.466900  1.0  -0.5324
  O  O227  1  0.934700  0.290400  0.742600  1.0  -0.5434
  O  O228  1  0.983300  0.171600  0.723700  1.0  -0.4811
  O  O229  1  0.184400  0.176000  0.774300  1.0  -0.5123
  O  O230  1  0.140200  0.295500  0.790900  1.0  -0.5212
  O  O231  1  0.663600  0.234700  0.607800  1.0  -0.5381
  O  O232  1  0.855700  0.147800  0.628400  1.0  -0.5503
  O  O233  1  0.794500  0.099200  0.550500  1.0  -0.5446
  O  O234  1  0.603800  0.188500  0.528000  1.0  -0.5396
  O  O235  1  0.534300  0.612500  0.076700  1.0  -0.5466
  O  O236  1  0.324400  0.695900  0.079800  1.0  -0.6018
  O  O237  1  0.462600  0.754600  0.133500  1.0  -0.5463
  O  O238  1  0.662400  0.669300  0.134800  1.0  -0.5591
  O  O239  1  0.645200  0.488800  0.955700  1.0  -0.5537
  O  O240  1  0.507800  0.570700  0.966900  1.0  -0.5334
  O  O241  1  0.565300  0.709600  0.242600  1.0  -0.5439
  O  O242  1  0.516700  0.828400  0.223700  1.0  -0.4836
  O  O243  1  0.315600  0.824000  0.274300  1.0  -0.5086
  O  O244  1  0.359800  0.704500  0.290900  1.0  -0.5208
  O  O245  1  0.836400  0.765300  0.107800  1.0  -0.5391
  O  O246  1  0.644300  0.852200  0.128400  1.0  -0.5501
  O  O247  1  0.705500  0.900800  0.050500  1.0  -0.5447
  O  O248  1  0.896200  0.811500  0.028000  1.0  -0.5406
