# generated using pymatgen
data_CoH22C28N4O5
_symmetry_space_group_name_H-M   'P 1'
_cell_length_a   17.20100000
_cell_length_b   23.81000000
_cell_length_c   13.60100000
_cell_angle_alpha   90.00000000
_cell_angle_beta   90.00000000
_cell_angle_gamma   90.00000000
_symmetry_Int_Tables_number   1
_chemical_formula_structural   CoH22C28N4O5
_chemical_formula_sum   'Co8 H176 C224 N32 O40'
_cell_volume   5570.36857181
_cell_formula_units_Z   8
loop_
 _symmetry_equiv_pos_site_id
 _symmetry_equiv_pos_as_xyz
  1  'x, y, z'
loop_
 _atom_site_type_symbol
 _atom_site_label
 _atom_site_symmetry_multiplicity
 _atom_site_fract_x
 _atom_site_fract_y
 _atom_site_fract_z
 _atom_site_occupancy
 _atom_site_charge
  Co  Co1  1  0.351950  0.572570  0.516420  1.0  0.96
  Co  Co2  1  0.148050  0.927430  0.516420  1.0  0.9607
  Co  Co3  1  0.648050  0.072570  0.983580  1.0  0.96
  Co  Co4  1  0.851950  0.427430  0.983580  1.0  0.9597
  Co  Co5  1  0.648050  0.427430  0.483580  1.0  0.9605
  Co  Co6  1  0.851950  0.072570  0.483580  1.0  0.9598
  Co  Co7  1  0.351950  0.927430  0.016420  1.0  0.9598
  Co  Co8  1  0.148050  0.572570  0.016420  1.0  0.9602
  H  H9  1  0.271700  0.486300  0.201600  1.0  0.0901
  H  H10  1  0.272100  0.409200  0.097000  1.0  0.1234
  H  H11  1  0.398900  0.324000  0.294100  1.0  0.1145
  H  H12  1  0.398600  0.401500  0.396200  1.0  0.0889
  H  H13  1  0.310500  0.212100  0.098800  1.0  0.0916
  H  H14  1  0.397500  0.141200  0.069400  1.0  0.115
  H  H15  1  0.571200  0.253800  0.083000  1.0  0.1022
  H  H16  1  0.479700  0.325100  0.126300  1.0  0.1196
  H  H17  1  0.448900  0.481100  0.612800  1.0  0.0896
  H  H18  1  0.467300  0.561400  0.863900  1.0  0.1288
  H  H19  1  0.388300  0.618100  0.750500  1.0  0.1104
  H  H20  1  0.546400  0.469400  0.847900  1.0  0.1108
  H  H21  1  0.557700  0.446800  0.740600  1.0  0.0733
  H  H22  1  0.482600  0.271400  0.846000  1.0  0.1011
  H  H23  1  0.350100  0.280500  0.876700  1.0  0.1026
  H  H24  1  0.293500  0.368500  0.875200  1.0  0.0997
  H  H25  1  0.367800  0.446000  0.832100  1.0  0.086
  H  H26  1  0.601200  0.305400  0.792600  1.0  0.1104
  H  H27  1  0.602800  0.362500  0.734900  1.0  0.0884
  H  H28  1  0.734500  0.394300  0.804600  1.0  0.0881
  H  H29  1  0.688500  0.401500  0.082900  1.0  0.104
  H  H30  1  0.576700  0.358900  0.000600  1.0  0.1149
  H  H31  1  0.228300  0.013700  0.201600  1.0  0.09
  H  H32  1  0.227900  0.090800  0.097000  1.0  0.1234
  H  H33  1  0.101100  0.176000  0.294100  1.0  0.1139
  H  H34  1  0.101400  0.098500  0.396200  1.0  0.0882
  H  H35  1  0.189500  0.287900  0.098800  1.0  0.0916
  H  H36  1  0.102500  0.358800  0.069400  1.0  0.1153
  H  H37  1  0.928800  0.246200  0.083000  1.0  0.1022
  H  H38  1  0.020300  0.174900  0.126300  1.0  0.1194
  H  H39  1  0.051100  0.018900  0.612800  1.0  0.0899
  H  H40  1  0.032700  0.938600  0.863900  1.0  0.1287
  H  H41  1  0.111700  0.881900  0.750500  1.0  0.1102
  H  H42  1  0.953600  0.030600  0.847900  1.0  0.1108
  H  H43  1  0.942300  0.053200  0.740600  1.0  0.0739
  H  H44  1  0.017400  0.228600  0.846000  1.0  0.1003
  H  H45  1  0.149900  0.219500  0.876700  1.0  0.1026
  H  H46  1  0.206500  0.131500  0.875200  1.0  0.0997
  H  H47  1  0.132200  0.054000  0.832100  1.0  0.0865
  H  H48  1  0.898800  0.194600  0.792600  1.0  0.1114
  H  H49  1  0.897200  0.137500  0.734900  1.0  0.0892
  H  H50  1  0.765500  0.105700  0.804600  1.0  0.0887
  H  H51  1  0.811500  0.098500  0.082900  1.0  0.1039
  H  H52  1  0.923300  0.141100  0.000600  1.0  0.1147
  H  H53  1  0.728300  0.986300  0.298400  1.0  0.0898
  H  H54  1  0.727900  0.909200  0.403000  1.0  0.1229
  H  H55  1  0.601100  0.824000  0.205900  1.0  0.1141
  H  H56  1  0.601400  0.901500  0.103800  1.0  0.0886
  H  H57  1  0.689500  0.712100  0.401200  1.0  0.092
  H  H58  1  0.602500  0.641200  0.430600  1.0  0.1151
  H  H59  1  0.428800  0.753800  0.417000  1.0  0.1023
  H  H60  1  0.520300  0.825100  0.373700  1.0  0.1198
  H  H61  1  0.551100  0.981100  0.887200  1.0  0.0898
  H  H62  1  0.532700  0.061400  0.636100  1.0  0.1292
  H  H63  1  0.611700  0.118100  0.749500  1.0  0.11
  H  H64  1  0.453600  0.969400  0.652100  1.0  0.1093
  H  H65  1  0.442300  0.946800  0.759400  1.0  0.0736
  H  H66  1  0.517400  0.771400  0.654000  1.0  0.1007
  H  H67  1  0.649900  0.780500  0.623300  1.0  0.1028
  H  H68  1  0.706500  0.868500  0.624800  1.0  0.0994
  H  H69  1  0.632200  0.946000  0.667900  1.0  0.0863
  H  H70  1  0.398800  0.805400  0.707400  1.0  0.1107
  H  H71  1  0.397200  0.862500  0.765100  1.0  0.0892
  H  H72  1  0.265500  0.894300  0.695400  1.0  0.0887
  H  H73  1  0.311500  0.901500  0.417100  1.0  0.1034
  H  H74  1  0.423300  0.858900  0.499400  1.0  0.1142
  H  H75  1  0.771700  0.513700  0.298400  1.0  0.0903
  H  H76  1  0.772100  0.590800  0.403000  1.0  0.1235
  H  H77  1  0.898900  0.676000  0.205900  1.0  0.1143
  H  H78  1  0.898600  0.598500  0.103800  1.0  0.0891
  H  H79  1  0.810500  0.787900  0.401200  1.0  0.0918
  H  H80  1  0.897500  0.858800  0.430600  1.0  0.1153
  H  H81  1  0.071200  0.746200  0.417000  1.0  0.1022
  H  H82  1  0.979700  0.674900  0.373700  1.0  0.1199
  H  H83  1  0.948900  0.518900  0.887200  1.0  0.0896
  H  H84  1  0.967300  0.438600  0.636100  1.0  0.129
  H  H85  1  0.888300  0.381900  0.749500  1.0  0.1096
  H  H86  1  0.046400  0.530600  0.652100  1.0  0.1097
  H  H87  1  0.057700  0.553200  0.759400  1.0  0.0731
  H  H88  1  0.982600  0.728600  0.654000  1.0  0.1005
  H  H89  1  0.850100  0.719500  0.623300  1.0  0.1026
  H  H90  1  0.793500  0.631500  0.624800  1.0  0.0998
  H  H91  1  0.867800  0.554000  0.667900  1.0  0.086
  H  H92  1  0.101200  0.694600  0.707400  1.0  0.1108
  H  H93  1  0.102800  0.637500  0.765100  1.0  0.0885
  H  H94  1  0.234500  0.605700  0.695400  1.0  0.0886
  H  H95  1  0.188500  0.598500  0.417100  1.0  0.1035
  H  H96  1  0.076700  0.641100  0.499400  1.0  0.1153
  H  H97  1  0.728300  0.513700  0.798400  1.0  0.0902
  H  H98  1  0.727900  0.590800  0.903000  1.0  0.1231
  H  H99  1  0.601100  0.676000  0.705900  1.0  0.1143
  H  H100  1  0.601400  0.598500  0.603800  1.0  0.089
  H  H101  1  0.689500  0.787900  0.901200  1.0  0.0917
  H  H102  1  0.602500  0.858800  0.930600  1.0  0.1152
  H  H103  1  0.428800  0.746200  0.917000  1.0  0.1021
  H  H104  1  0.520300  0.674900  0.873700  1.0  0.1197
  H  H105  1  0.551100  0.518900  0.387200  1.0  0.0896
  H  H106  1  0.532700  0.438600  0.136100  1.0  0.1292
  H  H107  1  0.611700  0.381900  0.249500  1.0  0.1105
  H  H108  1  0.453600  0.530600  0.152100  1.0  0.1094
  H  H109  1  0.442300  0.553200  0.259400  1.0  0.0736
  H  H110  1  0.517400  0.728600  0.154000  1.0  0.1003
  H  H111  1  0.649900  0.719500  0.123300  1.0  0.1027
  H  H112  1  0.706500  0.631500  0.124800  1.0  0.0993
  H  H113  1  0.632200  0.554000  0.167900  1.0  0.0863
  H  H114  1  0.398800  0.694600  0.207400  1.0  0.1114
  H  H115  1  0.397200  0.637500  0.265100  1.0  0.089
  H  H116  1  0.265500  0.605700  0.195400  1.0  0.089
  H  H117  1  0.311500  0.598500  0.917100  1.0  0.1038
  H  H118  1  0.423300  0.641100  0.999400  1.0  0.1145
  H  H119  1  0.771700  0.986300  0.798400  1.0  0.09
  H  H120  1  0.772100  0.909200  0.903000  1.0  0.1234
  H  H121  1  0.898900  0.824000  0.705900  1.0  0.1144
  H  H122  1  0.898600  0.901500  0.603800  1.0  0.0889
  H  H123  1  0.810500  0.712100  0.901200  1.0  0.0918
  H  H124  1  0.897500  0.641200  0.930600  1.0  0.1151
  H  H125  1  0.071200  0.753800  0.917000  1.0  0.1022
  H  H126  1  0.979700  0.825100  0.873700  1.0  0.1199
  H  H127  1  0.948900  0.981100  0.387200  1.0  0.0895
  H  H128  1  0.967300  0.061400  0.136100  1.0  0.1291
  H  H129  1  0.888300  0.118100  0.249500  1.0  0.1107
  H  H130  1  0.046400  0.969400  0.152100  1.0  0.1096
  H  H131  1  0.057700  0.946800  0.259400  1.0  0.0731
  H  H132  1  0.982600  0.771400  0.154000  1.0  0.101
  H  H133  1  0.850100  0.780500  0.123300  1.0  0.1025
  H  H134  1  0.793500  0.868500  0.124800  1.0  0.0998
  H  H135  1  0.867800  0.946000  0.167900  1.0  0.0862
  H  H136  1  0.101200  0.805400  0.207400  1.0  0.1106
  H  H137  1  0.102800  0.862500  0.265100  1.0  0.0889
  H  H138  1  0.234500  0.894300  0.195400  1.0  0.0885
  H  H139  1  0.188500  0.901500  0.917100  1.0  0.1034
  H  H140  1  0.076700  0.858900  0.999400  1.0  0.1148
  H  H141  1  0.271700  0.013700  0.701600  1.0  0.0899
  H  H142  1  0.272100  0.090800  0.597000  1.0  0.1236
  H  H143  1  0.398900  0.176000  0.794100  1.0  0.114
  H  H144  1  0.398600  0.098500  0.896200  1.0  0.0886
  H  H145  1  0.310500  0.287900  0.598800  1.0  0.0916
  H  H146  1  0.397500  0.358800  0.569400  1.0  0.1154
  H  H147  1  0.571200  0.246200  0.583000  1.0  0.1022
  H  H148  1  0.479700  0.174900  0.626300  1.0  0.1196
  H  H149  1  0.448900  0.018900  0.112800  1.0  0.0898
  H  H150  1  0.467300  0.938600  0.363900  1.0  0.1286
  H  H151  1  0.388300  0.881900  0.250500  1.0  0.1101
  H  H152  1  0.546400  0.030600  0.347900  1.0  0.1114
  H  H153  1  0.557700  0.053200  0.240600  1.0  0.0733
  H  H154  1  0.482600  0.228600  0.346000  1.0  0.1004
  H  H155  1  0.350100  0.219500  0.376700  1.0  0.1026
  H  H156  1  0.293500  0.131500  0.375200  1.0  0.0997
  H  H157  1  0.367800  0.054000  0.332100  1.0  0.0863
  H  H158  1  0.601200  0.194600  0.292600  1.0  0.111
  H  H159  1  0.602800  0.137500  0.234900  1.0  0.0884
  H  H160  1  0.734500  0.105700  0.304600  1.0  0.0882
  H  H161  1  0.688500  0.098500  0.582900  1.0  0.1038
  H  H162  1  0.576700  0.141100  0.500600  1.0  0.115
  H  H163  1  0.228300  0.486300  0.701600  1.0  0.09
  H  H164  1  0.227900  0.409200  0.597000  1.0  0.1231
  H  H165  1  0.101100  0.324000  0.794100  1.0  0.1144
  H  H166  1  0.101400  0.401500  0.896200  1.0  0.0884
  H  H167  1  0.189500  0.212100  0.598800  1.0  0.0918
  H  H168  1  0.102500  0.141200  0.569400  1.0  0.115
  H  H169  1  0.928800  0.253800  0.583000  1.0  0.1023
  H  H170  1  0.020300  0.325100  0.626300  1.0  0.1195
  H  H171  1  0.051100  0.481100  0.112800  1.0  0.0899
  H  H172  1  0.032700  0.561400  0.363900  1.0  0.1288
  H  H173  1  0.111700  0.618100  0.250500  1.0  0.1103
  H  H174  1  0.953600  0.469400  0.347900  1.0  0.1101
  H  H175  1  0.942300  0.446800  0.240600  1.0  0.0738
  H  H176  1  0.017400  0.271400  0.346000  1.0  0.1009
  H  H177  1  0.149900  0.280500  0.376700  1.0  0.1029
  H  H178  1  0.206500  0.368500  0.375200  1.0  0.0997
  H  H179  1  0.132200  0.446000  0.332100  1.0  0.086
  H  H180  1  0.898800  0.305400  0.292600  1.0  0.1102
  H  H181  1  0.897200  0.362500  0.234900  1.0  0.0892
  H  H182  1  0.765500  0.394300  0.304600  1.0  0.0884
  H  H183  1  0.811500  0.401500  0.582900  1.0  0.1039
  H  H184  1  0.923300  0.358900  0.500600  1.0  0.1149
  C  C185  1  0.333400  0.451600  0.309900  1.0  -0.1615
  C  C186  1  0.297100  0.453600  0.220600  1.0  -0.0344
  C  C187  1  0.297400  0.407500  0.157400  1.0  -0.2174
  C  C188  1  0.335600  0.359400  0.185900  1.0  0.2937
  C  C189  1  0.373300  0.356700  0.275200  1.0  -0.2485
  C  C190  1  0.372500  0.402900  0.336400  1.0  -0.0159
  C  C191  1  0.332200  0.500600  0.376900  1.0  0.6616
  C  C192  1  0.386600  0.274500  0.112700  1.0  0.2925
  C  C193  1  0.363300  0.220300  0.096600  1.0  -0.1439
  C  C194  1  0.414500  0.178000  0.077500  1.0  -0.0986
  C  C195  1  0.492000  0.191400  0.070500  1.0  -0.1429
  C  C196  1  0.518500  0.245500  0.087400  1.0  -0.0434
  C  C197  1  0.463500  0.288700  0.111700  1.0  -0.1934
  C  C198  1  0.551500  0.142700  0.041800  1.0  0.6362
  C  C199  1  0.442900  0.508100  0.661600  1.0  0.1512
  C  C200  1  0.453700  0.551800  0.799900  1.0  -0.1674
  C  C201  1  0.409900  0.583200  0.736600  1.0  -0.0007
  C  C202  1  0.519100  0.457400  0.789200  1.0  -0.0834
  C  C203  1  0.469400  0.405900  0.813900  1.0  0.0443
  C  C204  1  0.504900  0.353500  0.818900  1.0  0.0088
  C  C205  1  0.459500  0.306700  0.842900  1.0  -0.0943
  C  C206  1  0.379800  0.312100  0.862300  1.0  -0.1046
  C  C207  1  0.345900  0.364300  0.860100  1.0  -0.0998
  C  C208  1  0.391000  0.410800  0.834900  1.0  -0.1044
  C  C209  1  0.590200  0.345300  0.797600  1.0  -0.102
  C  C210  1  0.709200  0.390900  0.864700  1.0  0.1511
  C  C211  1  0.684700  0.394700  0.015700  1.0  0.0254
  C  C212  1  0.622100  0.371400  0.970600  1.0  -0.1525
  C  C213  1  0.166600  0.048400  0.309900  1.0  -0.1615
  C  C214  1  0.202900  0.046400  0.220600  1.0  -0.0359
  C  C215  1  0.202600  0.092500  0.157400  1.0  -0.2178
  C  C216  1  0.164400  0.140600  0.185900  1.0  0.2935
  C  C217  1  0.126700  0.143300  0.275200  1.0  -0.2492
  C  C218  1  0.127500  0.097100  0.336400  1.0  -0.0149
  C  C219  1  0.167800  0.999400  0.376900  1.0  0.6618
  C  C220  1  0.113400  0.225500  0.112700  1.0  0.2921
  C  C221  1  0.136700  0.279700  0.096600  1.0  -0.1437
  C  C222  1  0.085500  0.322000  0.077500  1.0  -0.1001
  C  C223  1  0.008000  0.308600  0.070500  1.0  -0.1442
  C  C224  1  0.981500  0.254500  0.087400  1.0  -0.0414
  C  C225  1  0.036500  0.211300  0.111700  1.0  -0.1927
  C  C226  1  0.948500  0.357300  0.041800  1.0  0.6366
  C  C227  1  0.057100  0.991900  0.661600  1.0  0.1502
  C  C228  1  0.046300  0.948200  0.799900  1.0  -0.1675
  C  C229  1  0.090100  0.916800  0.736600  1.0  -0.0013
  C  C230  1  0.980900  0.042600  0.789200  1.0  -0.0816
  C  C231  1  0.030600  0.094100  0.813900  1.0  0.0446
  C  C232  1  0.995100  0.146500  0.818900  1.0  0.0086
  C  C233  1  0.040500  0.193300  0.842900  1.0  -0.0957
  C  C234  1  0.120200  0.187900  0.862300  1.0  -0.1033
  C  C235  1  0.154100  0.135700  0.860100  1.0  -0.0989
  C  C236  1  0.109000  0.089200  0.834900  1.0  -0.1044
  C  C237  1  0.909800  0.154700  0.797600  1.0  -0.1011
  C  C238  1  0.790800  0.109100  0.864700  1.0  0.1478
  C  C239  1  0.815300  0.105300  0.015700  1.0  0.0246
  C  C240  1  0.877900  0.128600  0.970600  1.0  -0.1524
  C  C241  1  0.666667  0.951600  0.190100  1.0  -0.1841
  C  C242  1  0.702900  0.953600  0.279400  1.0  -0.0311
  C  C243  1  0.702600  0.907500  0.342600  1.0  -0.2172
  C  C244  1  0.664400  0.859400  0.314100  1.0  0.2935
  C  C245  1  0.626700  0.856700  0.224800  1.0  -0.2492
  C  C246  1  0.627500  0.902900  0.163600  1.0  -0.0159
  C  C247  1  0.667800  0.000600  0.123100  1.0  0.6621
  C  C248  1  0.613400  0.774500  0.387300  1.0  0.2919
  C  C249  1  0.636700  0.720300  0.403400  1.0  -0.1444
  C  C250  1  0.585500  0.678000  0.422500  1.0  -0.0999
  C  C251  1  0.508000  0.691400  0.429500  1.0  -0.1443
  C  C252  1  0.481500  0.745500  0.412600  1.0  -0.0406
  C  C253  1  0.536500  0.788700  0.388300  1.0  -0.1925
  C  C254  1  0.448500  0.642700  0.458200  1.0  0.6367
  C  C255  1  0.557100  0.008100  0.838400  1.0  0.1502
  C  C256  1  0.546300  0.051800  0.700100  1.0  -0.1694
  C  C257  1  0.590100  0.083200  0.763400  1.0  -0.0005
  C  C258  1  0.480900  0.957400  0.710800  1.0  -0.0818
  C  C259  1  0.530600  0.905900  0.686100  1.0  0.0434
  C  C260  1  0.495100  0.853500  0.681100  1.0  0.0087
  C  C261  1  0.540500  0.806700  0.657100  1.0  -0.0945
  C  C262  1  0.620200  0.812100  0.637700  1.0  -0.1046
  C  C263  1  0.654100  0.864300  0.639900  1.0  -0.0995
  C  C264  1  0.609000  0.910800  0.665100  1.0  -0.105
  C  C265  1  0.409800  0.845300  0.702400  1.0  -0.1054
  C  C266  1  0.290800  0.890900  0.635300  1.0  0.149
  C  C267  1  0.315300  0.894700  0.484300  1.0  0.0242
  C  C268  1  0.377900  0.871400  0.529400  1.0  -0.1532
  C  C269  1  0.833400  0.548400  0.190100  1.0  -0.1615
  C  C270  1  0.797100  0.546400  0.279400  1.0  -0.0358
  C  C271  1  0.797400  0.592500  0.342600  1.0  -0.2177
  C  C272  1  0.835600  0.640600  0.314100  1.0  0.2931
  C  C273  1  0.873300  0.643300  0.224800  1.0  -0.2486
  C  C274  1  0.872500  0.597100  0.163600  1.0  -0.0175
  C  C275  1  0.832200  0.499400  0.123100  1.0  0.6625
  C  C276  1  0.886600  0.725500  0.387300  1.0  0.2925
  C  C277  1  0.863300  0.779700  0.403400  1.0  -0.1442
  C  C278  1  0.914500  0.822000  0.422500  1.0  -0.0985
  C  C279  1  0.992000  0.808600  0.429500  1.0  -0.1427
  C  C280  1  0.018500  0.754500  0.412600  1.0  -0.0428
  C  C281  1  0.963500  0.711300  0.388300  1.0  -0.1929
  C  C282  1  0.051500  0.857300  0.458200  1.0  0.6371
  C  C283  1  0.942900  0.491900  0.838400  1.0  0.1502
  C  C284  1  0.953700  0.448200  0.700100  1.0  -0.1689
  C  C285  1  0.909900  0.416800  0.763400  1.0  -0.0013
  C  C286  1  0.019100  0.542600  0.710800  1.0  -0.0838
  C  C287  1  0.969400  0.594100  0.686100  1.0  0.0431
  C  C288  1  0.004900  0.646500  0.681100  1.0  0.0092
  C  C289  1  0.959500  0.693300  0.657100  1.0  -0.0957
  C  C290  1  0.879800  0.687900  0.637700  1.0  -0.1037
  C  C291  1  0.845900  0.635700  0.639900  1.0  -0.1008
  C  C292  1  0.891000  0.589200  0.665100  1.0  -0.1045
  C  C293  1  0.090200  0.654700  0.702400  1.0  -0.1054
  C  C294  1  0.209200  0.609100  0.635300  1.0  0.1516
  C  C295  1  0.184700  0.605300  0.484300  1.0  0.0249
  C  C296  1  0.122100  0.628600  0.529400  1.0  -0.1529
  C  C297  1  0.666667  0.548400  0.690100  1.0  -0.1846
  C  C298  1  0.702900  0.546400  0.779400  1.0  -0.0324
  C  C299  1  0.702600  0.592500  0.842600  1.0  -0.2171
  C  C300  1  0.664400  0.640600  0.814100  1.0  0.2931
  C  C301  1  0.626700  0.643300  0.724800  1.0  -0.249
  C  C302  1  0.627500  0.597100  0.663600  1.0  -0.0163
  C  C303  1  0.667800  0.499400  0.623100  1.0  0.6622
  C  C304  1  0.613400  0.725500  0.887300  1.0  0.2921
  C  C305  1  0.636700  0.779700  0.903400  1.0  -0.144
  C  C306  1  0.585500  0.822000  0.922500  1.0  -0.0994
  C  C307  1  0.508000  0.808600  0.929500  1.0  -0.1439
  C  C308  1  0.481500  0.754500  0.912600  1.0  -0.0411
  C  C309  1  0.536500  0.711300  0.888300  1.0  -0.1927
  C  C310  1  0.448500  0.857300  0.958200  1.0  0.6371
  C  C311  1  0.557100  0.491900  0.338400  1.0  0.1499
  C  C312  1  0.546300  0.448200  0.200100  1.0  -0.1692
  C  C313  1  0.590100  0.416800  0.263400  1.0  -0.0025
  C  C314  1  0.480900  0.542600  0.210800  1.0  -0.0817
  C  C315  1  0.530600  0.594100  0.186100  1.0  0.0433
  C  C316  1  0.495100  0.646500  0.181100  1.0  0.0086
  C  C317  1  0.540500  0.693300  0.157100  1.0  -0.0959
  C  C318  1  0.620200  0.687900  0.137700  1.0  -0.1036
  C  C319  1  0.654100  0.635700  0.139900  1.0  -0.0995
  C  C320  1  0.609000  0.589200  0.165100  1.0  -0.105
  C  C321  1  0.409800  0.654700  0.202400  1.0  -0.1042
  C  C322  1  0.290800  0.609100  0.135300  1.0  0.149
  C  C323  1  0.315300  0.605300  0.984300  1.0  0.0242
  C  C324  1  0.377900  0.628600  0.029400  1.0  -0.153
  C  C325  1  0.833400  0.951600  0.690100  1.0  -0.1608
  C  C326  1  0.797100  0.953600  0.779400  1.0  -0.0342
  C  C327  1  0.797400  0.907500  0.842600  1.0  -0.2177
  C  C328  1  0.835600  0.859400  0.814100  1.0  0.2935
  C  C329  1  0.873300  0.856700  0.724800  1.0  -0.2487
  C  C330  1  0.872500  0.902900  0.663600  1.0  -0.0174
  C  C331  1  0.832200  0.000600  0.623100  1.0  0.6624
  C  C332  1  0.886600  0.774500  0.887300  1.0  0.2925
  C  C333  1  0.863300  0.720300  0.903400  1.0  -0.1444
  C  C334  1  0.914500  0.678000  0.922500  1.0  -0.0987
  C  C335  1  0.992000  0.691400  0.929500  1.0  -0.1433
  C  C336  1  0.018500  0.745500  0.912600  1.0  -0.043
  C  C337  1  0.963500  0.788700  0.888300  1.0  -0.1931
  C  C338  1  0.051500  0.642700  0.958200  1.0  0.6365
  C  C339  1  0.942900  0.008100  0.338400  1.0  0.1505
  C  C340  1  0.953700  0.051800  0.200100  1.0  -0.1692
  C  C341  1  0.909900  0.083200  0.263400  1.0  -0.0011
  C  C342  1  0.019100  0.957400  0.210800  1.0  -0.083
  C  C343  1  0.969400  0.905900  0.186100  1.0  0.0433
  C  C344  1  0.004900  0.853500  0.181100  1.0  0.0088
  C  C345  1  0.959500  0.806700  0.157100  1.0  -0.0945
  C  C346  1  0.879800  0.812100  0.137700  1.0  -0.105
  C  C347  1  0.845900  0.864300  0.139900  1.0  -0.1006
  C  C348  1  0.891000  0.910800  0.165100  1.0  -0.1042
  C  C349  1  0.090200  0.845300  0.202400  1.0  -0.106
  C  C350  1  0.209200  0.890900  0.135300  1.0  0.1513
  C  C351  1  0.184700  0.894700  0.984300  1.0  0.025
  C  C352  1  0.122100  0.871400  0.029400  1.0  -0.153
  C  C353  1  0.333400  0.048400  0.809900  1.0  -0.1614
  C  C354  1  0.297100  0.046400  0.720600  1.0  -0.0355
  C  C355  1  0.297400  0.092500  0.657400  1.0  -0.2174
  C  C356  1  0.335600  0.140600  0.685900  1.0  0.2937
  C  C357  1  0.373300  0.143300  0.775200  1.0  -0.2486
  C  C358  1  0.372500  0.097100  0.836400  1.0  -0.0161
  C  C359  1  0.332200  0.999400  0.876900  1.0  0.6619
  C  C360  1  0.386600  0.225500  0.612700  1.0  0.2925
  C  C361  1  0.363300  0.279700  0.596600  1.0  -0.1438
  C  C362  1  0.414500  0.322000  0.577500  1.0  -0.0993
  C  C363  1  0.492000  0.308600  0.570500  1.0  -0.1421
  C  C364  1  0.518500  0.254500  0.587400  1.0  -0.0433
  C  C365  1  0.463500  0.211300  0.611700  1.0  -0.1929
  C  C366  1  0.551500  0.357300  0.541800  1.0  0.6366
  C  C367  1  0.442900  0.991900  0.161600  1.0  0.1503
  C  C368  1  0.453700  0.948200  0.299900  1.0  -0.1668
  C  C369  1  0.409900  0.916800  0.236600  1.0  -0.0018
  C  C370  1  0.519100  0.042600  0.289200  1.0  -0.0836
  C  C371  1  0.469400  0.094100  0.313900  1.0  0.0443
  C  C372  1  0.504900  0.146500  0.318900  1.0  0.0093
  C  C373  1  0.459500  0.193300  0.342900  1.0  -0.0955
  C  C374  1  0.379800  0.187900  0.362300  1.0  -0.1035
  C  C375  1  0.345900  0.135700  0.360100  1.0  -0.1
  C  C376  1  0.391000  0.089200  0.334900  1.0  -0.1042
  C  C377  1  0.590200  0.154700  0.297600  1.0  -0.1026
  C  C378  1  0.709200  0.109100  0.364700  1.0  0.1515
  C  C379  1  0.684700  0.105300  0.515700  1.0  0.0253
  C  C380  1  0.622100  0.128600  0.470600  1.0  -0.1524
  C  C381  1  0.166600  0.451600  0.809900  1.0  -0.1614
  C  C382  1  0.202900  0.453600  0.720600  1.0  -0.0353
  C  C383  1  0.202600  0.407500  0.657400  1.0  -0.2178
  C  C384  1  0.164400  0.359400  0.685900  1.0  0.2935
  C  C385  1  0.126700  0.356700  0.775200  1.0  -0.2492
  C  C386  1  0.127500  0.402900  0.836400  1.0  -0.0145
  C  C387  1  0.167800  0.500600  0.876900  1.0  0.6617
  C  C388  1  0.113400  0.274500  0.612700  1.0  0.292
  C  C389  1  0.136700  0.220300  0.596600  1.0  -0.1441
  C  C390  1  0.085500  0.178000  0.577500  1.0  -0.0998
  C  C391  1  0.008000  0.191400  0.570500  1.0  -0.1449
  C  C392  1  0.981500  0.245500  0.587400  1.0  -0.0407
  C  C393  1  0.036500  0.288700  0.611700  1.0  -0.1927
  C  C394  1  0.948500  0.142700  0.541800  1.0  0.6365
  C  C395  1  0.057100  0.508100  0.161600  1.0  0.1511
  C  C396  1  0.046300  0.551800  0.299900  1.0  -0.1677
  C  C397  1  0.090100  0.583200  0.236600  1.0  -0.0013
  C  C398  1  0.980900  0.457400  0.289200  1.0  -0.0821
  C  C399  1  0.030600  0.405900  0.313900  1.0  0.0444
  C  C400  1  0.995100  0.353500  0.318900  1.0  0.0086
  C  C401  1  0.040500  0.306700  0.342900  1.0  -0.0945
  C  C402  1  0.120200  0.312100  0.362300  1.0  -0.1041
  C  C403  1  0.154100  0.364300  0.360100  1.0  -0.0989
  C  C404  1  0.109000  0.410800  0.334900  1.0  -0.1047
  C  C405  1  0.909800  0.345300  0.297600  1.0  -0.1011
  C  C406  1  0.790800  0.390900  0.364700  1.0  0.1478
  C  C407  1  0.815300  0.394700  0.515700  1.0  0.0245
  C  C408  1  0.877900  0.371400  0.470600  1.0  -0.1522
  N  N409  1  0.403100  0.554960  0.650200  1.0  -0.3645
  N  N410  1  0.473700  0.504030  0.751400  1.0  0.0485
  N  N411  1  0.638500  0.369940  0.874500  1.0  0.0737
  N  N412  1  0.740300  0.406450  0.949200  1.0  -0.41
  N  N413  1  0.096900  0.945040  0.650200  1.0  -0.3619
  N  N414  1  0.026300  0.995970  0.751400  1.0  0.0494
  N  N415  1  0.861500  0.130060  0.874500  1.0  0.0728
  N  N416  1  0.759700  0.093550  0.949200  1.0  -0.4119
  N  N417  1  0.596900  0.054960  0.849800  1.0  -0.3612
  N  N418  1  0.526300  0.004030  0.748600  1.0  0.0492
  N  N419  1  0.361500  0.869940  0.625500  1.0  0.0734
  N  N420  1  0.259700  0.906450  0.550800  1.0  -0.4107
  N  N421  1  0.903100  0.445040  0.849800  1.0  -0.3628
  N  N422  1  0.973700  0.495970  0.748600  1.0  0.0491
  N  N423  1  0.138500  0.630060  0.625500  1.0  0.0729
  N  N424  1  0.240300  0.593550  0.550800  1.0  -0.4104
  N  N425  1  0.596900  0.445040  0.349800  1.0  -0.3596
  N  N426  1  0.526300  0.495970  0.248600  1.0  0.0495
  N  N427  1  0.361500  0.630060  0.125500  1.0  0.0733
  N  N428  1  0.259700  0.593550  0.050800  1.0  -0.4117
  N  N429  1  0.903100  0.054960  0.349800  1.0  -0.3642
  N  N430  1  0.973700  0.004030  0.248600  1.0  0.0487
  N  N431  1  0.138500  0.869940  0.125500  1.0  0.0731
  N  N432  1  0.240300  0.906450  0.050800  1.0  -0.4101
  N  N433  1  0.403100  0.945040  0.150200  1.0  -0.3644
  N  N434  1  0.473700  0.995970  0.251400  1.0  0.0489
  N  N435  1  0.638500  0.130060  0.374500  1.0  0.0729
  N  N436  1  0.740300  0.093550  0.449200  1.0  -0.4102
  N  N437  1  0.096900  0.554960  0.150200  1.0  -0.3621
  N  N438  1  0.026300  0.504030  0.251400  1.0  0.0492
  N  N439  1  0.861500  0.369940  0.374500  1.0  0.0736
  N  N440  1  0.759700  0.406450  0.449200  1.0  -0.411
  O  O441  1  0.357100  0.493560  0.465600  1.0  -0.6095
  O  O442  1  0.309200  0.548210  0.348900  1.0  -0.6133
  O  O443  1  0.528000  0.094600  0.047700  1.0  -0.583
  O  O444  1  0.614300  0.158100  0.018900  1.0  -0.547
  O  O445  1  0.327500  0.313640  0.123800  1.0  -0.2562
  O  O446  1  0.142900  0.006440  0.465600  1.0  -0.6092
  O  O447  1  0.190800  0.951790  0.348900  1.0  -0.6133
  O  O448  1  0.972000  0.405400  0.047700  1.0  -0.5832
  O  O449  1  0.885700  0.341900  0.018900  1.0  -0.547
  O  O450  1  0.172500  0.186360  0.123800  1.0  -0.2565
  O  O451  1  0.642900  0.993560  0.034400  1.0  -0.6097
  O  O452  1  0.690800  0.048210  0.151100  1.0  -0.6139
  O  O453  1  0.472000  0.594600  0.452300  1.0  -0.5825
  O  O454  1  0.385700  0.658100  0.481100  1.0  -0.5468
  O  O455  1  0.672500  0.813640  0.376200  1.0  -0.256
  O  O456  1  0.857100  0.506440  0.034400  1.0  -0.6092
  O  O457  1  0.809200  0.451790  0.151100  1.0  -0.6131
  O  O458  1  0.028000  0.905400  0.452300  1.0  -0.5839
  O  O459  1  0.114300  0.841900  0.481100  1.0  -0.5475
  O  O460  1  0.827500  0.686360  0.376200  1.0  -0.2552
  O  O461  1  0.642900  0.506440  0.534400  1.0  -0.6093
  O  O462  1  0.690800  0.451790  0.651100  1.0  -0.61
  O  O463  1  0.472000  0.905400  0.952300  1.0  -0.5832
  O  O464  1  0.385700  0.841900  0.981100  1.0  -0.5458
  O  O465  1  0.672500  0.686360  0.876200  1.0  -0.256
  O  O466  1  0.857100  0.993560  0.534400  1.0  -0.6095
  O  O467  1  0.809200  0.048210  0.651100  1.0  -0.6094
  O  O468  1  0.028000  0.594600  0.952300  1.0  -0.5833
  O  O469  1  0.114300  0.658100  0.981100  1.0  -0.5474
  O  O470  1  0.827500  0.813640  0.876200  1.0  -0.2551
  O  O471  1  0.357100  0.006440  0.965600  1.0  -0.6095
  O  O472  1  0.309200  0.951790  0.848900  1.0  -0.6091
  O  O473  1  0.528000  0.405400  0.547700  1.0  -0.5837
  O  O474  1  0.614300  0.341900  0.518900  1.0  -0.548
  O  O475  1  0.327500  0.186360  0.623800  1.0  -0.2563
  O  O476  1  0.142900  0.493560  0.965600  1.0  -0.6092
  O  O477  1  0.190800  0.548210  0.848900  1.0  -0.61
  O  O478  1  0.972000  0.094600  0.547700  1.0  -0.5823
  O  O479  1  0.885700  0.158100  0.518900  1.0  -0.5471
  O  O480  1  0.172500  0.313640  0.623800  1.0  -0.2567
