# generated using pymatgen
data_Zn3H12(C2O)16
_symmetry_space_group_name_H-M   'P 1'
_cell_length_a   38.02700000
_cell_length_b   19.03000000
_cell_length_c   19.75150000
_cell_angle_alpha   90.00000000
_cell_angle_beta   104.12300000
_cell_angle_gamma   90.00000000
_symmetry_Int_Tables_number   1
_chemical_formula_structural   Zn3H12(C2O)16
_chemical_formula_sum   'Zn24 H96 C256 O128'
_cell_volume   13861.22256278
_cell_formula_units_Z   8
loop_
 _symmetry_equiv_pos_site_id
 _symmetry_equiv_pos_as_xyz
  1  'x, y, z'
loop_
 _atom_site_type_symbol
 _atom_site_label
 _atom_site_symmetry_multiplicity
 _atom_site_fract_x
 _atom_site_fract_y
 _atom_site_fract_z
 _atom_site_occupancy
 _atom_site_charge
  Zn  Zn1  1  0.901160  0.388900  0.088910  1.0  1.0957
  Zn  Zn2  1  0.893030  0.109000  0.203440  1.0  1.0103
  Zn  Zn3  1  0.811000  0.410660  0.051210  1.0  1.0283
  Zn  Zn4  1  0.401160  0.888900  0.088910  1.0  1.0957
  Zn  Zn5  1  0.393030  0.609000  0.203440  1.0  1.0103
  Zn  Zn6  1  0.311000  0.910660  0.051210  1.0  1.0283
  Zn  Zn7  1  0.098840  0.388900  0.411090  1.0  1.0969
  Zn  Zn8  1  0.106970  0.109000  0.296560  1.0  1.0111
  Zn  Zn9  1  0.189000  0.410660  0.448790  1.0  1.0278
  Zn  Zn10  1  0.598840  0.888900  0.411090  1.0  1.0969
  Zn  Zn11  1  0.606970  0.609000  0.296560  1.0  1.0111
  Zn  Zn12  1  0.689000  0.910660  0.448790  1.0  1.0278
  Zn  Zn13  1  0.098840  0.611100  0.911090  1.0  1.0974
  Zn  Zn14  1  0.106970  0.891000  0.796560  1.0  1.0109
  Zn  Zn15  1  0.189000  0.589340  0.948790  1.0  1.0292
  Zn  Zn16  1  0.598840  0.111100  0.911090  1.0  1.0974
  Zn  Zn17  1  0.606970  0.391000  0.796560  1.0  1.0109
  Zn  Zn18  1  0.689000  0.089340  0.948790  1.0  1.0292
  Zn  Zn19  1  0.901160  0.611100  0.588910  1.0  1.0963
  Zn  Zn20  1  0.893030  0.891000  0.703440  1.0  1.0097
  Zn  Zn21  1  0.811000  0.589340  0.551210  1.0  1.0288
  Zn  Zn22  1  0.401160  0.111100  0.588910  1.0  1.0963
  Zn  Zn23  1  0.393030  0.391000  0.703440  1.0  1.0097
  Zn  Zn24  1  0.311000  0.089340  0.551210  1.0  1.0288
  H  H25  1  0.975600  0.981100  0.059800  1.0  0.1099
  H  H26  1  0.976400  0.939500  0.951000  1.0  0.1125
  H  H27  1  0.879200  0.029500  0.872900  1.0  0.1239
  H  H28  1  0.896000  0.176600  0.021900  1.0  0.1228
  H  H29  1  0.788700  0.198600  0.000100  1.0  0.1157
  H  H30  1  0.828800  0.019200  0.942100  1.0  0.1291
  H  H31  1  0.998500  0.284500  0.310700  1.0  0.1205
  H  H32  1  0.962200  0.473800  0.356200  1.0  0.1248
  H  H33  1  0.891200  0.326800  0.263500  1.0  0.126
  H  H34  1  0.909600  0.475600  0.417900  1.0  0.1251
  H  H35  1  0.812400  0.560900  0.336300  1.0  0.1212
  H  H36  1  0.812500  0.511100  0.228900  1.0  0.1212
  H  H37  1  0.475600  0.481100  0.059800  1.0  0.1099
  H  H38  1  0.476400  0.439500  0.951000  1.0  0.1125
  H  H39  1  0.379200  0.529500  0.872900  1.0  0.1239
  H  H40  1  0.396000  0.676600  0.021900  1.0  0.1228
  H  H41  1  0.288700  0.698600  0.000100  1.0  0.1157
  H  H42  1  0.328800  0.519200  0.942100  1.0  0.1274
  H  H43  1  0.498500  0.784500  0.310700  1.0  0.1205
  H  H44  1  0.462200  0.973800  0.356200  1.0  0.1248
  H  H45  1  0.391200  0.826800  0.263500  1.0  0.126
  H  H46  1  0.409600  0.975600  0.417900  1.0  0.1251
  H  H47  1  0.312400  0.060900  0.336300  1.0  0.1219
  H  H48  1  0.312500  0.011100  0.228900  1.0  0.1212
  H  H49  1  0.024400  0.981100  0.440200  1.0  0.1094
  H  H50  1  0.023600  0.939500  0.549000  1.0  0.1125
  H  H51  1  0.120800  0.029500  0.627100  1.0  0.1239
  H  H52  1  0.104000  0.176600  0.478100  1.0  0.1227
  H  H53  1  0.211300  0.198600  0.499900  1.0  0.116
  H  H54  1  0.171200  0.019200  0.557900  1.0  0.1275
  H  H55  1  0.001500  0.284500  0.189300  1.0  0.1208
  H  H56  1  0.037800  0.473800  0.143800  1.0  0.1252
  H  H57  1  0.108800  0.326800  0.236500  1.0  0.1247
  H  H58  1  0.090400  0.475600  0.082100  1.0  0.1251
  H  H59  1  0.187600  0.560900  0.163700  1.0  0.1218
  H  H60  1  0.187500  0.511100  0.271100  1.0  0.1211
  H  H61  1  0.524400  0.481100  0.440200  1.0  0.1094
  H  H62  1  0.523600  0.439500  0.549000  1.0  0.1125
  H  H63  1  0.620800  0.529500  0.627100  1.0  0.1239
  H  H64  1  0.604000  0.676600  0.478100  1.0  0.1227
  H  H65  1  0.711300  0.698600  0.499900  1.0  0.116
  H  H66  1  0.671200  0.519200  0.557900  1.0  0.1273
  H  H67  1  0.501500  0.784500  0.189300  1.0  0.1208
  H  H68  1  0.537800  0.973800  0.143800  1.0  0.1252
  H  H69  1  0.608800  0.826800  0.236500  1.0  0.1247
  H  H70  1  0.590400  0.975600  0.082100  1.0  0.1251
  H  H71  1  0.687600  0.060900  0.163700  1.0  0.1226
  H  H72  1  0.687500  0.011100  0.271100  1.0  0.1211
  H  H73  1  0.024400  0.018900  0.940200  1.0  0.11
  H  H74  1  0.023600  0.060500  0.049000  1.0  0.1127
  H  H75  1  0.120800  0.970500  0.127100  1.0  0.124
  H  H76  1  0.104000  0.823400  0.978100  1.0  0.123
  H  H77  1  0.211300  0.801400  0.999900  1.0  0.1158
  H  H78  1  0.171200  0.980800  0.057900  1.0  0.1281
  H  H79  1  0.001500  0.715500  0.689300  1.0  0.1207
  H  H80  1  0.037800  0.526200  0.643800  1.0  0.1253
  H  H81  1  0.108800  0.673200  0.736500  1.0  0.1251
  H  H82  1  0.090400  0.524400  0.582100  1.0  0.1251
  H  H83  1  0.187600  0.439100  0.663700  1.0  0.1218
  H  H84  1  0.187500  0.488900  0.771100  1.0  0.1212
  H  H85  1  0.524400  0.518900  0.940200  1.0  0.11
  H  H86  1  0.523600  0.560500  0.049000  1.0  0.1127
  H  H87  1  0.620800  0.470500  0.127100  1.0  0.124
  H  H88  1  0.604000  0.323400  0.978100  1.0  0.123
  H  H89  1  0.711300  0.301400  0.999900  1.0  0.1158
  H  H90  1  0.671200  0.480800  0.057900  1.0  0.1266
  H  H91  1  0.501500  0.215500  0.689300  1.0  0.1207
  H  H92  1  0.537800  0.026200  0.643800  1.0  0.1253
  H  H93  1  0.608800  0.173200  0.736500  1.0  0.1251
  H  H94  1  0.590400  0.024400  0.582100  1.0  0.1251
  H  H95  1  0.687600  0.939100  0.663700  1.0  0.1225
  H  H96  1  0.687500  0.988900  0.771100  1.0  0.1212
  H  H97  1  0.975600  0.018900  0.559800  1.0  0.1102
  H  H98  1  0.976400  0.060500  0.451000  1.0  0.1122
  H  H99  1  0.879200  0.970500  0.372900  1.0  0.1239
  H  H100  1  0.896000  0.823400  0.521900  1.0  0.1226
  H  H101  1  0.788700  0.801400  0.500100  1.0  0.116
  H  H102  1  0.828800  0.980800  0.442100  1.0  0.127
  H  H103  1  0.998500  0.715500  0.810700  1.0  0.1206
  H  H104  1  0.962200  0.526200  0.856200  1.0  0.1255
  H  H105  1  0.891200  0.673200  0.763500  1.0  0.1253
  H  H106  1  0.909600  0.524400  0.917900  1.0  0.1248
  H  H107  1  0.812400  0.439100  0.836300  1.0  0.1214
  H  H108  1  0.812500  0.488900  0.728900  1.0  0.121
  H  H109  1  0.475600  0.518900  0.559800  1.0  0.1102
  H  H110  1  0.476400  0.560500  0.451000  1.0  0.1122
  H  H111  1  0.379200  0.470500  0.372900  1.0  0.1239
  H  H112  1  0.396000  0.323400  0.521900  1.0  0.1226
  H  H113  1  0.288700  0.301400  0.500100  1.0  0.116
  H  H114  1  0.328800  0.480800  0.442100  1.0  0.1267
  H  H115  1  0.498500  0.215500  0.810700  1.0  0.1206
  H  H116  1  0.462200  0.026200  0.856200  1.0  0.1255
  H  H117  1  0.391200  0.173200  0.763500  1.0  0.1253
  H  H118  1  0.409600  0.024400  0.917900  1.0  0.1248
  H  H119  1  0.312400  0.939100  0.836300  1.0  0.1222
  H  H120  1  0.312500  0.988900  0.728900  1.0  0.121
  C  C121  1  0.930400  0.056700  0.104000  1.0  0.6946
  C  C122  1  0.928300  0.031900  0.032400  1.0  -0.0869
  C  C123  1  0.956400  0.991500  0.022000  1.0  -0.084
  C  C124  1  0.956800  0.966000  0.956800  1.0  -0.0662
  C  C125  1  0.928100  0.979700  0.899800  1.0  -0.1503
  C  C126  1  0.898770  0.020500  0.910500  1.0  -0.0883
  C  C127  1  0.898510  0.047000  0.974900  1.0  -0.0327
  C  C128  1  0.927800  0.953100  0.828400  1.0  0.7643
  C  C129  1  0.867030  0.090000  0.981500  1.0  0.0888
  C  C130  1  0.872580  0.158800  0.007900  1.0  -0.0113
  C  C131  1  0.843220  0.200400  0.013300  1.0  -0.141
  C  C132  1  0.808320  0.171800  0.994800  1.0  0.0412
  C  C133  1  0.802540  0.104900  0.968800  1.0  -0.1468
  C  C134  1  0.832640  0.064000  0.961200  1.0  -0.0584
  C  C135  1  0.848410  0.274100  0.041300  1.0  0.741
  C  C136  1  0.765600  0.073300  0.952000  1.0  0.6782
  C  C137  1  0.936080  0.224300  0.248000  1.0  0.7246
  C  C138  1  0.943890  0.295500  0.281300  1.0  -0.1163
  C  C139  1  0.979550  0.315600  0.310400  1.0  -0.0369
  C  C140  1  0.986910  0.383000  0.339400  1.0  -0.1511
  C  C141  1  0.957520  0.428400  0.338800  1.0  -0.0457
  C  C142  1  0.922140  0.407200  0.313100  1.0  0.0014
  C  C143  1  0.914960  0.340800  0.282700  1.0  -0.0018
  C  C144  1  0.024640  0.406000  0.368900  1.0  0.692
  C  C145  1  0.890950  0.453900  0.316600  1.0  -0.0062
  C  C146  1  0.890110  0.482900  0.379600  1.0  -0.0671
  C  C147  1  0.861000  0.522900  0.388000  1.0  -0.1463
  C  C148  1  0.831900  0.533800  0.331400  1.0  -0.0291
  C  C149  1  0.832100  0.504100  0.267000  1.0  -0.0745
  C  C150  1  0.861320  0.464000  0.259700  1.0  -0.0569
  C  C151  1  0.860400  0.552100  0.460000  1.0  0.7536
  C  C152  1  0.860300  0.436300  0.187500  1.0  0.7297
  C  C153  1  0.430400  0.556700  0.104000  1.0  0.6946
  C  C154  1  0.428300  0.531900  0.032400  1.0  -0.0869
  C  C155  1  0.456400  0.491500  0.022000  1.0  -0.084
  C  C156  1  0.456800  0.466000  0.956800  1.0  -0.0662
  C  C157  1  0.428100  0.479700  0.899800  1.0  -0.1503
  C  C158  1  0.398770  0.520500  0.910500  1.0  -0.0883
  C  C159  1  0.398510  0.547000  0.974900  1.0  -0.0327
  C  C160  1  0.427800  0.453100  0.828400  1.0  0.7643
  C  C161  1  0.367030  0.590000  0.981500  1.0  0.0888
  C  C162  1  0.372580  0.658800  0.007900  1.0  -0.0113
  C  C163  1  0.343220  0.700400  0.013300  1.0  -0.141
  C  C164  1  0.308320  0.671800  0.994800  1.0  0.0412
  C  C165  1  0.302540  0.604900  0.968800  1.0  -0.1468
  C  C166  1  0.332640  0.564000  0.961200  1.0  -0.0584
  C  C167  1  0.348410  0.774100  0.041300  1.0  0.741
  C  C168  1  0.265600  0.573300  0.952000  1.0  0.6782
  C  C169  1  0.436080  0.724300  0.248000  1.0  0.7246
  C  C170  1  0.443890  0.795500  0.281300  1.0  -0.1163
  C  C171  1  0.479550  0.815600  0.310400  1.0  -0.0369
  C  C172  1  0.486910  0.883000  0.339400  1.0  -0.1511
  C  C173  1  0.457520  0.928400  0.338800  1.0  -0.0457
  C  C174  1  0.422140  0.907200  0.313100  1.0  0.0014
  C  C175  1  0.414960  0.840800  0.282700  1.0  -0.0018
  C  C176  1  0.524640  0.906000  0.368900  1.0  0.692
  C  C177  1  0.390950  0.953900  0.316600  1.0  -0.0062
  C  C178  1  0.390110  0.982900  0.379600  1.0  -0.0671
  C  C179  1  0.361000  0.022900  0.388000  1.0  -0.1432
  C  C180  1  0.331900  0.033800  0.331400  1.0  -0.0308
  C  C181  1  0.332100  0.004100  0.267000  1.0  -0.0862
  C  C182  1  0.361320  0.964000  0.259700  1.0  -0.0569
  C  C183  1  0.360400  0.052100  0.460000  1.0  0.7417
  C  C184  1  0.360300  0.936300  0.187500  1.0  0.7297
  C  C185  1  0.069600  0.056700  0.396000  1.0  0.6962
  C  C186  1  0.071700  0.031900  0.467600  1.0  -0.0873
  C  C187  1  0.043600  0.991500  0.478000  1.0  -0.0843
  C  C188  1  0.043200  0.966000  0.543200  1.0  -0.0652
  C  C189  1  0.071900  0.979700  0.600200  1.0  -0.15
  C  C190  1  0.101230  0.020500  0.589500  1.0  -0.0868
  C  C191  1  0.101490  0.047000  0.525100  1.0  -0.0329
  C  C192  1  0.072200  0.953100  0.671600  1.0  0.7642
  C  C193  1  0.132970  0.090000  0.518500  1.0  0.0889
  C  C194  1  0.127420  0.158800  0.492100  1.0  -0.0112
  C  C195  1  0.156780  0.200400  0.486700  1.0  -0.1417
  C  C196  1  0.191680  0.171800  0.505200  1.0  0.0404
  C  C197  1  0.197460  0.104900  0.531200  1.0  -0.1468
  C  C198  1  0.167360  0.064000  0.538800  1.0  -0.0582
  C  C199  1  0.151590  0.274100  0.458700  1.0  0.7425
  C  C200  1  0.234400  0.073300  0.548000  1.0  0.6762
  C  C201  1  0.063920  0.224300  0.252000  1.0  0.7247
  C  C202  1  0.056110  0.295500  0.218700  1.0  -0.1177
  C  C203  1  0.020450  0.315600  0.189600  1.0  -0.0375
  C  C204  1  0.013090  0.383000  0.160600  1.0  -0.1483
  C  C205  1  0.042480  0.428400  0.161200  1.0  -0.0472
  C  C206  1  0.077860  0.407200  0.186900  1.0  0.0014
  C  C207  1  0.085040  0.340800  0.217300  1.0  -0.0026
  C  C208  1  0.975360  0.406000  0.131100  1.0  0.69
  C  C209  1  0.109050  0.453900  0.183400  1.0  -0.0065
  C  C210  1  0.109890  0.482900  0.120400  1.0  -0.0684
  C  C211  1  0.139000  0.522900  0.112000  1.0  -0.1444
  C  C212  1  0.168100  0.533800  0.168600  1.0  -0.0278
  C  C213  1  0.167900  0.504100  0.233000  1.0  -0.0737
  C  C214  1  0.138680  0.464000  0.240300  1.0  -0.0557
  C  C215  1  0.139600  0.552100  0.040000  1.0  0.754
  C  C216  1  0.139700  0.436300  0.312500  1.0  0.7298
  C  C217  1  0.569600  0.556700  0.396000  1.0  0.6962
  C  C218  1  0.571700  0.531900  0.467600  1.0  -0.0873
  C  C219  1  0.543600  0.491500  0.478000  1.0  -0.0843
  C  C220  1  0.543200  0.466000  0.543200  1.0  -0.0652
  C  C221  1  0.571900  0.479700  0.600200  1.0  -0.15
  C  C222  1  0.601230  0.520500  0.589500  1.0  -0.0868
  C  C223  1  0.601490  0.547000  0.525100  1.0  -0.0329
  C  C224  1  0.572200  0.453100  0.671600  1.0  0.7642
  C  C225  1  0.632970  0.590000  0.518500  1.0  0.0889
  C  C226  1  0.627420  0.658800  0.492100  1.0  -0.0112
  C  C227  1  0.656780  0.700400  0.486700  1.0  -0.1417
  C  C228  1  0.691680  0.671800  0.505200  1.0  0.0404
  C  C229  1  0.697460  0.604900  0.531200  1.0  -0.1468
  C  C230  1  0.667360  0.564000  0.538800  1.0  -0.0582
  C  C231  1  0.651590  0.774100  0.458700  1.0  0.7425
  C  C232  1  0.734400  0.573300  0.548000  1.0  0.6762
  C  C233  1  0.563920  0.724300  0.252000  1.0  0.7247
  C  C234  1  0.556110  0.795500  0.218700  1.0  -0.1177
  C  C235  1  0.520450  0.815600  0.189600  1.0  -0.0375
  C  C236  1  0.513090  0.883000  0.160600  1.0  -0.1483
  C  C237  1  0.542480  0.928400  0.161200  1.0  -0.0472
  C  C238  1  0.577860  0.907200  0.186900  1.0  0.0014
  C  C239  1  0.585040  0.840800  0.217300  1.0  -0.0026
  C  C240  1  0.475360  0.906000  0.131100  1.0  0.69
  C  C241  1  0.609050  0.953900  0.183400  1.0  -0.0065
  C  C242  1  0.609890  0.982900  0.120400  1.0  -0.0684
  C  C243  1  0.639000  0.022900  0.112000  1.0  -0.142
  C  C244  1  0.668100  0.033800  0.168600  1.0  -0.0301
  C  C245  1  0.667900  0.004100  0.233000  1.0  -0.0843
  C  C246  1  0.638680  0.964000  0.240300  1.0  -0.0557
  C  C247  1  0.639600  0.052100  0.040000  1.0  0.742
  C  C248  1  0.639700  0.936300  0.312500  1.0  0.7298
  C  C249  1  0.069600  0.943300  0.896000  1.0  0.6969
  C  C250  1  0.071700  0.968100  0.967600  1.0  -0.0873
  C  C251  1  0.043600  0.008500  0.978000  1.0  -0.0838
  C  C252  1  0.043200  0.034000  0.043200  1.0  -0.0659
  C  C253  1  0.071900  0.020300  0.100200  1.0  -0.1497
  C  C254  1  0.101230  0.979500  0.089500  1.0  -0.0867
  C  C255  1  0.101490  0.953000  0.025100  1.0  -0.0328
  C  C256  1  0.072200  0.046900  0.171600  1.0  0.765
  C  C257  1  0.132970  0.910000  0.018500  1.0  0.089
  C  C258  1  0.127420  0.841200  0.992100  1.0  -0.0102
  C  C259  1  0.156780  0.799600  0.986700  1.0  -0.1417
  C  C260  1  0.191680  0.828200  0.005200  1.0  0.0404
  C  C261  1  0.197460  0.895100  0.031200  1.0  -0.1473
  C  C262  1  0.167360  0.936000  0.038800  1.0  -0.0582
  C  C263  1  0.151590  0.725900  0.958700  1.0  0.7425
  C  C264  1  0.234400  0.926700  0.048000  1.0  0.6757
  C  C265  1  0.063920  0.775700  0.752000  1.0  0.7249
  C  C266  1  0.056110  0.704500  0.718700  1.0  -0.116
  C  C267  1  0.020450  0.684400  0.689600  1.0  -0.0367
  C  C268  1  0.013090  0.617000  0.660600  1.0  -0.1504
  C  C269  1  0.042480  0.571600  0.661200  1.0  -0.0473
  C  C270  1  0.077860  0.592800  0.686900  1.0  0.0011
  C  C271  1  0.085040  0.659200  0.717300  1.0  -0.0022
  C  C272  1  0.975360  0.594000  0.631100  1.0  0.6905
  C  C273  1  0.109050  0.546100  0.683400  1.0  -0.0064
  C  C274  1  0.109890  0.517100  0.620400  1.0  -0.0687
  C  C275  1  0.139000  0.477100  0.612000  1.0  -0.1452
  C  C276  1  0.168100  0.466200  0.668600  1.0  -0.0286
  C  C277  1  0.167900  0.495900  0.733000  1.0  -0.0734
  C  C278  1  0.138680  0.536000  0.740300  1.0  -0.0565
  C  C279  1  0.139600  0.447900  0.540000  1.0  0.7535
  C  C280  1  0.139700  0.563700  0.812500  1.0  0.7301
  C  C281  1  0.569600  0.443300  0.896000  1.0  0.6969
  C  C282  1  0.571700  0.468100  0.967600  1.0  -0.0873
  C  C283  1  0.543600  0.508500  0.978000  1.0  -0.0838
  C  C284  1  0.543200  0.534000  0.043200  1.0  -0.0659
  C  C285  1  0.571900  0.520300  0.100200  1.0  -0.1497
  C  C286  1  0.601230  0.479500  0.089500  1.0  -0.0867
  C  C287  1  0.601490  0.453000  0.025100  1.0  -0.0328
  C  C288  1  0.572200  0.546900  0.171600  1.0  0.765
  C  C289  1  0.632970  0.410000  0.018500  1.0  0.089
  C  C290  1  0.627420  0.341200  0.992100  1.0  -0.0102
  C  C291  1  0.656780  0.299600  0.986700  1.0  -0.1417
  C  C292  1  0.691680  0.328200  0.005200  1.0  0.0404
  C  C293  1  0.697460  0.395100  0.031200  1.0  -0.1473
  C  C294  1  0.667360  0.436000  0.038800  1.0  -0.0582
  C  C295  1  0.651590  0.225900  0.958700  1.0  0.7425
  C  C296  1  0.734400  0.426700  0.048000  1.0  0.6757
  C  C297  1  0.563920  0.275700  0.752000  1.0  0.7249
  C  C298  1  0.556110  0.204500  0.718700  1.0  -0.116
  C  C299  1  0.520450  0.184400  0.689600  1.0  -0.0367
  C  C300  1  0.513090  0.117000  0.660600  1.0  -0.1504
  C  C301  1  0.542480  0.071600  0.661200  1.0  -0.0473
  C  C302  1  0.577860  0.092800  0.686900  1.0  0.0011
  C  C303  1  0.585040  0.159200  0.717300  1.0  -0.0022
  C  C304  1  0.475360  0.094000  0.631100  1.0  0.6905
  C  C305  1  0.609050  0.046100  0.683400  1.0  -0.0064
  C  C306  1  0.609890  0.017100  0.620400  1.0  -0.0687
  C  C307  1  0.639000  0.977100  0.612000  1.0  -0.1428
  C  C308  1  0.668100  0.966200  0.668600  1.0  -0.0309
  C  C309  1  0.667900  0.995900  0.733000  1.0  -0.0843
  C  C310  1  0.638680  0.036000  0.740300  1.0  -0.0565
  C  C311  1  0.639600  0.947900  0.540000  1.0  0.7414
  C  C312  1  0.639700  0.063700  0.812500  1.0  0.7301
  C  C313  1  0.930400  0.943300  0.604000  1.0  0.6949
  C  C314  1  0.928300  0.968100  0.532400  1.0  -0.0868
  C  C315  1  0.956400  0.008500  0.522000  1.0  -0.0833
  C  C316  1  0.956800  0.034000  0.456800  1.0  -0.0667
  C  C317  1  0.928100  0.020300  0.399800  1.0  -0.1498
  C  C318  1  0.898770  0.979500  0.410500  1.0  -0.0879
  C  C319  1  0.898510  0.953000  0.474900  1.0  -0.0327
  C  C320  1  0.927800  0.046900  0.328400  1.0  0.7645
  C  C321  1  0.867030  0.910000  0.481500  1.0  0.0888
  C  C322  1  0.872580  0.841200  0.507900  1.0  -0.0105
  C  C323  1  0.843220  0.799600  0.513300  1.0  -0.1416
  C  C324  1  0.808320  0.828200  0.494800  1.0  0.0414
  C  C325  1  0.802540  0.895100  0.468800  1.0  -0.1466
  C  C326  1  0.832640  0.936000  0.461200  1.0  -0.057
  C  C327  1  0.848410  0.725900  0.541300  1.0  0.7414
  C  C328  1  0.765600  0.926700  0.452000  1.0  0.6759
  C  C329  1  0.936080  0.775700  0.748000  1.0  0.7248
  C  C330  1  0.943890  0.704500  0.781300  1.0  -0.1161
  C  C331  1  0.979550  0.684400  0.810400  1.0  -0.0364
  C  C332  1  0.986910  0.617000  0.839400  1.0  -0.1506
  C  C333  1  0.957520  0.571600  0.838800  1.0  -0.047
  C  C334  1  0.922140  0.592800  0.813100  1.0  0.0016
  C  C335  1  0.914960  0.659200  0.782700  1.0  -0.003
  C  C336  1  0.024640  0.594000  0.868900  1.0  0.6928
  C  C337  1  0.890950  0.546100  0.816600  1.0  -0.0063
  C  C338  1  0.890110  0.517100  0.879600  1.0  -0.0671
  C  C339  1  0.861000  0.477100  0.888000  1.0  -0.1462
  C  C340  1  0.831900  0.466200  0.831400  1.0  -0.0285
  C  C341  1  0.832100  0.495900  0.767000  1.0  -0.0742
  C  C342  1  0.861320  0.536000  0.759700  1.0  -0.057
  C  C343  1  0.860400  0.447900  0.960000  1.0  0.7529
  C  C344  1  0.860300  0.563700  0.687500  1.0  0.7298
  C  C345  1  0.430400  0.443300  0.604000  1.0  0.6949
  C  C346  1  0.428300  0.468100  0.532400  1.0  -0.0868
  C  C347  1  0.456400  0.508500  0.522000  1.0  -0.0833
  C  C348  1  0.456800  0.534000  0.456800  1.0  -0.0667
  C  C349  1  0.428100  0.520300  0.399800  1.0  -0.1498
  C  C350  1  0.398770  0.479500  0.410500  1.0  -0.0879
  C  C351  1  0.398510  0.453000  0.474900  1.0  -0.0327
  C  C352  1  0.427800  0.546900  0.328400  1.0  0.7645
  C  C353  1  0.367030  0.410000  0.481500  1.0  0.0888
  C  C354  1  0.372580  0.341200  0.507900  1.0  -0.0105
  C  C355  1  0.343220  0.299600  0.513300  1.0  -0.1416
  C  C356  1  0.308320  0.328200  0.494800  1.0  0.0414
  C  C357  1  0.302540  0.395100  0.468800  1.0  -0.1466
  C  C358  1  0.332640  0.436000  0.461200  1.0  -0.057
  C  C359  1  0.348410  0.225900  0.541300  1.0  0.7414
  C  C360  1  0.265600  0.426700  0.452000  1.0  0.6759
  C  C361  1  0.436080  0.275700  0.748000  1.0  0.7248
  C  C362  1  0.443890  0.204500  0.781300  1.0  -0.1161
  C  C363  1  0.479550  0.184400  0.810400  1.0  -0.0364
  C  C364  1  0.486910  0.117000  0.839400  1.0  -0.1506
  C  C365  1  0.457520  0.071600  0.838800  1.0  -0.047
  C  C366  1  0.422140  0.092800  0.813100  1.0  0.0016
  C  C367  1  0.414960  0.159200  0.782700  1.0  -0.003
  C  C368  1  0.524640  0.094000  0.868900  1.0  0.6928
  C  C369  1  0.390950  0.046100  0.816600  1.0  -0.0063
  C  C370  1  0.390110  0.017100  0.879600  1.0  -0.0671
  C  C371  1  0.361000  0.977100  0.888000  1.0  -0.1432
  C  C372  1  0.331900  0.966200  0.831400  1.0  -0.0305
  C  C373  1  0.332100  0.995900  0.767000  1.0  -0.0859
  C  C374  1  0.361320  0.036000  0.759700  1.0  -0.057
  C  C375  1  0.360400  0.947900  0.960000  1.0  0.741
  C  C376  1  0.360300  0.063700  0.687500  1.0  0.7298
  O  O377  1  0.899880  0.058900  0.123200  1.0  -0.5913
  O  O378  1  0.959680  0.070800  0.141500  1.0  -0.4462
  O  O379  1  0.897830  0.949800  0.785500  1.0  -0.5874
  O  O380  1  0.956630  0.934700  0.817000  1.0  -0.5008
  O  O381  1  0.820850  0.306600  0.046100  1.0  -0.585
  O  O382  1  0.880310  0.297800  0.056900  1.0  -0.6091
  O  O383  1  0.740550  0.109900  0.965500  1.0  -0.5765
  O  O384  1  0.760920  0.012900  0.925600  1.0  -0.4732
  O  O385  1  0.903150  0.206200  0.227900  1.0  -0.5982
  O  O386  1  0.961450  0.188900  0.240100  1.0  -0.5025
  O  O387  1  0.031220  0.469200  0.380000  1.0  -0.4786
  O  O388  1  0.049200  0.359100  0.379300  1.0  -0.5843
  O  O389  1  0.830410  0.413600  0.153400  1.0  -0.5941
  O  O390  1  0.887660  0.440600  0.165300  1.0  -0.5899
  O  O391  1  0.830140  0.574700  0.465500  1.0  -0.6019
  O  O392  1  0.889650  0.551100  0.505300  1.0  -0.5651
  O  O393  1  0.399880  0.558900  0.123200  1.0  -0.5944
  O  O394  1  0.459680  0.570800  0.141500  1.0  -0.4462
  O  O395  1  0.397830  0.449800  0.785500  1.0  -0.5874
  O  O396  1  0.456630  0.434700  0.817000  1.0  -0.5008
  O  O397  1  0.320850  0.806600  0.046100  1.0  -0.585
  O  O398  1  0.380310  0.797800  0.056900  1.0  -0.6091
  O  O399  1  0.240550  0.609900  0.965500  1.0  -0.5765
  O  O400  1  0.260920  0.512900  0.925600  1.0  -0.4803
  O  O401  1  0.403150  0.706200  0.227900  1.0  -0.5982
  O  O402  1  0.461450  0.688900  0.240100  1.0  -0.5025
  O  O403  1  0.531220  0.969200  0.380000  1.0  -0.4786
  O  O404  1  0.549200  0.859100  0.379300  1.0  -0.5843
  O  O405  1  0.330410  0.913600  0.153400  1.0  -0.5941
  O  O406  1  0.387660  0.940600  0.165300  1.0  -0.5893
  O  O407  1  0.330140  0.074700  0.465500  1.0  -0.6019
  O  O408  1  0.389650  0.051100  0.505300  1.0  -0.5651
  O  O409  1  0.100120  0.058900  0.376800  1.0  -0.5885
  O  O410  1  0.040320  0.070800  0.358500  1.0  -0.4468
  O  O411  1  0.102170  0.949800  0.714500  1.0  -0.5876
  O  O412  1  0.043370  0.934700  0.683000  1.0  -0.4993
  O  O413  1  0.179150  0.306600  0.453900  1.0  -0.5837
  O  O414  1  0.119690  0.297800  0.443100  1.0  -0.609
  O  O415  1  0.259450  0.109900  0.534500  1.0  -0.5771
  O  O416  1  0.239080  0.012900  0.574400  1.0  -0.4745
  O  O417  1  0.096850  0.206200  0.272100  1.0  -0.5982
  O  O418  1  0.038550  0.188900  0.259900  1.0  -0.5009
  O  O419  1  0.968780  0.469200  0.120000  1.0  -0.48
  O  O420  1  0.950800  0.359100  0.120700  1.0  -0.5855
  O  O421  1  0.169590  0.413600  0.346600  1.0  -0.5946
  O  O422  1  0.112340  0.440600  0.334700  1.0  -0.5905
  O  O423  1  0.169860  0.574700  0.034500  1.0  -0.6021
  O  O424  1  0.110350  0.551100  0.994700  1.0  -0.5651
  O  O425  1  0.600120  0.558900  0.376800  1.0  -0.5927
  O  O426  1  0.540320  0.570800  0.358500  1.0  -0.4468
  O  O427  1  0.602170  0.449800  0.714500  1.0  -0.5876
  O  O428  1  0.543370  0.434700  0.683000  1.0  -0.4993
  O  O429  1  0.679150  0.806600  0.453900  1.0  -0.5837
  O  O430  1  0.619690  0.797800  0.443100  1.0  -0.609
  O  O431  1  0.759450  0.609900  0.534500  1.0  -0.5771
  O  O432  1  0.739080  0.512900  0.574400  1.0  -0.48
  O  O433  1  0.596850  0.706200  0.272100  1.0  -0.5982
  O  O434  1  0.538550  0.688900  0.259900  1.0  -0.5009
  O  O435  1  0.468780  0.969200  0.120000  1.0  -0.48
  O  O436  1  0.450800  0.859100  0.120700  1.0  -0.5855
  O  O437  1  0.669590  0.913600  0.346600  1.0  -0.5946
  O  O438  1  0.612340  0.940600  0.334700  1.0  -0.5902
  O  O439  1  0.669860  0.074700  0.034500  1.0  -0.6021
  O  O440  1  0.610350  0.051100  0.994700  1.0  -0.5651
  O  O441  1  0.100120  0.941100  0.876800  1.0  -0.5891
  O  O442  1  0.040320  0.929200  0.858500  1.0  -0.4461
  O  O443  1  0.102170  0.050200  0.214500  1.0  -0.5875
  O  O444  1  0.043370  0.065300  0.183000  1.0  -0.4989
  O  O445  1  0.179150  0.693400  0.953900  1.0  -0.5839
  O  O446  1  0.119690  0.702200  0.943100  1.0  -0.6083
  O  O447  1  0.259450  0.890100  0.034500  1.0  -0.5781
  O  O448  1  0.239080  0.987100  0.074400  1.0  -0.4711
  O  O449  1  0.096850  0.793800  0.772100  1.0  -0.5991
  O  O450  1  0.038550  0.811100  0.759900  1.0  -0.5
  O  O451  1  0.968780  0.530800  0.620000  1.0  -0.4831
  O  O452  1  0.950800  0.640900  0.620700  1.0  -0.5855
  O  O453  1  0.169590  0.586400  0.846600  1.0  -0.5951
  O  O454  1  0.112340  0.559400  0.834700  1.0  -0.5896
  O  O455  1  0.169860  0.425300  0.534500  1.0  -0.6027
  O  O456  1  0.110350  0.448900  0.494700  1.0  -0.5654
  O  O457  1  0.600120  0.441100  0.876800  1.0  -0.5929
  O  O458  1  0.540320  0.429200  0.858500  1.0  -0.4461
  O  O459  1  0.602170  0.550200  0.214500  1.0  -0.5875
  O  O460  1  0.543370  0.565300  0.183000  1.0  -0.4989
  O  O461  1  0.679150  0.193400  0.953900  1.0  -0.5839
  O  O462  1  0.619690  0.202200  0.943100  1.0  -0.6083
  O  O463  1  0.759450  0.390100  0.034500  1.0  -0.5781
  O  O464  1  0.739080  0.487100  0.074400  1.0  -0.4787
  O  O465  1  0.596850  0.293800  0.772100  1.0  -0.5991
  O  O466  1  0.538550  0.311100  0.759900  1.0  -0.5
  O  O467  1  0.468780  0.030800  0.620000  1.0  -0.4831
  O  O468  1  0.450800  0.140900  0.620700  1.0  -0.5855
  O  O469  1  0.669590  0.086400  0.846600  1.0  -0.5951
  O  O470  1  0.612340  0.059400  0.834700  1.0  -0.5894
  O  O471  1  0.669860  0.925300  0.534500  1.0  -0.6027
  O  O472  1  0.610350  0.948900  0.494700  1.0  -0.5654
  O  O473  1  0.899880  0.941100  0.623200  1.0  -0.5905
  O  O474  1  0.959680  0.929200  0.641500  1.0  -0.4462
  O  O475  1  0.897830  0.050200  0.285500  1.0  -0.5873
  O  O476  1  0.956630  0.065300  0.317000  1.0  -0.5015
  O  O477  1  0.820850  0.693400  0.546100  1.0  -0.585
  O  O478  1  0.880310  0.702200  0.556900  1.0  -0.6082
  O  O479  1  0.740550  0.890100  0.465500  1.0  -0.5776
  O  O480  1  0.760920  0.987100  0.425600  1.0  -0.4749
  O  O481  1  0.903150  0.793800  0.727900  1.0  -0.5984
  O  O482  1  0.961450  0.811100  0.740100  1.0  -0.5014
  O  O483  1  0.031220  0.530800  0.880000  1.0  -0.4807
  O  O484  1  0.049200  0.640900  0.879300  1.0  -0.5852
  O  O485  1  0.830410  0.586400  0.653400  1.0  -0.5938
  O  O486  1  0.887660  0.559400  0.665300  1.0  -0.5891
  O  O487  1  0.830140  0.425300  0.965500  1.0  -0.6023
  O  O488  1  0.889650  0.448900  0.005300  1.0  -0.5657
  O  O489  1  0.399880  0.441100  0.623200  1.0  -0.5932
  O  O490  1  0.459680  0.429200  0.641500  1.0  -0.4462
  O  O491  1  0.397830  0.550200  0.285500  1.0  -0.5873
  O  O492  1  0.456630  0.565300  0.317000  1.0  -0.5015
  O  O493  1  0.320850  0.193400  0.546100  1.0  -0.585
  O  O494  1  0.380310  0.202200  0.556900  1.0  -0.6082
  O  O495  1  0.240550  0.390100  0.465500  1.0  -0.5776
  O  O496  1  0.260920  0.487100  0.425600  1.0  -0.4792
  O  O497  1  0.403150  0.293800  0.727900  1.0  -0.5984
  O  O498  1  0.461450  0.311100  0.740100  1.0  -0.5014
  O  O499  1  0.531220  0.030800  0.880000  1.0  -0.4807
  O  O500  1  0.549200  0.140900  0.879300  1.0  -0.5852
  O  O501  1  0.330410  0.086400  0.653400  1.0  -0.5938
  O  O502  1  0.387660  0.059400  0.665300  1.0  -0.5885
  O  O503  1  0.330140  0.925300  0.965500  1.0  -0.6023
  O  O504  1  0.389650  0.948900  0.005300  1.0  -0.5657
