# generated using pymatgen
data_CdH2C3N8
_symmetry_space_group_name_H-M   'P 1'
_cell_length_a   16.53800000
_cell_length_b   9.90400000
_cell_length_c   21.90200000
_cell_angle_alpha   90.00000000
_cell_angle_beta   109.80400000
_cell_angle_gamma   90.00000000
_symmetry_Int_Tables_number   1
_chemical_formula_structural   CdH2C3N8
_chemical_formula_sum   'Cd16 H32 C48 N128'
_cell_volume   3375.21209700
_cell_formula_units_Z   16
loop_
 _symmetry_equiv_pos_site_id
 _symmetry_equiv_pos_as_xyz
  1  'x, y, z'
loop_
 _atom_site_type_symbol
 _atom_site_label
 _atom_site_symmetry_multiplicity
 _atom_site_fract_x
 _atom_site_fract_y
 _atom_site_fract_z
 _atom_site_occupancy
 _atom_site_charge
  Cd  Cd1  1  0.101730  0.029750  0.353200  1.0  0.9011
  Cd  Cd2  1  0.364250  0.539190  0.486610  1.0  1.0167
  Cd  Cd3  1  0.970970  0.389360  0.335650  1.0  0.9723
  Cd  Cd4  1  0.758810  0.329730  0.379950  1.0  0.9228
  Cd  Cd5  1  0.898270  0.529750  0.146800  1.0  0.9015
  Cd  Cd6  1  0.635750  0.039190  0.013390  1.0  1.0141
  Cd  Cd7  1  0.029030  0.889360  0.164350  1.0  0.9718
  Cd  Cd8  1  0.241190  0.829730  0.120050  1.0  0.9249
  Cd  Cd9  1  0.898270  0.970250  0.646800  1.0  0.9014
  Cd  Cd10  1  0.635750  0.460810  0.513390  1.0  1.0143
  Cd  Cd11  1  0.029030  0.610640  0.664350  1.0  0.9715
  Cd  Cd12  1  0.241190  0.670270  0.620050  1.0  0.9246
  Cd  Cd13  1  0.101730  0.470250  0.853200  1.0  0.9009
  Cd  Cd14  1  0.364250  0.960810  0.986610  1.0  1.0173
  Cd  Cd15  1  0.970970  0.110640  0.835650  1.0  0.9722
  Cd  Cd16  1  0.758810  0.170270  0.879950  1.0  0.9234
  H  H17  1  0.321700  0.161600  0.498200  1.0  0.1493
  H  H18  1  0.301500  0.093500  0.430200  1.0  0.1471
  H  H19  1  0.411400  0.916100  0.261000  1.0  0.1299
  H  H20  1  0.424800  0.058400  0.295900  1.0  0.1335
  H  H21  1  0.038500  0.794200  0.437700  1.0  0.1128
  H  H22  1  0.087100  0.656300  0.443300  1.0  0.1283
  H  H23  1  0.862700  0.931300  0.491100  1.0  0.1262
  H  H24  1  0.781200  0.954400  0.429400  1.0  0.1301
  H  H25  1  0.678300  0.661600  0.001800  1.0  0.1508
  H  H26  1  0.698500  0.593500  0.069800  1.0  0.1471
  H  H27  1  0.588600  0.416100  0.239000  1.0  0.1288
  H  H28  1  0.575200  0.558400  0.204100  1.0  0.1332
  H  H29  1  0.961500  0.294200  0.062300  1.0  0.1129
  H  H30  1  0.912900  0.156300  0.056700  1.0  0.1278
  H  H31  1  0.137300  0.431300  0.008900  1.0  0.1257
  H  H32  1  0.218800  0.454400  0.070600  1.0  0.1294
  H  H33  1  0.678300  0.838400  0.501800  1.0  0.1506
  H  H34  1  0.698500  0.906500  0.569800  1.0  0.1466
  H  H35  1  0.588600  0.083900  0.739000  1.0  0.1285
  H  H36  1  0.575200  0.941600  0.704100  1.0  0.133
  H  H37  1  0.961500  0.205800  0.562300  1.0  0.1129
  H  H38  1  0.912900  0.343700  0.556700  1.0  0.1283
  H  H39  1  0.137300  0.068700  0.508900  1.0  0.1257
  H  H40  1  0.218800  0.045600  0.570600  1.0  0.1293
  H  H41  1  0.321700  0.338400  0.998200  1.0  0.1495
  H  H42  1  0.301500  0.406500  0.930200  1.0  0.147
  H  H43  1  0.411400  0.583900  0.761000  1.0  0.1292
  H  H44  1  0.424800  0.441600  0.795900  1.0  0.1334
  H  H45  1  0.038500  0.705800  0.937700  1.0  0.1129
  H  H46  1  0.087100  0.843700  0.943300  1.0  0.1286
  H  H47  1  0.862700  0.568700  0.991100  1.0  0.1258
  H  H48  1  0.781200  0.545600  0.929400  1.0  0.1298
  C  C49  1  0.377600  0.081000  0.190200  1.0  0.0267
  C  C50  1  0.243500  0.274000  0.425400  1.0  0.3689
  C  C51  1  0.316100  0.179000  0.453300  1.0  -0.3952
  C  C52  1  0.400800  0.223000  0.451400  1.0  0.4105
  C  C53  1  0.293500  0.004000  0.257900  1.0  0.3203
  C  C54  1  0.388300  0.007000  0.259300  1.0  -0.3368
  C  C55  1  0.021300  0.708500  0.349100  1.0  0.3917
  C  C56  1  0.033800  0.703000  0.420700  1.0  -0.337
  C  C57  1  0.960100  0.631200  0.433500  1.0  0.4183
  C  C58  1  0.884800  0.059100  0.426500  1.0  0.3387
  C  C59  1  0.830000  0.999000  0.460700  1.0  -0.3198
  C  C60  1  0.797500  0.105000  0.497300  1.0  0.3999
  C  C61  1  0.622400  0.581000  0.309800  1.0  0.0256
  C  C62  1  0.756500  0.774000  0.074600  1.0  0.3674
  C  C63  1  0.683900  0.679000  0.046700  1.0  -0.3933
  C  C64  1  0.599200  0.723000  0.048600  1.0  0.4086
  C  C65  1  0.706500  0.504000  0.242100  1.0  0.324
  C  C66  1  0.611700  0.507000  0.240700  1.0  -0.3351
  C  C67  1  0.978700  0.208500  0.150900  1.0  0.393
  C  C68  1  0.966200  0.203000  0.079300  1.0  -0.3375
  C  C69  1  0.039900  0.131200  0.066500  1.0  0.4177
  C  C70  1  0.115200  0.559100  0.073500  1.0  0.3401
  C  C71  1  0.170000  0.499000  0.039300  1.0  -0.3193
  C  C72  1  0.202500  0.605000  0.002700  1.0  0.3987
  C  C73  1  0.622400  0.919000  0.809800  1.0  0.0259
  C  C74  1  0.756500  0.726000  0.574600  1.0  0.3676
  C  C75  1  0.683900  0.821000  0.546700  1.0  -0.3941
  C  C76  1  0.599200  0.777000  0.548600  1.0  0.409
  C  C77  1  0.706500  0.996000  0.742100  1.0  0.3235
  C  C78  1  0.611700  0.993000  0.740700  1.0  -0.3355
  C  C79  1  0.978700  0.291500  0.650900  1.0  0.393
  C  C80  1  0.966200  0.297000  0.579300  1.0  -0.337
  C  C81  1  0.039900  0.368800  0.566500  1.0  0.4177
  C  C82  1  0.115200  0.940900  0.573500  1.0  0.3396
  C  C83  1  0.170000  0.001000  0.539300  1.0  -0.3202
  C  C84  1  0.202500  0.895000  0.502700  1.0  0.3989
  C  C85  1  0.377600  0.419000  0.690200  1.0  0.027
  C  C86  1  0.243500  0.226000  0.925400  1.0  0.3689
  C  C87  1  0.316100  0.321000  0.953300  1.0  -0.3951
  C  C88  1  0.400800  0.277000  0.951400  1.0  0.4106
  C  C89  1  0.293500  0.496000  0.757900  1.0  0.3207
  C  C90  1  0.388300  0.493000  0.759300  1.0  -0.337
  C  C91  1  0.021300  0.791500  0.849100  1.0  0.3916
  C  C92  1  0.033800  0.797000  0.920700  1.0  -0.3368
  C  C93  1  0.960100  0.868800  0.933500  1.0  0.4181
  C  C94  1  0.884800  0.440900  0.926500  1.0  0.3385
  C  C95  1  0.830000  0.501000  0.960700  1.0  -0.3193
  C  C96  1  0.797500  0.395000  0.997300  1.0  0.3999
  N  N97  1  0.368600  0.038600  0.084900  1.0  -0.2122
  N  N98  1  0.403900  0.169700  0.101800  1.0  -0.219
  N  N99  1  0.409500  0.195800  0.166900  1.0  -0.238
  N  N100  1  0.352400  0.983700  0.139500  1.0  -0.2103
  N  N101  1  0.160600  0.237500  0.394600  1.0  -0.3148
  N  N102  1  0.119700  0.353300  0.380100  1.0  -0.0373
  N  N103  1  0.170200  0.455100  0.400300  1.0  -0.0856
  N  N104  1  0.249600  0.408900  0.430000  1.0  -0.2711
  N  N105  1  0.437300  0.342200  0.471700  1.0  -0.3099
  N  N106  1  0.517300  0.331200  0.465500  1.0  -0.1221
  N  N107  1  0.525000  0.205000  0.443400  1.0  -0.2103
  N  N108  1  0.453200  0.146000  0.434500  1.0  -0.1708
  N  N109  1  0.188700  0.996500  0.289800  1.0  0.0067
  N  N110  1  0.173600  0.921100  0.239300  1.0  -0.0809
  N  N111  1  0.238800  0.924000  0.218400  1.0  -0.254
  N  N112  1  0.267700  0.049000  0.305200  1.0  -0.3451
  N  N113  1  0.984900  0.080600  0.387300  1.0  -0.025
  N  N114  1  0.937800  0.186900  0.371200  1.0  -0.0646
  N  N115  1  0.873900  0.178000  0.395400  1.0  -0.2737
  N  N116  1  0.955400  0.997900  0.422200  1.0  -0.3309
  N  N117  1  0.805200  0.090300  0.559300  1.0  -0.3637
  N  N118  1  0.766300  0.205100  0.573100  1.0  -0.1392
  N  N119  1  0.735100  0.274300  0.520500  1.0  -0.0736
  N  N120  1  0.752800  0.214600  0.470800  1.0  -0.3343
  N  N121  1  0.987500  0.656200  0.249700  1.0  -0.0784
  N  N122  1  0.992900  0.609000  0.307800  1.0  -0.1959
  N  N123  1  0.013000  0.781200  0.255900  1.0  0.0003
  N  N124  1  0.034900  0.818500  0.318200  1.0  -0.3099
  N  N125  1  0.918300  0.687200  0.468900  1.0  -0.3748
  N  N126  1  0.854800  0.594300  0.465300  1.0  -0.2004
  N  N127  1  0.864200  0.489200  0.431200  1.0  -0.0077
  N  N128  1  0.930000  0.508200  0.410700  1.0  -0.3122
  N  N129  1  0.631400  0.538600  0.415100  1.0  -0.2121
  N  N130  1  0.596100  0.669700  0.398200  1.0  -0.2178
  N  N131  1  0.590500  0.695800  0.333100  1.0  -0.2419
  N  N132  1  0.647600  0.483700  0.360500  1.0  -0.209
  N  N133  1  0.839400  0.737500  0.105400  1.0  -0.3136
  N  N134  1  0.880300  0.853300  0.119900  1.0  -0.0408
  N  N135  1  0.829800  0.955100  0.099700  1.0  -0.087
  N  N136  1  0.750400  0.908900  0.070000  1.0  -0.2728
  N  N137  1  0.562700  0.842200  0.028300  1.0  -0.3093
  N  N138  1  0.482700  0.831200  0.034500  1.0  -0.121
  N  N139  1  0.475000  0.705000  0.056600  1.0  -0.2092
  N  N140  1  0.546800  0.646000  0.065500  1.0  -0.1681
  N  N141  1  0.811300  0.496500  0.210200  1.0  0.0055
  N  N142  1  0.826400  0.421100  0.260700  1.0  -0.0788
  N  N143  1  0.761200  0.424000  0.281600  1.0  -0.2548
  N  N144  1  0.732300  0.549000  0.194800  1.0  -0.3448
  N  N145  1  0.015100  0.580600  0.112700  1.0  -0.0236
  N  N146  1  0.062200  0.686900  0.128800  1.0  -0.0635
  N  N147  1  0.126100  0.678000  0.104600  1.0  -0.2762
  N  N148  1  0.044600  0.497900  0.077800  1.0  -0.3309
  N  N149  1  0.194800  0.590300  0.940700  1.0  -0.3624
  N  N150  1  0.233700  0.705100  0.926900  1.0  -0.1363
  N  N151  1  0.264900  0.774300  0.979500  1.0  -0.0721
  N  N152  1  0.247200  0.714600  0.029200  1.0  -0.3377
  N  N153  1  0.012500  0.156200  0.250300  1.0  -0.0786
  N  N154  1  0.007100  0.109000  0.192200  1.0  -0.1959
  N  N155  1  0.987000  0.281200  0.244100  1.0  -0.001
  N  N156  1  0.965100  0.318500  0.181800  1.0  -0.3098
  N  N157  1  0.081700  0.187200  0.031100  1.0  -0.3734
  N  N158  1  0.145200  0.094300  0.034700  1.0  -0.1989
  N  N159  1  0.135800  0.989200  0.068800  1.0  -0.0075
  N  N160  1  0.070000  0.008200  0.089300  1.0  -0.3118
  N  N161  1  0.631400  0.961400  0.915100  1.0  -0.2123
  N  N162  1  0.596100  0.830300  0.898200  1.0  -0.2167
  N  N163  1  0.590500  0.804200  0.833100  1.0  -0.2378
  N  N164  1  0.647600  0.016300  0.860500  1.0  -0.211
  N  N165  1  0.839400  0.762500  0.605400  1.0  -0.3138
  N  N166  1  0.880300  0.646700  0.619900  1.0  -0.0398
  N  N167  1  0.829800  0.544900  0.599700  1.0  -0.0865
  N  N168  1  0.750400  0.591100  0.570000  1.0  -0.2747
  N  N169  1  0.562700  0.657800  0.528300  1.0  -0.3087
  N  N170  1  0.482700  0.668800  0.534500  1.0  -0.1201
  N  N171  1  0.475000  0.795000  0.556600  1.0  -0.2096
  N  N172  1  0.546800  0.854000  0.565500  1.0  -0.1682
  N  N173  1  0.811300  0.003500  0.710200  1.0  0.0057
  N  N174  1  0.826400  0.078900  0.760700  1.0  -0.0797
  N  N175  1  0.761200  0.076000  0.781600  1.0  -0.2549
  N  N176  1  0.732300  0.951000  0.694800  1.0  -0.3455
  N  N177  1  0.015100  0.919400  0.612700  1.0  -0.0241
  N  N178  1  0.062200  0.813100  0.628800  1.0  -0.0638
  N  N179  1  0.126100  0.822000  0.604600  1.0  -0.2759
  N  N180  1  0.044600  0.002100  0.577800  1.0  -0.3307
  N  N181  1  0.194800  0.909700  0.440700  1.0  -0.3614
  N  N182  1  0.233700  0.794900  0.426900  1.0  -0.1371
  N  N183  1  0.264900  0.725700  0.479500  1.0  -0.072
  N  N184  1  0.247200  0.785400  0.529200  1.0  -0.3372
  N  N185  1  0.012500  0.343800  0.750300  1.0  -0.0795
  N  N186  1  0.007100  0.391000  0.692200  1.0  -0.1956
  N  N187  1  0.987000  0.218800  0.744100  1.0  -0.0009
  N  N188  1  0.965100  0.181500  0.681800  1.0  -0.3107
  N  N189  1  0.081700  0.312800  0.531100  1.0  -0.3733
  N  N190  1  0.145200  0.405700  0.534700  1.0  -0.1988
  N  N191  1  0.135800  0.510800  0.568800  1.0  -0.0078
  N  N192  1  0.070000  0.491800  0.589300  1.0  -0.3124
  N  N193  1  0.368600  0.461400  0.584900  1.0  -0.2129
  N  N194  1  0.403900  0.330300  0.601800  1.0  -0.2177
  N  N195  1  0.409500  0.304200  0.666900  1.0  -0.2403
  N  N196  1  0.352400  0.516300  0.639500  1.0  -0.2106
  N  N197  1  0.160600  0.262500  0.894600  1.0  -0.3157
  N  N198  1  0.119700  0.146700  0.880100  1.0  -0.0378
  N  N199  1  0.170200  0.044900  0.900300  1.0  -0.0859
  N  N200  1  0.249600  0.091100  0.930000  1.0  -0.2725
  N  N201  1  0.437300  0.157800  0.971700  1.0  -0.3093
  N  N202  1  0.517300  0.168800  0.965500  1.0  -0.1209
  N  N203  1  0.525000  0.295000  0.943400  1.0  -0.2119
  N  N204  1  0.453200  0.354000  0.934500  1.0  -0.1681
  N  N205  1  0.188700  0.503500  0.789800  1.0  0.0067
  N  N206  1  0.173600  0.578900  0.739300  1.0  -0.0797
  N  N207  1  0.238800  0.576000  0.718400  1.0  -0.2541
  N  N208  1  0.267700  0.451000  0.805200  1.0  -0.3458
  N  N209  1  0.984900  0.419400  0.887300  1.0  -0.0247
  N  N210  1  0.937800  0.313100  0.871200  1.0  -0.0644
  N  N211  1  0.873900  0.322000  0.895400  1.0  -0.2749
  N  N212  1  0.955400  0.502100  0.922200  1.0  -0.3312
  N  N213  1  0.805200  0.409700  0.059300  1.0  -0.3641
  N  N214  1  0.766300  0.294900  0.073100  1.0  -0.1382
  N  N215  1  0.735100  0.225700  0.020500  1.0  -0.0714
  N  N216  1  0.752800  0.285400  0.970800  1.0  -0.3347
  N  N217  1  0.987500  0.843800  0.749700  1.0  -0.0782
  N  N218  1  0.992900  0.891000  0.807800  1.0  -0.1953
  N  N219  1  0.013000  0.718800  0.755900  1.0  -0.0004
  N  N220  1  0.034900  0.681500  0.818200  1.0  -0.3101
  N  N221  1  0.918300  0.812800  0.968900  1.0  -0.3735
  N  N222  1  0.854800  0.905700  0.965300  1.0  -0.2002
  N  N223  1  0.864200  0.010800  0.931200  1.0  -0.0076
  N  N224  1  0.930000  0.991800  0.910700  1.0  -0.3124
