# generated using pymatgen
data_CuH9C17O4
_symmetry_space_group_name_H-M   'P 1'
_cell_length_a   17.71400000
_cell_length_b   12.56700000
_cell_length_c   25.64300000
_cell_angle_alpha   90.00000000
_cell_angle_beta   93.44000000
_cell_angle_gamma   90.00000000
_symmetry_Int_Tables_number   1
_chemical_formula_structural   CuH9C17O4
_chemical_formula_sum   'Cu8 H72 C136 O32'
_cell_volume   5698.14979455
_cell_formula_units_Z   8
loop_
 _symmetry_equiv_pos_site_id
 _symmetry_equiv_pos_as_xyz
  1  'x, y, z'
loop_
 _atom_site_type_symbol
 _atom_site_label
 _atom_site_symmetry_multiplicity
 _atom_site_fract_x
 _atom_site_fract_y
 _atom_site_fract_z
 _atom_site_occupancy
 _atom_site_charge
  Cu  Cu1  1  0.821890  0.224900  0.503270  1.0  0.9241
  Cu  Cu2  1  0.321890  0.724900  0.503270  1.0  0.9241
  Cu  Cu3  1  0.178110  0.224900  0.996730  1.0  0.9224
  Cu  Cu4  1  0.678110  0.724900  0.996730  1.0  0.9224
  Cu  Cu5  1  0.178110  0.775100  0.496730  1.0  0.9223
  Cu  Cu6  1  0.678110  0.275100  0.496730  1.0  0.9223
  Cu  Cu7  1  0.821890  0.775100  0.003270  1.0  0.9247
  Cu  Cu8  1  0.321890  0.275100  0.003270  1.0  0.9247
  H  H9  1  0.002300  0.537600  0.658600  1.0  0.1308
  H  H10  1  0.888200  0.422600  0.633200  1.0  0.1257
  H  H11  1  0.694500  0.574500  0.591000  1.0  0.1339
  H  H12  1  0.711000  0.691000  0.645000  1.0  0.1534
  H  H13  1  0.813700  0.677300  0.716900  1.0  0.1125
  H  H14  1  0.887200  0.616300  0.858700  1.0  0.1028
  H  H15  1  0.677700  0.492300  0.868500  1.0  0.1329
  H  H16  1  0.698100  0.394700  0.797200  1.0  0.1077
  H  H17  1  0.810200  0.409100  0.753500  1.0  0.1412
  H  H18  1  0.502300  0.037600  0.658600  1.0  0.1308
  H  H19  1  0.388200  0.922600  0.633200  1.0  0.1258
  H  H20  1  0.194500  0.074500  0.591000  1.0  0.1339
  H  H21  1  0.211000  0.191000  0.645000  1.0  0.1534
  H  H22  1  0.313700  0.177300  0.716900  1.0  0.1125
  H  H23  1  0.387200  0.116300  0.858700  1.0  0.1028
  H  H24  1  0.177700  0.992300  0.868500  1.0  0.1329
  H  H25  1  0.198100  0.894700  0.797200  1.0  0.1077
  H  H26  1  0.310200  0.909100  0.753500  1.0  0.1412
  H  H27  1  0.997700  0.537600  0.841400  1.0  0.1303
  H  H28  1  0.111800  0.422600  0.866800  1.0  0.1252
  H  H29  1  0.305500  0.574500  0.909000  1.0  0.135
  H  H30  1  0.289000  0.691000  0.855000  1.0  0.1515
  H  H31  1  0.186300  0.677300  0.783100  1.0  0.113
  H  H32  1  0.112800  0.616300  0.641300  1.0  0.1044
  H  H33  1  0.322300  0.492300  0.631500  1.0  0.1326
  H  H34  1  0.301900  0.394700  0.702800  1.0  0.1077
  H  H35  1  0.189800  0.409100  0.746500  1.0  0.1404
  H  H36  1  0.497700  0.037600  0.841400  1.0  0.1303
  H  H37  1  0.611800  0.922600  0.866800  1.0  0.1251
  H  H38  1  0.805500  0.074500  0.909000  1.0  0.135
  H  H39  1  0.789000  0.191000  0.855000  1.0  0.1515
  H  H40  1  0.686300  0.177300  0.783100  1.0  0.113
  H  H41  1  0.612800  0.116300  0.641300  1.0  0.1044
  H  H42  1  0.822300  0.992300  0.631500  1.0  0.1326
  H  H43  1  0.801900  0.894700  0.702800  1.0  0.1077
  H  H44  1  0.689800  0.909100  0.746500  1.0  0.1404
  H  H45  1  0.997700  0.462400  0.341400  1.0  0.1303
  H  H46  1  0.111800  0.577400  0.366800  1.0  0.1254
  H  H47  1  0.305500  0.425500  0.409000  1.0  0.1353
  H  H48  1  0.289000  0.309000  0.355000  1.0  0.1511
  H  H49  1  0.186300  0.322700  0.283100  1.0  0.1139
  H  H50  1  0.112800  0.383700  0.141300  1.0  0.1041
  H  H51  1  0.322300  0.507700  0.131500  1.0  0.1325
  H  H52  1  0.301900  0.605300  0.202800  1.0  0.1077
  H  H53  1  0.189800  0.590900  0.246500  1.0  0.1402
  H  H54  1  0.497700  0.962400  0.341400  1.0  0.1303
  H  H55  1  0.611800  0.077400  0.366800  1.0  0.1254
  H  H56  1  0.805500  0.925500  0.409000  1.0  0.1353
  H  H57  1  0.789000  0.809000  0.355000  1.0  0.1506
  H  H58  1  0.686300  0.822700  0.283100  1.0  0.1139
  H  H59  1  0.612800  0.883700  0.141300  1.0  0.1041
  H  H60  1  0.822300  0.007700  0.131500  1.0  0.1325
  H  H61  1  0.801900  0.105300  0.202800  1.0  0.1077
  H  H62  1  0.689800  0.090900  0.246500  1.0  0.1402
  H  H63  1  0.002300  0.462400  0.158600  1.0  0.1308
  H  H64  1  0.888200  0.577400  0.133200  1.0  0.1256
  H  H65  1  0.694500  0.425500  0.091000  1.0  0.1343
  H  H66  1  0.711000  0.309000  0.145000  1.0  0.153
  H  H67  1  0.813700  0.322700  0.216900  1.0  0.113
  H  H68  1  0.887200  0.383700  0.358700  1.0  0.1029
  H  H69  1  0.677700  0.507700  0.368500  1.0  0.1326
  H  H70  1  0.698100  0.605300  0.297200  1.0  0.1082
  H  H71  1  0.810200  0.590900  0.253500  1.0  0.1416
  H  H72  1  0.502300  0.962400  0.158600  1.0  0.1308
  H  H73  1  0.388200  0.077400  0.133200  1.0  0.1256
  H  H74  1  0.194500  0.925500  0.091000  1.0  0.1343
  H  H75  1  0.211000  0.809000  0.145000  1.0  0.153
  H  H76  1  0.313700  0.822700  0.216900  1.0  0.113
  H  H77  1  0.387200  0.883700  0.358700  1.0  0.1029
  H  H78  1  0.177700  0.007700  0.368500  1.0  0.1326
  H  H79  1  0.198100  0.105300  0.297200  1.0  0.1082
  H  H80  1  0.310200  0.090900  0.253500  1.0  0.1416
  C  C81  1  0.934200  0.537700  0.718000  1.0  0.0282
  C  C82  1  0.932800  0.538800  0.774400  1.0  -0.1044
  C  C83  1  0.001200  0.538000  0.694900  1.0  -0.147
  C  C84  1  0.863400  0.550400  0.682100  1.0  -0.0399
  C  C85  1  0.852000  0.474200  0.638900  1.0  -0.1086
  C  C86  1  0.786900  0.480600  0.607300  1.0  -0.1199
  C  C87  1  0.736300  0.567600  0.614400  1.0  -0.0765
  C  C88  1  0.745700  0.639300  0.652600  1.0  -0.0463
  C  C89  1  0.808400  0.630700  0.688800  1.0  -0.0724
  C  C90  1  0.854500  0.528200  0.801100  1.0  0.0402
  C  C91  1  0.847300  0.575200  0.844500  1.0  -0.0334
  C  C92  1  0.780000  0.567000  0.872300  1.0  -0.1235
  C  C93  1  0.723000  0.498400  0.852300  1.0  -0.0639
  C  C94  1  0.735200  0.442200  0.809600  1.0  -0.0846
  C  C95  1  0.801700  0.451400  0.782300  1.0  -0.1785
  C  C96  1  0.772900  0.397600  0.564800  1.0  0.6415
  C  C97  1  0.768500  0.631300  0.924500  1.0  0.6628
  C  C98  1  0.434200  0.037700  0.718000  1.0  0.0282
  C  C99  1  0.432800  0.038800  0.774400  1.0  -0.1044
  C  C100  1  0.501200  0.038000  0.694900  1.0  -0.147
  C  C101  1  0.363400  0.050400  0.682100  1.0  -0.0399
  C  C102  1  0.352000  0.974200  0.638900  1.0  -0.1086
  C  C103  1  0.286900  0.980600  0.607300  1.0  -0.1199
  C  C104  1  0.236300  0.067600  0.614400  1.0  -0.0727
  C  C105  1  0.245700  0.139300  0.652600  1.0  -0.0463
  C  C106  1  0.308400  0.130700  0.688800  1.0  -0.072
  C  C107  1  0.354500  0.028200  0.801100  1.0  0.0402
  C  C108  1  0.347300  0.075200  0.844500  1.0  -0.0334
  C  C109  1  0.280000  0.067000  0.872300  1.0  -0.1235
  C  C110  1  0.223000  0.998400  0.852300  1.0  -0.0639
  C  C111  1  0.235200  0.942200  0.809600  1.0  -0.0847
  C  C112  1  0.301700  0.951400  0.782300  1.0  -0.1798
  C  C113  1  0.272900  0.897600  0.564800  1.0  0.6415
  C  C114  1  0.268500  0.131300  0.924500  1.0  0.6628
  C  C115  1  0.065800  0.537700  0.782000  1.0  0.0257
  C  C116  1  0.067200  0.538800  0.725600  1.0  -0.1047
  C  C117  1  0.998800  0.538000  0.805100  1.0  -0.148
  C  C118  1  0.136600  0.550400  0.817900  1.0  -0.0407
  C  C119  1  0.148000  0.474200  0.861100  1.0  -0.1087
  C  C120  1  0.213100  0.480600  0.892700  1.0  -0.1189
  C  C121  1  0.263700  0.567600  0.885600  1.0  -0.0724
  C  C122  1  0.254300  0.639300  0.847400  1.0  -0.0476
  C  C123  1  0.191600  0.630700  0.811200  1.0  -0.0717
  C  C124  1  0.145500  0.528200  0.698900  1.0  0.0408
  C  C125  1  0.152700  0.575200  0.655500  1.0  -0.0321
  C  C126  1  0.220000  0.567000  0.627700  1.0  -0.1207
  C  C127  1  0.277000  0.498400  0.647700  1.0  -0.0624
  C  C128  1  0.264800  0.442200  0.690400  1.0  -0.0742
  C  C129  1  0.198300  0.451400  0.717700  1.0  -0.1791
  C  C130  1  0.227100  0.397600  0.935200  1.0  0.6418
  C  C131  1  0.231500  0.631300  0.575500  1.0  0.6626
  C  C132  1  0.565800  0.037700  0.782000  1.0  0.0257
  C  C133  1  0.567200  0.038800  0.725600  1.0  -0.1047
  C  C134  1  0.498800  0.038000  0.805100  1.0  -0.148
  C  C135  1  0.636600  0.050400  0.817900  1.0  -0.0407
  C  C136  1  0.648000  0.974200  0.861100  1.0  -0.1087
  C  C137  1  0.713100  0.980600  0.892700  1.0  -0.1189
  C  C138  1  0.763700  0.067600  0.885600  1.0  -0.071
  C  C139  1  0.754300  0.139300  0.847400  1.0  -0.0476
  C  C140  1  0.691600  0.130700  0.811200  1.0  -0.072
  C  C141  1  0.645500  0.028200  0.698900  1.0  0.0408
  C  C142  1  0.652700  0.075200  0.655500  1.0  -0.0321
  C  C143  1  0.720000  0.067000  0.627700  1.0  -0.1207
  C  C144  1  0.777000  0.998400  0.647700  1.0  -0.0624
  C  C145  1  0.764800  0.942200  0.690400  1.0  -0.0742
  C  C146  1  0.698300  0.951400  0.717700  1.0  -0.1795
  C  C147  1  0.727100  0.897600  0.935200  1.0  0.6418
  C  C148  1  0.731500  0.131300  0.575500  1.0  0.6626
  C  C149  1  0.065800  0.462300  0.282000  1.0  0.0258
  C  C150  1  0.067200  0.461200  0.225600  1.0  -0.1049
  C  C151  1  0.998800  0.462000  0.305100  1.0  -0.1473
  C  C152  1  0.136600  0.449600  0.317900  1.0  -0.041
  C  C153  1  0.148000  0.525800  0.361100  1.0  -0.1111
  C  C154  1  0.213100  0.519400  0.392700  1.0  -0.119
  C  C155  1  0.263700  0.432400  0.385600  1.0  -0.0703
  C  C156  1  0.254300  0.360700  0.347400  1.0  -0.042
  C  C157  1  0.191600  0.369300  0.311200  1.0  -0.0729
  C  C158  1  0.145500  0.471800  0.198900  1.0  0.04
  C  C159  1  0.152700  0.424800  0.155500  1.0  -0.0319
  C  C160  1  0.220000  0.433000  0.127700  1.0  -0.1221
  C  C161  1  0.277000  0.501600  0.147700  1.0  -0.0634
  C  C162  1  0.264800  0.557800  0.190400  1.0  -0.0747
  C  C163  1  0.198300  0.548600  0.217700  1.0  -0.1795
  C  C164  1  0.227100  0.602400  0.435200  1.0  0.6418
  C  C165  1  0.231500  0.368700  0.075500  1.0  0.6621
  C  C166  1  0.565800  0.962300  0.282000  1.0  0.0258
  C  C167  1  0.567200  0.961200  0.225600  1.0  -0.1049
  C  C168  1  0.498800  0.962000  0.305100  1.0  -0.1473
  C  C169  1  0.636600  0.949600  0.317900  1.0  -0.041
  C  C170  1  0.648000  0.025800  0.361100  1.0  -0.1111
  C  C171  1  0.713100  0.019400  0.392700  1.0  -0.119
  C  C172  1  0.763700  0.932400  0.385600  1.0  -0.0703
  C  C173  1  0.754300  0.860700  0.347400  1.0  -0.042
  C  C174  1  0.691600  0.869300  0.311200  1.0  -0.0728
  C  C175  1  0.645500  0.971800  0.198900  1.0  0.04
  C  C176  1  0.652700  0.924800  0.155500  1.0  -0.0319
  C  C177  1  0.720000  0.933000  0.127700  1.0  -0.1221
  C  C178  1  0.777000  0.001600  0.147700  1.0  -0.0634
  C  C179  1  0.764800  0.057800  0.190400  1.0  -0.0747
  C  C180  1  0.698300  0.048600  0.217700  1.0  -0.1795
  C  C181  1  0.727100  0.102400  0.435200  1.0  0.6418
  C  C182  1  0.731500  0.868700  0.075500  1.0  0.6621
  C  C183  1  0.934200  0.462300  0.218000  1.0  0.0285
  C  C184  1  0.932800  0.461200  0.274400  1.0  -0.1046
  C  C185  1  0.001200  0.462000  0.194900  1.0  -0.1469
  C  C186  1  0.863400  0.449600  0.182100  1.0  -0.0402
  C  C187  1  0.852000  0.525800  0.138900  1.0  -0.11
  C  C188  1  0.786900  0.519400  0.107300  1.0  -0.1194
  C  C189  1  0.736300  0.432400  0.114400  1.0  -0.0714
  C  C190  1  0.745700  0.360700  0.152600  1.0  -0.045
  C  C191  1  0.808400  0.369300  0.188800  1.0  -0.0718
  C  C192  1  0.854500  0.471800  0.301100  1.0  0.0403
  C  C193  1  0.847300  0.424800  0.344500  1.0  -0.0312
  C  C194  1  0.780000  0.433000  0.372300  1.0  -0.1225
  C  C195  1  0.723000  0.501600  0.352300  1.0  -0.0646
  C  C196  1  0.735200  0.557800  0.309600  1.0  -0.086
  C  C197  1  0.801700  0.548600  0.282300  1.0  -0.1779
  C  C198  1  0.772900  0.602400  0.064800  1.0  0.6416
  C  C199  1  0.768500  0.368700  0.424500  1.0  0.6624
  C  C200  1  0.434200  0.962300  0.218000  1.0  0.0282
  C  C201  1  0.432800  0.961200  0.274400  1.0  -0.1046
  C  C202  1  0.501200  0.962000  0.194900  1.0  -0.1469
  C  C203  1  0.363400  0.949600  0.182100  1.0  -0.0402
  C  C204  1  0.352000  0.025800  0.138900  1.0  -0.11
  C  C205  1  0.286900  0.019400  0.107300  1.0  -0.1194
  C  C206  1  0.236300  0.932400  0.114400  1.0  -0.0714
  C  C207  1  0.245700  0.860700  0.152600  1.0  -0.045
  C  C208  1  0.308400  0.869300  0.188800  1.0  -0.0723
  C  C209  1  0.354500  0.971800  0.301100  1.0  0.0403
  C  C210  1  0.347300  0.924800  0.344500  1.0  -0.0312
  C  C211  1  0.280000  0.933000  0.372300  1.0  -0.1225
  C  C212  1  0.223000  0.001600  0.352300  1.0  -0.0646
  C  C213  1  0.235200  0.057800  0.309600  1.0  -0.086
  C  C214  1  0.301700  0.048600  0.282300  1.0  -0.1779
  C  C215  1  0.272900  0.102400  0.064800  1.0  0.6416
  C  C216  1  0.268500  0.868700  0.424500  1.0  0.6624
  O  O217  1  0.835400  0.345100  0.551400  1.0  -0.5638
  O  O218  1  0.705900  0.390400  0.546200  1.0  -0.5605
  O  O219  1  0.828600  0.677300  0.942800  1.0  -0.5643
  O  O220  1  0.700400  0.632800  0.938300  1.0  -0.5616
  O  O221  1  0.335400  0.845100  0.551400  1.0  -0.5638
  O  O222  1  0.205900  0.890400  0.546200  1.0  -0.5605
  O  O223  1  0.328600  0.177300  0.942800  1.0  -0.5643
  O  O224  1  0.200400  0.132800  0.938300  1.0  -0.5609
  O  O225  1  0.164600  0.345100  0.948600  1.0  -0.5653
  O  O226  1  0.294100  0.390400  0.953800  1.0  -0.5595
  O  O227  1  0.171400  0.677300  0.557200  1.0  -0.5634
  O  O228  1  0.299600  0.632800  0.561700  1.0  -0.5593
  O  O229  1  0.664600  0.845100  0.948600  1.0  -0.5653
  O  O230  1  0.794100  0.890400  0.953800  1.0  -0.5595
  O  O231  1  0.671400  0.177300  0.557200  1.0  -0.5634
  O  O232  1  0.799600  0.132800  0.561700  1.0  -0.5591
  O  O233  1  0.164600  0.654900  0.448600  1.0  -0.5651
  O  O234  1  0.294100  0.609600  0.453800  1.0  -0.5597
  O  O235  1  0.171400  0.322700  0.057200  1.0  -0.5636
  O  O236  1  0.299600  0.367200  0.061700  1.0  -0.559
  O  O237  1  0.664600  0.154900  0.448600  1.0  -0.5651
  O  O238  1  0.794100  0.109600  0.453800  1.0  -0.5592
  O  O239  1  0.671400  0.822700  0.057200  1.0  -0.5636
  O  O240  1  0.799600  0.867200  0.061700  1.0  -0.5587
  O  O241  1  0.835400  0.654900  0.051400  1.0  -0.5633
  O  O242  1  0.705900  0.609600  0.046200  1.0  -0.5602
  O  O243  1  0.828600  0.322700  0.442800  1.0  -0.5641
  O  O244  1  0.700400  0.367200  0.438300  1.0  -0.5609
  O  O245  1  0.335400  0.154900  0.051400  1.0  -0.5633
  O  O246  1  0.205900  0.109600  0.046200  1.0  -0.56
  O  O247  1  0.328600  0.822700  0.442800  1.0  -0.5641
  O  O248  1  0.200400  0.867200  0.438300  1.0  -0.5609
