# generated using pymatgen
data_CoH13C18(NO)4
_symmetry_space_group_name_H-M   'P 1'
_cell_length_a   13.42700000
_cell_length_b   18.68400000
_cell_length_c   16.76400000
_cell_angle_alpha   90.00000000
_cell_angle_beta   112.11000000
_cell_angle_gamma   90.00000000
_symmetry_Int_Tables_number   1
_chemical_formula_structural   CoH13C18(NO)4
_chemical_formula_sum   'Co8 H104 C144 N32 O32'
_cell_volume   3896.31945885
_cell_formula_units_Z   8
loop_
 _symmetry_equiv_pos_site_id
 _symmetry_equiv_pos_as_xyz
  1  'x, y, z'
loop_
 _atom_site_type_symbol
 _atom_site_label
 _atom_site_symmetry_multiplicity
 _atom_site_fract_x
 _atom_site_fract_y
 _atom_site_fract_z
 _atom_site_occupancy
 _atom_site_charge
  Co  Co1  1  0.500000  0.000000  0.500000  1.0  0.6987
  Co  Co2  1  0.000000  0.500000  0.500000  1.0  0.6987
  Co  Co3  1  0.500000  0.000000  0.000000  1.0  0.6987
  Co  Co4  1  0.000000  0.500000  0.000000  1.0  0.6987
  Co  Co5  1  0.000000  0.071860  0.250000  1.0  0.7998
  Co  Co6  1  0.500000  0.571860  0.250000  1.0  0.7998
  Co  Co7  1  0.000000  0.928140  0.750000  1.0  0.8012
  Co  Co8  1  0.500000  0.428140  0.750000  1.0  0.8012
  H  H9  1  0.862300  0.059900  0.950400  1.0  0.3117
  H  H10  1  0.414500  0.210900  0.595200  1.0  0.0973
  H  H11  1  0.684400  0.927800  0.661100  1.0  0.0668
  H  H12  1  0.576700  0.118900  0.657500  1.0  0.1111
  H  H13  1  0.709800  0.098100  0.801700  1.0  0.0932
  H  H14  1  0.811200  0.908800  0.811800  1.0  0.1025
  H  H15  1  0.770800  0.943300  0.879600  1.0  0.1002
  H  H16  1  0.152200  0.064200  0.824800  1.0  0.1017
  H  H17  1  0.234700  0.162300  0.905000  1.0  0.0997
  H  H18  1  0.168700  0.215700  0.998600  1.0  0.0916
  H  H19  1  0.017300  0.170500  0.016900  1.0  0.125
  H  H20  1  0.489900  0.068400  0.681300  1.0  0.103
  H  H21  1  0.607200  0.030400  0.825700  1.0  0.0631
  H  H22  1  0.362300  0.559900  0.950400  1.0  0.3117
  H  H23  1  0.914500  0.710900  0.595200  1.0  0.0973
  H  H24  1  0.184400  0.427800  0.661100  1.0  0.0668
  H  H25  1  0.076700  0.618900  0.657500  1.0  0.1111
  H  H26  1  0.209800  0.598100  0.801700  1.0  0.0932
  H  H27  1  0.311200  0.408800  0.811800  1.0  0.1025
  H  H28  1  0.270800  0.443300  0.879600  1.0  0.1002
  H  H29  1  0.652200  0.564200  0.824800  1.0  0.1017
  H  H30  1  0.734700  0.662300  0.905000  1.0  0.0997
  H  H31  1  0.668700  0.715700  0.998600  1.0  0.0916
  H  H32  1  0.517300  0.670500  0.016900  1.0  0.125
  H  H33  1  0.989900  0.568400  0.681300  1.0  0.103
  H  H34  1  0.107200  0.530400  0.825700  1.0  0.0631
  H  H35  1  0.137700  0.059900  0.549600  1.0  0.3119
  H  H36  1  0.585500  0.210900  0.904800  1.0  0.0976
  H  H37  1  0.315600  0.927800  0.838900  1.0  0.0668
  H  H38  1  0.423300  0.118900  0.842500  1.0  0.1102
  H  H39  1  0.290200  0.098100  0.698300  1.0  0.0954
  H  H40  1  0.188800  0.908800  0.688200  1.0  0.1024
  H  H41  1  0.229200  0.943300  0.620400  1.0  0.1014
  H  H42  1  0.847800  0.064200  0.675200  1.0  0.1014
  H  H43  1  0.765300  0.162300  0.595000  1.0  0.1001
  H  H44  1  0.831300  0.215700  0.501400  1.0  0.0917
  H  H45  1  0.982700  0.170500  0.483100  1.0  0.1252
  H  H46  1  0.510100  0.068400  0.818700  1.0  0.1043
  H  H47  1  0.392800  0.030400  0.674300  1.0  0.064
  H  H48  1  0.637700  0.559900  0.549600  1.0  0.3119
  H  H49  1  0.085500  0.710900  0.904800  1.0  0.0976
  H  H50  1  0.815600  0.427800  0.838900  1.0  0.0668
  H  H51  1  0.923300  0.618900  0.842500  1.0  0.1102
  H  H52  1  0.790200  0.598100  0.698300  1.0  0.0954
  H  H53  1  0.688800  0.408800  0.688200  1.0  0.1024
  H  H54  1  0.729200  0.443300  0.620400  1.0  0.1014
  H  H55  1  0.347800  0.564200  0.675200  1.0  0.1014
  H  H56  1  0.265300  0.662300  0.595000  1.0  0.1001
  H  H57  1  0.331300  0.715700  0.501400  1.0  0.0917
  H  H58  1  0.482700  0.670500  0.483100  1.0  0.1252
  H  H59  1  0.010100  0.568400  0.818700  1.0  0.1043
  H  H60  1  0.892800  0.530400  0.674300  1.0  0.064
  H  H61  1  0.137700  0.940100  0.049600  1.0  0.3113
  H  H62  1  0.585500  0.789100  0.404800  1.0  0.0976
  H  H63  1  0.315600  0.072200  0.338900  1.0  0.0668
  H  H64  1  0.423300  0.881100  0.342500  1.0  0.1116
  H  H65  1  0.290200  0.901900  0.198300  1.0  0.0917
  H  H66  1  0.188800  0.091200  0.188200  1.0  0.1006
  H  H67  1  0.229200  0.056700  0.120400  1.0  0.1004
  H  H68  1  0.847800  0.935800  0.175200  1.0  0.101
  H  H69  1  0.765300  0.837700  0.095000  1.0  0.0997
  H  H70  1  0.831300  0.784300  0.001400  1.0  0.0918
  H  H71  1  0.982700  0.829500  0.983100  1.0  0.1254
  H  H72  1  0.510100  0.931600  0.318700  1.0  0.1028
  H  H73  1  0.392800  0.969600  0.174300  1.0  0.0641
  H  H74  1  0.637700  0.440100  0.049600  1.0  0.3113
  H  H75  1  0.085500  0.289100  0.404800  1.0  0.0976
  H  H76  1  0.815600  0.572200  0.338900  1.0  0.0668
  H  H77  1  0.923300  0.381100  0.342500  1.0  0.1116
  H  H78  1  0.790200  0.401900  0.198300  1.0  0.0917
  H  H79  1  0.688800  0.591200  0.188200  1.0  0.1006
  H  H80  1  0.729200  0.556700  0.120400  1.0  0.1004
  H  H81  1  0.347800  0.435800  0.175200  1.0  0.101
  H  H82  1  0.265300  0.337700  0.095000  1.0  0.0997
  H  H83  1  0.331300  0.284300  0.001400  1.0  0.0918
  H  H84  1  0.482700  0.329500  0.983100  1.0  0.1254
  H  H85  1  0.010100  0.431600  0.318700  1.0  0.1028
  H  H86  1  0.892800  0.469600  0.174300  1.0  0.0641
  H  H87  1  0.862300  0.940100  0.450400  1.0  0.3119
  H  H88  1  0.414500  0.789100  0.095200  1.0  0.0976
  H  H89  1  0.684400  0.072200  0.161100  1.0  0.0673
  H  H90  1  0.576700  0.881100  0.157500  1.0  0.1103
  H  H91  1  0.709800  0.901900  0.301700  1.0  0.0938
  H  H92  1  0.811200  0.091200  0.311800  1.0  0.1015
  H  H93  1  0.770800  0.056700  0.379600  1.0  0.0999
  H  H94  1  0.152200  0.935800  0.324800  1.0  0.1011
  H  H95  1  0.234700  0.837700  0.405000  1.0  0.0994
  H  H96  1  0.168700  0.784300  0.498600  1.0  0.0921
  H  H97  1  0.017300  0.829500  0.516900  1.0  0.1253
  H  H98  1  0.489900  0.931600  0.181300  1.0  0.1008
  H  H99  1  0.607200  0.969600  0.325700  1.0  0.0623
  H  H100  1  0.362300  0.440100  0.450400  1.0  0.3119
  H  H101  1  0.914500  0.289100  0.095200  1.0  0.0976
  H  H102  1  0.184400  0.572200  0.161100  1.0  0.0673
  H  H103  1  0.076700  0.381100  0.157500  1.0  0.1103
  H  H104  1  0.209800  0.401900  0.301700  1.0  0.0938
  H  H105  1  0.311200  0.591200  0.311800  1.0  0.1015
  H  H106  1  0.270800  0.556700  0.379600  1.0  0.0999
  H  H107  1  0.652200  0.435800  0.324800  1.0  0.1011
  H  H108  1  0.734700  0.337700  0.405000  1.0  0.0994
  H  H109  1  0.668700  0.284300  0.498600  1.0  0.0921
  H  H110  1  0.517300  0.329500  0.516900  1.0  0.1253
  H  H111  1  0.989900  0.431600  0.181300  1.0  0.1008
  H  H112  1  0.107200  0.469600  0.325700  1.0  0.0623
  C  C113  1  0.318700  0.101670  0.502710  1.0  0.6772
  C  C114  1  0.107200  0.155300  0.368960  1.0  0.6554
  C  C115  1  0.181700  0.202620  0.438460  1.0  -0.1048
  C  C116  1  0.281100  0.178790  0.497840  1.0  -0.0792
  C  C117  1  0.347800  0.226650  0.557120  1.0  -0.0705
  C  C118  1  0.663500  0.968900  0.681800  1.0  0.1545
  C  C119  1  0.608700  0.075100  0.678800  1.0  -0.0403
  C  C120  1  0.681400  0.064200  0.758400  1.0  -0.0225
  C  C121  1  0.793500  0.953740  0.832300  1.0  -0.0551
  C  C122  1  0.890000  0.000240  0.863350  1.0  0.3924
  C  C123  1  0.034600  0.057740  0.872200  1.0  0.134
  C  C124  1  0.125000  0.085100  0.862800  1.0  -0.1085
  C  C125  1  0.173500  0.143500  0.910600  1.0  -0.0874
  C  C126  1  0.133800  0.175800  0.967400  1.0  -0.1233
  C  C127  1  0.043600  0.149600  0.978400  1.0  -0.0773
  C  C128  1  0.994400  0.090760  0.929100  1.0  0.11
  C  C129  1  0.551100  0.040100  0.694400  1.0  -0.0957
  C  C130  1  0.617700  0.022500  0.774700  1.0  -0.0901
  C  C131  1  0.818700  0.601670  0.502710  1.0  0.6772
  C  C132  1  0.607200  0.655300  0.368960  1.0  0.6554
  C  C133  1  0.681700  0.702620  0.438460  1.0  -0.1048
  C  C134  1  0.781100  0.678790  0.497840  1.0  -0.0792
  C  C135  1  0.847800  0.726650  0.557120  1.0  -0.0705
  C  C136  1  0.163500  0.468900  0.681800  1.0  0.1545
  C  C137  1  0.108700  0.575100  0.678800  1.0  -0.0403
  C  C138  1  0.181400  0.564200  0.758400  1.0  -0.0225
  C  C139  1  0.293500  0.453740  0.832300  1.0  -0.0551
  C  C140  1  0.390000  0.500240  0.863350  1.0  0.3924
  C  C141  1  0.534600  0.557740  0.872200  1.0  0.134
  C  C142  1  0.625000  0.585100  0.862800  1.0  -0.1085
  C  C143  1  0.673500  0.643500  0.910600  1.0  -0.0874
  C  C144  1  0.633800  0.675800  0.967400  1.0  -0.1233
  C  C145  1  0.543600  0.649600  0.978400  1.0  -0.0773
  C  C146  1  0.494400  0.590760  0.929100  1.0  0.11
  C  C147  1  0.051100  0.540100  0.694400  1.0  -0.0957
  C  C148  1  0.117700  0.522500  0.774700  1.0  -0.0901
  C  C149  1  0.681300  0.101670  0.997290  1.0  0.6771
  C  C150  1  0.892800  0.155300  0.131040  1.0  0.6563
  C  C151  1  0.818300  0.202620  0.061540  1.0  -0.105
  C  C152  1  0.718900  0.178790  0.002160  1.0  -0.0781
  C  C153  1  0.652200  0.226650  0.942880  1.0  -0.0706
  C  C154  1  0.336500  0.968900  0.818200  1.0  0.1553
  C  C155  1  0.391300  0.075100  0.821200  1.0  -0.0411
  C  C156  1  0.318600  0.064200  0.741600  1.0  -0.0225
  C  C157  1  0.206500  0.953740  0.667700  1.0  -0.056
  C  C158  1  0.110000  0.000240  0.636650  1.0  0.3926
  C  C159  1  0.965400  0.057740  0.627800  1.0  0.1334
  C  C160  1  0.875000  0.085100  0.637200  1.0  -0.1084
  C  C161  1  0.826500  0.143500  0.589400  1.0  -0.0906
  C  C162  1  0.866200  0.175800  0.532600  1.0  -0.124
  C  C163  1  0.956400  0.149600  0.521600  1.0  -0.0771
  C  C164  1  0.005600  0.090760  0.570900  1.0  0.1103
  C  C165  1  0.448900  0.040100  0.805600  1.0  -0.0918
  C  C166  1  0.382300  0.022500  0.725300  1.0  -0.089
  C  C167  1  0.181300  0.601670  0.997290  1.0  0.6771
  C  C168  1  0.392800  0.655300  0.131040  1.0  0.6563
  C  C169  1  0.318300  0.702620  0.061540  1.0  -0.105
  C  C170  1  0.218900  0.678790  0.002160  1.0  -0.0781
  C  C171  1  0.152200  0.726650  0.942880  1.0  -0.0706
  C  C172  1  0.836500  0.468900  0.818200  1.0  0.1553
  C  C173  1  0.891300  0.575100  0.821200  1.0  -0.0411
  C  C174  1  0.818600  0.564200  0.741600  1.0  -0.0225
  C  C175  1  0.706500  0.453740  0.667700  1.0  -0.056
  C  C176  1  0.610000  0.500240  0.636650  1.0  0.3926
  C  C177  1  0.465400  0.557740  0.627800  1.0  0.1334
  C  C178  1  0.375000  0.585100  0.637200  1.0  -0.1084
  C  C179  1  0.326500  0.643500  0.589400  1.0  -0.0906
  C  C180  1  0.366200  0.675800  0.532600  1.0  -0.124
  C  C181  1  0.456400  0.649600  0.521600  1.0  -0.0771
  C  C182  1  0.505600  0.590760  0.570900  1.0  0.1103
  C  C183  1  0.948900  0.540100  0.805600  1.0  -0.0918
  C  C184  1  0.882300  0.522500  0.725300  1.0  -0.089
  C  C185  1  0.681300  0.898330  0.497290  1.0  0.6772
  C  C186  1  0.892800  0.844700  0.631040  1.0  0.6564
  C  C187  1  0.818300  0.797380  0.561540  1.0  -0.108
  C  C188  1  0.718900  0.821210  0.502160  1.0  -0.0781
  C  C189  1  0.652200  0.773350  0.442880  1.0  -0.0705
  C  C190  1  0.336500  0.031100  0.318200  1.0  0.1558
  C  C191  1  0.391300  0.924900  0.321200  1.0  -0.0409
  C  C192  1  0.318600  0.935800  0.241600  1.0  -0.0236
  C  C193  1  0.206500  0.046260  0.167700  1.0  -0.0558
  C  C194  1  0.110000  0.999760  0.136650  1.0  0.3932
  C  C195  1  0.965400  0.942260  0.127800  1.0  0.1327
  C  C196  1  0.875000  0.914900  0.137200  1.0  -0.108
  C  C197  1  0.826500  0.856500  0.089400  1.0  -0.0903
  C  C198  1  0.866200  0.824200  0.032600  1.0  -0.1231
  C  C199  1  0.956400  0.850400  0.021600  1.0  -0.0779
  C  C200  1  0.005600  0.909240  0.070900  1.0  0.1103
  C  C201  1  0.448900  0.959900  0.305600  1.0  -0.0921
  C  C202  1  0.382300  0.977500  0.225300  1.0  -0.0891
  C  C203  1  0.181300  0.398330  0.497290  1.0  0.6772
  C  C204  1  0.392800  0.344700  0.631040  1.0  0.6564
  C  C205  1  0.318300  0.297380  0.561540  1.0  -0.108
  C  C206  1  0.218900  0.321210  0.502160  1.0  -0.0781
  C  C207  1  0.152200  0.273350  0.442880  1.0  -0.0705
  C  C208  1  0.836500  0.531100  0.318200  1.0  0.1558
  C  C209  1  0.891300  0.424900  0.321200  1.0  -0.0409
  C  C210  1  0.818600  0.435800  0.241600  1.0  -0.0236
  C  C211  1  0.706500  0.546260  0.167700  1.0  -0.0558
  C  C212  1  0.610000  0.499760  0.136650  1.0  0.3932
  C  C213  1  0.465400  0.442260  0.127800  1.0  0.1327
  C  C214  1  0.375000  0.414900  0.137200  1.0  -0.108
  C  C215  1  0.326500  0.356500  0.089400  1.0  -0.0903
  C  C216  1  0.366200  0.324200  0.032600  1.0  -0.1231
  C  C217  1  0.456400  0.350400  0.021600  1.0  -0.0779
  C  C218  1  0.505600  0.409240  0.070900  1.0  0.1103
  C  C219  1  0.948900  0.459900  0.305600  1.0  -0.0921
  C  C220  1  0.882300  0.477500  0.225300  1.0  -0.0891
  C  C221  1  0.318700  0.898330  0.002710  1.0  0.6774
  C  C222  1  0.107200  0.844700  0.868960  1.0  0.6548
  C  C223  1  0.181700  0.797380  0.938460  1.0  -0.1076
  C  C224  1  0.281100  0.821210  0.997840  1.0  -0.0792
  C  C225  1  0.347800  0.773350  0.057120  1.0  -0.0706
  C  C226  1  0.663500  0.031100  0.181800  1.0  0.1553
  C  C227  1  0.608700  0.924900  0.178800  1.0  -0.0394
  C  C228  1  0.681400  0.935800  0.258400  1.0  -0.0219
  C  C229  1  0.793500  0.046260  0.332300  1.0  -0.0553
  C  C230  1  0.890000  0.999760  0.363350  1.0  0.393
  C  C231  1  0.034600  0.942260  0.372200  1.0  0.1334
  C  C232  1  0.125000  0.914900  0.362800  1.0  -0.1086
  C  C233  1  0.173500  0.856500  0.410600  1.0  -0.0888
  C  C234  1  0.133800  0.824200  0.467400  1.0  -0.1227
  C  C235  1  0.043600  0.850400  0.478400  1.0  -0.0772
  C  C236  1  0.994400  0.909240  0.429100  1.0  0.1093
  C  C237  1  0.551100  0.959900  0.194400  1.0  -0.0951
  C  C238  1  0.617700  0.977500  0.274700  1.0  -0.091
  C  C239  1  0.818700  0.398330  0.002710  1.0  0.6774
  C  C240  1  0.607200  0.344700  0.868960  1.0  0.6548
  C  C241  1  0.681700  0.297380  0.938460  1.0  -0.1076
  C  C242  1  0.781100  0.321210  0.997840  1.0  -0.0792
  C  C243  1  0.847800  0.273350  0.057120  1.0  -0.0706
  C  C244  1  0.163500  0.531100  0.181800  1.0  0.1553
  C  C245  1  0.108700  0.424900  0.178800  1.0  -0.0394
  C  C246  1  0.181400  0.435800  0.258400  1.0  -0.0219
  C  C247  1  0.293500  0.546260  0.332300  1.0  -0.0553
  C  C248  1  0.390000  0.499760  0.363350  1.0  0.393
  C  C249  1  0.534600  0.442260  0.372200  1.0  0.1334
  C  C250  1  0.625000  0.414900  0.362800  1.0  -0.1086
  C  C251  1  0.673500  0.356500  0.410600  1.0  -0.0888
  C  C252  1  0.633800  0.324200  0.467400  1.0  -0.1227
  C  C253  1  0.543600  0.350400  0.478400  1.0  -0.0772
  C  C254  1  0.494400  0.409240  0.429100  1.0  0.1093
  C  C255  1  0.051100  0.459900  0.194400  1.0  -0.0951
  C  C256  1  0.117700  0.477500  0.274700  1.0  -0.091
  N  N257  1  0.589600  0.011920  0.632710  1.0  -0.1303
  N  N258  1  0.706100  0.988330  0.763000  1.0  -0.1196
  N  N259  1  0.967300  0.001010  0.831230  1.0  -0.4741
  N  N260  1  0.903100  0.052060  0.922220  1.0  -0.2856
  N  N261  1  0.089600  0.511920  0.632710  1.0  -0.1303
  N  N262  1  0.206100  0.488330  0.763000  1.0  -0.1196
  N  N263  1  0.467300  0.501010  0.831230  1.0  -0.4741
  N  N264  1  0.403100  0.552060  0.922220  1.0  -0.2856
  N  N265  1  0.410400  0.011920  0.867290  1.0  -0.1247
  N  N266  1  0.293900  0.988330  0.737000  1.0  -0.1209
  N  N267  1  0.032700  0.001010  0.668770  1.0  -0.4748
  N  N268  1  0.096900  0.052060  0.577780  1.0  -0.2853
  N  N269  1  0.910400  0.511920  0.867290  1.0  -0.1247
  N  N270  1  0.793900  0.488330  0.737000  1.0  -0.1209
  N  N271  1  0.532700  0.501010  0.668770  1.0  -0.4748
  N  N272  1  0.596900  0.552060  0.577780  1.0  -0.2853
  N  N273  1  0.410400  0.988080  0.367290  1.0  -0.1247
  N  N274  1  0.293900  0.011670  0.237000  1.0  -0.1211
  N  N275  1  0.032700  0.998990  0.168770  1.0  -0.4751
  N  N276  1  0.096900  0.947940  0.077780  1.0  -0.2865
  N  N277  1  0.910400  0.488080  0.367290  1.0  -0.1247
  N  N278  1  0.793900  0.511670  0.237000  1.0  -0.1211
  N  N279  1  0.532700  0.498990  0.168770  1.0  -0.4751
  N  N280  1  0.596900  0.447940  0.077780  1.0  -0.2865
  N  N281  1  0.589600  0.988080  0.132710  1.0  -0.1285
  N  N282  1  0.706100  0.011670  0.263000  1.0  -0.1195
  N  N283  1  0.967300  0.998990  0.331230  1.0  -0.4737
  N  N284  1  0.903100  0.947940  0.422220  1.0  -0.2847
  N  N285  1  0.089600  0.488080  0.132710  1.0  -0.1285
  N  N286  1  0.206100  0.511670  0.263000  1.0  -0.1195
  N  N287  1  0.467300  0.498990  0.331230  1.0  -0.4737
  N  N288  1  0.403100  0.447940  0.422220  1.0  -0.2847
  O  O289  1  0.408690  0.093060  0.498360  1.0  -0.6132
  O  O290  1  0.259540  0.054050  0.513800  1.0  -0.5864
  O  O291  1  0.146390  0.111500  0.331860  1.0  -0.5814
  O  O292  1  0.008320  0.161740  0.347380  1.0  -0.5958
  O  O293  1  0.908690  0.593060  0.498360  1.0  -0.6132
  O  O294  1  0.759540  0.554050  0.513800  1.0  -0.5864
  O  O295  1  0.646390  0.611500  0.331860  1.0  -0.5814
  O  O296  1  0.508320  0.661740  0.347380  1.0  -0.5958
  O  O297  1  0.591310  0.093060  0.001640  1.0  -0.6151
  O  O298  1  0.740460  0.054050  0.986200  1.0  -0.5864
  O  O299  1  0.853610  0.111500  0.168140  1.0  -0.5812
  O  O300  1  0.991680  0.161740  0.152620  1.0  -0.5958
  O  O301  1  0.091310  0.593060  0.001640  1.0  -0.6151
  O  O302  1  0.240460  0.554050  0.986200  1.0  -0.5864
  O  O303  1  0.353610  0.611500  0.168140  1.0  -0.5812
  O  O304  1  0.491680  0.661740  0.152620  1.0  -0.5958
  O  O305  1  0.591310  0.906940  0.501640  1.0  -0.6156
  O  O306  1  0.740460  0.945950  0.486200  1.0  -0.5861
  O  O307  1  0.853610  0.888500  0.668140  1.0  -0.5812
  O  O308  1  0.991680  0.838260  0.652620  1.0  -0.5969
  O  O309  1  0.091310  0.406940  0.501640  1.0  -0.6156
  O  O310  1  0.240460  0.445950  0.486200  1.0  -0.5861
  O  O311  1  0.353610  0.388500  0.668140  1.0  -0.5812
  O  O312  1  0.491680  0.338260  0.652620  1.0  -0.5969
  O  O313  1  0.408690  0.906940  0.998360  1.0  -0.6124
  O  O314  1  0.259540  0.945950  0.013800  1.0  -0.5858
  O  O315  1  0.146390  0.888500  0.831860  1.0  -0.581
  O  O316  1  0.008320  0.838260  0.847380  1.0  -0.5964
  O  O317  1  0.908690  0.406940  0.998360  1.0  -0.6124
  O  O318  1  0.759540  0.445950  0.013800  1.0  -0.5858
  O  O319  1  0.646390  0.388500  0.831860  1.0  -0.581
  O  O320  1  0.508320  0.338260  0.847380  1.0  -0.5964
