# generated using pymatgen
data_Zn3H34C76N6(O4F5)2
_symmetry_space_group_name_H-M   'P 1'
_cell_length_a   11.56900000
_cell_length_b   15.44700000
_cell_length_c   21.19000000
_cell_angle_alpha   76.79400000
_cell_angle_beta   79.02500000
_cell_angle_gamma   89.61500000
_symmetry_Int_Tables_number   1
_chemical_formula_structural   Zn3H34C76N6(O4F5)2
_chemical_formula_sum   'Zn3 H34 C76 N6 O8 F10'
_cell_volume   3616.53832059
_cell_formula_units_Z   1
loop_
 _symmetry_equiv_pos_site_id
 _symmetry_equiv_pos_as_xyz
  1  'x, y, z'
loop_
 _atom_site_type_symbol
 _atom_site_label
 _atom_site_symmetry_multiplicity
 _atom_site_fract_x
 _atom_site_fract_y
 _atom_site_fract_z
 _atom_site_occupancy
 _atom_site_charge
  Zn  Zn1  1  0.964850  0.479130  0.572660  1.0  0.928
  Zn  Zn2  1  0.035150  0.520870  0.427340  1.0  0.9271
  Zn  Zn3  1  0.500000  0.500000  0.000000  1.0  0.8078
  H  H4  1  0.311200  0.348300  0.437700  1.0  0.101
  H  H5  1  0.434800  0.229400  0.430600  1.0  0.1147
  H  H6  1  0.265100  0.097900  0.610900  1.0  0.1065
  H  H7  1  0.151700  0.217800  0.621300  1.0  0.1159
  H  H8  1  0.296700  0.986900  0.534000  1.0  0.1106
  H  H9  1  0.555100  0.176000  0.582600  1.0  0.1115
  H  H10  1  0.676400  0.295000  0.584400  1.0  0.1068
  H  H11  1  0.832400  0.305400  0.395500  1.0  0.1054
  H  H12  1  0.718800  0.180600  0.396300  1.0  0.1096
  H  H13  1  0.722900  0.460700  0.645400  1.0  0.0801
  H  H14  1  0.614400  0.460400  0.744800  1.0  0.1362
  H  H15  1  0.910300  0.523000  0.800500  1.0  0.1367
  H  H16  1  0.005900  0.524100  0.694800  1.0  0.0761
  H  H17  1  0.697600  0.316900  0.838400  1.0  0.1314
  H  H18  1  0.590900  0.207100  0.931500  1.0  0.1022
  H  H19  1  0.247600  0.232200  0.137400  1.0  0.1321
  H  H20  1  0.258700  0.331500  0.221300  1.0  0.1355
  H  H21  1  0.688800  0.651700  0.562300  1.0  0.1015
  H  H22  1  0.565200  0.770600  0.569400  1.0  0.1146
  H  H23  1  0.734900  0.902100  0.389100  1.0  0.1058
  H  H24  1  0.848300  0.782200  0.378700  1.0  0.1163
  H  H25  1  0.703300  0.013100  0.466000  1.0  0.1103
  H  H26  1  0.444900  0.824000  0.417400  1.0  0.1117
  H  H27  1  0.323600  0.705000  0.415600  1.0  0.1065
  H  H28  1  0.167600  0.694600  0.604500  1.0  0.1059
  H  H29  1  0.281200  0.819400  0.603700  1.0  0.1099
  H  H30  1  0.277100  0.539300  0.354600  1.0  0.0799
  H  H31  1  0.385600  0.539600  0.255200  1.0  0.1344
  H  H32  1  0.089700  0.477000  0.199500  1.0  0.1388
  H  H33  1  0.994100  0.475900  0.305200  1.0  0.0749
  H  H34  1  0.302400  0.683100  0.161600  1.0  0.1315
  H  H35  1  0.409100  0.792900  0.068500  1.0  0.1022
  H  H36  1  0.752400  0.767800  0.862600  1.0  0.1326
  H  H37  1  0.741300  0.668500  0.778700  1.0  0.1344
  C  C38  1  0.134500  0.369400  0.530600  1.0  0.6998
  C  C39  1  0.218200  0.294800  0.528900  1.0  -0.1367
  C  C40  1  0.302700  0.297400  0.473500  1.0  -0.0401
  C  C41  1  0.376000  0.226600  0.469000  1.0  -0.1486
  C  C42  1  0.363100  0.151800  0.520600  1.0  0.071
  C  C43  1  0.276400  0.149800  0.576000  1.0  -0.1567
  C  C44  1  0.207300  0.219600  0.581700  1.0  -0.072
  C  C45  1  0.435300  0.074000  0.512800  1.0  -0.0027
  C  C46  1  0.379800  0.992600  0.519700  1.0  -0.1566
  C  C47  1  0.560000  0.081600  0.493300  1.0  0.0036
  C  C48  1  0.627000  0.164300  0.490300  1.0  0.0546
  C  C49  1  0.613900  0.200500  0.544900  1.0  -0.1425
  C  C50  1  0.684900  0.272300  0.545800  1.0  -0.0545
  C  C51  1  0.767700  0.310500  0.490600  1.0  -0.1378
  C  C52  1  0.778200  0.277600  0.434400  1.0  -0.0498
  C  C53  1  0.709300  0.204000  0.434700  1.0  -0.1639
  C  C54  1  0.848500  0.384600  0.493000  1.0  0.7125
  C  C55  1  0.762000  0.471000  0.678700  1.0  0.1763
  C  C56  1  0.697000  0.472200  0.736900  1.0  -0.2378
  C  C57  1  0.747800  0.490100  0.785800  1.0  0.1693
  C  C58  1  0.868400  0.509000  0.769500  1.0  -0.245
  C  C59  1  0.924700  0.506600  0.706900  1.0  0.1929
  C  C60  1  0.676400  0.492000  0.853500  1.0  -0.1038
  C  C61  1  0.630700  0.416100  0.892000  1.0  0.2411
  C  C62  1  0.651700  0.329500  0.877200  1.0  -0.1886
  C  C63  1  0.594000  0.272600  0.928500  1.0  -0.086
  C  C64  1  0.485000  0.324500  0.962300  1.0  0.1185
  C  C65  1  0.403000  0.287400  0.016600  1.0  -0.0418
  C  C66  1  0.330400  0.202800  0.015000  1.0  -0.114
  C  C67  1  0.228700  0.190200  0.991800  1.0  0.2042
  C  C68  1  0.187300  0.104600  0.995400  1.0  0.1213
  C  C69  1  0.247700  0.031500  0.022200  1.0  0.1489
  C  C70  1  0.349400  0.044100  0.045500  1.0  0.1158
  C  C71  1  0.390800  0.129700  0.041800  1.0  0.1779
  C  C72  1  0.401000  0.322300  0.080300  1.0  0.1197
  C  C73  1  0.296000  0.283500  0.133300  1.0  -0.1639
  C  C74  1  0.287000  0.343000  0.175000  1.0  -0.1996
  C  C75  1  0.666100  0.573400  0.870100  1.0  0.2314
  C  C76  1  0.865500  0.630600  0.469400  1.0  0.6994
  C  C77  1  0.781800  0.705200  0.471100  1.0  -0.1372
  C  C78  1  0.697300  0.702600  0.526500  1.0  -0.0399
  C  C79  1  0.624000  0.773400  0.531000  1.0  -0.149
  C  C80  1  0.636900  0.848200  0.479400  1.0  0.0702
  C  C81  1  0.723600  0.850200  0.424000  1.0  -0.1587
  C  C82  1  0.792700  0.780400  0.418300  1.0  -0.071
  C  C83  1  0.564700  0.926000  0.487200  1.0  -0.0034
  C  C84  1  0.620200  0.007400  0.480300  1.0  -0.1564
  C  C85  1  0.440000  0.918400  0.506700  1.0  0.003
  C  C86  1  0.373000  0.835700  0.509700  1.0  0.0578
  C  C87  1  0.386100  0.799500  0.455100  1.0  -0.1403
  C  C88  1  0.315100  0.727700  0.454200  1.0  -0.0502
  C  C89  1  0.232300  0.689500  0.509400  1.0  -0.1373
  C  C90  1  0.221800  0.722400  0.565600  1.0  -0.0496
  C  C91  1  0.290700  0.796000  0.565300  1.0  -0.1641
  C  C92  1  0.151500  0.615400  0.507000  1.0  0.7118
  C  C93  1  0.238000  0.529000  0.321300  1.0  0.1751
  C  C94  1  0.303000  0.527800  0.263100  1.0  -0.2372
  C  C95  1  0.252200  0.509900  0.214200  1.0  0.1704
  C  C96  1  0.131600  0.491000  0.230500  1.0  -0.2464
  C  C97  1  0.075300  0.493400  0.293100  1.0  0.1935
  C  C98  1  0.323600  0.508000  0.146500  1.0  -0.0981
  C  C99  1  0.369300  0.583900  0.108000  1.0  0.2415
  C  C100  1  0.348300  0.670500  0.122800  1.0  -0.1901
  C  C101  1  0.406000  0.727400  0.071500  1.0  -0.0878
  C  C102  1  0.515000  0.675500  0.037700  1.0  0.1187
  C  C103  1  0.597000  0.712600  0.983400  1.0  -0.0425
  C  C104  1  0.669600  0.797200  0.985000  1.0  -0.1148
  C  C105  1  0.771300  0.809800  0.008200  1.0  0.2045
  C  C106  1  0.812700  0.895400  0.004600  1.0  0.1166
  C  C107  1  0.752300  0.968500  0.977800  1.0  0.1496
  C  C108  1  0.650600  0.955900  0.954500  1.0  0.1152
  C  C109  1  0.609200  0.870300  0.958200  1.0  0.178
  C  C110  1  0.599000  0.677700  0.919700  1.0  0.1193
  C  C111  1  0.704000  0.716500  0.866700  1.0  -0.1629
  C  C112  1  0.713000  0.657000  0.825000  1.0  -0.1999
  C  C113  1  0.333900  0.426600  0.129900  1.0  0.2323
  N  N114  1  0.877600  0.483200  0.663700  1.0  -0.2865
  N  N115  1  0.554800  0.404500  0.952800  1.0  -0.3772
  N  N116  1  0.403400  0.409700  0.073800  1.0  -0.3894
  N  N117  1  0.122400  0.516800  0.336300  1.0  -0.2876
  N  N118  1  0.445200  0.595500  0.047200  1.0  -0.3786
  N  N119  1  0.596600  0.590300  0.926200  1.0  -0.3887
  O  O120  1  0.078000  0.377900  0.584800  1.0  -0.5846
  O  O121  1  0.126800  0.419100  0.475300  1.0  -0.6425
  O  O122  1  0.905100  0.428400  0.438590  1.0  -0.6021
  O  O123  1  0.854300  0.396200  0.548230  1.0  -0.5922
  O  O124  1  0.922000  0.622100  0.415200  1.0  -0.5852
  O  O125  1  0.873200  0.580900  0.524700  1.0  -0.6461
  O  O126  1  0.094900  0.571600  0.561410  1.0  -0.6034
  O  O127  1  0.145700  0.603800  0.451770  1.0  -0.5919
  F  F128  1  0.169400  0.261900  0.965400  1.0  -0.1295
  F  F129  1  0.084300  0.091800  0.971900  1.0  -0.1478
  F  F130  1  0.206200  0.945600  0.025900  1.0  -0.1366
  F  F131  1  0.410100  0.970600  0.072400  1.0  -0.1356
  F  F132  1  0.493100  0.142300  0.065200  1.0  -0.1325
  F  F133  1  0.830600  0.738100  0.034600  1.0  -0.1305
  F  F134  1  0.915700  0.908200  0.028100  1.0  -0.1483
  F  F135  1  0.793800  0.054400  0.974100  1.0  -0.138
  F  F136  1  0.589900  0.029400  0.927600  1.0  -0.1363
  F  F137  1  0.506900  0.857700  0.934800  1.0  -0.1316
