# generated using pymatgen
data_DyH24C44S4(NO3)4
_symmetry_space_group_name_H-M   'P 1'
_cell_length_a   15.37630000
_cell_length_b   15.37630000
_cell_length_c   9.80860000
_cell_angle_alpha   90.00000000
_cell_angle_beta   90.00000000
_cell_angle_gamma   90.00000000
_symmetry_Int_Tables_number   1
_chemical_formula_structural   DyH24C44S4(NO3)4
_chemical_formula_sum   'Dy2 H48 C88 S8 N8 O24'
_cell_volume   2319.05319974
_cell_formula_units_Z   2
loop_
 _symmetry_equiv_pos_site_id
 _symmetry_equiv_pos_as_xyz
  1  'x, y, z'
loop_
 _atom_site_type_symbol
 _atom_site_label
 _atom_site_symmetry_multiplicity
 _atom_site_fract_x
 _atom_site_fract_y
 _atom_site_fract_z
 _atom_site_occupancy
 _atom_site_charge
  Dy  Dy1  1  0.000000  0.000000  0.250000  1.0  2.3762
  Dy  Dy2  1  0.000000  0.000000  0.750000  1.0  2.3762
  H  H3  1  0.912100  0.761600  0.203900  1.0  0.129
  H  H4  1  0.787100  0.678000  0.204200  1.0  0.1084
  H  H5  1  0.087900  0.238400  0.203900  1.0  0.1286
  H  H6  1  0.212900  0.322000  0.204200  1.0  0.1083
  H  H7  1  0.238400  0.912100  0.203900  1.0  0.1288
  H  H8  1  0.322000  0.787100  0.204200  1.0  0.1093
  H  H9  1  0.761600  0.087900  0.203900  1.0  0.1296
  H  H10  1  0.678000  0.212900  0.204200  1.0  0.1093
  H  H11  1  0.087900  0.761600  0.296100  1.0  0.1289
  H  H12  1  0.212900  0.678000  0.295800  1.0  0.1081
  H  H13  1  0.912100  0.238400  0.296100  1.0  0.129
  H  H14  1  0.787100  0.322000  0.295800  1.0  0.1085
  H  H15  1  0.761600  0.912100  0.296100  1.0  0.1293
  H  H16  1  0.678000  0.787100  0.295800  1.0  0.1094
  H  H17  1  0.238400  0.087900  0.296100  1.0  0.1294
  H  H18  1  0.322000  0.212900  0.295800  1.0  0.109
  H  H19  1  0.087900  0.238400  0.796100  1.0  0.1293
  H  H20  1  0.212900  0.322000  0.795800  1.0  0.1084
  H  H21  1  0.912100  0.761600  0.796100  1.0  0.1289
  H  H22  1  0.787100  0.678000  0.795800  1.0  0.1081
  H  H23  1  0.761600  0.087900  0.796100  1.0  0.1296
  H  H24  1  0.678000  0.212900  0.795800  1.0  0.1089
  H  H25  1  0.238400  0.912100  0.796100  1.0  0.1292
  H  H26  1  0.322000  0.787100  0.795800  1.0  0.1094
  H  H27  1  0.912100  0.238400  0.703900  1.0  0.1287
  H  H28  1  0.787100  0.322000  0.704200  1.0  0.1084
  H  H29  1  0.087900  0.761600  0.703900  1.0  0.1287
  H  H30  1  0.212900  0.678000  0.704200  1.0  0.1084
  H  H31  1  0.238400  0.087900  0.703900  1.0  0.129
  H  H32  1  0.322000  0.212900  0.704200  1.0  0.1092
  H  H33  1  0.761600  0.912100  0.703900  1.0  0.1291
  H  H34  1  0.678000  0.787100  0.704200  1.0  0.1094
  H  H35  1  0.652000  0.797500  0.000000  1.0  0.1243
  H  H36  1  0.497100  0.833400  0.000000  1.0  0.1291
  H  H37  1  0.348000  0.202500  0.000000  1.0  0.1228
  H  H38  1  0.502900  0.166600  0.000000  1.0  0.129
  H  H39  1  0.202500  0.652000  0.000000  1.0  0.1245
  H  H40  1  0.166600  0.497100  0.000000  1.0  0.1279
  H  H41  1  0.797500  0.348000  0.000000  1.0  0.1249
  H  H42  1  0.833400  0.502900  0.000000  1.0  0.1283
  H  H43  1  0.348000  0.797500  0.500000  1.0  0.1235
  H  H44  1  0.502900  0.833400  0.500000  1.0  0.129
  H  H45  1  0.652000  0.202500  0.500000  1.0  0.124
  H  H46  1  0.497100  0.166600  0.500000  1.0  0.1289
  H  H47  1  0.797500  0.652000  0.500000  1.0  0.1248
  H  H48  1  0.833400  0.497100  0.500000  1.0  0.1282
  H  H49  1  0.202500  0.348000  0.500000  1.0  0.1238
  H  H50  1  0.166600  0.502900  0.500000  1.0  0.1277
  C  C51  1  0.886920  0.744420  0.122000  1.0  -0.0249
  C  C52  1  0.812070  0.694710  0.121900  1.0  -0.1006
  C  C53  1  0.113080  0.255580  0.122000  1.0  -0.0237
  C  C54  1  0.187930  0.305290  0.121900  1.0  -0.0991
  C  C55  1  0.255580  0.886920  0.122000  1.0  -0.0221
  C  C56  1  0.305290  0.812070  0.121900  1.0  -0.1
  C  C57  1  0.744420  0.113080  0.122000  1.0  -0.0226
  C  C58  1  0.694710  0.187930  0.121900  1.0  -0.0991
  C  C59  1  0.113080  0.744420  0.378000  1.0  -0.024
  C  C60  1  0.187930  0.694710  0.378100  1.0  -0.1018
  C  C61  1  0.886920  0.255580  0.378000  1.0  -0.0243
  C  C62  1  0.812070  0.305290  0.378100  1.0  -0.1021
  C  C63  1  0.744420  0.886920  0.378000  1.0  -0.0218
  C  C64  1  0.694710  0.812070  0.378100  1.0  -0.1001
  C  C65  1  0.255580  0.113080  0.378000  1.0  -0.0227
  C  C66  1  0.305290  0.187930  0.378100  1.0  -0.1025
  C  C67  1  0.113080  0.255580  0.878000  1.0  -0.0208
  C  C68  1  0.187930  0.305290  0.878100  1.0  -0.1068
  C  C69  1  0.886920  0.744420  0.878000  1.0  -0.0225
  C  C70  1  0.812070  0.694710  0.878100  1.0  -0.1072
  C  C71  1  0.744420  0.113080  0.878000  1.0  -0.0203
  C  C72  1  0.694710  0.187930  0.878100  1.0  -0.1059
  C  C73  1  0.255580  0.886920  0.878000  1.0  -0.0197
  C  C74  1  0.305290  0.812070  0.878100  1.0  -0.1065
  C  C75  1  0.886920  0.255580  0.622000  1.0  -0.0216
  C  C76  1  0.812070  0.305290  0.621900  1.0  -0.1045
  C  C77  1  0.113080  0.744420  0.622000  1.0  -0.0215
  C  C78  1  0.187930  0.694710  0.621900  1.0  -0.105
  C  C79  1  0.255580  0.113080  0.622000  1.0  -0.02
  C  C80  1  0.305290  0.187930  0.621900  1.0  -0.1053
  C  C81  1  0.744420  0.886920  0.622000  1.0  -0.0195
  C  C82  1  0.694710  0.812070  0.621900  1.0  -0.1036
  C  C83  1  0.923750  0.768250  0.000000  1.0  -0.1957
  C  C84  1  0.773800  0.669450  0.000000  1.0  0.0829
  C  C85  1  0.691190  0.618150  0.000000  1.0  -0.0533
  C  C86  1  0.613170  0.664240  0.000000  1.0  0.1862
  C  C87  1  0.606120  0.758070  0.000000  1.0  -0.1614
  C  C88  1  0.520700  0.777700  0.000000  1.0  -0.1657
  C  C89  1  0.472500  0.697630  0.000000  1.0  0.1894
  C  C90  1  0.076250  0.231750  0.000000  1.0  -0.1966
  C  C91  1  0.226200  0.330550  0.000000  1.0  0.0819
  C  C92  1  0.308810  0.381850  0.000000  1.0  -0.0519
  C  C93  1  0.386830  0.335760  0.000000  1.0  0.1858
  C  C94  1  0.393880  0.241930  0.000000  1.0  -0.1632
  C  C95  1  0.479300  0.222300  0.000000  1.0  -0.166
  C  C96  1  0.527500  0.302370  0.000000  1.0  0.1894
  C  C97  1  0.231750  0.923750  0.000000  1.0  -0.1987
  C  C98  1  0.330550  0.773800  0.000000  1.0  0.0831
  C  C99  1  0.381850  0.691190  0.000000  1.0  -0.0521
  C  C100  1  0.335760  0.613170  0.000000  1.0  0.186
  C  C101  1  0.241930  0.606120  0.000000  1.0  -0.1598
  C  C102  1  0.222300  0.520700  0.000000  1.0  -0.1615
  C  C103  1  0.302370  0.472500  0.000000  1.0  0.189
  C  C104  1  0.768250  0.076250  0.000000  1.0  -0.1965
  C  C105  1  0.669450  0.226200  0.000000  1.0  0.0823
  C  C106  1  0.618150  0.308810  0.000000  1.0  -0.0522
  C  C107  1  0.664240  0.386830  0.000000  1.0  0.1869
  C  C108  1  0.758070  0.393880  0.000000  1.0  -0.1602
  C  C109  1  0.777700  0.479300  0.000000  1.0  -0.1624
  C  C110  1  0.697630  0.527500  0.000000  1.0  0.1895
  C  C111  1  0.076250  0.768250  0.500000  1.0  -0.1968
  C  C112  1  0.226200  0.669450  0.500000  1.0  0.0814
  C  C113  1  0.308810  0.618150  0.500000  1.0  -0.0527
  C  C114  1  0.386830  0.664240  0.500000  1.0  0.1864
  C  C115  1  0.393880  0.758070  0.500000  1.0  -0.1633
  C  C116  1  0.479300  0.777700  0.500000  1.0  -0.1647
  C  C117  1  0.527500  0.697630  0.500000  1.0  0.1898
  C  C118  1  0.923750  0.231750  0.500000  1.0  -0.1957
  C  C119  1  0.773800  0.330550  0.500000  1.0  0.0831
  C  C120  1  0.691190  0.381850  0.500000  1.0  -0.0526
  C  C121  1  0.613170  0.335760  0.500000  1.0  0.1854
  C  C122  1  0.606120  0.241930  0.500000  1.0  -0.1616
  C  C123  1  0.520700  0.222300  0.500000  1.0  -0.1665
  C  C124  1  0.472500  0.302370  0.500000  1.0  0.1895
  C  C125  1  0.768250  0.923750  0.500000  1.0  -0.199
  C  C126  1  0.669450  0.773800  0.500000  1.0  0.0822
  C  C127  1  0.618150  0.691190  0.500000  1.0  -0.0531
  C  C128  1  0.664240  0.613170  0.500000  1.0  0.1861
  C  C129  1  0.758070  0.606120  0.500000  1.0  -0.1599
  C  C130  1  0.777700  0.520700  0.500000  1.0  -0.1626
  C  C131  1  0.697630  0.472500  0.500000  1.0  0.1893
  C  C132  1  0.231750  0.076250  0.500000  1.0  -0.196
  C  C133  1  0.330550  0.226200  0.500000  1.0  0.0832
  C  C134  1  0.381850  0.308810  0.500000  1.0  -0.0514
  C  C135  1  0.335760  0.386830  0.500000  1.0  0.1863
  C  C136  1  0.241930  0.393880  0.500000  1.0  -0.1603
  C  C137  1  0.222300  0.479300  0.500000  1.0  -0.1615
  C  C138  1  0.302370  0.527500  0.500000  1.0  0.1893
  S  S139  1  0.026060  0.821490  0.000000  1.0  1.4111
  S  S140  1  0.973940  0.178510  0.000000  1.0  1.4108
  S  S141  1  0.178510  0.026060  0.000000  1.0  1.4108
  S  S142  1  0.821490  0.973940  0.000000  1.0  1.4107
  S  S143  1  0.973940  0.821490  0.500000  1.0  1.4109
  S  S144  1  0.026060  0.178510  0.500000  1.0  1.4108
  S  S145  1  0.821490  0.026060  0.500000  1.0  1.4109
  S  S146  1  0.178510  0.973940  0.500000  1.0  1.4108
  N  N147  1  0.530220  0.629710  0.000000  1.0  -0.2414
  N  N148  1  0.469780  0.370290  0.000000  1.0  -0.2407
  N  N149  1  0.370290  0.530220  0.000000  1.0  -0.2441
  N  N150  1  0.629710  0.469780  0.000000  1.0  -0.2448
  N  N151  1  0.469780  0.629710  0.500000  1.0  -0.2409
  N  N152  1  0.530220  0.370290  0.500000  1.0  -0.2409
  N  N153  1  0.629710  0.530220  0.500000  1.0  -0.2446
  N  N154  1  0.370290  0.469780  0.500000  1.0  -0.2445
  O  O155  1  0.031190  0.874440  0.122340  1.0  -0.7275
  O  O156  1  0.968810  0.125560  0.122340  1.0  -0.7269
  O  O157  1  0.125560  0.031190  0.122340  1.0  -0.7272
  O  O158  1  0.874440  0.968810  0.122340  1.0  -0.7267
  O  O159  1  0.968810  0.874440  0.377660  1.0  -0.7265
  O  O160  1  0.031190  0.125560  0.377660  1.0  -0.7267
  O  O161  1  0.874440  0.031190  0.377660  1.0  -0.7261
  O  O162  1  0.125560  0.968810  0.377660  1.0  -0.7263
  O  O163  1  0.968810  0.125560  0.877660  1.0  -0.7266
  O  O164  1  0.031190  0.874440  0.877660  1.0  -0.7265
  O  O165  1  0.874440  0.968810  0.877660  1.0  -0.7263
  O  O166  1  0.125560  0.031190  0.877660  1.0  -0.7265
  O  O167  1  0.031190  0.125560  0.622340  1.0  -0.7272
  O  O168  1  0.968810  0.874440  0.622340  1.0  -0.7272
  O  O169  1  0.125560  0.968810  0.622340  1.0  -0.7271
  O  O170  1  0.874440  0.031190  0.622340  1.0  -0.7266
  O  O171  1  0.089260  0.752390  0.000000  1.0  -0.6737
  O  O172  1  0.910740  0.247610  0.000000  1.0  -0.6723
  O  O173  1  0.247610  0.089260  0.000000  1.0  -0.6686
  O  O174  1  0.752390  0.910740  0.000000  1.0  -0.6666
  O  O175  1  0.910740  0.752390  0.500000  1.0  -0.6722
  O  O176  1  0.089260  0.247610  0.500000  1.0  -0.6757
  O  O177  1  0.752390  0.089260  0.500000  1.0  -0.6667
  O  O178  1  0.247610  0.910740  0.500000  1.0  -0.6678
