# generated using pymatgen
data_Cd2H20C28N5O6
_symmetry_space_group_name_H-M   'P 1'
_cell_length_a   12.38790000
_cell_length_b   21.40740000
_cell_length_c   27.11190000
_cell_angle_alpha   90.00000000
_cell_angle_beta   90.00000000
_cell_angle_gamma   90.00000000
_symmetry_Int_Tables_number   1
_chemical_formula_structural   Cd2H20C28N5O6
_chemical_formula_sum   'Cd16 H160 C224 N40 O48'
_cell_volume   7189.87878896
_cell_formula_units_Z   8
loop_
 _symmetry_equiv_pos_site_id
 _symmetry_equiv_pos_as_xyz
  1  'x, y, z'
loop_
 _atom_site_type_symbol
 _atom_site_label
 _atom_site_symmetry_multiplicity
 _atom_site_fract_x
 _atom_site_fract_y
 _atom_site_fract_z
 _atom_site_occupancy
 _atom_site_charge
  Cd  Cd1  1  0.589950  0.581720  0.902440  1.0  0.9056
  Cd  Cd2  1  0.510600  0.627030  0.611370  1.0  0.7385
  Cd  Cd3  1  0.410050  0.081720  0.597560  1.0  0.9052
  Cd  Cd4  1  0.489400  0.127030  0.888630  1.0  0.7402
  Cd  Cd5  1  0.910050  0.081720  0.402440  1.0  0.9057
  Cd  Cd6  1  0.989400  0.127030  0.111370  1.0  0.7386
  Cd  Cd7  1  0.089950  0.581720  0.097560  1.0  0.9051
  Cd  Cd8  1  0.010600  0.627030  0.388630  1.0  0.7412
  Cd  Cd9  1  0.089950  0.918280  0.597560  1.0  0.9024
  Cd  Cd10  1  0.010600  0.872970  0.888630  1.0  0.7421
  Cd  Cd11  1  0.910050  0.418280  0.902440  1.0  0.9038
  Cd  Cd12  1  0.989400  0.372970  0.611370  1.0  0.7388
  Cd  Cd13  1  0.410050  0.418280  0.097560  1.0  0.9028
  Cd  Cd14  1  0.489400  0.372970  0.388630  1.0  0.7412
  Cd  Cd15  1  0.589950  0.918280  0.402440  1.0  0.9033
  Cd  Cd16  1  0.510600  0.872970  0.111370  1.0  0.7387
  H  H17  1  0.548900  0.596600  0.726200  1.0  0.0692
  H  H18  1  0.859100  0.569500  0.760400  1.0  0.1146
  H  H19  1  0.897400  0.566900  0.677200  1.0  0.102
  H  H20  1  0.760700  0.583200  0.621100  1.0  0.0648
  H  H21  1  0.389200  0.575800  0.980600  1.0  0.0863
  H  H22  1  0.102000  0.584300  0.913500  1.0  0.1099
  H  H23  1  0.191500  0.585100  0.839000  1.0  0.1052
  H  H24  1  0.377000  0.585400  0.837200  1.0  0.0736
  H  H25  1  0.305700  0.609400  0.527200  1.0  0.0701
  H  H26  1  0.220500  0.777300  0.476700  1.0  0.0945
  H  H27  1  0.340900  0.821700  0.532300  1.0  0.1142
  H  H28  1  0.445300  0.757700  0.580400  1.0  0.0768
  H  H29  1  0.437100  0.006000  0.954600  1.0  0.0661
  H  H30  1  0.458000  0.900500  0.958000  1.0  0.097
  H  H31  1  0.668000  0.912500  0.848800  1.0  0.1056
  H  H32  1  0.641400  0.017300  0.847400  1.0  0.0699
  H  H33  1  0.697100  0.815100  0.854300  1.0  0.1108
  H  H34  1  0.703400  0.708800  0.853000  1.0  0.0679
  H  H35  1  0.478100  0.698300  0.950700  1.0  0.0549
  H  H36  1  0.461600  0.804100  0.954000  1.0  0.1017
  H  H37  1  0.451100  0.096600  0.773800  1.0  0.0683
  H  H38  1  0.140900  0.069500  0.739600  1.0  0.114
  H  H39  1  0.102600  0.066900  0.822800  1.0  0.1015
  H  H40  1  0.239300  0.083200  0.878900  1.0  0.0649
  H  H41  1  0.610800  0.075800  0.519400  1.0  0.0853
  H  H42  1  0.898000  0.084300  0.586500  1.0  0.1104
  H  H43  1  0.808500  0.085100  0.661000  1.0  0.1056
  H  H44  1  0.623000  0.085400  0.662800  1.0  0.0732
  H  H45  1  0.694300  0.109400  0.972800  1.0  0.0695
  H  H46  1  0.779500  0.277300  0.023300  1.0  0.0954
  H  H47  1  0.659100  0.321700  0.967700  1.0  0.1146
  H  H48  1  0.554700  0.257700  0.919600  1.0  0.0763
  H  H49  1  0.562900  0.506000  0.545400  1.0  0.0659
  H  H50  1  0.542000  0.400500  0.542000  1.0  0.0974
  H  H51  1  0.332000  0.412500  0.651200  1.0  0.1055
  H  H52  1  0.358600  0.517300  0.652600  1.0  0.0701
  H  H53  1  0.302900  0.315100  0.645700  1.0  0.1111
  H  H54  1  0.296600  0.208800  0.647000  1.0  0.0688
  H  H55  1  0.521900  0.198300  0.549300  1.0  0.0549
  H  H56  1  0.538400  0.304100  0.546000  1.0  0.1017
  H  H57  1  0.951100  0.096600  0.226200  1.0  0.0685
  H  H58  1  0.640900  0.069500  0.260400  1.0  0.1147
  H  H59  1  0.602600  0.066900  0.177200  1.0  0.102
  H  H60  1  0.739300  0.083200  0.121100  1.0  0.0652
  H  H61  1  0.110800  0.075800  0.480600  1.0  0.0862
  H  H62  1  0.398000  0.084300  0.413500  1.0  0.1102
  H  H63  1  0.308500  0.085100  0.339000  1.0  0.1052
  H  H64  1  0.123000  0.085400  0.337200  1.0  0.0742
  H  H65  1  0.194300  0.109400  0.027200  1.0  0.07
  H  H66  1  0.279500  0.277300  0.976700  1.0  0.095
  H  H67  1  0.159100  0.321700  0.032300  1.0  0.1143
  H  H68  1  0.054700  0.257700  0.080400  1.0  0.0771
  H  H69  1  0.062900  0.506000  0.454600  1.0  0.0661
  H  H70  1  0.042000  0.400500  0.458000  1.0  0.0976
  H  H71  1  0.832000  0.412500  0.348800  1.0  0.105
  H  H72  1  0.858600  0.517300  0.347400  1.0  0.0698
  H  H73  1  0.802900  0.315100  0.354300  1.0  0.1111
  H  H74  1  0.796600  0.208800  0.353000  1.0  0.0679
  H  H75  1  0.021900  0.198300  0.450700  1.0  0.0551
  H  H76  1  0.038400  0.304100  0.454000  1.0  0.1017
  H  H77  1  0.048900  0.596600  0.273800  1.0  0.0687
  H  H78  1  0.359100  0.569500  0.239600  1.0  0.1143
  H  H79  1  0.397400  0.566900  0.322800  1.0  0.1018
  H  H80  1  0.260700  0.583200  0.378900  1.0  0.0643
  H  H81  1  0.889200  0.575800  0.019400  1.0  0.0855
  H  H82  1  0.602000  0.584300  0.086500  1.0  0.1098
  H  H83  1  0.691500  0.585100  0.161000  1.0  0.106
  H  H84  1  0.877000  0.585400  0.162800  1.0  0.0729
  H  H85  1  0.805700  0.609400  0.472800  1.0  0.0696
  H  H86  1  0.720500  0.777300  0.523300  1.0  0.095
  H  H87  1  0.840900  0.821700  0.467700  1.0  0.1149
  H  H88  1  0.945300  0.757700  0.419600  1.0  0.0766
  H  H89  1  0.937100  0.006000  0.045400  1.0  0.066
  H  H90  1  0.958000  0.900500  0.042000  1.0  0.097
  H  H91  1  0.168000  0.912500  0.151200  1.0  0.1059
  H  H92  1  0.141400  0.017300  0.152600  1.0  0.0699
  H  H93  1  0.197100  0.815100  0.145700  1.0  0.1108
  H  H94  1  0.203400  0.708800  0.147000  1.0  0.0687
  H  H95  1  0.978100  0.698300  0.049300  1.0  0.0548
  H  H96  1  0.961600  0.804100  0.046000  1.0  0.102
  H  H97  1  0.048900  0.903400  0.773800  1.0  0.0691
  H  H98  1  0.359100  0.930500  0.739600  1.0  0.1144
  H  H99  1  0.397400  0.933100  0.822800  1.0  0.1022
  H  H100  1  0.260700  0.916800  0.878900  1.0  0.0645
  H  H101  1  0.889200  0.924200  0.519400  1.0  0.0854
  H  H102  1  0.602000  0.915700  0.586500  1.0  0.1097
  H  H103  1  0.691500  0.914900  0.661000  1.0  0.1067
  H  H104  1  0.877000  0.914600  0.662800  1.0  0.0733
  H  H105  1  0.805700  0.890600  0.972800  1.0  0.0689
  H  H106  1  0.720500  0.722700  0.023300  1.0  0.0951
  H  H107  1  0.840900  0.678300  0.967700  1.0  0.1143
  H  H108  1  0.945300  0.742300  0.919600  1.0  0.0767
  H  H109  1  0.937100  0.494000  0.545400  1.0  0.0655
  H  H110  1  0.958000  0.599500  0.542000  1.0  0.0969
  H  H111  1  0.168000  0.587500  0.651200  1.0  0.1047
  H  H112  1  0.141400  0.482700  0.652600  1.0  0.0703
  H  H113  1  0.197100  0.684900  0.645700  1.0  0.111
  H  H114  1  0.203400  0.791200  0.647000  1.0  0.0687
  H  H115  1  0.978100  0.801700  0.549300  1.0  0.0553
  H  H116  1  0.961600  0.695900  0.546000  1.0  0.102
  H  H117  1  0.951100  0.403400  0.726200  1.0  0.0683
  H  H118  1  0.640900  0.430500  0.760400  1.0  0.1144
  H  H119  1  0.602600  0.433100  0.677200  1.0  0.102
  H  H120  1  0.739300  0.416800  0.621100  1.0  0.0651
  H  H121  1  0.110800  0.424200  0.980600  1.0  0.0857
  H  H122  1  0.398000  0.415700  0.913500  1.0  0.1106
  H  H123  1  0.308500  0.414900  0.839000  1.0  0.1054
  H  H124  1  0.123000  0.414600  0.837200  1.0  0.0741
  H  H125  1  0.194300  0.390600  0.527200  1.0  0.0691
  H  H126  1  0.279500  0.222700  0.476700  1.0  0.0948
  H  H127  1  0.159100  0.178300  0.532300  1.0  0.1144
  H  H128  1  0.054700  0.242300  0.580400  1.0  0.0774
  H  H129  1  0.062900  0.994000  0.954600  1.0  0.0663
  H  H130  1  0.042000  0.099500  0.958000  1.0  0.0976
  H  H131  1  0.832000  0.087500  0.848800  1.0  0.1038
  H  H132  1  0.858600  0.982700  0.847400  1.0  0.0695
  H  H133  1  0.802900  0.184900  0.854300  1.0  0.1106
  H  H134  1  0.796600  0.291200  0.853000  1.0  0.0681
  H  H135  1  0.021900  0.301700  0.950700  1.0  0.0549
  H  H136  1  0.038400  0.195900  0.954000  1.0  0.1017
  H  H137  1  0.451100  0.403400  0.273800  1.0  0.068
  H  H138  1  0.140900  0.430500  0.239600  1.0  0.1142
  H  H139  1  0.102600  0.433100  0.322800  1.0  0.1017
  H  H140  1  0.239300  0.416800  0.378900  1.0  0.0651
  H  H141  1  0.610800  0.424200  0.019400  1.0  0.0858
  H  H142  1  0.898000  0.415700  0.086500  1.0  0.1108
  H  H143  1  0.808500  0.414900  0.161000  1.0  0.1063
  H  H144  1  0.623000  0.414600  0.162800  1.0  0.0734
  H  H145  1  0.694300  0.390600  0.472800  1.0  0.0689
  H  H146  1  0.779500  0.222700  0.523300  1.0  0.0954
  H  H147  1  0.659100  0.178300  0.467700  1.0  0.1144
  H  H148  1  0.554700  0.242300  0.419600  1.0  0.0767
  H  H149  1  0.562900  0.994000  0.045400  1.0  0.0657
  H  H150  1  0.542000  0.099500  0.042000  1.0  0.0975
  H  H151  1  0.332000  0.087500  0.151200  1.0  0.1042
  H  H152  1  0.358600  0.982700  0.152600  1.0  0.0702
  H  H153  1  0.302900  0.184900  0.145700  1.0  0.1111
  H  H154  1  0.296600  0.291200  0.147000  1.0  0.0687
  H  H155  1  0.521900  0.301700  0.049300  1.0  0.0551
  H  H156  1  0.538400  0.195900  0.046000  1.0  0.1017
  H  H157  1  0.548900  0.903400  0.226200  1.0  0.0697
  H  H158  1  0.859100  0.930500  0.260400  1.0  0.1145
  H  H159  1  0.897400  0.933100  0.177200  1.0  0.1021
  H  H160  1  0.760700  0.916800  0.121100  1.0  0.0646
  H  H161  1  0.389200  0.924200  0.480600  1.0  0.0859
  H  H162  1  0.102000  0.915700  0.413500  1.0  0.1101
  H  H163  1  0.191500  0.914900  0.339000  1.0  0.1052
  H  H164  1  0.377000  0.914600  0.337200  1.0  0.0738
  H  H165  1  0.305700  0.890600  0.027200  1.0  0.0691
  H  H166  1  0.220500  0.722700  0.976700  1.0  0.0943
  H  H167  1  0.340900  0.678300  0.032300  1.0  0.1138
  H  H168  1  0.445300  0.742300  0.080400  1.0  0.0769
  H  H169  1  0.437100  0.494000  0.454600  1.0  0.0661
  H  H170  1  0.458000  0.599500  0.458000  1.0  0.0969
  H  H171  1  0.668000  0.587500  0.348800  1.0  0.1043
  H  H172  1  0.641400  0.482700  0.347400  1.0  0.0699
  H  H173  1  0.697100  0.684900  0.354300  1.0  0.1104
  H  H174  1  0.703400  0.791200  0.353000  1.0  0.0681
  H  H175  1  0.478100  0.801700  0.450700  1.0  0.0551
  H  H176  1  0.461600  0.695900  0.454000  1.0  0.1018
  C  C177  1  0.620300  0.591470  0.716410  1.0  0.1874
  C  C178  1  0.697800  0.582730  0.752470  1.0  -0.2029
  C  C179  1  0.804300  0.574450  0.737240  1.0  0.0169
  C  C180  1  0.827300  0.573760  0.688100  1.0  -0.1391
  C  C181  1  0.744300  0.583390  0.654580  1.0  0.1684
  C  C182  1  0.666200  0.581550  0.805510  1.0  0.6712
  C  C183  1  0.348800  0.578780  0.951770  1.0  0.1778
  C  C184  1  0.236300  0.581060  0.955520  1.0  -0.1697
  C  C185  1  0.177000  0.583330  0.912480  1.0  0.0121
  C  C186  1  0.230200  0.584200  0.868410  1.0  -0.132
  C  C187  1  0.342000  0.583670  0.867530  1.0  0.1477
  C  C188  1  0.181300  0.581120  0.004750  1.0  0.6529
  C  C189  1  0.314300  0.652570  0.527380  1.0  0.1804
  C  C190  1  0.251100  0.687880  0.495620  1.0  -0.1961
  C  C191  1  0.261700  0.752160  0.497330  1.0  0.0137
  C  C192  1  0.333900  0.778580  0.529960  1.0  -0.1234
  C  C193  1  0.395400  0.739690  0.559080  1.0  0.1607
  C  C194  1  0.173500  0.657790  0.459430  1.0  0.6879
  C  C195  1  0.485000  0.987050  0.932780  1.0  0.1734
  C  C196  1  0.496900  0.923220  0.934820  1.0  -0.1908
  C  C197  1  0.565300  0.892420  0.903170  1.0  0.0882
  C  C198  1  0.619500  0.930180  0.870930  1.0  -0.2058
  C  C199  1  0.603900  0.993630  0.870540  1.0  0.1569
  C  C200  1  0.574800  0.823810  0.902760  1.0  0.0488
  C  C201  1  0.649100  0.792440  0.873750  1.0  -0.1985
  C  C202  1  0.653000  0.728170  0.873310  1.0  0.176
  C  C203  1  0.521500  0.722110  0.930000  1.0  0.1868
  C  C204  1  0.511100  0.786220  0.932460  1.0  -0.2028
  C  C205  1  0.379700  0.091470  0.783590  1.0  0.1873
  C  C206  1  0.302200  0.082730  0.747530  1.0  -0.2029
  C  C207  1  0.195700  0.074450  0.762760  1.0  0.0156
  C  C208  1  0.172700  0.073760  0.811900  1.0  -0.1391
  C  C209  1  0.255700  0.083390  0.845420  1.0  0.1688
  C  C210  1  0.333800  0.081550  0.694490  1.0  0.6712
  C  C211  1  0.651200  0.078780  0.548230  1.0  0.178
  C  C212  1  0.763700  0.081060  0.544480  1.0  -0.1704
  C  C213  1  0.823000  0.083330  0.587520  1.0  0.0117
  C  C214  1  0.769800  0.084200  0.631590  1.0  -0.1332
  C  C215  1  0.658000  0.083670  0.632470  1.0  0.1443
  C  C216  1  0.818700  0.081120  0.495250  1.0  0.6527
  C  C217  1  0.685700  0.152570  0.972620  1.0  0.1801
  C  C218  1  0.748900  0.187880  0.004380  1.0  -0.1953
  C  C219  1  0.738300  0.252160  0.002670  1.0  0.0144
  C  C220  1  0.666100  0.278580  0.970040  1.0  -0.1236
  C  C221  1  0.604600  0.239690  0.940920  1.0  0.1615
  C  C222  1  0.826500  0.157790  0.040570  1.0  0.6874
  C  C223  1  0.515000  0.487050  0.567220  1.0  0.1736
  C  C224  1  0.503100  0.423220  0.565180  1.0  -0.192
  C  C225  1  0.434700  0.392420  0.596830  1.0  0.0875
  C  C226  1  0.380500  0.430180  0.629070  1.0  -0.2025
  C  C227  1  0.396100  0.493630  0.629460  1.0  0.1567
  C  C228  1  0.425200  0.323810  0.597240  1.0  0.0499
  C  C229  1  0.350900  0.292440  0.626250  1.0  -0.1996
  C  C230  1  0.347000  0.228170  0.626690  1.0  0.1754
  C  C231  1  0.478500  0.222110  0.570000  1.0  0.1862
  C  C232  1  0.488900  0.286220  0.567540  1.0  -0.2029
  C  C233  1  0.879700  0.091470  0.216410  1.0  0.1876
  C  C234  1  0.802200  0.082730  0.252470  1.0  -0.2025
  C  C235  1  0.695700  0.074450  0.237240  1.0  0.0149
  C  C236  1  0.672700  0.073760  0.188100  1.0  -0.1393
  C  C237  1  0.755700  0.083390  0.154580  1.0  0.1687
  C  C238  1  0.833800  0.081550  0.305510  1.0  0.6713
  C  C239  1  0.151200  0.078780  0.451770  1.0  0.1789
  C  C240  1  0.263700  0.081060  0.455520  1.0  -0.1702
  C  C241  1  0.323000  0.083330  0.412480  1.0  0.0136
  C  C242  1  0.269800  0.084200  0.368410  1.0  -0.1334
  C  C243  1  0.158000  0.083670  0.367530  1.0  0.1471
  C  C244  1  0.318700  0.081120  0.504750  1.0  0.6538
  C  C245  1  0.185700  0.152570  0.027380  1.0  0.1806
  C  C246  1  0.248900  0.187880  0.995620  1.0  -0.1958
  C  C247  1  0.238300  0.252160  0.997330  1.0  0.0133
  C  C248  1  0.166100  0.278580  0.029960  1.0  -0.1235
  C  C249  1  0.104600  0.239690  0.059080  1.0  0.1605
  C  C250  1  0.326500  0.157790  0.959430  1.0  0.6881
  C  C251  1  0.015000  0.487050  0.432780  1.0  0.1735
  C  C252  1  0.003100  0.423220  0.434820  1.0  -0.1918
  C  C253  1  0.934700  0.392420  0.403170  1.0  0.0879
  C  C254  1  0.880500  0.430180  0.370930  1.0  -0.2041
  C  C255  1  0.896100  0.493630  0.370540  1.0  0.1573
  C  C256  1  0.925200  0.323810  0.402760  1.0  0.0488
  C  C257  1  0.850900  0.292440  0.373750  1.0  -0.1966
  C  C258  1  0.847000  0.228170  0.373310  1.0  0.1756
  C  C259  1  0.978500  0.222110  0.430000  1.0  0.1871
  C  C260  1  0.988900  0.286220  0.432460  1.0  -0.2034
  C  C261  1  0.120300  0.591470  0.283590  1.0  0.1875
  C  C262  1  0.197800  0.582730  0.247530  1.0  -0.2033
  C  C263  1  0.304300  0.574450  0.262760  1.0  0.0172
  C  C264  1  0.327300  0.573760  0.311900  1.0  -0.1384
  C  C265  1  0.244300  0.583390  0.345420  1.0  0.1684
  C  C266  1  0.166200  0.581550  0.194490  1.0  0.6718
  C  C267  1  0.848800  0.578780  0.048230  1.0  0.1774
  C  C268  1  0.736300  0.581060  0.044480  1.0  -0.1713
  C  C269  1  0.677000  0.583330  0.087520  1.0  0.0115
  C  C270  1  0.730200  0.584200  0.131590  1.0  -0.1343
  C  C271  1  0.842000  0.583670  0.132470  1.0  0.1457
  C  C272  1  0.681300  0.581120  0.995250  1.0  0.6521
  C  C273  1  0.814300  0.652570  0.472620  1.0  0.1797
  C  C274  1  0.751100  0.687880  0.504380  1.0  -0.1948
  C  C275  1  0.761700  0.752160  0.502670  1.0  0.0142
  C  C276  1  0.833900  0.778580  0.470040  1.0  -0.1238
  C  C277  1  0.895400  0.739690  0.440920  1.0  0.1611
  C  C278  1  0.673500  0.657790  0.540570  1.0  0.687
  C  C279  1  0.985000  0.987050  0.067220  1.0  0.1738
  C  C280  1  0.996900  0.923220  0.065180  1.0  -0.1909
  C  C281  1  0.065300  0.892420  0.096830  1.0  0.0876
  C  C282  1  0.119500  0.930180  0.129070  1.0  -0.2035
  C  C283  1  0.103900  0.993630  0.129460  1.0  0.1568
  C  C284  1  0.074800  0.823810  0.097240  1.0  0.0506
  C  C285  1  0.149100  0.792440  0.126250  1.0  -0.1993
  C  C286  1  0.153000  0.728170  0.126690  1.0  0.1765
  C  C287  1  0.021500  0.722110  0.070000  1.0  0.1862
  C  C288  1  0.011100  0.786220  0.067540  1.0  -0.2021
  C  C289  1  0.120300  0.908530  0.783590  1.0  0.188
  C  C290  1  0.197800  0.917270  0.747530  1.0  -0.2049
  C  C291  1  0.304300  0.925550  0.762760  1.0  0.0171
  C  C292  1  0.327300  0.926240  0.811900  1.0  -0.1385
  C  C293  1  0.244300  0.916610  0.845420  1.0  0.1681
  C  C294  1  0.166200  0.918450  0.694490  1.0  0.6723
  C  C295  1  0.848800  0.921220  0.548230  1.0  0.1774
  C  C296  1  0.736300  0.918940  0.544480  1.0  -0.1714
  C  C297  1  0.677000  0.916670  0.587520  1.0  0.0116
  C  C298  1  0.730200  0.915800  0.631590  1.0  -0.1335
  C  C299  1  0.842000  0.916330  0.632470  1.0  0.1459
  C  C300  1  0.681300  0.918880  0.495250  1.0  0.6522
  C  C301  1  0.814300  0.847430  0.972620  1.0  0.1785
  C  C302  1  0.751100  0.812120  0.004380  1.0  -0.1953
  C  C303  1  0.761700  0.747840  0.002670  1.0  0.015
  C  C304  1  0.833900  0.721420  0.970040  1.0  -0.1251
  C  C305  1  0.895400  0.760310  0.940920  1.0  0.1619
  C  C306  1  0.673500  0.842210  0.040570  1.0  0.6871
  C  C307  1  0.985000  0.512950  0.567220  1.0  0.1738
  C  C308  1  0.996900  0.576780  0.565180  1.0  -0.1901
  C  C309  1  0.065300  0.607580  0.596830  1.0  0.0872
  C  C310  1  0.119500  0.569820  0.629070  1.0  -0.2037
  C  C311  1  0.103900  0.506370  0.629460  1.0  0.1577
  C  C312  1  0.074800  0.676190  0.597240  1.0  0.052
  C  C313  1  0.149100  0.707560  0.626250  1.0  -0.2001
  C  C314  1  0.153000  0.771830  0.626690  1.0  0.1763
  C  C315  1  0.021500  0.777890  0.570000  1.0  0.1868
  C  C316  1  0.011100  0.713780  0.567540  1.0  -0.2022
  C  C317  1  0.879700  0.408530  0.716410  1.0  0.1884
  C  C318  1  0.802200  0.417270  0.752470  1.0  -0.2027
  C  C319  1  0.695700  0.425550  0.737240  1.0  0.016
  C  C320  1  0.672700  0.426240  0.688100  1.0  -0.1396
  C  C321  1  0.755700  0.416610  0.654580  1.0  0.168
  C  C322  1  0.833800  0.418450  0.805510  1.0  0.672
  C  C323  1  0.151200  0.421220  0.951770  1.0  0.1788
  C  C324  1  0.263700  0.418940  0.955520  1.0  -0.1704
  C  C325  1  0.323000  0.416670  0.912480  1.0  0.0132
  C  C326  1  0.269800  0.415800  0.868410  1.0  -0.1335
  C  C327  1  0.158000  0.416330  0.867530  1.0  0.1472
  C  C328  1  0.318700  0.418880  0.004750  1.0  0.6533
  C  C329  1  0.185700  0.347430  0.527380  1.0  0.1782
  C  C330  1  0.248900  0.312120  0.495620  1.0  -0.1951
  C  C331  1  0.238300  0.247840  0.497330  1.0  0.0142
  C  C332  1  0.166100  0.221420  0.529960  1.0  -0.1242
  C  C333  1  0.104600  0.260310  0.559080  1.0  0.1614
  C  C334  1  0.326500  0.342210  0.459430  1.0  0.6882
  C  C335  1  0.015000  0.012950  0.932780  1.0  0.1739
  C  C336  1  0.003100  0.076780  0.934820  1.0  -0.1913
  C  C337  1  0.934700  0.107580  0.903170  1.0  0.0874
  C  C338  1  0.880500  0.069820  0.870930  1.0  -0.2039
  C  C339  1  0.896100  0.006370  0.870540  1.0  0.1574
  C  C340  1  0.925200  0.176190  0.902760  1.0  0.0482
  C  C341  1  0.850900  0.207560  0.873750  1.0  -0.1966
  C  C342  1  0.847000  0.271830  0.873310  1.0  0.1758
  C  C343  1  0.978500  0.277890  0.930000  1.0  0.1872
  C  C344  1  0.988900  0.213780  0.932460  1.0  -0.2034
  C  C345  1  0.379700  0.408530  0.283590  1.0  0.1878
  C  C346  1  0.302200  0.417270  0.247530  1.0  -0.2039
  C  C347  1  0.195700  0.425550  0.262760  1.0  0.016
  C  C348  1  0.172700  0.426240  0.311900  1.0  -0.1398
  C  C349  1  0.255700  0.416610  0.345420  1.0  0.1681
  C  C350  1  0.333800  0.418450  0.194490  1.0  0.6716
  C  C351  1  0.651200  0.421220  0.048230  1.0  0.1781
  C  C352  1  0.763700  0.418940  0.044480  1.0  -0.1704
  C  C353  1  0.823000  0.416670  0.087520  1.0  0.0121
  C  C354  1  0.769800  0.415800  0.131590  1.0  -0.1327
  C  C355  1  0.658000  0.416330  0.132470  1.0  0.1445
  C  C356  1  0.818700  0.418880  0.995250  1.0  0.6525
  C  C357  1  0.685700  0.347430  0.472620  1.0  0.1789
  C  C358  1  0.748900  0.312120  0.504380  1.0  -0.1958
  C  C359  1  0.738300  0.247840  0.502670  1.0  0.0151
  C  C360  1  0.666100  0.221420  0.470040  1.0  -0.1249
  C  C361  1  0.604600  0.260310  0.440920  1.0  0.1621
  C  C362  1  0.826500  0.342210  0.540570  1.0  0.6875
  C  C363  1  0.515000  0.012950  0.067220  1.0  0.1734
  C  C364  1  0.503100  0.076780  0.065180  1.0  -0.1914
  C  C365  1  0.434700  0.107580  0.096830  1.0  0.0869
  C  C366  1  0.380500  0.069820  0.129070  1.0  -0.2028
  C  C367  1  0.396100  0.006370  0.129460  1.0  0.1579
  C  C368  1  0.425200  0.176190  0.097240  1.0  0.051
  C  C369  1  0.350900  0.207560  0.126250  1.0  -0.2006
  C  C370  1  0.347000  0.271830  0.126690  1.0  0.1747
  C  C371  1  0.478500  0.277890  0.070000  1.0  0.1867
  C  C372  1  0.488900  0.213780  0.067540  1.0  -0.2028
  C  C373  1  0.620300  0.908530  0.216410  1.0  0.1884
  C  C374  1  0.697800  0.917270  0.252470  1.0  -0.2036
  C  C375  1  0.804300  0.925550  0.237240  1.0  0.017
  C  C376  1  0.827300  0.926240  0.188100  1.0  -0.139
  C  C377  1  0.744300  0.916610  0.154580  1.0  0.1679
  C  C378  1  0.666200  0.918450  0.305510  1.0  0.6719
  C  C379  1  0.348800  0.921220  0.451770  1.0  0.1778
  C  C380  1  0.236300  0.918940  0.455520  1.0  -0.1699
  C  C381  1  0.177000  0.916670  0.412480  1.0  0.012
  C  C382  1  0.230200  0.915800  0.368410  1.0  -0.1319
  C  C383  1  0.342000  0.916330  0.367530  1.0  0.1475
  C  C384  1  0.181300  0.918880  0.504750  1.0  0.6527
  C  C385  1  0.314300  0.847430  0.027380  1.0  0.178
  C  C386  1  0.251100  0.812120  0.995620  1.0  -0.1951
  C  C387  1  0.261700  0.747840  0.997330  1.0  0.0147
  C  C388  1  0.333900  0.721420  0.029960  1.0  -0.1241
  C  C389  1  0.395400  0.760310  0.059080  1.0  0.1619
  C  C390  1  0.173500  0.842210  0.959430  1.0  0.6879
  C  C391  1  0.485000  0.512950  0.432780  1.0  0.1739
  C  C392  1  0.496900  0.576780  0.434820  1.0  -0.1901
  C  C393  1  0.565300  0.607580  0.403170  1.0  0.0879
  C  C394  1  0.619500  0.569820  0.370930  1.0  -0.2056
  C  C395  1  0.603900  0.506370  0.370540  1.0  0.1569
  C  C396  1  0.574800  0.676190  0.402760  1.0  0.0484
  C  C397  1  0.649100  0.707560  0.373750  1.0  -0.1981
  C  C398  1  0.653000  0.771830  0.373310  1.0  0.1767
  C  C399  1  0.521500  0.777890  0.430000  1.0  0.187
  C  C400  1  0.511100  0.713780  0.432460  1.0  -0.2029
  N  N401  1  0.642500  0.592930  0.668000  1.0  -0.3593
  N  N402  1  0.401100  0.580750  0.908180  1.0  -0.3613
  N  N403  1  0.387000  0.677280  0.558220  1.0  -0.3826
  N  N404  1  0.538400  0.022900  0.901320  1.0  -0.3653
  N  N405  1  0.588300  0.692200  0.900480  1.0  -0.3539
  N  N406  1  0.357500  0.092930  0.832000  1.0  -0.3583
  N  N407  1  0.598900  0.080750  0.591820  1.0  -0.3584
  N  N408  1  0.613000  0.177280  0.941780  1.0  -0.382
  N  N409  1  0.461600  0.522900  0.598680  1.0  -0.3657
  N  N410  1  0.411700  0.192200  0.599520  1.0  -0.3543
  N  N411  1  0.857500  0.092930  0.168000  1.0  -0.3595
  N  N412  1  0.098900  0.080750  0.408180  1.0  -0.3594
  N  N413  1  0.113000  0.177280  0.058220  1.0  -0.384
  N  N414  1  0.961600  0.522900  0.401320  1.0  -0.3653
  N  N415  1  0.911700  0.192200  0.400480  1.0  -0.3544
  N  N416  1  0.142500  0.592930  0.332000  1.0  -0.3588
  N  N417  1  0.901100  0.580750  0.091820  1.0  -0.3594
  N  N418  1  0.887000  0.677280  0.441780  1.0  -0.3825
  N  N419  1  0.038400  0.022900  0.098680  1.0  -0.3658
  N  N420  1  0.088300  0.692200  0.099520  1.0  -0.3543
  N  N421  1  0.142500  0.907070  0.832000  1.0  -0.3583
  N  N422  1  0.901100  0.919250  0.591820  1.0  -0.3592
  N  N423  1  0.887000  0.822720  0.941780  1.0  -0.383
  N  N424  1  0.038400  0.477100  0.598680  1.0  -0.3661
  N  N425  1  0.088300  0.807800  0.599520  1.0  -0.3542
  N  N426  1  0.857500  0.407070  0.668000  1.0  -0.3586
  N  N427  1  0.098900  0.419250  0.908180  1.0  -0.3585
  N  N428  1  0.113000  0.322720  0.558220  1.0  -0.3845
  N  N429  1  0.961600  0.977100  0.901320  1.0  -0.3657
  N  N430  1  0.911700  0.307800  0.900480  1.0  -0.3527
  N  N431  1  0.357500  0.407070  0.332000  1.0  -0.3576
  N  N432  1  0.598900  0.419250  0.091820  1.0  -0.3575
  N  N433  1  0.613000  0.322720  0.441780  1.0  -0.3812
  N  N434  1  0.461600  0.977100  0.098680  1.0  -0.3661
  N  N435  1  0.411700  0.307800  0.099520  1.0  -0.3541
  N  N436  1  0.642500  0.907070  0.168000  1.0  -0.3587
  N  N437  1  0.401100  0.919250  0.408180  1.0  -0.3611
  N  N438  1  0.387000  0.822720  0.058220  1.0  -0.3836
  N  N439  1  0.538400  0.477100  0.401320  1.0  -0.3655
  N  N440  1  0.588300  0.807800  0.400480  1.0  -0.3525
  O  O441  1  0.568400  0.573950  0.816200  1.0  -0.6211
  O  O442  1  0.736800  0.588390  0.837930  1.0  -0.6142
  O  O443  1  0.238740  0.577890  0.043090  1.0  -0.6423
  O  O444  1  0.082400  0.585820  0.006740  1.0  -0.5905
  O  O445  1  0.155500  0.600990  0.463080  1.0  -0.6315
  O  O446  1  0.132300  0.692650  0.427400  1.0  -0.6255
  O  O447  1  0.431600  0.073950  0.683800  1.0  -0.6219
  O  O448  1  0.263200  0.088390  0.662070  1.0  -0.6119
  O  O449  1  0.761260  0.077890  0.456910  1.0  -0.6413
  O  O450  1  0.917600  0.085820  0.493260  1.0  -0.5912
  O  O451  1  0.844500  0.100990  0.036920  1.0  -0.6308
  O  O452  1  0.867700  0.192650  0.072600  1.0  -0.6243
  O  O453  1  0.931600  0.073950  0.316200  1.0  -0.6216
  O  O454  1  0.763200  0.088390  0.337930  1.0  -0.613
  O  O455  1  0.261260  0.077890  0.543090  1.0  -0.6428
  O  O456  1  0.417600  0.085820  0.506740  1.0  -0.5911
  O  O457  1  0.344500  0.100990  0.963080  1.0  -0.6317
  O  O458  1  0.367700  0.192650  0.927400  1.0  -0.6257
  O  O459  1  0.068400  0.573950  0.183800  1.0  -0.6213
  O  O460  1  0.236800  0.588390  0.162070  1.0  -0.6132
  O  O461  1  0.738740  0.577890  0.956910  1.0  -0.6416
  O  O462  1  0.582400  0.585820  0.993260  1.0  -0.5906
  O  O463  1  0.655500  0.600990  0.536920  1.0  -0.6305
  O  O464  1  0.632300  0.692650  0.572600  1.0  -0.6247
  O  O465  1  0.068400  0.926050  0.683800  1.0  -0.6208
  O  O466  1  0.236800  0.911610  0.662070  1.0  -0.6133
  O  O467  1  0.738740  0.922110  0.456910  1.0  -0.6405
  O  O468  1  0.582400  0.914180  0.493260  1.0  -0.5907
  O  O469  1  0.655500  0.899010  0.036920  1.0  -0.631
  O  O470  1  0.632300  0.807350  0.072600  1.0  -0.6241
  O  O471  1  0.931600  0.426050  0.816200  1.0  -0.6216
  O  O472  1  0.763200  0.411610  0.837930  1.0  -0.613
  O  O473  1  0.261260  0.422110  0.043090  1.0  -0.6422
  O  O474  1  0.417600  0.414180  0.006740  1.0  -0.5912
  O  O475  1  0.344500  0.399010  0.463080  1.0  -0.6323
  O  O476  1  0.367700  0.307350  0.427400  1.0  -0.6256
  O  O477  1  0.431600  0.426050  0.183800  1.0  -0.6214
  O  O478  1  0.263200  0.411610  0.162070  1.0  -0.6119
  O  O479  1  0.761260  0.422110  0.956910  1.0  -0.6402
  O  O480  1  0.917600  0.414180  0.993260  1.0  -0.5914
  O  O481  1  0.844500  0.399010  0.536920  1.0  -0.6314
  O  O482  1  0.867700  0.307350  0.572600  1.0  -0.624
  O  O483  1  0.568400  0.926050  0.316200  1.0  -0.6208
  O  O484  1  0.736800  0.911610  0.337930  1.0  -0.6143
  O  O485  1  0.238740  0.922110  0.543090  1.0  -0.6414
  O  O486  1  0.082400  0.914180  0.506740  1.0  -0.5906
  O  O487  1  0.155500  0.899010  0.963080  1.0  -0.632
  O  O488  1  0.132300  0.807350  0.927400  1.0  -0.6254
