# generated using pymatgen
data_ZnH5C13(N2O3)2
_symmetry_space_group_name_H-M   'P 1'
_cell_length_a   15.92930000
_cell_length_b   10.92220000
_cell_length_c   15.88030000
_cell_angle_alpha   90.00000000
_cell_angle_beta   115.24600000
_cell_angle_gamma   90.00000000
_symmetry_Int_Tables_number   1
_chemical_formula_structural   ZnH5C13(N2O3)2
_chemical_formula_sum   'Zn4 H20 C52 N16 O24'
_cell_volume   2499.00342281
_cell_formula_units_Z   4
loop_
 _symmetry_equiv_pos_site_id
 _symmetry_equiv_pos_as_xyz
  1  'x, y, z'
loop_
 _atom_site_type_symbol
 _atom_site_label
 _atom_site_symmetry_multiplicity
 _atom_site_fract_x
 _atom_site_fract_y
 _atom_site_fract_z
 _atom_site_occupancy
 _atom_site_charge
  Zn  Zn1  1  0.295770  0.417180  0.288470  1.0  1.1074
  Zn  Zn2  1  0.704230  0.917180  0.211530  1.0  1.107
  Zn  Zn3  1  0.704230  0.582820  0.711530  1.0  1.1074
  Zn  Zn4  1  0.295770  0.082820  0.788470  1.0  1.1076
  H  H5  1  0.192000  0.800700  0.471400  1.0  0.1262
  H  H6  1  0.440300  0.878500  0.677900  1.0  0.1281
  H  H7  1  0.419200  0.621300  0.489800  1.0  0.1238
  H  H8  1  0.934300  0.067200  0.096300  1.0  0.1267
  H  H9  1  0.852600  0.937900  0.973200  1.0  0.1327
  H  H10  1  0.808000  0.300700  0.028600  1.0  0.1272
  H  H11  1  0.559700  0.378500  0.822100  1.0  0.1288
  H  H12  1  0.580800  0.121300  0.010200  1.0  0.1236
  H  H13  1  0.065700  0.567200  0.403700  1.0  0.1269
  H  H14  1  0.147400  0.437900  0.526800  1.0  0.1318
  H  H15  1  0.808000  0.199300  0.528600  1.0  0.1266
  H  H16  1  0.559700  0.121500  0.322100  1.0  0.1288
  H  H17  1  0.580800  0.378700  0.510200  1.0  0.1235
  H  H18  1  0.065700  0.932800  0.903700  1.0  0.1269
  H  H19  1  0.147400  0.062100  0.026800  1.0  0.1321
  H  H20  1  0.192000  0.699300  0.971400  1.0  0.1265
  H  H21  1  0.440300  0.621500  0.177900  1.0  0.1282
  H  H22  1  0.419200  0.878700  0.989800  1.0  0.1238
  H  H23  1  0.934300  0.432800  0.596300  1.0  0.1268
  H  H24  1  0.852600  0.562100  0.473200  1.0  0.1324
  C  C25  1  0.239070  0.629500  0.379440  1.0  0.7787
  C  C26  1  0.296660  0.701100  0.466400  1.0  -0.1575
  C  C27  1  0.255660  0.787100  0.501520  1.0  0.0393
  C  C28  1  0.309430  0.853200  0.581790  1.0  -0.1383
  C  C29  1  0.404030  0.832700  0.625610  1.0  0.0608
  C  C30  1  0.445830  0.745000  0.592820  1.0  -0.1426
  C  C31  1  0.391700  0.679600  0.512630  1.0  0.0535
  C  C32  1  0.264760  0.939600  0.624860  1.0  0.6855
  C  C33  1  0.546970  0.716500  0.647380  1.0  0.6734
  C  C34  1  0.101020  0.162200  0.152290  1.0  0.3612
  C  C35  1  0.049750  0.077700  0.074400  1.0  -0.0446
  C  C36  1  0.961100  0.040400  0.057830  1.0  -0.0559
  C  C37  1  0.912090  0.962800  0.983710  1.0  -0.0466
  C  C38  1  0.760930  0.129500  0.120560  1.0  0.7752
  C  C39  1  0.703340  0.201100  0.033600  1.0  -0.1585
  C  C40  1  0.744340  0.287100  0.998480  1.0  0.0419
  C  C41  1  0.690570  0.353200  0.918210  1.0  -0.1384
  C  C42  1  0.595970  0.332700  0.874390  1.0  0.0612
  C  C43  1  0.554170  0.245000  0.907180  1.0  -0.1415
  C  C44  1  0.608300  0.179600  0.987370  1.0  0.0531
  C  C45  1  0.735240  0.439600  0.875140  1.0  0.6842
  C  C46  1  0.453030  0.216500  0.852620  1.0  0.6732
  C  C47  1  0.898980  0.662200  0.347710  1.0  0.3608
  C  C48  1  0.950250  0.577700  0.425600  1.0  -0.0441
  C  C49  1  0.038900  0.540400  0.442170  1.0  -0.0564
  C  C50  1  0.087910  0.462800  0.516290  1.0  -0.0467
  C  C51  1  0.760930  0.370500  0.620560  1.0  0.7811
  C  C52  1  0.703340  0.298900  0.533600  1.0  -0.1586
  C  C53  1  0.744340  0.212900  0.498480  1.0  0.042
  C  C54  1  0.690570  0.146800  0.418210  1.0  -0.1384
  C  C55  1  0.595970  0.167300  0.374390  1.0  0.0613
  C  C56  1  0.554170  0.255000  0.407180  1.0  -0.142
  C  C57  1  0.608300  0.320400  0.487370  1.0  0.0526
  C  C58  1  0.735240  0.060400  0.375140  1.0  0.6843
  C  C59  1  0.453030  0.283500  0.352620  1.0  0.6737
  C  C60  1  0.898980  0.837800  0.847710  1.0  0.3608
  C  C61  1  0.950250  0.922300  0.925600  1.0  -0.0443
  C  C62  1  0.038900  0.959600  0.942170  1.0  -0.0563
  C  C63  1  0.087910  0.037200  0.016290  1.0  -0.0475
  C  C64  1  0.239070  0.870500  0.879440  1.0  0.7741
  C  C65  1  0.296660  0.798900  0.966400  1.0  -0.1575
  C  C66  1  0.255660  0.712900  0.001520  1.0  0.0394
  C  C67  1  0.309430  0.646800  0.081790  1.0  -0.1385
  C  C68  1  0.404030  0.667300  0.125610  1.0  0.0612
  C  C69  1  0.445830  0.755000  0.092820  1.0  -0.1426
  C  C70  1  0.391700  0.820400  0.012630  1.0  0.053
  C  C71  1  0.264760  0.560400  0.124860  1.0  0.685
  C  C72  1  0.546970  0.783500  0.147380  1.0  0.6736
  C  C73  1  0.101020  0.337800  0.652290  1.0  0.3609
  C  C74  1  0.049750  0.422300  0.574400  1.0  -0.0443
  C  C75  1  0.961100  0.459600  0.557830  1.0  -0.056
  C  C76  1  0.912090  0.537200  0.483710  1.0  -0.0479
  N  N77  1  0.195060  0.293170  0.238220  1.0  0.0514
  N  N78  1  0.143210  0.258900  0.280000  1.0  -0.0756
  N  N79  1  0.082730  0.175500  0.226650  1.0  -0.2985
  N  N80  1  0.170760  0.233150  0.157240  1.0  -0.301
  N  N81  1  0.804940  0.793170  0.261780  1.0  0.0517
  N  N82  1  0.856790  0.758900  0.220000  1.0  -0.0762
  N  N83  1  0.917270  0.675500  0.273350  1.0  -0.2968
  N  N84  1  0.829240  0.733150  0.342760  1.0  -0.301
  N  N85  1  0.804940  0.706830  0.761780  1.0  0.05
  N  N86  1  0.856790  0.741100  0.720000  1.0  -0.0768
  N  N87  1  0.917270  0.824500  0.773350  1.0  -0.2971
  N  N88  1  0.829240  0.766850  0.842760  1.0  -0.3009
  N  N89  1  0.195060  0.206830  0.738220  1.0  0.0498
  N  N90  1  0.143210  0.241100  0.780000  1.0  -0.0763
  N  N91  1  0.082730  0.324500  0.726650  1.0  -0.2989
  N  N92  1  0.170760  0.266850  0.657240  1.0  -0.3018
  O  O93  1  0.273020  0.531600  0.369950  1.0  -0.6269
  O  O94  1  0.162330  0.668600  0.327030  1.0  -0.4609
  O  O95  1  0.180300  0.950000  0.591250  1.0  -0.4744
  O  O96  1  0.321670  0.996700  0.696290  1.0  -0.5744
  O  O97  1  0.591500  0.769900  0.722390  1.0  -0.482
  O  O98  1  0.582440  0.635160  0.615940  1.0  -0.5657
  O  O99  1  0.726980  0.031600  0.130050  1.0  -0.629
  O  O100  1  0.837670  0.168600  0.172970  1.0  -0.4598
  O  O101  1  0.819700  0.450000  0.908750  1.0  -0.4732
  O  O102  1  0.678330  0.496700  0.803710  1.0  -0.575
  O  O103  1  0.408500  0.269900  0.777610  1.0  -0.4847
  O  O104  1  0.417560  0.135160  0.884060  1.0  -0.5671
  O  O105  1  0.726980  0.468400  0.630050  1.0  -0.6288
  O  O106  1  0.837670  0.331400  0.672970  1.0  -0.4596
  O  O107  1  0.819700  0.050000  0.408750  1.0  -0.4739
  O  O108  1  0.678330  0.003300  0.303710  1.0  -0.5741
  O  O109  1  0.408500  0.230100  0.277610  1.0  -0.4822
  O  O110  1  0.417560  0.364840  0.384060  1.0  -0.5679
  O  O111  1  0.273020  0.968400  0.869950  1.0  -0.6269
  O  O112  1  0.162330  0.831400  0.827030  1.0  -0.4604
  O  O113  1  0.180300  0.550000  0.091250  1.0  -0.4743
  O  O114  1  0.321670  0.503300  0.196290  1.0  -0.5738
  O  O115  1  0.591500  0.730100  0.222390  1.0  -0.4827
  O  O116  1  0.582440  0.864840  0.115940  1.0  -0.5661
