# generated using pymatgen
data_Ni3H12(C18O13)2
_symmetry_space_group_name_H-M   'P 1'
_cell_length_a   10.71100000
_cell_length_b   13.79630000
_cell_length_c   18.75110000
_cell_angle_alpha   90.00000000
_cell_angle_beta   98.15800000
_cell_angle_gamma   90.00000000
_symmetry_Int_Tables_number   1
_chemical_formula_structural   Ni3H12(C18O13)2
_chemical_formula_sum   'Ni6 H24 C72 O52'
_cell_volume   2742.85074341
_cell_formula_units_Z   2
loop_
 _symmetry_equiv_pos_site_id
 _symmetry_equiv_pos_as_xyz
  1  'x, y, z'
loop_
 _atom_site_type_symbol
 _atom_site_label
 _atom_site_symmetry_multiplicity
 _atom_site_fract_x
 _atom_site_fract_y
 _atom_site_fract_z
 _atom_site_occupancy
 _atom_site_charge
  Ni  Ni1  1  0.398000  0.267700  0.524110  1.0  1.0233
  Ni  Ni2  1  0.602000  0.767700  0.975890  1.0  1.0225
  Ni  Ni3  1  0.602000  0.732300  0.475890  1.0  1.0229
  Ni  Ni4  1  0.398000  0.232300  0.024110  1.0  1.0237
  Ni  Ni5  1  0.500000  0.000000  0.000000  1.0  1.1101
  Ni  Ni6  1  0.500000  0.500000  0.500000  1.0  1.1101
  H  H7  1  0.385400  0.203700  0.235800  1.0  0.1524
  H  H8  1  0.554100  0.941200  0.231700  1.0  0.1594
  H  H9  1  0.450800  0.044200  0.417800  1.0  0.1558
  H  H10  1  0.102200  0.879600  0.979400  1.0  0.1581
  H  H11  1  0.922100  0.623700  0.929600  1.0  0.1539
  H  H12  1  0.303600  0.634900  0.963900  1.0  0.1507
  H  H13  1  0.614600  0.703700  0.264200  1.0  0.1523
  H  H14  1  0.445900  0.441200  0.268300  1.0  0.159
  H  H15  1  0.549200  0.544200  0.082200  1.0  0.1552
  H  H16  1  0.897800  0.379600  0.520600  1.0  0.1584
  H  H17  1  0.077900  0.123700  0.570400  1.0  0.1545
  H  H18  1  0.696400  0.134900  0.536100  1.0  0.1505
  H  H19  1  0.614600  0.796300  0.764200  1.0  0.1523
  H  H20  1  0.445900  0.058800  0.768300  1.0  0.1585
  H  H21  1  0.549200  0.955800  0.582200  1.0  0.1539
  H  H22  1  0.897800  0.120400  0.020600  1.0  0.1586
  H  H23  1  0.077900  0.376300  0.070400  1.0  0.1536
  H  H24  1  0.696400  0.365100  0.036100  1.0  0.1505
  H  H25  1  0.385400  0.296300  0.735800  1.0  0.1522
  H  H26  1  0.554100  0.558800  0.731700  1.0  0.1595
  H  H27  1  0.450800  0.455800  0.917800  1.0  0.1543
  H  H28  1  0.102200  0.620400  0.479400  1.0  0.1587
  H  H29  1  0.922100  0.876300  0.429600  1.0  0.1533
  H  H30  1  0.303600  0.865100  0.463900  1.0  0.1503
  C  C31  1  0.409500  0.135300  0.333160  1.0  -0.041
  C  C32  1  0.416300  0.146100  0.259820  1.0  0.0399
  C  C33  1  0.467600  0.073600  0.221470  1.0  -0.0836
  C  C34  1  0.518500  0.990900  0.257470  1.0  0.0346
  C  C35  1  0.517000  0.981500  0.331190  1.0  -0.0765
  C  C36  1  0.457600  0.053000  0.368220  1.0  0.0274
  C  C37  1  0.355800  0.217300  0.372980  1.0  0.7605
  C  C38  1  0.470600  0.085300  0.141240  1.0  0.7659
  C  C39  1  0.583700  0.899900  0.372680  1.0  0.7386
  C  C40  1  0.220900  0.766900  0.973190  1.0  -0.0854
  C  C41  1  0.105500  0.811900  0.970710  1.0  0.0403
  C  C42  1  0.992300  0.759100  0.955440  1.0  -0.0862
  C  C43  1  0.997700  0.659700  0.941580  1.0  0.03
  C  C44  1  0.113700  0.614000  0.945320  1.0  -0.1023
  C  C45  1  0.224500  0.666900  0.961190  1.0  0.0365
  C  C46  1  0.344700  0.818200  0.990930  1.0  0.7565
  C  C47  1  0.869100  0.807100  0.960750  1.0  0.7651
  C  C48  1  0.120900  0.506400  0.933420  1.0  0.7275
  C  C49  1  0.590500  0.635300  0.166840  1.0  -0.0417
  C  C50  1  0.583700  0.646100  0.240180  1.0  0.0399
  C  C51  1  0.532400  0.573600  0.278530  1.0  -0.085
  C  C52  1  0.481500  0.490900  0.242530  1.0  0.0345
  C  C53  1  0.483000  0.481500  0.168810  1.0  -0.0763
  C  C54  1  0.542400  0.553000  0.131780  1.0  0.0287
  C  C55  1  0.644200  0.717300  0.127020  1.0  0.7596
  C  C56  1  0.529400  0.585300  0.358760  1.0  0.7657
  C  C57  1  0.416300  0.399900  0.127320  1.0  0.7391
  C  C58  1  0.779100  0.266900  0.526810  1.0  -0.0855
  C  C59  1  0.894500  0.311900  0.529290  1.0  0.0398
  C  C60  1  0.007700  0.259100  0.544560  1.0  -0.0853
  C  C61  1  0.002300  0.159700  0.558420  1.0  0.0319
  C  C62  1  0.886300  0.114000  0.554680  1.0  -0.101
  C  C63  1  0.775500  0.166900  0.538810  1.0  0.0364
  C  C64  1  0.655300  0.318200  0.509070  1.0  0.7571
  C  C65  1  0.130900  0.307100  0.539250  1.0  0.7639
  C  C66  1  0.879100  0.006400  0.566580  1.0  0.7272
  C  C67  1  0.590500  0.864700  0.666840  1.0  -0.0414
  C  C68  1  0.583700  0.853900  0.740180  1.0  0.0399
  C  C69  1  0.532400  0.926400  0.778530  1.0  -0.0849
  C  C70  1  0.481500  0.009100  0.742530  1.0  0.034
  C  C71  1  0.483000  0.018500  0.668810  1.0  -0.0763
  C  C72  1  0.542400  0.947000  0.631780  1.0  0.0288
  C  C73  1  0.644200  0.782700  0.627020  1.0  0.7605
  C  C74  1  0.529400  0.914700  0.858760  1.0  0.7654
  C  C75  1  0.416300  0.100100  0.627320  1.0  0.7392
  C  C76  1  0.779100  0.233100  0.026810  1.0  -0.0861
  C  C77  1  0.894500  0.188100  0.029290  1.0  0.0404
  C  C78  1  0.007700  0.240900  0.044560  1.0  -0.0848
  C  C79  1  0.002300  0.340300  0.058420  1.0  0.0318
  C  C80  1  0.886300  0.386000  0.054680  1.0  -0.1015
  C  C81  1  0.775500  0.333100  0.038810  1.0  0.0366
  C  C82  1  0.655300  0.181800  0.009070  1.0  0.7565
  C  C83  1  0.130900  0.192900  0.039250  1.0  0.7632
  C  C84  1  0.879100  0.493600  0.066580  1.0  0.7262
  C  C85  1  0.409500  0.364700  0.833160  1.0  -0.0413
  C  C86  1  0.416300  0.353900  0.759820  1.0  0.0393
  C  C87  1  0.467600  0.426400  0.721470  1.0  -0.0836
  C  C88  1  0.518500  0.509100  0.757470  1.0  0.0349
  C  C89  1  0.517000  0.518500  0.831190  1.0  -0.0765
  C  C90  1  0.457600  0.447000  0.868220  1.0  0.0273
  C  C91  1  0.355800  0.282700  0.872980  1.0  0.7607
  C  C92  1  0.470600  0.414700  0.641240  1.0  0.7659
  C  C93  1  0.583700  0.600100  0.872680  1.0  0.7386
  C  C94  1  0.220900  0.733100  0.473190  1.0  -0.086
  C  C95  1  0.105500  0.688100  0.470710  1.0  0.0403
  C  C96  1  0.992300  0.740900  0.455440  1.0  -0.0858
  C  C97  1  0.997700  0.840300  0.441580  1.0  0.0296
  C  C98  1  0.113700  0.886000  0.445320  1.0  -0.1012
  C  C99  1  0.224500  0.833100  0.461190  1.0  0.0363
  C  C100  1  0.344700  0.681800  0.490930  1.0  0.7566
  C  C101  1  0.869100  0.692900  0.460750  1.0  0.7646
  C  C102  1  0.120900  0.993600  0.433420  1.0  0.7278
  O  O103  1  0.317880  0.195160  0.432400  1.0  -0.5473
  O  O104  1  0.354500  0.300430  0.347310  1.0  -0.5048
  O  O105  1  0.470100  0.171830  0.118970  1.0  -0.551
  O  O106  1  0.473210  0.009720  0.104830  1.0  -0.5301
  O  O107  1  0.681000  0.866170  0.344140  1.0  -0.4875
  O  O108  1  0.550580  0.867670  0.427580  1.0  -0.5269
  O  O109  1  0.436810  0.764840  0.014280  1.0  -0.5497
  O  O110  1  0.346870  0.908020  0.981470  1.0  -0.5549
  O  O111  1  0.868100  0.890160  0.987740  1.0  -0.4985
  O  O112  1  0.769990  0.758690  0.938530  1.0  -0.5542
  O  O113  1  0.038200  0.459390  0.901370  1.0  -0.4041
  O  O114  1  0.231600  0.471050  0.964910  1.0  -0.483
  O  O115  1  0.641690  0.897030  0.030230  1.0  -0.5637
  O  O116  1  0.682120  0.695160  0.067600  1.0  -0.5463
  O  O117  1  0.645500  0.800430  0.152690  1.0  -0.5021
  O  O118  1  0.529900  0.671830  0.381030  1.0  -0.5517
  O  O119  1  0.526790  0.509720  0.395170  1.0  -0.5296
  O  O120  1  0.319000  0.366170  0.155860  1.0  -0.4865
  O  O121  1  0.449420  0.367670  0.072420  1.0  -0.5263
  O  O122  1  0.563190  0.264840  0.485720  1.0  -0.5479
  O  O123  1  0.653130  0.408020  0.518530  1.0  -0.5537
  O  O124  1  0.131900  0.390160  0.512260  1.0  -0.4992
  O  O125  1  0.230010  0.258690  0.561470  1.0  -0.5549
  O  O126  1  0.961800  0.959390  0.598630  1.0  -0.4027
  O  O127  1  0.768400  0.971050  0.535090  1.0  -0.4854
  O  O128  1  0.358310  0.397030  0.469770  1.0  -0.5657
  O  O129  1  0.682120  0.804840  0.567600  1.0  -0.5461
  O  O130  1  0.645500  0.699570  0.652690  1.0  -0.5038
  O  O131  1  0.529900  0.828170  0.881030  1.0  -0.5511
  O  O132  1  0.526790  0.990280  0.895170  1.0  -0.5297
  O  O133  1  0.319000  0.133830  0.655860  1.0  -0.4863
  O  O134  1  0.449420  0.132330  0.572420  1.0  -0.5269
  O  O135  1  0.563190  0.235160  0.985720  1.0  -0.5479
  O  O136  1  0.653130  0.091980  0.018530  1.0  -0.5536
  O  O137  1  0.131900  0.109840  0.012260  1.0  -0.4995
  O  O138  1  0.230010  0.241310  0.061470  1.0  -0.5549
  O  O139  1  0.961800  0.540610  0.098630  1.0  -0.4048
  O  O140  1  0.768400  0.528950  0.035090  1.0  -0.4854
  O  O141  1  0.358310  0.102970  0.969770  1.0  -0.566
  O  O142  1  0.317880  0.304840  0.932400  1.0  -0.5475
  O  O143  1  0.354500  0.199570  0.847310  1.0  -0.5057
  O  O144  1  0.470100  0.328170  0.618970  1.0  -0.5512
  O  O145  1  0.473210  0.490280  0.604830  1.0  -0.53
  O  O146  1  0.681000  0.633830  0.844140  1.0  -0.487
  O  O147  1  0.550580  0.632330  0.927580  1.0  -0.5268
  O  O148  1  0.436810  0.735160  0.514280  1.0  -0.5497
  O  O149  1  0.346870  0.591980  0.481470  1.0  -0.5543
  O  O150  1  0.868100  0.609840  0.487740  1.0  -0.4976
  O  O151  1  0.769990  0.741310  0.438530  1.0  -0.5546
  O  O152  1  0.038200  0.040610  0.401370  1.0  -0.4053
  O  O153  1  0.231600  0.028950  0.464910  1.0  -0.4837
  O  O154  1  0.641690  0.602970  0.530230  1.0  -0.5632
