# generated using pymatgen
data_Ni3H12(C11O8)2
_symmetry_space_group_name_H-M   'P 1'
_cell_length_a   14.00860000
_cell_length_b   16.33200000
_cell_length_c   16.62200000
_cell_angle_alpha   90.00000000
_cell_angle_beta   90.00000000
_cell_angle_gamma   90.00000000
_symmetry_Int_Tables_number   1
_chemical_formula_structural   Ni3H12(C11O8)2
_chemical_formula_sum   'Ni12 H48 C88 O64'
_cell_volume   3802.92170233
_cell_formula_units_Z   4
loop_
 _symmetry_equiv_pos_site_id
 _symmetry_equiv_pos_as_xyz
  1  'x, y, z'
loop_
 _atom_site_type_symbol
 _atom_site_label
 _atom_site_symmetry_multiplicity
 _atom_site_fract_x
 _atom_site_fract_y
 _atom_site_fract_z
 _atom_site_occupancy
 _atom_site_charge
  Ni  Ni1  1  0.973680  0.175560  0.610660  1.0  0.9779
  Ni  Ni2  1  0.526320  0.824440  0.110660  1.0  0.9777
  Ni  Ni3  1  0.026320  0.675560  0.889340  1.0  0.9789
  Ni  Ni4  1  0.473680  0.324440  0.389340  1.0  0.9775
  Ni  Ni5  1  0.026320  0.824440  0.389340  1.0  0.9785
  Ni  Ni6  1  0.473680  0.175560  0.889340  1.0  0.9785
  Ni  Ni7  1  0.973680  0.324440  0.110660  1.0  0.9768
  Ni  Ni8  1  0.526320  0.675560  0.610660  1.0  0.9782
  Ni  Ni9  1  0.000000  0.000000  0.500000  1.0  1.0624
  Ni  Ni10  1  0.500000  0.000000  0.000000  1.0  1.0624
  Ni  Ni11  1  0.000000  0.500000  0.000000  1.0  1.0624
  Ni  Ni12  1  0.500000  0.500000  0.500000  1.0  1.0624
  H  H13  1  0.745500  0.894200  0.587100  1.0  0.1395
  H  H14  1  0.563700  0.892500  0.776700  1.0  0.1228
  H  H15  1  0.730900  0.090600  0.735900  1.0  0.141
  H  H16  1  0.848700  0.802000  0.609900  1.0  0.1678
  H  H17  1  0.946400  0.757400  0.633600  1.0  0.1733
  H  H18  1  0.938500  0.855000  0.638600  1.0  0.1586
  H  H19  1  0.754500  0.105800  0.087100  1.0  0.139
  H  H20  1  0.936300  0.107500  0.276700  1.0  0.1222
  H  H21  1  0.769100  0.909400  0.235900  1.0  0.1411
  H  H22  1  0.651300  0.198000  0.109900  1.0  0.1643
  H  H23  1  0.553600  0.242600  0.133600  1.0  0.1741
  H  H24  1  0.561500  0.145000  0.138600  1.0  0.159
  H  H25  1  0.254500  0.394200  0.912900  1.0  0.1397
  H  H26  1  0.436300  0.392500  0.723300  1.0  0.1231
  H  H27  1  0.269100  0.590600  0.764100  1.0  0.1411
  H  H28  1  0.151300  0.302000  0.890100  1.0  0.164
  H  H29  1  0.053600  0.257400  0.866400  1.0  0.1733
  H  H30  1  0.061500  0.355000  0.861400  1.0  0.1586
  H  H31  1  0.245500  0.605800  0.412900  1.0  0.1396
  H  H32  1  0.063700  0.607500  0.223300  1.0  0.1224
  H  H33  1  0.230900  0.409400  0.264100  1.0  0.1406
  H  H34  1  0.348700  0.698000  0.390100  1.0  0.1677
  H  H35  1  0.446400  0.742600  0.366400  1.0  0.1738
  H  H36  1  0.438500  0.645000  0.361400  1.0  0.1596
  H  H37  1  0.254500  0.105800  0.412900  1.0  0.1394
  H  H38  1  0.436300  0.107500  0.223300  1.0  0.1225
  H  H39  1  0.269100  0.909400  0.264100  1.0  0.1408
  H  H40  1  0.151300  0.198000  0.390100  1.0  0.1641
  H  H41  1  0.053600  0.242600  0.366400  1.0  0.1744
  H  H42  1  0.061500  0.145000  0.361400  1.0  0.1596
  H  H43  1  0.245500  0.894200  0.912900  1.0  0.1401
  H  H44  1  0.063700  0.892500  0.723300  1.0  0.1227
  H  H45  1  0.230900  0.090600  0.764100  1.0  0.1409
  H  H46  1  0.348700  0.802000  0.890100  1.0  0.1678
  H  H47  1  0.446400  0.757400  0.866400  1.0  0.1733
  H  H48  1  0.438500  0.855000  0.861400  1.0  0.1585
  H  H49  1  0.745500  0.605800  0.087100  1.0  0.139
  H  H50  1  0.563700  0.607500  0.276700  1.0  0.122
  H  H51  1  0.730900  0.409400  0.235900  1.0  0.1408
  H  H52  1  0.848700  0.698000  0.109900  1.0  0.1679
  H  H53  1  0.946400  0.742600  0.133600  1.0  0.1735
  H  H54  1  0.938500  0.645000  0.138600  1.0  0.159
  H  H55  1  0.754500  0.394200  0.587100  1.0  0.1394
  H  H56  1  0.936300  0.392500  0.776700  1.0  0.1235
  H  H57  1  0.769100  0.590600  0.735900  1.0  0.1413
  H  H58  1  0.651300  0.302000  0.609900  1.0  0.164
  H  H59  1  0.553600  0.257400  0.633600  1.0  0.1734
  H  H60  1  0.561500  0.355000  0.638600  1.0  0.1584
  C  C61  1  0.752600  0.996790  0.657270  1.0  -0.1129
  C  C62  1  0.719050  0.920240  0.633120  1.0  -0.047
  C  C63  1  0.646620  0.881920  0.676700  1.0  -0.1227
  C  C64  1  0.609470  0.920280  0.744570  1.0  0.0088
  C  C65  1  0.638420  0.998410  0.765790  1.0  -0.1039
  C  C66  1  0.710620  0.036950  0.721730  1.0  -0.0045
  C  C67  1  0.838180  0.035600  0.615660  1.0  0.7149
  C  C68  1  0.607710  0.799610  0.651690  1.0  0.6891
  C  C69  1  0.590610  0.039460  0.836150  1.0  0.7354
  C  C70  1  0.918430  0.806200  0.608730  1.0  -0.4602
  C  C71  1  0.951850  0.812710  0.522860  1.0  0.7685
  C  C72  1  0.747400  0.003210  0.157270  1.0  -0.1125
  C  C73  1  0.780950  0.079760  0.133120  1.0  -0.0469
  C  C74  1  0.853380  0.118080  0.176700  1.0  -0.1227
  C  C75  1  0.890530  0.079720  0.244570  1.0  0.0102
  C  C76  1  0.861580  0.001590  0.265790  1.0  -0.1033
  C  C77  1  0.789380  0.963050  0.221730  1.0  -0.0051
  C  C78  1  0.661820  0.964400  0.115660  1.0  0.7144
  C  C79  1  0.892290  0.200390  0.151690  1.0  0.6891
  C  C80  1  0.909390  0.960540  0.336150  1.0  0.7355
  C  C81  1  0.581570  0.193800  0.108730  1.0  -0.4601
  C  C82  1  0.548150  0.187290  0.022860  1.0  0.7666
  C  C83  1  0.247400  0.496790  0.842730  1.0  -0.1121
  C  C84  1  0.280950  0.420240  0.866880  1.0  -0.0463
  C  C85  1  0.353380  0.381920  0.823300  1.0  -0.1223
  C  C86  1  0.390530  0.420280  0.755430  1.0  0.0096
  C  C87  1  0.361580  0.498410  0.734210  1.0  -0.1033
  C  C88  1  0.289380  0.536950  0.778270  1.0  -0.0048
  C  C89  1  0.161820  0.535600  0.884340  1.0  0.714
  C  C90  1  0.392290  0.299610  0.848310  1.0  0.6889
  C  C91  1  0.409390  0.539460  0.663850  1.0  0.7343
  C  C92  1  0.081570  0.306200  0.891270  1.0  -0.4602
  C  C93  1  0.048150  0.312710  0.977140  1.0  0.7657
  C  C94  1  0.252600  0.503210  0.342730  1.0  -0.1126
  C  C95  1  0.219050  0.579760  0.366880  1.0  -0.047
  C  C96  1  0.146620  0.618080  0.323300  1.0  -0.1218
  C  C97  1  0.109470  0.579720  0.255430  1.0  0.0079
  C  C98  1  0.138420  0.501590  0.234210  1.0  -0.1037
  C  C99  1  0.210620  0.463050  0.278270  1.0  -0.0036
  C  C100  1  0.338180  0.464400  0.384340  1.0  0.7138
  C  C101  1  0.107710  0.700390  0.348310  1.0  0.6892
  C  C102  1  0.090610  0.460540  0.163850  1.0  0.7357
  C  C103  1  0.418430  0.693800  0.391270  1.0  -0.4605
  C  C104  1  0.451850  0.687290  0.477140  1.0  0.7657
  C  C105  1  0.247400  0.003210  0.342730  1.0  -0.1126
  C  C106  1  0.280950  0.079760  0.366880  1.0  -0.0464
  C  C107  1  0.353380  0.118080  0.323300  1.0  -0.1226
  C  C108  1  0.390530  0.079720  0.255430  1.0  0.0096
  C  C109  1  0.361580  0.001590  0.234210  1.0  -0.1034
  C  C110  1  0.289380  0.963050  0.278270  1.0  -0.0044
  C  C111  1  0.161820  0.964400  0.384340  1.0  0.7142
  C  C112  1  0.392290  0.200390  0.348310  1.0  0.6891
  C  C113  1  0.409390  0.960540  0.163850  1.0  0.7348
  C  C114  1  0.081570  0.193800  0.391270  1.0  -0.4587
  C  C115  1  0.048150  0.187290  0.477140  1.0  0.765
  C  C116  1  0.252600  0.996790  0.842730  1.0  -0.1127
  C  C117  1  0.219050  0.920240  0.866880  1.0  -0.047
  C  C118  1  0.146620  0.881920  0.823300  1.0  -0.1223
  C  C119  1  0.109470  0.920280  0.755430  1.0  0.008
  C  C120  1  0.138420  0.998410  0.734210  1.0  -0.1036
  C  C121  1  0.210620  0.036950  0.778270  1.0  -0.0038
  C  C122  1  0.338180  0.035600  0.884340  1.0  0.7144
  C  C123  1  0.107710  0.799610  0.848310  1.0  0.6891
  C  C124  1  0.090610  0.039460  0.663850  1.0  0.735
  C  C125  1  0.418430  0.806200  0.891270  1.0  -0.46
  C  C126  1  0.451850  0.812710  0.977140  1.0  0.7664
  C  C127  1  0.752600  0.503210  0.157270  1.0  -0.1127
  C  C128  1  0.719050  0.579760  0.133120  1.0  -0.0472
  C  C129  1  0.646620  0.618080  0.176700  1.0  -0.122
  C  C130  1  0.609470  0.579720  0.244570  1.0  0.0085
  C  C131  1  0.638420  0.501590  0.265790  1.0  -0.1035
  C  C132  1  0.710620  0.463050  0.221730  1.0  -0.0045
  C  C133  1  0.838180  0.464400  0.115660  1.0  0.7141
  C  C134  1  0.607710  0.700390  0.151690  1.0  0.6891
  C  C135  1  0.590610  0.460540  0.336150  1.0  0.7365
  C  C136  1  0.918430  0.693800  0.108730  1.0  -0.4597
  C  C137  1  0.951850  0.687290  0.022860  1.0  0.7669
  C  C138  1  0.747400  0.496790  0.657270  1.0  -0.112
  C  C139  1  0.780950  0.420240  0.633120  1.0  -0.0466
  C  C140  1  0.853380  0.381920  0.676700  1.0  -0.1226
  C  C141  1  0.890530  0.420280  0.744570  1.0  0.0104
  C  C142  1  0.861580  0.498410  0.765790  1.0  -0.1036
  C  C143  1  0.789380  0.536950  0.721730  1.0  -0.0055
  C  C144  1  0.661820  0.535600  0.615660  1.0  0.7146
  C  C145  1  0.892290  0.299610  0.651690  1.0  0.6889
  C  C146  1  0.909390  0.539460  0.836150  1.0  0.7347
  C  C147  1  0.581570  0.306200  0.608730  1.0  -0.459
  C  C148  1  0.548150  0.312710  0.522860  1.0  0.7679
  O  O149  1  0.873600  0.097380  0.650060  1.0  -0.5705
  O  O150  1  0.866940  0.000460  0.552630  1.0  -0.5732
  O  O151  1  0.633260  0.768550  0.585950  1.0  -0.5145
  O  O152  1  0.547460  0.764840  0.696160  1.0  -0.5279
  O  O153  1  0.561280  0.992690  0.889310  1.0  -0.5806
  O  O154  1  0.582250  0.116700  0.833780  1.0  -0.5647
  O  O155  1  0.932470  0.758180  0.472400  1.0  -0.5296
  O  O156  1  0.004200  0.871230  0.501440  1.0  -0.6124
  O  O157  1  0.626400  0.902620  0.150060  1.0  -0.5707
  O  O158  1  0.633060  0.999540  0.052630  1.0  -0.572
  O  O159  1  0.866740  0.231450  0.085950  1.0  -0.5146
  O  O160  1  0.952540  0.235160  0.196160  1.0  -0.5272
  O  O161  1  0.938720  0.007310  0.389310  1.0  -0.5805
  O  O162  1  0.917750  0.883300  0.333780  1.0  -0.5656
  O  O163  1  0.567530  0.241820  0.972400  1.0  -0.5305
  O  O164  1  0.495800  0.128770  0.001440  1.0  -0.615
  O  O165  1  0.126400  0.597380  0.849940  1.0  -0.571
  O  O166  1  0.133060  0.500460  0.947370  1.0  -0.5716
  O  O167  1  0.366740  0.268550  0.914050  1.0  -0.5159
  O  O168  1  0.452540  0.264840  0.803840  1.0  -0.5274
  O  O169  1  0.438720  0.492690  0.610690  1.0  -0.5805
  O  O170  1  0.417750  0.616700  0.666220  1.0  -0.5658
  O  O171  1  0.067530  0.258180  0.027600  1.0  -0.5304
  O  O172  1  0.995800  0.371230  0.998560  1.0  -0.6143
  O  O173  1  0.373600  0.402620  0.349940  1.0  -0.571
  O  O174  1  0.366940  0.499540  0.447370  1.0  -0.5721
  O  O175  1  0.133260  0.731450  0.414050  1.0  -0.517
  O  O176  1  0.047460  0.735160  0.303840  1.0  -0.5273
  O  O177  1  0.061280  0.507310  0.110690  1.0  -0.58
  O  O178  1  0.082250  0.383300  0.166220  1.0  -0.565
  O  O179  1  0.432470  0.741820  0.527600  1.0  -0.5307
  O  O180  1  0.504200  0.628770  0.498560  1.0  -0.6129
  O  O181  1  0.126400  0.902620  0.349940  1.0  -0.5709
  O  O182  1  0.133060  0.999540  0.447370  1.0  -0.5712
  O  O183  1  0.366740  0.231450  0.414050  1.0  -0.5166
  O  O184  1  0.452540  0.235160  0.303840  1.0  -0.5277
  O  O185  1  0.438720  0.007310  0.110690  1.0  -0.5805
  O  O186  1  0.417750  0.883300  0.166220  1.0  -0.5653
  O  O187  1  0.067530  0.241820  0.527600  1.0  -0.5301
  O  O188  1  0.995800  0.128770  0.498560  1.0  -0.6151
  O  O189  1  0.373600  0.097380  0.849940  1.0  -0.5715
  O  O190  1  0.366940  0.000460  0.947370  1.0  -0.5725
  O  O191  1  0.133260  0.768550  0.914050  1.0  -0.5164
  O  O192  1  0.047460  0.764840  0.803840  1.0  -0.527
  O  O193  1  0.061280  0.992690  0.610690  1.0  -0.5803
  O  O194  1  0.082250  0.116700  0.666220  1.0  -0.5645
  O  O195  1  0.432470  0.758180  0.027600  1.0  -0.5302
  O  O196  1  0.504200  0.871230  0.998560  1.0  -0.6127
  O  O197  1  0.873600  0.402620  0.150060  1.0  -0.5708
  O  O198  1  0.866940  0.499540  0.052630  1.0  -0.5732
  O  O199  1  0.633260  0.731450  0.085950  1.0  -0.5152
  O  O200  1  0.547460  0.735160  0.196160  1.0  -0.5275
  O  O201  1  0.561280  0.507310  0.389310  1.0  -0.5803
  O  O202  1  0.582250  0.383300  0.333780  1.0  -0.5652
  O  O203  1  0.932470  0.741820  0.972400  1.0  -0.5307
  O  O204  1  0.004200  0.628770  0.001440  1.0  -0.6127
  O  O205  1  0.626400  0.597380  0.650060  1.0  -0.5703
  O  O206  1  0.633060  0.500460  0.552630  1.0  -0.5717
  O  O207  1  0.866740  0.268550  0.585950  1.0  -0.514
  O  O208  1  0.952540  0.264840  0.696160  1.0  -0.5276
  O  O209  1  0.938720  0.492690  0.889310  1.0  -0.5803
  O  O210  1  0.917750  0.616700  0.833780  1.0  -0.5662
  O  O211  1  0.567530  0.258180  0.472400  1.0  -0.5296
  O  O212  1  0.495800  0.371230  0.501440  1.0  -0.6143
