# generated using pymatgen
data_Ni3H12(C18O13)2
_symmetry_space_group_name_H-M   'P 1'
_cell_length_a   10.78100000
_cell_length_b   13.90300000
_cell_length_c   18.74000000
_cell_angle_alpha   90.00000000
_cell_angle_beta   98.17000000
_cell_angle_gamma   90.00000000
_symmetry_Int_Tables_number   1
_chemical_formula_structural   Ni3H12(C18O13)2
_chemical_formula_sum   'Ni6 H24 C72 O52'
_cell_volume   2780.39745971
_cell_formula_units_Z   2
loop_
 _symmetry_equiv_pos_site_id
 _symmetry_equiv_pos_as_xyz
  1  'x, y, z'
loop_
 _atom_site_type_symbol
 _atom_site_label
 _atom_site_symmetry_multiplicity
 _atom_site_fract_x
 _atom_site_fract_y
 _atom_site_fract_z
 _atom_site_occupancy
 _atom_site_charge
  Ni  Ni1  1  0.605700  0.730790  0.476250  1.0  1.0475
  Ni  Ni2  1  0.394300  0.230790  0.023750  1.0  1.0485
  Ni  Ni3  1  0.394300  0.269210  0.523750  1.0  1.0482
  Ni  Ni4  1  0.605700  0.769210  0.976250  1.0  1.0473
  Ni  Ni5  1  0.500000  0.000000  0.000000  1.0  1.1062
  Ni  Ni6  1  0.500000  0.500000  0.500000  1.0  1.1062
  H  H7  1  0.104100  0.877700  0.990400  1.0  0.168
  H  H8  1  0.310000  0.637100  0.973200  1.0  0.1615
  H  H9  1  0.930700  0.622200  0.942700  1.0  0.1578
  H  H10  1  0.567200  0.944800  0.232100  1.0  0.1628
  H  H11  1  0.385500  0.198900  0.236000  1.0  0.1575
  H  H12  1  0.466100  0.042800  0.419600  1.0  0.1613
  H  H13  1  0.895900  0.377700  0.509600  1.0  0.168
  H  H14  1  0.690000  0.137100  0.526800  1.0  0.1615
  H  H15  1  0.069300  0.122200  0.557300  1.0  0.1583
  H  H16  1  0.432800  0.444800  0.267900  1.0  0.1618
  H  H17  1  0.614500  0.698900  0.264000  1.0  0.157
  H  H18  1  0.533900  0.542800  0.080400  1.0  0.1606
  H  H19  1  0.895900  0.122300  0.009600  1.0  0.1681
  H  H20  1  0.690000  0.362900  0.026800  1.0  0.161
  H  H21  1  0.069300  0.377800  0.057300  1.0  0.158
  H  H22  1  0.432800  0.055200  0.767900  1.0  0.1615
  H  H23  1  0.614500  0.801100  0.764000  1.0  0.1576
  H  H24  1  0.533900  0.957200  0.580400  1.0  0.1589
  H  H25  1  0.104100  0.622300  0.490400  1.0  0.1687
  H  H26  1  0.310000  0.862900  0.473200  1.0  0.1611
  H  H27  1  0.930700  0.877800  0.442700  1.0  0.1578
  H  H28  1  0.567200  0.555200  0.732100  1.0  0.1628
  H  H29  1  0.385500  0.301100  0.736000  1.0  0.1573
  H  H30  1  0.466100  0.457200  0.919600  1.0  0.1596
  C  C31  1  0.999050  0.757020  0.966110  1.0  -0.0817
  C  C32  1  0.108480  0.810530  0.981600  1.0  0.0206
  C  C33  1  0.224370  0.765840  0.984230  1.0  -0.1266
  C  C34  1  0.230830  0.667630  0.971380  1.0  0.0251
  C  C35  1  0.121410  0.614110  0.955880  1.0  -0.1154
  C  C36  1  0.005520  0.658810  0.953250  1.0  -0.0013
  C  C37  1  0.874610  0.804290  0.972530  1.0  0.7543
  C  C38  1  0.347000  0.818410  0.995220  1.0  0.7479
  C  C39  1  0.128000  0.508520  0.942200  1.0  0.7507
  C  C40  1  0.526290  0.981600  0.331460  1.0  -0.0643
  C  C41  1  0.528250  0.992240  0.257870  1.0  0.0421
  C  C42  1  0.473470  0.071830  0.222340  1.0  -0.0805
  C  C43  1  0.420440  0.143090  0.260370  1.0  0.0633
  C  C44  1  0.418560  0.132720  0.333980  1.0  -0.0924
  C  C45  1  0.469710  0.051100  0.369570  1.0  0.0307
  C  C46  1  0.591720  0.899320  0.372340  1.0  0.7245
  C  C47  1  0.469200  0.083950  0.141000  1.0  0.7614
  C  C48  1  0.365510  0.213990  0.373930  1.0  0.7671
  C  C49  1  0.000950  0.257020  0.533890  1.0  -0.0825
  C  C50  1  0.891520  0.310530  0.518400  1.0  0.0204
  C  C51  1  0.775630  0.265840  0.515770  1.0  -0.1263
  C  C52  1  0.769170  0.167630  0.528620  1.0  0.024
  C  C53  1  0.878590  0.114110  0.544120  1.0  -0.1143
  C  C54  1  0.994480  0.158810  0.546750  1.0  -0.0017
  C  C55  1  0.125390  0.304290  0.527470  1.0  0.7529
  C  C56  1  0.653000  0.318410  0.504780  1.0  0.7489
  C  C57  1  0.872000  0.008520  0.557800  1.0  0.7514
  C  C58  1  0.473710  0.481600  0.168540  1.0  -0.0635
  C  C59  1  0.471750  0.492240  0.242130  1.0  0.0414
  C  C60  1  0.526530  0.571830  0.277660  1.0  -0.0805
  C  C61  1  0.579560  0.643090  0.239630  1.0  0.0627
  C  C62  1  0.581440  0.632720  0.166020  1.0  -0.0929
  C  C63  1  0.530290  0.551100  0.130430  1.0  0.0308
  C  C64  1  0.408280  0.399320  0.127660  1.0  0.7239
  C  C65  1  0.530800  0.583950  0.359000  1.0  0.7627
  C  C66  1  0.634490  0.713990  0.126070  1.0  0.7656
  C  C67  1  0.000950  0.242980  0.033890  1.0  -0.0818
  C  C68  1  0.891520  0.189470  0.018400  1.0  0.0217
  C  C69  1  0.775630  0.234160  0.015770  1.0  -0.1271
  C  C70  1  0.769170  0.332370  0.028620  1.0  0.0242
  C  C71  1  0.878590  0.385890  0.044120  1.0  -0.1149
  C  C72  1  0.994480  0.341190  0.046750  1.0  -0.0013
  C  C73  1  0.125390  0.195710  0.027470  1.0  0.7522
  C  C74  1  0.653000  0.181590  0.004780  1.0  0.7488
  C  C75  1  0.872000  0.491480  0.057800  1.0  0.7506
  C  C76  1  0.473710  0.018400  0.668540  1.0  -0.0636
  C  C77  1  0.471750  0.007760  0.742130  1.0  0.0404
  C  C78  1  0.526530  0.928170  0.777660  1.0  -0.0806
  C  C79  1  0.579560  0.856910  0.739630  1.0  0.0623
  C  C80  1  0.581440  0.867280  0.666020  1.0  -0.0923
  C  C81  1  0.530290  0.948900  0.630430  1.0  0.0307
  C  C82  1  0.408280  0.100680  0.627660  1.0  0.7237
  C  C83  1  0.530800  0.916050  0.859000  1.0  0.7622
  C  C84  1  0.634490  0.786010  0.626070  1.0  0.766
  C  C85  1  0.999050  0.742980  0.466110  1.0  -0.0815
  C  C86  1  0.108480  0.689470  0.481600  1.0  0.0217
  C  C87  1  0.224370  0.734160  0.484230  1.0  -0.127
  C  C88  1  0.230830  0.832370  0.471380  1.0  0.025
  C  C89  1  0.121410  0.885890  0.455880  1.0  -0.1145
  C  C90  1  0.005520  0.841190  0.453250  1.0  -0.001
  C  C91  1  0.874610  0.695710  0.472530  1.0  0.7541
  C  C92  1  0.347000  0.681590  0.495220  1.0  0.7479
  C  C93  1  0.128000  0.991480  0.442200  1.0  0.7501
  C  C94  1  0.526290  0.518400  0.831460  1.0  -0.0644
  C  C95  1  0.528250  0.507760  0.757870  1.0  0.0416
  C  C96  1  0.473470  0.428170  0.722340  1.0  -0.0805
  C  C97  1  0.420440  0.356910  0.760370  1.0  0.0626
  C  C98  1  0.418560  0.367280  0.833980  1.0  -0.0924
  C  C99  1  0.469710  0.448900  0.869570  1.0  0.0304
  C  C100  1  0.591720  0.600680  0.872340  1.0  0.7246
  C  C101  1  0.469200  0.416050  0.641000  1.0  0.7613
  C  C102  1  0.365510  0.286010  0.873930  1.0  0.7669
  O  O103  1  0.776890  0.758480  0.943620  1.0  -0.5525
  O  O104  1  0.872220  0.882670  0.004410  1.0  -0.48
  O  O105  1  0.347800  0.907930  0.984950  1.0  -0.5507
  O  O106  1  0.441180  0.765470  0.013070  1.0  -0.5301
  O  O107  1  0.240470  0.471910  0.967740  1.0  -0.4638
  O  O108  1  0.043460  0.460960  0.911500  1.0  -0.4239
  O  O109  1  0.554850  0.865160  0.425960  1.0  -0.5322
  O  O110  1  0.692760  0.867150  0.346660  1.0  -0.4819
  O  O111  1  0.479950  0.008970  0.105420  1.0  -0.5241
  O  O112  1  0.458550  0.169430  0.119160  1.0  -0.5457
  O  O113  1  0.365700  0.296900  0.349110  1.0  -0.4865
  O  O114  1  0.325200  0.192360  0.433040  1.0  -0.545
  O  O115  1  0.640380  0.897040  0.032080  1.0  -0.5772
  O  O116  1  0.223110  0.258480  0.556380  1.0  -0.5532
  O  O117  1  0.127780  0.382670  0.495590  1.0  -0.4796
  O  O118  1  0.652200  0.407930  0.515050  1.0  -0.5497
  O  O119  1  0.558820  0.265470  0.486930  1.0  -0.5297
  O  O120  1  0.759530  0.971910  0.532260  1.0  -0.464
  O  O121  1  0.956540  0.960960  0.588500  1.0  -0.4243
  O  O122  1  0.445150  0.365160  0.074040  1.0  -0.5309
  O  O123  1  0.307240  0.367150  0.153340  1.0  -0.4778
  O  O124  1  0.520050  0.508970  0.394580  1.0  -0.5241
  O  O125  1  0.541450  0.669430  0.380840  1.0  -0.5454
  O  O126  1  0.634300  0.796900  0.150890  1.0  -0.4859
  O  O127  1  0.674800  0.692360  0.066960  1.0  -0.5448
  O  O128  1  0.359620  0.397040  0.467920  1.0  -0.5787
  O  O129  1  0.223110  0.241520  0.056380  1.0  -0.5528
  O  O130  1  0.127780  0.117330  0.995590  1.0  -0.4823
  O  O131  1  0.652200  0.092070  0.015050  1.0  -0.5498
  O  O132  1  0.558820  0.234530  0.986930  1.0  -0.5298
  O  O133  1  0.759530  0.528090  0.032260  1.0  -0.4633
  O  O134  1  0.956540  0.539040  0.088500  1.0  -0.4245
  O  O135  1  0.445150  0.134840  0.574040  1.0  -0.5307
  O  O136  1  0.307240  0.132850  0.653340  1.0  -0.4783
  O  O137  1  0.520050  0.991030  0.894580  1.0  -0.524
  O  O138  1  0.541450  0.830570  0.880840  1.0  -0.5467
  O  O139  1  0.634300  0.703100  0.650890  1.0  -0.4858
  O  O140  1  0.674800  0.807640  0.566960  1.0  -0.5443
  O  O141  1  0.359620  0.102960  0.967920  1.0  -0.5789
  O  O142  1  0.776890  0.741520  0.443620  1.0  -0.5527
  O  O143  1  0.872220  0.617330  0.504410  1.0  -0.4815
  O  O144  1  0.347800  0.592070  0.484950  1.0  -0.5498
  O  O145  1  0.441180  0.734530  0.513070  1.0  -0.5304
  O  O146  1  0.240470  0.028090  0.467740  1.0  -0.4635
  O  O147  1  0.043460  0.039040  0.411500  1.0  -0.4237
  O  O148  1  0.554850  0.634840  0.925960  1.0  -0.5321
  O  O149  1  0.692760  0.632850  0.846660  1.0  -0.48
  O  O150  1  0.479950  0.491030  0.605420  1.0  -0.5243
  O  O151  1  0.458550  0.330570  0.619160  1.0  -0.5476
  O  O152  1  0.365700  0.203100  0.849110  1.0  -0.4862
  O  O153  1  0.325200  0.307640  0.933040  1.0  -0.5448
  O  O154  1  0.640380  0.602960  0.532080  1.0  -0.5776
