# generated using pymatgen
data_Ni3H12(C11O8)2
_symmetry_space_group_name_H-M   'P 1'
_cell_length_a   14.13490000
_cell_length_b   16.29610000
_cell_length_c   16.52400000
_cell_angle_alpha   90.00000000
_cell_angle_beta   90.00000000
_cell_angle_gamma   90.00000000
_symmetry_Int_Tables_number   1
_chemical_formula_structural   Ni3H12(C11O8)2
_chemical_formula_sum   'Ni12 H48 C88 O64'
_cell_volume   3806.20002404
_cell_formula_units_Z   4
loop_
 _symmetry_equiv_pos_site_id
 _symmetry_equiv_pos_as_xyz
  1  'x, y, z'
loop_
 _atom_site_type_symbol
 _atom_site_label
 _atom_site_symmetry_multiplicity
 _atom_site_fract_x
 _atom_site_fract_y
 _atom_site_fract_z
 _atom_site_occupancy
 _atom_site_charge
  Ni  Ni1  1  0.972720  0.672630  0.113980  1.0  0.9959
  Ni  Ni2  1  0.527280  0.327370  0.613980  1.0  0.9963
  Ni  Ni3  1  0.027280  0.172630  0.386020  1.0  0.9968
  Ni  Ni4  1  0.472720  0.827370  0.886020  1.0  0.9967
  Ni  Ni5  1  0.027280  0.327370  0.886020  1.0  0.997
  Ni  Ni6  1  0.472720  0.672630  0.386020  1.0  0.9967
  Ni  Ni7  1  0.972720  0.827370  0.613980  1.0  0.9961
  Ni  Ni8  1  0.527280  0.172630  0.113980  1.0  0.9961
  Ni  Ni9  1  0.000000  0.500000  0.000000  1.0  1.0345
  Ni  Ni10  1  0.500000  0.500000  0.500000  1.0  1.0345
  Ni  Ni11  1  0.000000  0.000000  0.500000  1.0  1.0345
  Ni  Ni12  1  0.500000  0.000000  0.000000  1.0  1.0345
  H  H13  1  0.070000  0.388600  0.219800  1.0  0.1227
  H  H14  1  0.245800  0.390800  0.412900  1.0  0.1421
  H  H15  1  0.225400  0.590900  0.268700  1.0  0.1442
  H  H16  1  0.853900  0.301300  0.110000  1.0  0.1703
  H  H17  1  0.951500  0.256200  0.130700  1.0  0.1772
  H  H18  1  0.943900  0.353900  0.137500  1.0  0.161
  H  H19  1  0.430000  0.611400  0.719800  1.0  0.1231
  H  H20  1  0.254200  0.609200  0.912900  1.0  0.1414
  H  H21  1  0.274600  0.409100  0.768700  1.0  0.1441
  H  H22  1  0.646100  0.698700  0.610000  1.0  0.1689
  H  H23  1  0.548500  0.743800  0.630700  1.0  0.1775
  H  H24  1  0.556100  0.646100  0.637500  1.0  0.161
  H  H25  1  0.930000  0.888600  0.280200  1.0  0.1234
  H  H26  1  0.754200  0.890800  0.087100  1.0  0.1408
  H  H27  1  0.774600  0.090900  0.231300  1.0  0.1443
  H  H28  1  0.146100  0.801300  0.390000  1.0  0.1686
  H  H29  1  0.048500  0.756200  0.369300  1.0  0.1781
  H  H30  1  0.056100  0.853900  0.362500  1.0  0.161
  H  H31  1  0.570000  0.111400  0.780200  1.0  0.1225
  H  H32  1  0.745800  0.109200  0.587100  1.0  0.1416
  H  H33  1  0.725400  0.909100  0.731300  1.0  0.1444
  H  H34  1  0.353900  0.198700  0.890000  1.0  0.1695
  H  H35  1  0.451500  0.243800  0.869300  1.0  0.1778
  H  H36  1  0.443900  0.146100  0.862500  1.0  0.1616
  H  H37  1  0.930000  0.611400  0.780200  1.0  0.123
  H  H38  1  0.754200  0.609200  0.587100  1.0  0.1409
  H  H39  1  0.774600  0.409100  0.731300  1.0  0.1445
  H  H40  1  0.146100  0.698700  0.890000  1.0  0.1683
  H  H41  1  0.048500  0.743800  0.869300  1.0  0.1783
  H  H42  1  0.056100  0.646100  0.862500  1.0  0.1616
  H  H43  1  0.570000  0.388600  0.280200  1.0  0.1227
  H  H44  1  0.745800  0.390800  0.087100  1.0  0.1417
  H  H45  1  0.725400  0.590900  0.231300  1.0  0.1443
  H  H46  1  0.353900  0.301300  0.390000  1.0  0.1697
  H  H47  1  0.451500  0.256200  0.369300  1.0  0.1781
  H  H48  1  0.443900  0.353900  0.362500  1.0  0.161
  H  H49  1  0.070000  0.111400  0.719800  1.0  0.1229
  H  H50  1  0.245800  0.109200  0.912900  1.0  0.1422
  H  H51  1  0.225400  0.909100  0.768700  1.0  0.1441
  H  H52  1  0.853900  0.198700  0.610000  1.0  0.17
  H  H53  1  0.951500  0.243800  0.630700  1.0  0.1769
  H  H54  1  0.943900  0.146100  0.637500  1.0  0.161
  H  H55  1  0.430000  0.888600  0.219800  1.0  0.1231
  H  H56  1  0.254200  0.890800  0.412900  1.0  0.1411
  H  H57  1  0.274600  0.090900  0.268700  1.0  0.1442
  H  H58  1  0.646100  0.801300  0.110000  1.0  0.1693
  H  H59  1  0.548500  0.756200  0.130700  1.0  0.1772
  H  H60  1  0.556100  0.853900  0.137500  1.0  0.161
  C  C61  1  0.138940  0.496710  0.235200  1.0  -0.1149
  C  C62  1  0.113330  0.416950  0.253740  1.0  0.0145
  C  C63  1  0.150280  0.377750  0.321450  1.0  -0.1149
  C  C64  1  0.220110  0.417060  0.366510  1.0  -0.0492
  C  C65  1  0.252440  0.494090  0.344280  1.0  -0.1143
  C  C66  1  0.208180  0.535920  0.280680  1.0  0.0012
  C  C67  1  0.089870  0.539100  0.165450  1.0  0.7299
  C  C68  1  0.111630  0.295060  0.345020  1.0  0.6776
  C  C69  1  0.338210  0.532090  0.384310  1.0  0.7168
  C  C70  1  0.922990  0.305520  0.107180  1.0  -0.4561
  C  C71  1  0.953000  0.313440  0.020500  1.0  0.7584
  C  C72  1  0.361060  0.503290  0.735200  1.0  -0.1152
  C  C73  1  0.386670  0.583050  0.753740  1.0  0.0158
  C  C74  1  0.349720  0.622250  0.821450  1.0  -0.1152
  C  C75  1  0.279890  0.582940  0.866510  1.0  -0.049
  C  C76  1  0.247560  0.505910  0.844280  1.0  -0.1151
  C  C77  1  0.291820  0.464080  0.780680  1.0  0.0024
  C  C78  1  0.410130  0.460900  0.665450  1.0  0.7293
  C  C79  1  0.388370  0.704940  0.845020  1.0  0.6779
  C  C80  1  0.161790  0.467910  0.884310  1.0  0.7174
  C  C81  1  0.577010  0.694480  0.607180  1.0  -0.4571
  C  C82  1  0.547000  0.686560  0.520500  1.0  0.7578
  C  C83  1  0.861060  0.996710  0.264800  1.0  -0.1154
  C  C84  1  0.886670  0.916950  0.246260  1.0  0.0165
  C  C85  1  0.849720  0.877750  0.178550  1.0  -0.1148
  C  C86  1  0.779890  0.917060  0.133490  1.0  -0.0491
  C  C87  1  0.747560  0.994090  0.155720  1.0  -0.1143
  C  C88  1  0.791820  0.035920  0.219320  1.0  0.0002
  C  C89  1  0.910130  0.039100  0.334550  1.0  0.7292
  C  C90  1  0.888370  0.795060  0.154980  1.0  0.6778
  C  C91  1  0.661790  0.032090  0.115690  1.0  0.7174
  C  C92  1  0.077010  0.805520  0.392820  1.0  -0.458
  C  C93  1  0.047000  0.813440  0.479500  1.0  0.7566
  C  C94  1  0.638940  0.003290  0.764800  1.0  -0.115
  C  C95  1  0.613330  0.083050  0.746260  1.0  0.0149
  C  C96  1  0.650280  0.122250  0.678550  1.0  -0.1147
  C  C97  1  0.720110  0.082940  0.633490  1.0  -0.0491
  C  C98  1  0.752440  0.005910  0.655720  1.0  -0.1142
  C  C99  1  0.708180  0.964080  0.719320  1.0  0.003
  C  C100  1  0.589870  0.960900  0.834550  1.0  0.7302
  C  C101  1  0.611630  0.204940  0.654980  1.0  0.6774
  C  C102  1  0.838210  0.967910  0.615690  1.0  0.7162
  C  C103  1  0.422990  0.194480  0.892820  1.0  -0.4582
  C  C104  1  0.453000  0.186560  0.979500  1.0  0.7562
  C  C105  1  0.861060  0.503290  0.764800  1.0  -0.1151
  C  C106  1  0.886670  0.583050  0.746260  1.0  0.0161
  C  C107  1  0.849720  0.622250  0.678550  1.0  -0.115
  C  C108  1  0.779890  0.582940  0.633490  1.0  -0.0489
  C  C109  1  0.747560  0.505910  0.655720  1.0  -0.1148
  C  C110  1  0.791820  0.464080  0.719320  1.0  0.0024
  C  C111  1  0.910130  0.460900  0.834550  1.0  0.7292
  C  C112  1  0.888370  0.704940  0.654980  1.0  0.6777
  C  C113  1  0.661790  0.467910  0.615690  1.0  0.7173
  C  C114  1  0.077010  0.694480  0.892820  1.0  -0.4563
  C  C115  1  0.047000  0.686560  0.979500  1.0  0.7564
  C  C116  1  0.638940  0.496710  0.264800  1.0  -0.1153
  C  C117  1  0.613330  0.416950  0.246260  1.0  0.0152
  C  C118  1  0.650280  0.377750  0.178550  1.0  -0.1152
  C  C119  1  0.720110  0.417060  0.133490  1.0  -0.0486
  C  C120  1  0.752440  0.494090  0.155720  1.0  -0.114
  C  C121  1  0.708180  0.535920  0.219320  1.0  0.0013
  C  C122  1  0.589870  0.539100  0.334550  1.0  0.7297
  C  C123  1  0.611630  0.295060  0.154980  1.0  0.6775
  C  C124  1  0.838210  0.532090  0.115690  1.0  0.7168
  C  C125  1  0.422990  0.305520  0.392820  1.0  -0.4565
  C  C126  1  0.453000  0.313440  0.479500  1.0  0.7564
  C  C127  1  0.138940  0.003290  0.735200  1.0  -0.115
  C  C128  1  0.113330  0.083050  0.753740  1.0  0.0145
  C  C129  1  0.150280  0.122250  0.821450  1.0  -0.1147
  C  C130  1  0.220110  0.082940  0.866510  1.0  -0.0488
  C  C131  1  0.252440  0.005910  0.844280  1.0  -0.1143
  C  C132  1  0.208180  0.964080  0.780680  1.0  0.0029
  C  C133  1  0.089870  0.960900  0.665450  1.0  0.7302
  C  C134  1  0.111630  0.204940  0.845020  1.0  0.6775
  C  C135  1  0.338210  0.967910  0.884310  1.0  0.7162
  C  C136  1  0.922990  0.194480  0.607180  1.0  -0.4559
  C  C137  1  0.953000  0.186560  0.520500  1.0  0.7578
  C  C138  1  0.361060  0.996710  0.235200  1.0  -0.1149
  C  C139  1  0.386670  0.916950  0.253740  1.0  0.0158
  C  C140  1  0.349720  0.877750  0.321450  1.0  -0.1147
  C  C141  1  0.279890  0.917060  0.366510  1.0  -0.0486
  C  C142  1  0.247560  0.994090  0.344280  1.0  -0.1147
  C  C143  1  0.291820  0.035920  0.280680  1.0  0.0002
  C  C144  1  0.410130  0.039100  0.165450  1.0  0.7293
  C  C145  1  0.388370  0.795060  0.345020  1.0  0.678
  C  C146  1  0.161790  0.032090  0.384310  1.0  0.7173
  C  C147  1  0.577010  0.805520  0.107180  1.0  -0.4549
  C  C148  1  0.547000  0.813440  0.020500  1.0  0.7584
  O  O149  1  0.081980  0.616160  0.169010  1.0  -0.5493
  O  O150  1  0.059620  0.492380  0.111330  1.0  -0.5905
  O  O151  1  0.051290  0.260970  0.299060  1.0  -0.5108
  O  O152  1  0.135730  0.262410  0.410870  1.0  -0.5079
  O  O153  1  0.366670  0.499210  0.449070  1.0  -0.5804
  O  O154  1  0.375150  0.591150  0.347150  1.0  -0.5659
  O  O155  1  0.933460  0.259580  0.969250  1.0  -0.5255
  O  O156  1  0.005890  0.373190  0.998950  1.0  -0.6479
  O  O157  1  0.418020  0.383840  0.669010  1.0  -0.549
  O  O158  1  0.440380  0.507620  0.611330  1.0  -0.59
  O  O159  1  0.448710  0.739030  0.799060  1.0  -0.5124
  O  O160  1  0.364270  0.737590  0.910870  1.0  -0.5084
  O  O161  1  0.133330  0.500790  0.949070  1.0  -0.5797
  O  O162  1  0.124850  0.408850  0.847150  1.0  -0.5659
  O  O163  1  0.566540  0.740420  0.469250  1.0  -0.5269
  O  O164  1  0.494110  0.626810  0.498950  1.0  -0.6486
  O  O165  1  0.918020  0.116160  0.330990  1.0  -0.5504
  O  O166  1  0.940380  0.992380  0.388670  1.0  -0.5904
  O  O167  1  0.948710  0.760970  0.200940  1.0  -0.5122
  O  O168  1  0.864270  0.762410  0.089130  1.0  -0.5062
  O  O169  1  0.633330  0.999210  0.050930  1.0  -0.579
  O  O170  1  0.624850  0.091150  0.152850  1.0  -0.565
  O  O171  1  0.066540  0.759580  0.530750  1.0  -0.527
  O  O172  1  0.994110  0.873190  0.501050  1.0  -0.6482
  O  O173  1  0.581980  0.883840  0.830990  1.0  -0.5489
  O  O174  1  0.559620  0.007620  0.888670  1.0  -0.5903
  O  O175  1  0.551290  0.239030  0.700940  1.0  -0.5116
  O  O176  1  0.635730  0.237590  0.589130  1.0  -0.5069
  O  O177  1  0.866670  0.000790  0.550930  1.0  -0.5807
  O  O178  1  0.875150  0.908850  0.652850  1.0  -0.5655
  O  O179  1  0.433460  0.240420  0.030750  1.0  -0.5269
  O  O180  1  0.505890  0.126810  0.001050  1.0  -0.6483
  O  O181  1  0.918020  0.383840  0.830990  1.0  -0.5491
  O  O182  1  0.940380  0.507620  0.888670  1.0  -0.59
  O  O183  1  0.948710  0.739030  0.700940  1.0  -0.512
  O  O184  1  0.864270  0.737590  0.589130  1.0  -0.5062
  O  O185  1  0.633330  0.500790  0.550930  1.0  -0.5796
  O  O186  1  0.624850  0.408850  0.652850  1.0  -0.5655
  O  O187  1  0.066540  0.740420  0.030750  1.0  -0.5269
  O  O188  1  0.994110  0.626810  0.001050  1.0  -0.6484
  O  O189  1  0.581980  0.616160  0.330990  1.0  -0.5491
  O  O190  1  0.559620  0.492380  0.388670  1.0  -0.5908
  O  O191  1  0.551290  0.260970  0.200940  1.0  -0.512
  O  O192  1  0.635730  0.262410  0.089130  1.0  -0.5068
  O  O193  1  0.866670  0.499210  0.050930  1.0  -0.5803
  O  O194  1  0.875150  0.591150  0.152850  1.0  -0.5649
  O  O195  1  0.433460  0.259580  0.530750  1.0  -0.5263
  O  O196  1  0.505890  0.373190  0.501050  1.0  -0.6479
  O  O197  1  0.081980  0.883840  0.669010  1.0  -0.5491
  O  O198  1  0.059620  0.007620  0.611330  1.0  -0.5899
  O  O199  1  0.051290  0.239030  0.799060  1.0  -0.5111
  O  O200  1  0.135730  0.237590  0.910870  1.0  -0.5083
  O  O201  1  0.366670  0.000790  0.949070  1.0  -0.5802
  O  O202  1  0.375150  0.908850  0.847150  1.0  -0.5659
  O  O203  1  0.933460  0.240420  0.469250  1.0  -0.5268
  O  O204  1  0.005890  0.126810  0.498950  1.0  -0.6482
  O  O205  1  0.418020  0.116160  0.169010  1.0  -0.5502
  O  O206  1  0.440380  0.992380  0.111330  1.0  -0.5904
  O  O207  1  0.448710  0.760970  0.299060  1.0  -0.5122
  O  O208  1  0.364270  0.762410  0.410870  1.0  -0.5079
  O  O209  1  0.133330  0.999210  0.449070  1.0  -0.5799
  O  O210  1  0.124850  0.091150  0.347150  1.0  -0.5657
  O  O211  1  0.566540  0.759580  0.969250  1.0  -0.5261
  O  O212  1  0.494110  0.873190  0.998950  1.0  -0.6484
