# generated using pymatgen
data_TbH32C30(N6O5)2
_symmetry_space_group_name_H-M   'P 1'
_cell_length_a   15.28300000
_cell_length_b   24.90210000
_cell_length_c   10.61680000
_cell_angle_alpha   90.00000000
_cell_angle_beta   90.00000000
_cell_angle_gamma   90.00000000
_symmetry_Int_Tables_number   1
_chemical_formula_structural   TbH32C30(N6O5)2
_chemical_formula_sum   'Tb4 H128 C120 N48 O40'
_cell_volume   4040.52894332
_cell_formula_units_Z   4
loop_
 _symmetry_equiv_pos_site_id
 _symmetry_equiv_pos_as_xyz
  1  'x, y, z'
loop_
 _atom_site_type_symbol
 _atom_site_label
 _atom_site_symmetry_multiplicity
 _atom_site_fract_x
 _atom_site_fract_y
 _atom_site_fract_z
 _atom_site_occupancy
 _atom_site_charge
  Tb  Tb1  1  0.663580  0.639710  0.500000  1.0  2.1896
  Tb  Tb2  1  0.336420  0.360290  0.500000  1.0  2.1914
  Tb  Tb3  1  0.836420  0.139710  0.500000  1.0  2.1897
  Tb  Tb4  1  0.163580  0.860290  0.500000  1.0  2.1902
  H  H5  1  0.470700  0.778000  0.575700  1.0  0.1175
  H  H6  1  0.443000  0.920900  0.620400  1.0  0.1093
  H  H7  1  0.454900  0.865300  0.694800  1.0  0.099
  H  H8  1  0.590000  0.913600  0.695100  1.0  0.0736
  H  H9  1  0.680700  0.842300  0.618800  1.0  0.0913
  H  H10  1  0.599000  0.817700  0.693900  1.0  0.0932
  H  H11  1  0.531000  0.698100  0.256400  1.0  0.1183
  H  H12  1  0.533000  0.739200  0.140600  1.0  0.1148
  H  H13  1  0.198200  0.629300  0.153000  1.0  0.0949
  H  H14  1  0.258300  0.602900  0.259500  1.0  0.1084
  H  H15  1  0.206800  0.412000  0.255600  1.0  0.1111
  H  H16  1  0.145700  0.396300  0.139100  1.0  0.1153
  H  H17  1  0.529300  0.222000  0.575700  1.0  0.1146
  H  H18  1  0.557000  0.079100  0.620400  1.0  0.1126
  H  H19  1  0.545100  0.134700  0.694800  1.0  0.0986
  H  H20  1  0.410000  0.086400  0.695100  1.0  0.0741
  H  H21  1  0.319300  0.157700  0.618800  1.0  0.0902
  H  H22  1  0.401000  0.182300  0.693900  1.0  0.0918
  H  H23  1  0.469000  0.301900  0.256400  1.0  0.1186
  H  H24  1  0.467000  0.260800  0.140600  1.0  0.1133
  H  H25  1  0.801800  0.370700  0.153000  1.0  0.0948
  H  H26  1  0.741700  0.397100  0.259500  1.0  0.1092
  H  H27  1  0.793200  0.588000  0.255600  1.0  0.1119
  H  H28  1  0.854300  0.603700  0.139100  1.0  0.1158
  H  H29  1  0.029300  0.278000  0.424300  1.0  0.1153
  H  H30  1  0.057000  0.420900  0.379600  1.0  0.1082
  H  H31  1  0.045100  0.365300  0.305200  1.0  0.0988
  H  H32  1  0.910000  0.413600  0.304900  1.0  0.0754
  H  H33  1  0.819300  0.342300  0.381200  1.0  0.09
  H  H34  1  0.901000  0.317700  0.306100  1.0  0.0927
  H  H35  1  0.969000  0.198100  0.743600  1.0  0.1184
  H  H36  1  0.967000  0.239200  0.859400  1.0  0.1144
  H  H37  1  0.301800  0.129300  0.847000  1.0  0.0951
  H  H38  1  0.241700  0.102900  0.740500  1.0  0.1122
  H  H39  1  0.293200  0.912000  0.744400  1.0  0.1132
  H  H40  1  0.354300  0.896300  0.860900  1.0  0.1155
  H  H41  1  0.970700  0.722000  0.424300  1.0  0.1162
  H  H42  1  0.943000  0.579100  0.379600  1.0  0.1116
  H  H43  1  0.954900  0.634700  0.305200  1.0  0.0992
  H  H44  1  0.090000  0.586400  0.304900  1.0  0.0747
  H  H45  1  0.180700  0.657700  0.381200  1.0  0.0921
  H  H46  1  0.099000  0.682300  0.306100  1.0  0.0927
  H  H47  1  0.031000  0.801900  0.743600  1.0  0.1191
  H  H48  1  0.033000  0.760800  0.859400  1.0  0.1139
  H  H49  1  0.698200  0.870700  0.847000  1.0  0.0945
  H  H50  1  0.758300  0.897100  0.740500  1.0  0.1116
  H  H51  1  0.706800  0.088000  0.744400  1.0  0.1129
  H  H52  1  0.645700  0.103700  0.860900  1.0  0.1148
  H  H53  1  0.529300  0.222000  0.424300  1.0  0.1146
  H  H54  1  0.557000  0.079100  0.379600  1.0  0.1125
  H  H55  1  0.545100  0.134700  0.305200  1.0  0.0991
  H  H56  1  0.410000  0.086400  0.304900  1.0  0.0751
  H  H57  1  0.319300  0.157700  0.381200  1.0  0.0906
  H  H58  1  0.401000  0.182300  0.306100  1.0  0.0926
  H  H59  1  0.469000  0.301900  0.743600  1.0  0.1189
  H  H60  1  0.467000  0.260800  0.859400  1.0  0.1137
  H  H61  1  0.801800  0.370700  0.847000  1.0  0.095
  H  H62  1  0.741700  0.397100  0.740500  1.0  0.1125
  H  H63  1  0.793200  0.588000  0.744400  1.0  0.1134
  H  H64  1  0.854300  0.603700  0.860900  1.0  0.1154
  H  H65  1  0.470700  0.778000  0.424300  1.0  0.1163
  H  H66  1  0.443000  0.920900  0.379600  1.0  0.1099
  H  H67  1  0.454900  0.865300  0.305200  1.0  0.099
  H  H68  1  0.590000  0.913600  0.304900  1.0  0.0748
  H  H69  1  0.680700  0.842300  0.381200  1.0  0.0917
  H  H70  1  0.599000  0.817700  0.306100  1.0  0.0924
  H  H71  1  0.531000  0.698100  0.743600  1.0  0.1185
  H  H72  1  0.533000  0.739200  0.859400  1.0  0.1146
  H  H73  1  0.198200  0.629300  0.847000  1.0  0.0947
  H  H74  1  0.258300  0.602900  0.740500  1.0  0.111
  H  H75  1  0.206800  0.412000  0.744400  1.0  0.1127
  H  H76  1  0.145700  0.396300  0.860900  1.0  0.115
  H  H77  1  0.970700  0.722000  0.575700  1.0  0.116
  H  H78  1  0.943000  0.579100  0.620400  1.0  0.1116
  H  H79  1  0.954900  0.634700  0.694800  1.0  0.0985
  H  H80  1  0.090000  0.586400  0.695100  1.0  0.0737
  H  H81  1  0.180700  0.657700  0.618800  1.0  0.0913
  H  H82  1  0.099000  0.682300  0.693900  1.0  0.0924
  H  H83  1  0.031000  0.801900  0.256400  1.0  0.1184
  H  H84  1  0.033000  0.760800  0.140600  1.0  0.1134
  H  H85  1  0.698200  0.870700  0.153000  1.0  0.0944
  H  H86  1  0.758300  0.897100  0.259500  1.0  0.1083
  H  H87  1  0.706800  0.088000  0.255600  1.0  0.1115
  H  H88  1  0.645700  0.103700  0.139100  1.0  0.1153
  H  H89  1  0.029300  0.278000  0.575700  1.0  0.1166
  H  H90  1  0.057000  0.420900  0.620400  1.0  0.1081
  H  H91  1  0.045100  0.365300  0.694800  1.0  0.099
  H  H92  1  0.910000  0.413600  0.695100  1.0  0.074
  H  H93  1  0.819300  0.342300  0.618800  1.0  0.0902
  H  H94  1  0.901000  0.317700  0.693900  1.0  0.0931
  H  H95  1  0.969000  0.198100  0.256400  1.0  0.1185
  H  H96  1  0.967000  0.239200  0.140600  1.0  0.1146
  H  H97  1  0.301800  0.129300  0.153000  1.0  0.095
  H  H98  1  0.241700  0.102900  0.259500  1.0  0.1098
  H  H99  1  0.293200  0.912000  0.255600  1.0  0.1115
  H  H100  1  0.354300  0.896300  0.139100  1.0  0.1158
  H  H101  1  0.573000  0.960600  0.500000  1.0  0.1072
  H  H102  1  0.664700  0.929200  0.500000  1.0  0.1073
  H  H103  1  0.427000  0.039400  0.500000  1.0  0.1041
  H  H104  1  0.335300  0.070800  0.500000  1.0  0.1075
  H  H105  1  0.927000  0.460600  0.500000  1.0  0.1063
  H  H106  1  0.835300  0.429200  0.500000  1.0  0.1073
  H  H107  1  0.073000  0.539400  0.500000  1.0  0.1042
  H  H108  1  0.164700  0.570800  0.500000  1.0  0.1069
  H  H109  1  0.791200  0.677500  0.000000  1.0  0.0976
  H  H110  1  0.668300  0.729500  0.000000  1.0  0.1008
  H  H111  1  0.399100  0.734900  0.000000  1.0  0.0924
  H  H112  1  0.270200  0.688600  0.000000  1.0  0.0953
  H  H113  1  0.128200  0.566000  0.000000  1.0  0.0979
  H  H114  1  0.103100  0.475200  0.000000  1.0  0.0907
  H  H115  1  0.208800  0.322500  0.000000  1.0  0.0979
  H  H116  1  0.331700  0.270500  0.000000  1.0  0.1008
  H  H117  1  0.600900  0.265100  0.000000  1.0  0.0895
  H  H118  1  0.729800  0.311400  0.000000  1.0  0.095
  H  H119  1  0.871800  0.434000  0.000000  1.0  0.0991
  H  H120  1  0.896900  0.524800  0.000000  1.0  0.0889
  H  H121  1  0.708800  0.177500  0.000000  1.0  0.098
  H  H122  1  0.831700  0.229500  0.000000  1.0  0.1007
  H  H123  1  0.100900  0.234900  0.000000  1.0  0.0924
  H  H124  1  0.229800  0.188600  0.000000  1.0  0.0953
  H  H125  1  0.371800  0.066000  0.000000  1.0  0.099
  H  H126  1  0.396900  0.975200  0.000000  1.0  0.089
  H  H127  1  0.291200  0.822500  0.000000  1.0  0.0977
  H  H128  1  0.168300  0.770500  0.000000  1.0  0.1007
  H  H129  1  0.899100  0.765100  0.000000  1.0  0.0892
  H  H130  1  0.770200  0.811400  0.000000  1.0  0.0946
  H  H131  1  0.628200  0.934000  0.000000  1.0  0.0979
  H  H132  1  0.603100  0.024800  0.000000  1.0  0.0908
  C  C133  1  0.472400  0.885470  0.618500  1.0  -0.2465
  C  C134  1  0.572030  0.893380  0.618000  1.0  0.0806
  C  C135  1  0.616300  0.837840  0.617500  1.0  -0.2364
  C  C136  1  0.656530  0.637880  0.181600  1.0  0.5042
  C  C137  1  0.531200  0.700620  0.163400  1.0  -0.067
  C  C138  1  0.398380  0.643920  0.184400  1.0  0.4261
  C  C139  1  0.250090  0.606300  0.167400  1.0  -0.042
  C  C140  1  0.243600  0.507550  0.183700  1.0  0.4304
  C  C141  1  0.203480  0.411280  0.162500  1.0  -0.0841
  C  C142  1  0.527600  0.114530  0.618500  1.0  -0.2457
  C  C143  1  0.427970  0.106620  0.618000  1.0  0.0798
  C  C144  1  0.383700  0.162160  0.617500  1.0  -0.2376
  C  C145  1  0.343470  0.362120  0.181600  1.0  0.5038
  C  C146  1  0.468800  0.299380  0.163400  1.0  -0.0668
  C  C147  1  0.601620  0.356080  0.184400  1.0  0.4259
  C  C148  1  0.749910  0.393700  0.167400  1.0  -0.0421
  C  C149  1  0.756400  0.492450  0.183700  1.0  0.4288
  C  C150  1  0.796520  0.588720  0.162500  1.0  -0.0826
  C  C151  1  0.027600  0.385470  0.381500  1.0  -0.2456
  C  C152  1  0.927970  0.393380  0.382000  1.0  0.0799
  C  C153  1  0.883700  0.337840  0.382500  1.0  -0.2382
  C  C154  1  0.843470  0.137880  0.818400  1.0  0.5047
  C  C155  1  0.968800  0.200620  0.836600  1.0  -0.0695
  C  C156  1  0.101620  0.143920  0.815600  1.0  0.427
  C  C157  1  0.249910  0.106300  0.832600  1.0  -0.0421
  C  C158  1  0.256400  0.007550  0.816300  1.0  0.4295
  C  C159  1  0.296520  0.911280  0.837500  1.0  -0.0821
  C  C160  1  0.972400  0.614530  0.381500  1.0  -0.246
  C  C161  1  0.072030  0.606620  0.382000  1.0  0.0808
  C  C162  1  0.116300  0.662160  0.382500  1.0  -0.2358
  C  C163  1  0.156530  0.862120  0.818400  1.0  0.5048
  C  C164  1  0.031200  0.799380  0.836600  1.0  -0.0679
  C  C165  1  0.898380  0.856080  0.815600  1.0  0.4256
  C  C166  1  0.750090  0.893700  0.832600  1.0  -0.0415
  C  C167  1  0.743600  0.992450  0.816300  1.0  0.4289
  C  C168  1  0.703480  0.088720  0.837500  1.0  -0.083
  C  C169  1  0.527600  0.114530  0.381500  1.0  -0.2458
  C  C170  1  0.427970  0.106620  0.382000  1.0  0.0806
  C  C171  1  0.383700  0.162160  0.382500  1.0  -0.2373
  C  C172  1  0.343470  0.362120  0.818400  1.0  0.5042
  C  C173  1  0.468800  0.299380  0.836600  1.0  -0.0684
  C  C174  1  0.601620  0.356080  0.815600  1.0  0.4271
  C  C175  1  0.749910  0.393700  0.832600  1.0  -0.0417
  C  C176  1  0.756400  0.492450  0.816300  1.0  0.4297
  C  C177  1  0.796520  0.588720  0.837500  1.0  -0.0825
  C  C178  1  0.472400  0.885470  0.381500  1.0  -0.2462
  C  C179  1  0.572030  0.893380  0.382000  1.0  0.0807
  C  C180  1  0.616300  0.837840  0.382500  1.0  -0.2368
  C  C181  1  0.656530  0.637880  0.818400  1.0  0.5047
  C  C182  1  0.531200  0.700620  0.836600  1.0  -0.069
  C  C183  1  0.398380  0.643920  0.815600  1.0  0.426
  C  C184  1  0.250090  0.606300  0.832600  1.0  -0.0416
  C  C185  1  0.243600  0.507550  0.816300  1.0  0.429
  C  C186  1  0.203480  0.411280  0.837500  1.0  -0.0826
  C  C187  1  0.972400  0.614530  0.618500  1.0  -0.2461
  C  C188  1  0.072030  0.606620  0.618000  1.0  0.0805
  C  C189  1  0.116300  0.662160  0.617500  1.0  -0.2361
  C  C190  1  0.156530  0.862120  0.181600  1.0  0.5038
  C  C191  1  0.031200  0.799380  0.163400  1.0  -0.0665
  C  C192  1  0.898380  0.856080  0.184400  1.0  0.4252
  C  C193  1  0.750090  0.893700  0.167400  1.0  -0.0424
  C  C194  1  0.743600  0.992450  0.183700  1.0  0.4302
  C  C195  1  0.703480  0.088720  0.162500  1.0  -0.0839
  C  C196  1  0.027600  0.385470  0.618500  1.0  -0.2457
  C  C197  1  0.927970  0.393380  0.618000  1.0  0.0796
  C  C198  1  0.883700  0.337840  0.617500  1.0  -0.2376
  C  C199  1  0.843470  0.137880  0.181600  1.0  0.5047
  C  C200  1  0.968800  0.200620  0.163400  1.0  -0.0672
  C  C201  1  0.101620  0.143920  0.184400  1.0  0.4266
  C  C202  1  0.249910  0.106300  0.167400  1.0  -0.0419
  C  C203  1  0.256400  0.007550  0.183700  1.0  0.4292
  C  C204  1  0.296520  0.911280  0.162500  1.0  -0.0829
  C  C205  1  0.589500  0.806260  0.500000  1.0  0.0354
  C  C206  1  0.488600  0.798540  0.500000  1.0  -0.2239
  C  C207  1  0.443900  0.854350  0.500000  1.0  0.0514
  C  C208  1  0.600300  0.924510  0.500000  1.0  -0.2103
  C  C209  1  0.629800  0.750410  0.500000  1.0  0.6519
  C  C210  1  0.345300  0.845260  0.500000  1.0  0.6546
  C  C211  1  0.410500  0.193740  0.500000  1.0  0.0358
  C  C212  1  0.511400  0.201460  0.500000  1.0  -0.2264
  C  C213  1  0.556100  0.145650  0.500000  1.0  0.0513
  C  C214  1  0.399700  0.075490  0.500000  1.0  -0.2066
  C  C215  1  0.370200  0.249590  0.500000  1.0  0.6519
  C  C216  1  0.654700  0.154740  0.500000  1.0  0.6569
  C  C217  1  0.910500  0.306260  0.500000  1.0  0.0357
  C  C218  1  0.011400  0.298540  0.500000  1.0  -0.2241
  C  C219  1  0.056100  0.354350  0.500000  1.0  0.0516
  C  C220  1  0.899700  0.424510  0.500000  1.0  -0.2099
  C  C221  1  0.870200  0.250410  0.500000  1.0  0.6504
  C  C222  1  0.154700  0.345260  0.500000  1.0  0.6564
  C  C223  1  0.089500  0.693740  0.500000  1.0  0.0359
  C  C224  1  0.988600  0.701460  0.500000  1.0  -0.2265
  C  C225  1  0.943900  0.645650  0.500000  1.0  0.0511
  C  C226  1  0.100300  0.575490  0.500000  1.0  -0.2065
  C  C227  1  0.129800  0.749590  0.500000  1.0  0.6514
  C  C228  1  0.845300  0.654740  0.500000  1.0  0.6543
  C  C229  1  0.736800  0.655120  0.000000  1.0  -0.0378
  C  C230  1  0.653500  0.690370  0.000000  1.0  -0.0309
  C  C231  1  0.409000  0.695170  0.000000  1.0  -0.0331
  C  C232  1  0.321700  0.663800  0.000000  1.0  -0.0384
  C  C233  1  0.184200  0.545230  0.000000  1.0  -0.0369
  C  C234  1  0.167100  0.483620  0.000000  1.0  -0.0372
  C  C235  1  0.263200  0.344880  0.000000  1.0  -0.0383
  C  C236  1  0.346500  0.309630  0.000000  1.0  -0.0303
  C  C237  1  0.591000  0.304830  0.000000  1.0  -0.0316
  C  C238  1  0.678300  0.336200  0.000000  1.0  -0.0378
  C  C239  1  0.815800  0.454770  0.000000  1.0  -0.0363
  C  C240  1  0.832900  0.516380  0.000000  1.0  -0.035
  C  C241  1  0.763200  0.155120  0.000000  1.0  -0.0381
  C  C242  1  0.846500  0.190370  0.000000  1.0  -0.0306
  C  C243  1  0.091000  0.195170  0.000000  1.0  -0.0324
  C  C244  1  0.178300  0.163800  0.000000  1.0  -0.0376
  C  C245  1  0.315800  0.045230  0.000000  1.0  -0.0362
  C  C246  1  0.332900  0.983620  0.000000  1.0  -0.035
  C  C247  1  0.236800  0.844880  0.000000  1.0  -0.0382
  C  C248  1  0.153500  0.809630  0.000000  1.0  -0.0306
  C  C249  1  0.909000  0.804830  0.000000  1.0  -0.0323
  C  C250  1  0.821700  0.836200  0.000000  1.0  -0.0382
  C  C251  1  0.684200  0.954770  0.000000  1.0  -0.0368
  C  C252  1  0.667100  0.016380  0.000000  1.0  -0.0374
  N  N253  1  0.728730  0.624030  0.115100  1.0  -0.1231
  N  N254  1  0.609330  0.674620  0.115500  1.0  -0.129
  N  N255  1  0.451010  0.677470  0.115200  1.0  -0.142
  N  N256  1  0.325840  0.632410  0.114500  1.0  -0.1582
  N  N257  1  0.233200  0.553600  0.115100  1.0  -0.1885
  N  N258  1  0.209300  0.465870  0.115600  1.0  -0.1529
  N  N259  1  0.271270  0.375970  0.115100  1.0  -0.1226
  N  N260  1  0.390670  0.325380  0.115500  1.0  -0.1286
  N  N261  1  0.548990  0.322530  0.115200  1.0  -0.1425
  N  N262  1  0.674160  0.367590  0.114500  1.0  -0.1577
  N  N263  1  0.766800  0.446400  0.115100  1.0  -0.1888
  N  N264  1  0.790700  0.534130  0.115600  1.0  -0.1537
  N  N265  1  0.771270  0.124030  0.884900  1.0  -0.122
  N  N266  1  0.890670  0.174620  0.884500  1.0  -0.1281
  N  N267  1  0.048990  0.177470  0.884800  1.0  -0.143
  N  N268  1  0.174160  0.132410  0.885500  1.0  -0.1602
  N  N269  1  0.266800  0.053600  0.884900  1.0  -0.1888
  N  N270  1  0.290700  0.965870  0.884400  1.0  -0.1526
  N  N271  1  0.228730  0.875970  0.884900  1.0  -0.1222
  N  N272  1  0.109330  0.825380  0.884500  1.0  -0.1277
  N  N273  1  0.951010  0.822530  0.884800  1.0  -0.1417
  N  N274  1  0.825840  0.867590  0.885500  1.0  -0.1579
  N  N275  1  0.733200  0.946400  0.884900  1.0  -0.1876
  N  N276  1  0.709300  0.034130  0.884400  1.0  -0.1515
  N  N277  1  0.271270  0.375970  0.884900  1.0  -0.1216
  N  N278  1  0.390670  0.325380  0.884500  1.0  -0.1275
  N  N279  1  0.548990  0.322530  0.884800  1.0  -0.142
  N  N280  1  0.674160  0.367590  0.885500  1.0  -0.1583
  N  N281  1  0.766800  0.446400  0.884900  1.0  -0.1879
  N  N282  1  0.790700  0.534130  0.884400  1.0  -0.1524
  N  N283  1  0.728730  0.624030  0.884900  1.0  -0.1227
  N  N284  1  0.609330  0.674620  0.884500  1.0  -0.1285
  N  N285  1  0.451010  0.677470  0.884800  1.0  -0.1425
  N  N286  1  0.325840  0.632410  0.885500  1.0  -0.1595
  N  N287  1  0.233200  0.553600  0.884900  1.0  -0.1877
  N  N288  1  0.209300  0.465870  0.884400  1.0  -0.1517
  N  N289  1  0.228730  0.875970  0.115100  1.0  -0.1234
  N  N290  1  0.109330  0.825380  0.115500  1.0  -0.1293
  N  N291  1  0.951010  0.822530  0.115200  1.0  -0.1424
  N  N292  1  0.825840  0.867590  0.114500  1.0  -0.1573
  N  N293  1  0.733200  0.946400  0.115100  1.0  -0.1889
  N  N294  1  0.709300  0.034130  0.115600  1.0  -0.1529
  N  N295  1  0.771270  0.124030  0.115100  1.0  -0.1223
  N  N296  1  0.890670  0.174620  0.115500  1.0  -0.1284
  N  N297  1  0.048990  0.177470  0.115200  1.0  -0.1424
  N  N298  1  0.174160  0.132410  0.114500  1.0  -0.1587
  N  N299  1  0.266800  0.053600  0.115100  1.0  -0.1892
  N  N300  1  0.290700  0.965870  0.115600  1.0  -0.1538
  O  O301  1  0.644530  0.726840  0.603470  1.0  -0.6456
  O  O302  1  0.304260  0.841600  0.396200  1.0  -0.6401
  O  O303  1  0.636120  0.619590  0.286680  1.0  -0.6677
  O  O304  1  0.413790  0.626810  0.290600  1.0  -0.5106
  O  O305  1  0.275980  0.504880  0.288800  1.0  -0.5192
  O  O306  1  0.355470  0.273160  0.603470  1.0  -0.647
  O  O307  1  0.695740  0.158400  0.396200  1.0  -0.6405
  O  O308  1  0.363880  0.380410  0.286680  1.0  -0.6672
  O  O309  1  0.586210  0.373190  0.290600  1.0  -0.5095
  O  O310  1  0.724020  0.495120  0.288800  1.0  -0.5198
  O  O311  1  0.855470  0.226840  0.396530  1.0  -0.6464
  O  O312  1  0.195740  0.341600  0.603800  1.0  -0.64
  O  O313  1  0.863880  0.119590  0.713320  1.0  -0.6661
  O  O314  1  0.086210  0.126810  0.709400  1.0  -0.5094
  O  O315  1  0.224020  0.004880  0.711200  1.0  -0.5202
  O  O316  1  0.144530  0.773160  0.396530  1.0  -0.6449
  O  O317  1  0.804260  0.658400  0.603800  1.0  -0.6414
  O  O318  1  0.136120  0.880410  0.713320  1.0  -0.667
  O  O319  1  0.913790  0.873190  0.709400  1.0  -0.5095
  O  O320  1  0.775980  0.995120  0.711200  1.0  -0.5192
  O  O321  1  0.355470  0.273160  0.396530  1.0  -0.6462
  O  O322  1  0.695740  0.158400  0.603800  1.0  -0.6407
  O  O323  1  0.363880  0.380410  0.713320  1.0  -0.6669
  O  O324  1  0.586210  0.373190  0.709400  1.0  -0.5093
  O  O325  1  0.724020  0.495120  0.711200  1.0  -0.5204
  O  O326  1  0.644530  0.726840  0.396530  1.0  -0.6455
  O  O327  1  0.304260  0.841600  0.603800  1.0  -0.6403
  O  O328  1  0.636120  0.619590  0.713320  1.0  -0.6677
  O  O329  1  0.413790  0.626810  0.709400  1.0  -0.5093
  O  O330  1  0.275980  0.504880  0.711200  1.0  -0.5192
  O  O331  1  0.144530  0.773160  0.603470  1.0  -0.6456
  O  O332  1  0.804260  0.658400  0.396200  1.0  -0.6409
  O  O333  1  0.136120  0.880410  0.286680  1.0  -0.6675
  O  O334  1  0.913790  0.873190  0.290600  1.0  -0.5093
  O  O335  1  0.775980  0.995120  0.288800  1.0  -0.5196
  O  O336  1  0.855470  0.226840  0.603470  1.0  -0.6466
  O  O337  1  0.195740  0.341600  0.396200  1.0  -0.6401
  O  O338  1  0.863880  0.119590  0.286680  1.0  -0.6671
  O  O339  1  0.086210  0.126810  0.290600  1.0  -0.5107
  O  O340  1  0.224020  0.004880  0.288800  1.0  -0.5192
