# generated using pymatgen
data_ZnH8C12NO4
_symmetry_space_group_name_H-M   'P 1'
_cell_length_a   21.75100000
_cell_length_b   9.38900000
_cell_length_c   17.03000000
_cell_angle_alpha   90.00000000
_cell_angle_beta   109.96500000
_cell_angle_gamma   90.00000000
_symmetry_Int_Tables_number   1
_chemical_formula_structural   ZnH8C12NO4
_chemical_formula_sum   'Zn8 H64 C96 N8 O32'
_cell_volume   3268.85381966
_cell_formula_units_Z   8
loop_
 _symmetry_equiv_pos_site_id
 _symmetry_equiv_pos_as_xyz
  1  'x, y, z'
loop_
 _atom_site_type_symbol
 _atom_site_label
 _atom_site_symmetry_multiplicity
 _atom_site_fract_x
 _atom_site_fract_y
 _atom_site_fract_z
 _atom_site_occupancy
 _atom_site_charge
  Zn  Zn1  1  0.448560  0.752360  0.130750  1.0  0.957
  Zn  Zn2  1  0.948560  0.252360  0.130750  1.0  0.957
  Zn  Zn3  1  0.551440  0.752360  0.369250  1.0  0.9553
  Zn  Zn4  1  0.051440  0.252360  0.369250  1.0  0.9553
  Zn  Zn5  1  0.551440  0.247640  0.869250  1.0  0.9512
  Zn  Zn6  1  0.051440  0.747640  0.869250  1.0  0.9512
  Zn  Zn7  1  0.448560  0.247640  0.630750  1.0  0.9524
  Zn  Zn8  1  0.948560  0.747640  0.630750  1.0  0.9524
  H  H9  1  0.428800  0.994800  0.409300  1.0  0.1019
  H  H10  1  0.267500  0.237800  0.348100  1.0  0.103
  H  H11  1  0.297600  0.980500  0.175600  1.0  0.0913
  H  H12  1  0.140800  0.142500  0.085800  1.0  0.13
  H  H13  1  0.190200  0.015500  0.105100  1.0  0.1051
  H  H14  1  0.229700  0.008100  0.991600  1.0  0.0962
  H  H15  1  0.223200  0.387000  0.096000  1.0  0.0841
  H  H16  1  0.187600  0.213600  0.214000  1.0  0.2564
  H  H17  1  0.928800  0.494800  0.409300  1.0  0.1019
  H  H18  1  0.767500  0.737800  0.348100  1.0  0.103
  H  H19  1  0.797600  0.480500  0.175600  1.0  0.0913
  H  H20  1  0.640800  0.642500  0.085800  1.0  0.13
  H  H21  1  0.690200  0.515500  0.105100  1.0  0.1051
  H  H22  1  0.729700  0.508100  0.991600  1.0  0.0962
  H  H23  1  0.723200  0.887000  0.096000  1.0  0.0841
  H  H24  1  0.687600  0.713600  0.214000  1.0  0.2564
  H  H25  1  0.571200  0.994800  0.090700  1.0  0.1024
  H  H26  1  0.732500  0.237800  0.151900  1.0  0.1027
  H  H27  1  0.702400  0.980500  0.324400  1.0  0.0905
  H  H28  1  0.859200  0.142500  0.414200  1.0  0.1264
  H  H29  1  0.809800  0.015500  0.394900  1.0  0.1056
  H  H30  1  0.770300  0.008100  0.508400  1.0  0.0956
  H  H31  1  0.776800  0.387000  0.404000  1.0  0.0831
  H  H32  1  0.812400  0.213600  0.286000  1.0  0.2568
  H  H33  1  0.071200  0.494800  0.090700  1.0  0.1024
  H  H34  1  0.232500  0.737800  0.151900  1.0  0.1027
  H  H35  1  0.202400  0.480500  0.324400  1.0  0.0905
  H  H36  1  0.359200  0.642500  0.414200  1.0  0.1264
  H  H37  1  0.309800  0.515500  0.394900  1.0  0.1056
  H  H38  1  0.270300  0.508100  0.508400  1.0  0.0956
  H  H39  1  0.276800  0.887000  0.404000  1.0  0.0831
  H  H40  1  0.312400  0.713600  0.286000  1.0  0.2568
  H  H41  1  0.571200  0.005200  0.590700  1.0  0.1021
  H  H42  1  0.732500  0.762200  0.651900  1.0  0.1029
  H  H43  1  0.702400  0.019500  0.824400  1.0  0.0902
  H  H44  1  0.859200  0.857500  0.914200  1.0  0.1258
  H  H45  1  0.809800  0.984500  0.894900  1.0  0.103
  H  H46  1  0.770300  0.991900  0.008400  1.0  0.0959
  H  H47  1  0.776800  0.613000  0.904000  1.0  0.0831
  H  H48  1  0.812400  0.786400  0.786000  1.0  0.257
  H  H49  1  0.071200  0.505200  0.590700  1.0  0.1021
  H  H50  1  0.232500  0.262200  0.651900  1.0  0.1029
  H  H51  1  0.202400  0.519500  0.824400  1.0  0.0902
  H  H52  1  0.359200  0.357500  0.914200  1.0  0.1258
  H  H53  1  0.309800  0.484500  0.894900  1.0  0.103
  H  H54  1  0.270300  0.491900  0.008400  1.0  0.0959
  H  H55  1  0.276800  0.113000  0.904000  1.0  0.0831
  H  H56  1  0.312400  0.286400  0.786000  1.0  0.257
  H  H57  1  0.428800  0.005200  0.909300  1.0  0.1018
  H  H58  1  0.267500  0.762200  0.848100  1.0  0.1029
  H  H59  1  0.297600  0.019500  0.675600  1.0  0.091
  H  H60  1  0.140800  0.857500  0.585800  1.0  0.1299
  H  H61  1  0.190200  0.984500  0.605100  1.0  0.1037
  H  H62  1  0.229700  0.991900  0.491600  1.0  0.0968
  H  H63  1  0.223200  0.613000  0.596000  1.0  0.0842
  H  H64  1  0.187600  0.786400  0.714000  1.0  0.2566
  H  H65  1  0.928800  0.505200  0.909300  1.0  0.1018
  H  H66  1  0.767500  0.262200  0.848100  1.0  0.1029
  H  H67  1  0.797600  0.519500  0.675600  1.0  0.091
  H  H68  1  0.640800  0.357500  0.585800  1.0  0.1299
  H  H69  1  0.690200  0.484500  0.605100  1.0  0.1037
  H  H70  1  0.729700  0.491900  0.491600  1.0  0.0968
  H  H71  1  0.723200  0.113000  0.596000  1.0  0.0842
  H  H72  1  0.687600  0.286400  0.714000  1.0  0.2566
  C  C73  1  0.412090  0.868600  0.265010  1.0  0.7113
  C  C74  1  0.369190  0.971730  0.289180  1.0  -0.098
  C  C75  1  0.389940  0.026100  0.369850  1.0  -0.0097
  C  C76  1  0.351580  0.128200  0.390870  1.0  -0.1571
  C  C77  1  0.292970  0.170900  0.332890  1.0  -0.1387
  C  C78  1  0.270810  0.115500  0.251200  1.0  0.2275
  C  C79  1  0.310410  0.016600  0.229690  1.0  -0.1372
  C  C80  1  0.186880  0.118200  0.108460  1.0  -0.0579
  C  C81  1  0.221020  0.185300  0.053660  1.0  0.129
  C  C82  1  0.237690  0.105600  0.995350  1.0  -0.0955
  C  C83  1  0.233890  0.331200  0.057440  1.0  -0.112
  C  C84  1  0.374810  0.193300  0.476910  1.0  0.6829
  C  C85  1  0.912090  0.368600  0.265010  1.0  0.7113
  C  C86  1  0.869190  0.471730  0.289180  1.0  -0.098
  C  C87  1  0.889940  0.526100  0.369850  1.0  -0.0097
  C  C88  1  0.851580  0.628200  0.390870  1.0  -0.1571
  C  C89  1  0.792970  0.670900  0.332890  1.0  -0.1387
  C  C90  1  0.770810  0.615500  0.251200  1.0  0.2275
  C  C91  1  0.810410  0.516600  0.229690  1.0  -0.1372
  C  C92  1  0.686880  0.618200  0.108460  1.0  -0.0579
  C  C93  1  0.721020  0.685300  0.053660  1.0  0.129
  C  C94  1  0.737690  0.605600  0.995350  1.0  -0.0955
  C  C95  1  0.733890  0.831200  0.057440  1.0  -0.112
  C  C96  1  0.874810  0.693300  0.476910  1.0  0.6829
  C  C97  1  0.587910  0.868600  0.234990  1.0  0.7124
  C  C98  1  0.630810  0.971730  0.210820  1.0  -0.0987
  C  C99  1  0.610060  0.026100  0.130150  1.0  -0.0102
  C  C100  1  0.648420  0.128200  0.109130  1.0  -0.1562
  C  C101  1  0.707030  0.170900  0.167110  1.0  -0.1403
  C  C102  1  0.729190  0.115500  0.248800  1.0  0.2272
  C  C103  1  0.689590  0.016600  0.270310  1.0  -0.1369
  C  C104  1  0.813120  0.118200  0.391540  1.0  -0.0581
  C  C105  1  0.778980  0.185300  0.446340  1.0  0.1277
  C  C106  1  0.762310  0.105600  0.504650  1.0  -0.0961
  C  C107  1  0.766110  0.331200  0.442560  1.0  -0.1103
  C  C108  1  0.625190  0.193300  0.023090  1.0  0.6849
  C  C109  1  0.087910  0.368600  0.234990  1.0  0.7124
  C  C110  1  0.130810  0.471730  0.210820  1.0  -0.0987
  C  C111  1  0.110060  0.526100  0.130150  1.0  -0.0102
  C  C112  1  0.148420  0.628200  0.109130  1.0  -0.1562
  C  C113  1  0.207030  0.670900  0.167110  1.0  -0.1403
  C  C114  1  0.229190  0.615500  0.248800  1.0  0.2272
  C  C115  1  0.189590  0.516600  0.270310  1.0  -0.1369
  C  C116  1  0.313120  0.618200  0.391540  1.0  -0.0581
  C  C117  1  0.278980  0.685300  0.446340  1.0  0.1277
  C  C118  1  0.262310  0.605600  0.504650  1.0  -0.0961
  C  C119  1  0.266110  0.831200  0.442560  1.0  -0.1103
  C  C120  1  0.125190  0.693300  0.023090  1.0  0.6849
  C  C121  1  0.587910  0.131400  0.734990  1.0  0.7126
  C  C122  1  0.630810  0.028270  0.710820  1.0  -0.0987
  C  C123  1  0.610060  0.973900  0.630150  1.0  -0.0103
  C  C124  1  0.648420  0.871800  0.609130  1.0  -0.1574
  C  C125  1  0.707030  0.829100  0.667110  1.0  -0.1402
  C  C126  1  0.729190  0.884500  0.748800  1.0  0.2271
  C  C127  1  0.689590  0.983400  0.770310  1.0  -0.1366
  C  C128  1  0.813120  0.881800  0.891540  1.0  -0.0584
  C  C129  1  0.778980  0.814700  0.946340  1.0  0.1277
  C  C130  1  0.762310  0.894400  0.004650  1.0  -0.098
  C  C131  1  0.766110  0.668800  0.942560  1.0  -0.11
  C  C132  1  0.625190  0.806700  0.523090  1.0  0.6842
  C  C133  1  0.087910  0.631400  0.734990  1.0  0.7126
  C  C134  1  0.130810  0.528270  0.710820  1.0  -0.0987
  C  C135  1  0.110060  0.473900  0.630150  1.0  -0.0103
  C  C136  1  0.148420  0.371800  0.609130  1.0  -0.1574
  C  C137  1  0.207030  0.329100  0.667110  1.0  -0.1402
  C  C138  1  0.229190  0.384500  0.748800  1.0  0.2271
  C  C139  1  0.189590  0.483400  0.770310  1.0  -0.1366
  C  C140  1  0.313120  0.381800  0.891540  1.0  -0.0584
  C  C141  1  0.278980  0.314700  0.946340  1.0  0.1277
  C  C142  1  0.262310  0.394400  0.004650  1.0  -0.098
  C  C143  1  0.266110  0.168800  0.942560  1.0  -0.11
  C  C144  1  0.125190  0.306700  0.523090  1.0  0.6842
  C  C145  1  0.412090  0.131400  0.765010  1.0  0.7115
  C  C146  1  0.369190  0.028270  0.789180  1.0  -0.098
  C  C147  1  0.389940  0.973900  0.869850  1.0  -0.01
  C  C148  1  0.351580  0.871800  0.890870  1.0  -0.1562
  C  C149  1  0.292970  0.829100  0.832890  1.0  -0.1385
  C  C150  1  0.270810  0.884500  0.751200  1.0  0.2272
  C  C151  1  0.310410  0.983400  0.729690  1.0  -0.1372
  C  C152  1  0.186880  0.881800  0.608460  1.0  -0.0584
  C  C153  1  0.221020  0.814700  0.553660  1.0  0.1289
  C  C154  1  0.237690  0.894400  0.495350  1.0  -0.0963
  C  C155  1  0.233890  0.668800  0.557440  1.0  -0.1108
  C  C156  1  0.374810  0.806700  0.976910  1.0  0.6836
  C  C157  1  0.912090  0.631400  0.765010  1.0  0.7115
  C  C158  1  0.869190  0.528270  0.789180  1.0  -0.098
  C  C159  1  0.889940  0.473900  0.869850  1.0  -0.01
  C  C160  1  0.851580  0.371800  0.890870  1.0  -0.1562
  C  C161  1  0.792970  0.329100  0.832890  1.0  -0.1385
  C  C162  1  0.770810  0.384500  0.751200  1.0  0.2272
  C  C163  1  0.810410  0.483400  0.729690  1.0  -0.1372
  C  C164  1  0.686880  0.381800  0.608460  1.0  -0.0584
  C  C165  1  0.721020  0.314700  0.553660  1.0  0.1289
  C  C166  1  0.737690  0.394400  0.495350  1.0  -0.0963
  C  C167  1  0.733890  0.168800  0.557440  1.0  -0.1108
  C  C168  1  0.874810  0.306700  0.976910  1.0  0.6836
  N  N169  1  0.211480  0.159000  0.195800  1.0  -0.3795
  N  N170  1  0.711480  0.659000  0.195800  1.0  -0.3795
  N  N171  1  0.788520  0.159000  0.304200  1.0  -0.3796
  N  N172  1  0.288520  0.659000  0.304200  1.0  -0.3796
  N  N173  1  0.788520  0.841000  0.804200  1.0  -0.3792
  N  N174  1  0.288520  0.341000  0.804200  1.0  -0.3792
  N  N175  1  0.211480  0.841000  0.695800  1.0  -0.3794
  N  N176  1  0.711480  0.341000  0.695800  1.0  -0.3794
  O  O177  1  0.395270  0.837060  0.189330  1.0  -0.6105
  O  O178  1  0.459520  0.817900  0.320080  1.0  -0.6948
  O  O179  1  0.429540  0.147600  0.526050  1.0  -0.6018
  O  O180  1  0.342850  0.285200  0.496750  1.0  -0.5738
  O  O181  1  0.895270  0.337060  0.189330  1.0  -0.6105
  O  O182  1  0.959520  0.317900  0.320080  1.0  -0.6948
  O  O183  1  0.929540  0.647600  0.526050  1.0  -0.6018
  O  O184  1  0.842850  0.785200  0.496750  1.0  -0.5738
  O  O185  1  0.604730  0.837060  0.310670  1.0  -0.6108
  O  O186  1  0.540480  0.817900  0.179920  1.0  -0.6956
  O  O187  1  0.570460  0.147600  0.973950  1.0  -0.6015
  O  O188  1  0.657150  0.285200  0.003250  1.0  -0.5755
  O  O189  1  0.104730  0.337060  0.310670  1.0  -0.6108
  O  O190  1  0.040480  0.317900  0.179920  1.0  -0.6956
  O  O191  1  0.070460  0.647600  0.973950  1.0  -0.6015
  O  O192  1  0.157150  0.785200  0.003250  1.0  -0.5755
  O  O193  1  0.604730  0.162940  0.810670  1.0  -0.6115
  O  O194  1  0.540480  0.182100  0.679920  1.0  -0.6977
  O  O195  1  0.570460  0.852400  0.473950  1.0  -0.6011
  O  O196  1  0.657150  0.714800  0.503250  1.0  -0.5754
  O  O197  1  0.104730  0.662940  0.810670  1.0  -0.6115
  O  O198  1  0.040480  0.682100  0.679920  1.0  -0.6977
  O  O199  1  0.070460  0.352400  0.473950  1.0  -0.6011
  O  O200  1  0.157150  0.214800  0.503250  1.0  -0.5754
  O  O201  1  0.395270  0.162940  0.689330  1.0  -0.6112
  O  O202  1  0.459520  0.182100  0.820080  1.0  -0.6965
  O  O203  1  0.429540  0.852400  0.026050  1.0  -0.6017
  O  O204  1  0.342850  0.714800  0.996750  1.0  -0.5747
  O  O205  1  0.895270  0.662940  0.689330  1.0  -0.6112
  O  O206  1  0.959520  0.682100  0.820080  1.0  -0.6965
  O  O207  1  0.929540  0.352400  0.026050  1.0  -0.6017
  O  O208  1  0.842850  0.214800  0.996750  1.0  -0.5747
