# generated using pymatgen
data_ZnH11C14(NO2)2
_symmetry_space_group_name_H-M   'P 1'
_cell_length_a   7.32840000
_cell_length_b   16.13790000
_cell_length_c   16.35320000
_cell_angle_alpha   111.24100000
_cell_angle_beta   92.75200000
_cell_angle_gamma   98.74300000
_symmetry_Int_Tables_number   1
_chemical_formula_structural   ZnH11C14(NO2)2
_chemical_formula_sum   'Zn4 H44 C56 N8 O16'
_cell_volume   1770.48816931
_cell_formula_units_Z   4
loop_
 _symmetry_equiv_pos_site_id
 _symmetry_equiv_pos_as_xyz
  1  'x, y, z'
loop_
 _atom_site_type_symbol
 _atom_site_label
 _atom_site_symmetry_multiplicity
 _atom_site_fract_x
 _atom_site_fract_y
 _atom_site_fract_z
 _atom_site_occupancy
 _atom_site_charge
  Zn  Zn1  1  0.865260  0.450310  0.271600  1.0  0.9351
  Zn  Zn2  1  0.649920  0.240520  0.014400  1.0  0.9566
  Zn  Zn3  1  0.134740  0.549690  0.728400  1.0  0.9387
  Zn  Zn4  1  0.350080  0.759480  0.985600  1.0  0.9627
  H  H5  1  0.270300  0.345300  0.192700  1.0  0.1166
  H  H6  1  0.855200  0.092400  0.266800  1.0  0.1341
  H  H7  1  0.815800  0.093000  0.171900  1.0  0.1282
  H  H8  1  0.753300  0.166000  0.253300  1.0  0.1187
  H  H9  1  0.395900  0.176200  0.404400  1.0  0.1295
  H  H10  1  0.496300  0.277100  0.434300  1.0  0.1359
  H  H11  1  0.568600  0.201200  0.359300  1.0  0.1222
  H  H12  1  0.987800  0.390000  0.419400  1.0  0.0742
  H  H13  1  0.246500  0.408300  0.511800  1.0  0.1207
  H  H14  1  0.511800  0.576800  0.409100  1.0  0.1236
  H  H15  1  0.246000  0.555000  0.320500  1.0  0.0958
  H  H16  1  0.065900  0.853900  0.509900  1.0  0.1503
  H  H17  1  0.107800  0.755600  0.482300  1.0  0.1397
  H  H18  1  0.902900  0.770600  0.471700  1.0  0.1364
  H  H19  1  0.246000  0.012600  0.360300  1.0  0.1376
  H  H20  1  0.163800  0.985400  0.261900  1.0  0.1394
  H  H21  1  0.367100  0.974000  0.283600  1.0  0.1278
  H  H22  1  0.046100  0.665400  0.171100  1.0  0.1095
  H  H23  1  0.511600  0.099300  0.089700  1.0  0.0759
  H  H24  1  0.250700  0.999500  0.084600  1.0  0.1184
  H  H25  1  0.987100  0.092400  0.926100  1.0  0.1186
  H  H26  1  0.255500  0.188000  0.934400  1.0  0.0773
  H  H27  1  0.729700  0.654700  0.807300  1.0  0.1172
  H  H28  1  0.144800  0.907600  0.733200  1.0  0.1339
  H  H29  1  0.184200  0.907000  0.828100  1.0  0.1285
  H  H30  1  0.246700  0.834000  0.746700  1.0  0.1183
  H  H31  1  0.604100  0.823800  0.595600  1.0  0.1296
  H  H32  1  0.503700  0.722900  0.565700  1.0  0.1354
  H  H33  1  0.431400  0.798800  0.640700  1.0  0.1205
  H  H34  1  0.012200  0.610000  0.580600  1.0  0.0741
  H  H35  1  0.753500  0.591700  0.488200  1.0  0.1205
  H  H36  1  0.488200  0.423200  0.590900  1.0  0.1241
  H  H37  1  0.754000  0.445000  0.679500  1.0  0.0961
  H  H38  1  0.934100  0.146100  0.490100  1.0  0.1493
  H  H39  1  0.892200  0.244400  0.517700  1.0  0.1394
  H  H40  1  0.097100  0.229400  0.528300  1.0  0.1343
  H  H41  1  0.754000  0.987400  0.639700  1.0  0.1381
  H  H42  1  0.836200  0.014600  0.738100  1.0  0.1407
  H  H43  1  0.632900  0.026000  0.716400  1.0  0.1289
  H  H44  1  0.953900  0.334600  0.828900  1.0  0.1089
  H  H45  1  0.488400  0.900700  0.910300  1.0  0.0761
  H  H46  1  0.749300  0.000500  0.915400  1.0  0.1189
  H  H47  1  0.012900  0.907600  0.073900  1.0  0.1171
  H  H48  1  0.744500  0.812000  0.065600  1.0  0.0779
  C  C49  1  0.574100  0.348400  0.284600  1.0  0.6711
  C  C50  1  0.382100  0.294000  0.274100  1.0  -0.1284
  C  C51  1  0.243300  0.303900  0.219900  1.0  0.0025
  C  C52  1  0.065300  0.254100  0.204900  1.0  -0.0243
  C  C53  1  0.031900  0.191500  0.246000  1.0  0.2592
  C  C54  1  0.847300  0.130200  0.233400  1.0  -0.3871
  C  C55  1  0.333500  0.233800  0.316800  1.0  0.2237
  C  C56  1  0.460000  0.220900  0.384900  1.0  -0.3924
  C  C57  1  0.094700  0.428200  0.417400  1.0  0.1852
  C  C58  1  0.250100  0.438600  0.472900  1.0  -0.1809
  C  C59  1  0.414900  0.494960  0.471160  1.0  0.0868
  C  C60  1  0.407000  0.538200  0.412600  1.0  -0.1695
  C  C61  1  0.246500  0.524900  0.359400  1.0  0.1829
  C  C62  1  0.922800  0.620800  0.298500  1.0  0.6889
  C  C63  1  0.012800  0.711800  0.300000  1.0  -0.1513
  C  C64  1  0.053500  0.789900  0.376300  1.0  0.2205
  C  C65  1  0.030400  0.792800  0.468400  1.0  -0.3899
  C  C66  1  0.171300  0.875500  0.295900  1.0  0.2085
  C  C67  1  0.243700  0.970600  0.300900  1.0  -0.3972
  C  C68  1  0.150100  0.798400  0.217200  1.0  -0.063
  C  C69  1  0.066600  0.717500  0.222000  1.0  -0.0015
  C  C70  1  0.220100  0.797900  0.133100  1.0  0.6713
  C  C71  1  0.920900  0.271400  0.148600  1.0  0.7047
  C  C72  1  0.404500  0.097400  0.055700  1.0  0.1876
  C  C73  1  0.247900  0.037100  0.053100  1.0  -0.1987
  C  C74  1  0.085600  0.032600  0.003100  1.0  0.082
  C  C75  1  0.092900  0.091700  0.959500  1.0  -0.2002
  C  C76  1  0.254800  0.149400  0.965100  1.0  0.1529
  C  C77  1  0.425900  0.651600  0.715400  1.0  0.6701
  C  C78  1  0.617900  0.706000  0.725900  1.0  -0.1278
  C  C79  1  0.756700  0.696100  0.780100  1.0  0.0041
  C  C80  1  0.934700  0.745900  0.795100  1.0  -0.0259
  C  C81  1  0.968100  0.808500  0.754000  1.0  0.2588
  C  C82  1  0.152700  0.869800  0.766600  1.0  -0.3871
  C  C83  1  0.666500  0.766200  0.683200  1.0  0.2235
  C  C84  1  0.540000  0.779100  0.615100  1.0  -0.3916
  C  C85  1  0.905300  0.571800  0.582600  1.0  0.184
  C  C86  1  0.749900  0.561400  0.527100  1.0  -0.1805
  C  C87  1  0.585100  0.505040  0.528840  1.0  0.0862
  C  C88  1  0.593000  0.461800  0.587400  1.0  -0.1679
  C  C89  1  0.753500  0.475100  0.640600  1.0  0.1821
  C  C90  1  0.077200  0.379200  0.701500  1.0  0.6881
  C  C91  1  0.987200  0.288200  0.700000  1.0  -0.1515
  C  C92  1  0.946500  0.210100  0.623700  1.0  0.2175
  C  C93  1  0.969600  0.207200  0.531600  1.0  -0.3933
  C  C94  1  0.828700  0.124500  0.704100  1.0  0.209
  C  C95  1  0.756300  0.029400  0.699100  1.0  -0.3955
  C  C96  1  0.849900  0.201600  0.782800  1.0  -0.0615
  C  C97  1  0.933400  0.282500  0.778000  1.0  -0.0005
  C  C98  1  0.779900  0.202100  0.866900  1.0  0.6726
  C  C99  1  0.079100  0.728600  0.851400  1.0  0.7056
  C  C100  1  0.595500  0.902600  0.944300  1.0  0.187
  C  C101  1  0.752100  0.962900  0.946900  1.0  -0.1989
  C  C102  1  0.914400  0.967400  0.996900  1.0  0.0822
  C  C103  1  0.907100  0.908300  0.040500  1.0  -0.1929
  C  C104  1  0.745200  0.850600  0.034900  1.0  0.1528
  N  N105  1  0.089300  0.470030  0.360660  1.0  -0.3435
  N  N106  1  0.162300  0.183890  0.301340  1.0  -0.5075
  N  N107  1  0.129400  0.869800  0.372300  1.0  -0.4439
  N  N108  1  0.411000  0.153110  0.012100  1.0  -0.3059
  N  N109  1  0.910700  0.529970  0.639340  1.0  -0.342
  N  N110  1  0.837700  0.816110  0.698660  1.0  -0.5066
  N  N111  1  0.870600  0.130200  0.627700  1.0  -0.444
  N  N112  1  0.589000  0.846890  0.987900  1.0  -0.3101
  O  O113  1  0.708500  0.331900  0.319710  1.0  -0.5948
  O  O114  1  0.590500  0.410470  0.254390  1.0  -0.6103
  O  O115  1  0.914600  0.351700  0.157260  1.0  -0.603
  O  O116  1  0.939500  0.552250  0.231080  1.0  -0.6125
  O  O117  1  0.842200  0.613470  0.360430  1.0  -0.592
  O  O118  1  0.811300  0.205100  0.092980  1.0  -0.5732
  O  O119  1  0.302200  0.866400  0.125700  1.0  -0.5805
  O  O120  1  0.194300  0.723000  0.069200  1.0  -0.6044
  O  O121  1  0.291500  0.668100  0.680290  1.0  -0.5933
  O  O122  1  0.409500  0.589530  0.745610  1.0  -0.6076
  O  O123  1  0.085400  0.648300  0.842740  1.0  -0.6072
  O  O124  1  0.060500  0.447750  0.768920  1.0  -0.6116
  O  O125  1  0.157800  0.386530  0.639570  1.0  -0.5907
  O  O126  1  0.188700  0.794900  0.907020  1.0  -0.5726
  O  O127  1  0.697800  0.133600  0.874300  1.0  -0.5806
  O  O128  1  0.805700  0.277000  0.930800  1.0  -0.6055
