# generated using pymatgen
data_Zn4H14C30O13
_symmetry_space_group_name_H-M   'P 1'
_cell_length_a   21.16900000
_cell_length_b   11.21960000
_cell_length_c   23.51690000
_cell_angle_alpha   90.00000000
_cell_angle_beta   90.00000000
_cell_angle_gamma   90.00000000
_symmetry_Int_Tables_number   1
_chemical_formula_structural   Zn4H14C30O13
_chemical_formula_sum   'Zn16 H56 C120 O52'
_cell_volume   5585.44512174
_cell_formula_units_Z   4
loop_
 _symmetry_equiv_pos_site_id
 _symmetry_equiv_pos_as_xyz
  1  'x, y, z'
loop_
 _atom_site_type_symbol
 _atom_site_label
 _atom_site_symmetry_multiplicity
 _atom_site_fract_x
 _atom_site_fract_y
 _atom_site_fract_z
 _atom_site_occupancy
 _atom_site_charge
  Zn  Zn1  1  0.401710  0.729370  0.858580  1.0  1.0856
  Zn  Zn2  1  0.399190  0.005920  0.857170  1.0  0.9938
  Zn  Zn3  1  0.339590  0.875690  0.962160  1.0  1.0132
  Zn  Zn4  1  0.486850  0.831460  0.949450  1.0  1.0627
  Zn  Zn5  1  0.598290  0.270630  0.358580  1.0  1.0845
  Zn  Zn6  1  0.600810  0.994080  0.357170  1.0  0.9944
  Zn  Zn7  1  0.660410  0.124310  0.462160  1.0  1.012
  Zn  Zn8  1  0.513150  0.168540  0.449450  1.0  1.0625
  Zn  Zn9  1  0.901710  0.770630  0.858580  1.0  1.0849
  Zn  Zn10  1  0.899190  0.494080  0.857170  1.0  0.9951
  Zn  Zn11  1  0.839590  0.624310  0.962160  1.0  1.013
  Zn  Zn12  1  0.986850  0.668540  0.949450  1.0  1.0654
  Zn  Zn13  1  0.098290  0.229370  0.358580  1.0  1.085
  Zn  Zn14  1  0.100810  0.505920  0.357170  1.0  0.9918
  Zn  Zn15  1  0.160410  0.375690  0.462160  1.0  1.0119
  Zn  Zn16  1  0.013150  0.331460  0.449450  1.0  1.0612
  H  H17  1  0.658700  0.664900  0.887800  1.0  0.1305
  H  H18  1  0.722400  0.471800  0.756100  1.0  0.1102
  H  H19  1  0.544700  0.575400  0.758200  1.0  0.1197
  H  H20  1  0.681000  0.304900  0.712200  1.0  0.1407
  H  H21  1  0.663700  0.204100  0.623600  1.0  0.1194
  H  H22  1  0.553800  0.554800  0.663800  1.0  0.1289
  H  H23  1  0.364000  0.999400  0.679100  1.0  0.108
  H  H24  1  0.214700  0.726000  0.638500  1.0  0.0967
  H  H25  1  0.265300  0.706100  0.720300  1.0  0.1422
  H  H26  1  0.221800  0.044800  0.540500  1.0  0.1168
  H  H27  1  0.132000  0.866400  0.418200  1.0  0.0702
  H  H28  1  0.196900  0.691300  0.547300  1.0  0.118
  H  H29  1  0.302000  0.019900  0.598800  1.0  0.127
  H  H30  1  0.526600  0.441600  0.586000  1.0  0.1219
  H  H31  1  0.341300  0.335100  0.387800  1.0  0.1302
  H  H32  1  0.277600  0.528200  0.256100  1.0  0.1105
  H  H33  1  0.455300  0.424600  0.258200  1.0  0.1197
  H  H34  1  0.319000  0.695100  0.212200  1.0  0.1405
  H  H35  1  0.336300  0.795900  0.123600  1.0  0.1199
  H  H36  1  0.446200  0.445200  0.163800  1.0  0.129
  H  H37  1  0.636000  0.000600  0.179100  1.0  0.1074
  H  H38  1  0.785300  0.274000  0.138500  1.0  0.0974
  H  H39  1  0.734700  0.293900  0.220300  1.0  0.1417
  H  H40  1  0.778200  0.955200  0.040500  1.0  0.1168
  H  H41  1  0.868000  0.133600  0.918200  1.0  0.0697
  H  H42  1  0.803100  0.308700  0.047300  1.0  0.1179
  H  H43  1  0.698000  0.980100  0.098800  1.0  0.1268
  H  H44  1  0.473400  0.558400  0.086000  1.0  0.1212
  H  H45  1  0.158700  0.835100  0.887800  1.0  0.1305
  H  H46  1  0.222400  0.028200  0.756100  1.0  0.1102
  H  H47  1  0.044700  0.924600  0.758200  1.0  0.1196
  H  H48  1  0.181000  0.195100  0.712200  1.0  0.1404
  H  H49  1  0.163700  0.295900  0.623600  1.0  0.1199
  H  H50  1  0.053800  0.945200  0.663800  1.0  0.1283
  H  H51  1  0.864000  0.500600  0.679100  1.0  0.1072
  H  H52  1  0.714700  0.774000  0.638500  1.0  0.0974
  H  H53  1  0.765300  0.793900  0.720300  1.0  0.1417
  H  H54  1  0.721800  0.455200  0.540500  1.0  0.1162
  H  H55  1  0.632000  0.633600  0.418200  1.0  0.0704
  H  H56  1  0.696900  0.808700  0.547300  1.0  0.118
  H  H57  1  0.802000  0.480100  0.598800  1.0  0.1269
  H  H58  1  0.026600  0.058400  0.586000  1.0  0.1215
  H  H59  1  0.841300  0.164900  0.387800  1.0  0.1302
  H  H60  1  0.777600  0.971800  0.256100  1.0  0.1101
  H  H61  1  0.955300  0.075400  0.258200  1.0  0.1198
  H  H62  1  0.819000  0.804900  0.212200  1.0  0.1408
  H  H63  1  0.836300  0.704100  0.123600  1.0  0.1189
  H  H64  1  0.946200  0.054800  0.163800  1.0  0.1291
  H  H65  1  0.136000  0.499400  0.179100  1.0  0.1083
  H  H66  1  0.285300  0.226000  0.138500  1.0  0.0969
  H  H67  1  0.234700  0.206100  0.220300  1.0  0.1421
  H  H68  1  0.278200  0.544800  0.040500  1.0  0.1174
  H  H69  1  0.368000  0.366400  0.918200  1.0  0.0698
  H  H70  1  0.303100  0.191300  0.047300  1.0  0.1179
  H  H71  1  0.198000  0.519900  0.098800  1.0  0.1274
  H  H72  1  0.973400  0.941600  0.086000  1.0  0.1218
  C  C73  1  0.534800  0.679500  0.857200  1.0  0.7125
  C  C74  1  0.592600  0.622100  0.828900  1.0  -0.1457
  C  C75  1  0.651700  0.621500  0.854700  1.0  -0.0024
  C  C76  1  0.701500  0.553800  0.829900  1.0  -0.1606
  C  C77  1  0.689200  0.506400  0.776100  1.0  -0.073
  C  C78  1  0.630200  0.508000  0.751100  1.0  0.0252
  C  C79  1  0.583600  0.568800  0.776200  1.0  -0.058
  C  C80  1  0.761000  0.553300  0.859500  1.0  0.7457
  C  C81  1  0.618900  0.444300  0.696500  1.0  0.0144
  C  C82  1  0.652200  0.334600  0.685900  1.0  -0.0958
  C  C83  1  0.639900  0.270900  0.632900  1.0  -0.0397
  C  C84  1  0.591300  0.310800  0.595300  1.0  -0.1183
  C  C85  1  0.574300  0.482600  0.657700  1.0  -0.1396
  C  C86  1  0.362000  0.839900  0.760500  1.0  0.684
  C  C87  1  0.326600  0.850400  0.708100  1.0  -0.0975
  C  C88  1  0.333500  0.941900  0.671500  1.0  -0.061
  C  C89  1  0.252400  0.869200  0.608200  1.0  0.0574
  C  C90  1  0.245300  0.782900  0.646900  1.0  -0.102
  C  C91  1  0.275800  0.767300  0.695500  1.0  -0.0813
  C  C92  1  0.218600  0.869600  0.552200  1.0  0.0351
  C  C93  1  0.205600  0.974100  0.525900  1.0  -0.0711
  C  C94  1  0.166200  0.977000  0.474400  1.0  -0.1268
  C  C95  1  0.151700  0.867400  0.453600  1.0  -0.0054
  C  C96  1  0.192600  0.762600  0.527600  1.0  -0.0586
  C  C97  1  0.162100  0.761700  0.477100  1.0  -0.0627
  C  C98  1  0.156000  0.096500  0.450300  1.0  0.6056
  C  C99  1  0.147300  0.646900  0.454800  1.0  0.5929
  C  C100  1  0.296500  0.953800  0.622200  1.0  -0.1468
  C  C101  1  0.559100  0.415600  0.609400  1.0  -0.0473
  C  C102  1  0.573700  0.240500  0.545100  1.0  0.7149
  C  C103  1  0.465200  0.320500  0.357200  1.0  0.7122
  C  C104  1  0.407400  0.377900  0.328900  1.0  -0.1455
  C  C105  1  0.348300  0.378500  0.354700  1.0  -0.0018
  C  C106  1  0.298500  0.446200  0.329900  1.0  -0.1598
  C  C107  1  0.310800  0.493600  0.276100  1.0  -0.0725
  C  C108  1  0.369800  0.492000  0.251100  1.0  0.0257
  C  C109  1  0.416400  0.431200  0.276200  1.0  -0.0556
  C  C110  1  0.239000  0.446700  0.359500  1.0  0.7451
  C  C111  1  0.381100  0.555700  0.196500  1.0  0.0146
  C  C112  1  0.347800  0.665400  0.185900  1.0  -0.0966
  C  C113  1  0.360100  0.729100  0.132900  1.0  -0.0391
  C  C114  1  0.408700  0.689200  0.095300  1.0  -0.1174
  C  C115  1  0.425700  0.517400  0.157700  1.0  -0.1379
  C  C116  1  0.638000  0.160100  0.260500  1.0  0.684
  C  C117  1  0.673400  0.149600  0.208100  1.0  -0.0958
  C  C118  1  0.666500  0.058100  0.171500  1.0  -0.0639
  C  C119  1  0.747600  0.130800  0.108200  1.0  0.057
  C  C120  1  0.754700  0.217100  0.146900  1.0  -0.1044
  C  C121  1  0.724200  0.232700  0.195500  1.0  -0.0797
  C  C122  1  0.781400  0.130400  0.052200  1.0  0.0336
  C  C123  1  0.794400  0.025900  0.025900  1.0  -0.0705
  C  C124  1  0.833800  0.023000  0.974400  1.0  -0.1268
  C  C125  1  0.848300  0.132600  0.953600  1.0  -0.0069
  C  C126  1  0.807400  0.237400  0.027600  1.0  -0.0584
  C  C127  1  0.837900  0.238300  0.977100  1.0  -0.0616
  C  C128  1  0.844000  0.903500  0.950300  1.0  0.6051
  C  C129  1  0.852700  0.353100  0.954800  1.0  0.5937
  C  C130  1  0.703500  0.046200  0.122200  1.0  -0.1443
  C  C131  1  0.440900  0.584400  0.109400  1.0  -0.0474
  C  C132  1  0.426300  0.759500  0.045100  1.0  0.714
  C  C133  1  0.034800  0.820500  0.857200  1.0  0.7124
  C  C134  1  0.092600  0.877900  0.828900  1.0  -0.1453
  C  C135  1  0.151700  0.878500  0.854700  1.0  -0.0024
  C  C136  1  0.201500  0.946200  0.829900  1.0  -0.16
  C  C137  1  0.189200  0.993600  0.776100  1.0  -0.0726
  C  C138  1  0.130200  0.992000  0.751100  1.0  0.0255
  C  C139  1  0.083600  0.931200  0.776200  1.0  -0.0585
  C  C140  1  0.261000  0.946700  0.859500  1.0  0.7455
  C  C141  1  0.118900  0.055700  0.696500  1.0  0.015
  C  C142  1  0.152200  0.165400  0.685900  1.0  -0.0959
  C  C143  1  0.139900  0.229100  0.632900  1.0  -0.0384
  C  C144  1  0.091300  0.189200  0.595300  1.0  -0.1161
  C  C145  1  0.074300  0.017400  0.657700  1.0  -0.1378
  C  C146  1  0.862000  0.660100  0.760500  1.0  0.6839
  C  C147  1  0.826600  0.649600  0.708100  1.0  -0.0985
  C  C148  1  0.833500  0.558100  0.671500  1.0  -0.0609
  C  C149  1  0.752400  0.630800  0.608200  1.0  0.0571
  C  C150  1  0.745300  0.717100  0.646900  1.0  -0.1033
  C  C151  1  0.775800  0.732700  0.695500  1.0  -0.0793
  C  C152  1  0.718600  0.630400  0.552200  1.0  0.0353
  C  C153  1  0.705600  0.525900  0.525900  1.0  -0.0703
  C  C154  1  0.666200  0.523000  0.474400  1.0  -0.127
  C  C155  1  0.651700  0.632600  0.453600  1.0  -0.0053
  C  C156  1  0.692600  0.737400  0.527600  1.0  -0.0595
  C  C157  1  0.662100  0.738300  0.477100  1.0  -0.0614
  C  C158  1  0.656000  0.403500  0.450300  1.0  0.6048
  C  C159  1  0.647300  0.853100  0.454800  1.0  0.5933
  C  C160  1  0.796500  0.546200  0.622200  1.0  -0.1446
  C  C161  1  0.059100  0.084400  0.609400  1.0  -0.0477
  C  C162  1  0.073700  0.259500  0.545100  1.0  0.7146
  C  C163  1  0.965200  0.179500  0.357200  1.0  0.7123
  C  C164  1  0.907400  0.122100  0.328900  1.0  -0.1463
  C  C165  1  0.848300  0.121500  0.354700  1.0  -0.0022
  C  C166  1  0.798500  0.053800  0.329900  1.0  -0.1603
  C  C167  1  0.810800  0.006400  0.276100  1.0  -0.0725
  C  C168  1  0.869800  0.008000  0.251100  1.0  0.0256
  C  C169  1  0.916400  0.068800  0.276200  1.0  -0.0554
  C  C170  1  0.739000  0.053300  0.359500  1.0  0.7459
  C  C171  1  0.881100  0.944300  0.196500  1.0  0.0142
  C  C172  1  0.847800  0.834600  0.185900  1.0  -0.0961
  C  C173  1  0.860100  0.770900  0.132900  1.0  -0.0394
  C  C174  1  0.908700  0.810800  0.095300  1.0  -0.1193
  C  C175  1  0.925700  0.982600  0.157700  1.0  -0.1381
  C  C176  1  0.138000  0.339900  0.260500  1.0  0.6839
  C  C177  1  0.173400  0.350400  0.208100  1.0  -0.0965
  C  C178  1  0.166500  0.441900  0.171500  1.0  -0.0651
  C  C179  1  0.247600  0.369200  0.108200  1.0  0.0573
  C  C180  1  0.254700  0.282900  0.146900  1.0  -0.105
  C  C181  1  0.224200  0.267300  0.195500  1.0  -0.0825
  C  C182  1  0.281400  0.369600  0.052200  1.0  0.033
  C  C183  1  0.294400  0.474100  0.025900  1.0  -0.0714
  C  C184  1  0.333800  0.477000  0.974400  1.0  -0.1265
  C  C185  1  0.348300  0.367400  0.953600  1.0  -0.007
  C  C186  1  0.307400  0.262600  0.027600  1.0  -0.058
  C  C187  1  0.337900  0.261700  0.977100  1.0  -0.0626
  C  C188  1  0.344000  0.596500  0.950300  1.0  0.6054
  C  C189  1  0.352700  0.146900  0.954800  1.0  0.5933
  C  C190  1  0.203500  0.453800  0.122200  1.0  -0.1474
  C  C191  1  0.940900  0.915600  0.109400  1.0  -0.0472
  C  C192  1  0.926300  0.740500  0.045100  1.0  0.7144
  O  O193  1  0.411600  0.866700  0.907000  1.0  -1.1892
  O  O194  1  0.484400  0.672900  0.832900  1.0  -0.5515
  O  O195  1  0.545300  0.740600  0.904100  1.0  -0.6243
  O  O196  1  0.769400  0.620100  0.901900  1.0  -0.6134
  O  O197  1  0.805100  0.491300  0.838300  1.0  -0.5925
  O  O198  1  0.399600  0.915300  0.773700  1.0  -0.577
  O  O199  1  0.350600  0.744300  0.791000  1.0  -0.5857
  O  O200  1  0.174700  0.188400  0.468000  1.0  -0.6322
  O  O201  1  0.126400  0.088200  0.399500  1.0  -0.5951
  O  O202  1  0.108300  0.650500  0.408100  1.0  -0.589
  O  O203  1  0.161300  0.554400  0.477100  1.0  -0.5631
  O  O204  1  0.604000  0.145100  0.535200  1.0  -0.6213
  O  O205  1  0.531600  0.281000  0.515100  1.0  -0.5675
  O  O206  1  0.588400  0.133300  0.407000  1.0  -1.1898
  O  O207  1  0.515600  0.327100  0.332900  1.0  -0.5521
  O  O208  1  0.454700  0.259400  0.404100  1.0  -0.6247
  O  O209  1  0.230600  0.379900  0.401900  1.0  -0.6122
  O  O210  1  0.194900  0.508700  0.338300  1.0  -0.5937
  O  O211  1  0.600400  0.084700  0.273700  1.0  -0.577
  O  O212  1  0.649400  0.255700  0.291000  1.0  -0.5837
  O  O213  1  0.825300  0.811600  0.968000  1.0  -0.6291
  O  O214  1  0.873600  0.911800  0.899500  1.0  -0.5961
  O  O215  1  0.891700  0.349500  0.908100  1.0  -0.5879
  O  O216  1  0.838700  0.445600  0.977100  1.0  -0.5637
  O  O217  1  0.396000  0.854900  0.035200  1.0  -0.619
  O  O218  1  0.468400  0.719000  0.015100  1.0  -0.5665
  O  O219  1  0.911600  0.633300  0.907000  1.0  -1.1898
  O  O220  1  0.984400  0.827100  0.832900  1.0  -0.5511
  O  O221  1  0.045300  0.759400  0.904100  1.0  -0.6244
  O  O222  1  0.269400  0.879900  0.901900  1.0  -0.6129
  O  O223  1  0.305100  0.008700  0.838300  1.0  -0.5933
  O  O224  1  0.899600  0.584700  0.773700  1.0  -0.5773
  O  O225  1  0.850600  0.755700  0.791000  1.0  -0.5847
  O  O226  1  0.674700  0.311600  0.468000  1.0  -0.6295
  O  O227  1  0.626400  0.411800  0.399500  1.0  -0.596
  O  O228  1  0.608300  0.849500  0.408100  1.0  -0.5876
  O  O229  1  0.661300  0.945600  0.477100  1.0  -0.5639
  O  O230  1  0.104000  0.354900  0.535200  1.0  -0.6209
  O  O231  1  0.031600  0.219000  0.515100  1.0  -0.5684
  O  O232  1  0.088400  0.366700  0.407000  1.0  -1.1894
  O  O233  1  0.015600  0.172900  0.332900  1.0  -0.5524
  O  O234  1  0.954700  0.240600  0.404100  1.0  -0.625
  O  O235  1  0.730600  0.120100  0.401900  1.0  -0.6128
  O  O236  1  0.694900  0.991300  0.338300  1.0  -0.5929
  O  O237  1  0.100400  0.415300  0.273700  1.0  -0.5776
  O  O238  1  0.149400  0.244300  0.291000  1.0  -0.5836
  O  O239  1  0.325300  0.688400  0.968000  1.0  -0.6325
  O  O240  1  0.373600  0.588200  0.899500  1.0  -0.595
  O  O241  1  0.391700  0.150500  0.908100  1.0  -0.5877
  O  O242  1  0.338700  0.054400  0.977100  1.0  -0.5629
  O  O243  1  0.896000  0.645100  0.035200  1.0  -0.6204
  O  O244  1  0.968400  0.781000  0.015100  1.0  -0.5674
