# generated using pymatgen
data_CuH28C26(N2Cl)2
_symmetry_space_group_name_H-M   'P 1'
_cell_length_a   17.33350000
_cell_length_b   17.33350000
_cell_length_c   23.82970000
_cell_angle_alpha   68.67270000
_cell_angle_beta   68.67270000
_cell_angle_gamma   89.99990000
_symmetry_Int_Tables_number   1
_chemical_formula_structural   CuH28C26(N2Cl)2
_chemical_formula_sum   'Cu2 H56 C52 N8 Cl4'
_cell_volume   6139.99936274
_cell_formula_units_Z   2
loop_
 _symmetry_equiv_pos_site_id
 _symmetry_equiv_pos_as_xyz
  1  'x, y, z'
loop_
 _atom_site_type_symbol
 _atom_site_label
 _atom_site_symmetry_multiplicity
 _atom_site_fract_x
 _atom_site_fract_y
 _atom_site_fract_z
 _atom_site_occupancy
 _atom_site_charge
  Cu  Cu1  1  0.778570  0.028570  0.942860  1.0  0.4651
  Cu  Cu2  1  0.028570  0.778570  0.442860  1.0  0.4651
  H  H3  1  0.757800  0.208200  0.910800  1.0  0.0851
  H  H4  1  0.726900  0.318200  0.838000  1.0  0.1188
  H  H5  1  0.711100  0.168900  0.745400  1.0  0.1104
  H  H6  1  0.741900  0.062000  0.821800  1.0  0.1068
  H  H7  1  0.643700  0.346500  0.754000  1.0  0.108
  H  H8  1  0.685900  0.306900  0.701200  1.0  0.0852
  H  H9  1  0.814700  0.386300  0.666800  1.0  0.0747
  H  H10  1  0.776300  0.422800  0.722400  1.0  0.0725
  H  H11  1  0.717400  0.452000  0.619200  1.0  0.1075
  H  H12  1  0.688600  0.494200  0.671600  1.0  0.0949
  H  H13  1  0.761200  0.634800  0.637600  1.0  0.1257
  H  H14  1  0.870000  0.741700  0.564800  1.0  0.0927
  H  H15  1  0.981100  0.596100  0.475600  1.0  0.0956
  H  H16  1  0.875400  0.486900  0.546200  1.0  0.1178
  H  H17  1  0.831400  0.881000  0.910800  1.0  0.085
  H  H18  1  0.935100  0.843800  0.838000  1.0  0.1179
  H  H19  1  0.043500  0.085700  0.745400  1.0  0.1106
  H  H20  1  0.936300  0.116200  0.821800  1.0  0.1048
  H  H21  1  0.102300  0.899500  0.754000  1.0  0.1118
  H  H22  1  0.112900  0.991900  0.701200  1.0  0.0846
  H  H23  1  0.018500  0.946900  0.666800  1.0  0.0774
  H  H24  1  0.001300  0.854800  0.722400  1.0  0.0723
  H  H25  1  0.163400  0.928800  0.619200  1.0  0.1056
  H  H26  1  0.139800  0.834200  0.671600  1.0  0.0997
  H  H27  1  0.101200  0.727600  0.637600  1.0  0.1244
  H  H28  1  0.065200  0.693500  0.564800  1.0  0.0902
  H  H29  1  0.043300  0.928300  0.475600  1.0  0.0959
  H  H30  1  0.078400  0.966900  0.546200  1.0  0.1179
  H  H31  1  0.208200  0.831400  0.410800  1.0  0.0838
  H  H32  1  0.318200  0.935100  0.338000  1.0  0.1186
  H  H33  1  0.168900  0.043500  0.245400  1.0  0.1117
  H  H34  1  0.062000  0.936300  0.321800  1.0  0.1067
  H  H35  1  0.346500  0.102300  0.254000  1.0  0.1136
  H  H36  1  0.306900  0.112900  0.201200  1.0  0.0851
  H  H37  1  0.386300  0.018500  0.166800  1.0  0.0762
  H  H38  1  0.422800  0.001300  0.222400  1.0  0.0727
  H  H39  1  0.452000  0.163400  0.119200  1.0  0.1068
  H  H40  1  0.494200  0.139800  0.171600  1.0  0.1009
  H  H41  1  0.634800  0.101200  0.137600  1.0  0.1247
  H  H42  1  0.741700  0.065200  0.064800  1.0  0.0914
  H  H43  1  0.596100  0.043300  0.975600  1.0  0.091
  H  H44  1  0.486900  0.078400  0.046200  1.0  0.119
  H  H45  1  0.881000  0.757800  0.410800  1.0  0.0839
  H  H46  1  0.843800  0.726900  0.338000  1.0  0.1199
  H  H47  1  0.085700  0.711100  0.245400  1.0  0.1102
  H  H48  1  0.116200  0.741900  0.321800  1.0  0.1063
  H  H49  1  0.899500  0.643700  0.254000  1.0  0.1107
  H  H50  1  0.991900  0.685900  0.201200  1.0  0.0796
  H  H51  1  0.946900  0.814700  0.166800  1.0  0.0774
  H  H52  1  0.854800  0.776300  0.222400  1.0  0.0693
  H  H53  1  0.928800  0.717400  0.119200  1.0  0.1041
  H  H54  1  0.834200  0.688600  0.171600  1.0  0.0988
  H  H55  1  0.727600  0.761200  0.137600  1.0  0.1258
  H  H56  1  0.693500  0.870000  0.064800  1.0  0.0912
  H  H57  1  0.928300  0.981100  0.975600  1.0  0.0943
  H  H58  1  0.966900  0.875400  0.046200  1.0  0.1193
  C  C59  1  0.748500  0.200400  0.876200  1.0  0.1623
  C  C60  1  0.729600  0.266200  0.833000  1.0  -0.2737
  C  C61  1  0.714100  0.257900  0.781800  1.0  0.1468
  C  C62  1  0.720300  0.178900  0.779400  1.0  -0.1591
  C  C63  1  0.739400  0.115400  0.824400  1.0  0.1202
  C  C64  1  0.696100  0.328200  0.731600  1.0  -0.2136
  C  C65  1  0.763300  0.402800  0.692400  1.0  -0.0701
  C  C66  1  0.736700  0.474400  0.645400  1.0  -0.2777
  C  C67  1  0.804590  0.547090  0.600020  1.0  0.1366
  C  C68  1  0.805900  0.625600  0.604200  1.0  -0.1646
  C  C69  1  0.871100  0.689200  0.560600  1.0  0.1551
  C  C70  1  0.935500  0.604300  0.509000  1.0  0.1493
  C  C71  1  0.872400  0.539000  0.551000  1.0  -0.2168
  C  C72  1  0.875300  0.923400  0.876200  1.0  0.1603
  C  C73  1  0.937400  0.900800  0.833000  1.0  -0.2722
  C  C74  1  0.004100  0.960300  0.781800  1.0  0.147
  C  C75  1  0.000300  0.041700  0.779400  1.0  -0.1644
  C  C76  1  0.936200  0.060200  0.824400  1.0  0.1247
  C  C77  1  0.072300  0.940200  0.731600  1.0  -0.2165
  C  C78  1  0.044300  0.904800  0.692400  1.0  -0.067
  C  C79  1  0.117900  0.880200  0.645400  1.0  -0.2728
  C  C80  1  0.095390  0.852890  0.600020  1.0  0.1347
  C  C81  1  0.089900  0.770200  0.604200  1.0  -0.1622
  C  C82  1  0.068300  0.750200  0.560600  1.0  0.1537
  C  C83  1  0.055500  0.886700  0.509000  1.0  0.1513
  C  C84  1  0.076600  0.910000  0.551000  1.0  -0.2197
  C  C85  1  0.200400  0.875300  0.376200  1.0  0.1612
  C  C86  1  0.266200  0.937400  0.333000  1.0  -0.2703
  C  C87  1  0.257900  0.004100  0.281800  1.0  0.1473
  C  C88  1  0.178900  0.000300  0.279400  1.0  -0.1647
  C  C89  1  0.115400  0.936200  0.324400  1.0  0.1245
  C  C90  1  0.328200  0.072300  0.231600  1.0  -0.2202
  C  C91  1  0.402800  0.044300  0.192400  1.0  -0.0727
  C  C92  1  0.474400  0.117900  0.145400  1.0  -0.2791
  C  C93  1  0.547090  0.095390  0.100020  1.0  0.1365
  C  C94  1  0.625600  0.089900  0.104200  1.0  -0.1603
  C  C95  1  0.689200  0.068300  0.060600  1.0  0.1517
  C  C96  1  0.604300  0.055500  0.009000  1.0  0.152
  C  C97  1  0.539000  0.076600  0.051000  1.0  -0.2162
  C  C98  1  0.923400  0.748500  0.376200  1.0  0.1627
  C  C99  1  0.900800  0.729600  0.333000  1.0  -0.2713
  C  C100  1  0.960300  0.714100  0.281800  1.0  0.1475
  C  C101  1  0.041700  0.720300  0.279400  1.0  -0.1573
  C  C102  1  0.060200  0.739400  0.324400  1.0  0.1245
  C  C103  1  0.940200  0.696100  0.231600  1.0  -0.2166
  C  C104  1  0.904800  0.763300  0.192400  1.0  -0.0742
  C  C105  1  0.880200  0.736700  0.145400  1.0  -0.2795
  C  C106  1  0.852890  0.804590  0.100020  1.0  0.1377
  C  C107  1  0.770200  0.805900  0.104200  1.0  -0.1651
  C  C108  1  0.750200  0.871100  0.060600  1.0  0.1533
  C  C109  1  0.886700  0.935500  0.009000  1.0  0.15
  C  C110  1  0.910000  0.872400  0.051000  1.0  -0.2167
  N  N111  1  0.754400  0.126700  0.872600  1.0  -0.3009
  N  N112  1  0.935990  0.680690  0.512620  1.0  -0.3151
  N  N113  1  0.873000  0.000700  0.872600  1.0  -0.3026
  N  N114  1  0.051390  0.806690  0.512620  1.0  -0.3158
  N  N115  1  0.126700  0.873000  0.372600  1.0  -0.3013
  N  N116  1  0.680690  0.051390  0.012620  1.0  -0.3181
  N  N117  1  0.000700  0.754400  0.372600  1.0  -0.3015
  N  N118  1  0.806690  0.935990  0.012620  1.0  -0.3137
  Cl  Cl119  1  0.670040  0.917140  0.943260  1.0  -0.506
  Cl  Cl120  1  0.886700  0.139600  0.943260  1.0  -0.5066
  Cl  Cl121  1  0.917140  0.886700  0.443260  1.0  -0.5064
  Cl  Cl122  1  0.139600  0.670040  0.443260  1.0  -0.5046
