# generated using pymatgen
data_Mn3Fe2H24(C7N3)6
_symmetry_space_group_name_H-M   'P 1'
_cell_length_a   11.62840000
_cell_length_b   16.31480000
_cell_length_c   17.88610000
_cell_angle_alpha   90.00000000
_cell_angle_beta   90.00000000
_cell_angle_gamma   90.00000000
_symmetry_Int_Tables_number   1
_chemical_formula_structural   Mn3Fe2H24(C7N3)6
_chemical_formula_sum   'Mn6 Fe4 H48 C84 N36'
_cell_volume   3393.26182495
_cell_formula_units_Z   2
loop_
 _symmetry_equiv_pos_site_id
 _symmetry_equiv_pos_as_xyz
  1  'x, y, z'
loop_
 _atom_site_type_symbol
 _atom_site_label
 _atom_site_symmetry_multiplicity
 _atom_site_fract_x
 _atom_site_fract_y
 _atom_site_fract_z
 _atom_site_occupancy
 _atom_site_charge
  Mn  Mn1  1  0.500000  0.110420  0.181730  1.0  0.9779
  Mn  Mn2  1  0.500000  0.889580  0.818270  1.0  0.9777
  Mn  Mn3  1  0.500000  0.389580  0.681730  1.0  0.9778
  Mn  Mn4  1  0.500000  0.610420  0.318270  1.0  0.9778
  Mn  Mn5  1  0.500000  0.500000  0.000000  1.0  1.0869
  Mn  Mn6  1  0.500000  0.000000  0.500000  1.0  1.0869
  Fe  Fe7  1  0.500000  0.197940  0.900440  1.0  -0.4777
  Fe  Fe8  1  0.500000  0.802060  0.099560  1.0  -0.4687
  Fe  Fe9  1  0.500000  0.302060  0.400440  1.0  -0.4749
  Fe  Fe10  1  0.500000  0.697940  0.599560  1.0  -0.4719
  H  H11  1  0.284000  0.172100  0.276100  1.0  0.0771
  H  H12  1  0.088600  0.167900  0.282400  1.0  0.1342
  H  H13  1  0.285900  0.041200  0.095500  1.0  0.0858
  H  H14  1  0.089700  0.033600  0.095500  1.0  0.134
  H  H15  1  0.715500  0.425300  0.917600  1.0  0.072
  H  H16  1  0.911000  0.423600  0.914700  1.0  0.1233
  H  H17  1  0.284000  0.827900  0.723900  1.0  0.0777
  H  H18  1  0.088600  0.832100  0.717600  1.0  0.1341
  H  H19  1  0.285900  0.958800  0.904500  1.0  0.0863
  H  H20  1  0.089700  0.966400  0.904500  1.0  0.134
  H  H21  1  0.715500  0.574700  0.082400  1.0  0.0717
  H  H22  1  0.911000  0.576400  0.085300  1.0  0.1231
  H  H23  1  0.716000  0.327900  0.776100  1.0  0.077
  H  H24  1  0.911400  0.332100  0.782400  1.0  0.1344
  H  H25  1  0.714100  0.458800  0.595500  1.0  0.0862
  H  H26  1  0.910300  0.466400  0.595500  1.0  0.1338
  H  H27  1  0.284500  0.074700  0.417600  1.0  0.0721
  H  H28  1  0.089000  0.076400  0.414700  1.0  0.1236
  H  H29  1  0.716000  0.672100  0.223900  1.0  0.0779
  H  H30  1  0.911400  0.667900  0.217600  1.0  0.1342
  H  H31  1  0.714100  0.541200  0.404500  1.0  0.0866
  H  H32  1  0.910300  0.533600  0.404500  1.0  0.1339
  H  H33  1  0.284500  0.925300  0.582400  1.0  0.0719
  H  H34  1  0.089000  0.923600  0.585300  1.0  0.1228
  H  H35  1  0.716000  0.827900  0.723900  1.0  0.0779
  H  H36  1  0.911400  0.832100  0.717600  1.0  0.1343
  H  H37  1  0.714100  0.958800  0.904500  1.0  0.0865
  H  H38  1  0.910300  0.966400  0.904500  1.0  0.134
  H  H39  1  0.284500  0.574700  0.082400  1.0  0.0717
  H  H40  1  0.089000  0.576400  0.085300  1.0  0.124
  H  H41  1  0.716000  0.172100  0.276100  1.0  0.0774
  H  H42  1  0.911400  0.167900  0.282400  1.0  0.1344
  H  H43  1  0.714100  0.041200  0.095500  1.0  0.086
  H  H44  1  0.910300  0.033600  0.095500  1.0  0.1339
  H  H45  1  0.284500  0.425300  0.917600  1.0  0.0721
  H  H46  1  0.089000  0.423600  0.914700  1.0  0.1243
  H  H47  1  0.284000  0.672100  0.223900  1.0  0.0776
  H  H48  1  0.088600  0.667900  0.217600  1.0  0.1343
  H  H49  1  0.285900  0.541200  0.404500  1.0  0.0865
  H  H50  1  0.089700  0.533600  0.404500  1.0  0.134
  H  H51  1  0.715500  0.925300  0.582400  1.0  0.0718
  H  H52  1  0.911000  0.923600  0.585300  1.0  0.1238
  H  H53  1  0.284000  0.327900  0.776100  1.0  0.0769
  H  H54  1  0.088600  0.332100  0.782400  1.0  0.1342
  H  H55  1  0.285900  0.458800  0.595500  1.0  0.0858
  H  H56  1  0.089700  0.466400  0.595500  1.0  0.1339
  H  H57  1  0.715500  0.074700  0.417600  1.0  0.0721
  H  H58  1  0.911000  0.076400  0.414700  1.0  0.1244
  C  C59  1  0.669000  0.197300  0.901600  1.0  0.1794
  C  C60  1  0.244200  0.143900  0.239100  1.0  0.1841
  C  C61  1  0.126500  0.141800  0.243300  1.0  -0.1933
  C  C62  1  0.245500  0.067500  0.133400  1.0  0.1913
  C  C63  1  0.127100  0.062500  0.133100  1.0  -0.1755
  C  C64  1  0.064100  0.100600  0.188800  1.0  0.0928
  C  C65  1  0.755100  0.456900  0.952300  1.0  0.2095
  C  C66  1  0.873500  0.455400  0.950300  1.0  -0.1783
  C  C67  1  0.669000  0.802700  0.098400  1.0  0.1796
  C  C68  1  0.244200  0.856100  0.760900  1.0  0.1842
  C  C69  1  0.126500  0.858200  0.756700  1.0  -0.1929
  C  C70  1  0.245500  0.932500  0.866600  1.0  0.1916
  C  C71  1  0.127100  0.937500  0.866900  1.0  -0.1757
  C  C72  1  0.064100  0.899400  0.811200  1.0  0.0925
  C  C73  1  0.755100  0.543100  0.047700  1.0  0.2097
  C  C74  1  0.873500  0.544600  0.049700  1.0  -0.1788
  C  C75  1  0.331000  0.302700  0.401600  1.0  0.1801
  C  C76  1  0.755800  0.356100  0.739100  1.0  0.1844
  C  C77  1  0.873500  0.358200  0.743300  1.0  -0.1928
  C  C78  1  0.754500  0.432500  0.633400  1.0  0.1908
  C  C79  1  0.872900  0.437500  0.633100  1.0  -0.1753
  C  C80  1  0.935900  0.399400  0.688800  1.0  0.093
  C  C81  1  0.244900  0.043100  0.452300  1.0  0.2101
  C  C82  1  0.126500  0.044600  0.450300  1.0  -0.1785
  C  C83  1  0.331000  0.697300  0.598400  1.0  0.1799
  C  C84  1  0.755800  0.643900  0.260900  1.0  0.1842
  C  C85  1  0.873500  0.641800  0.256700  1.0  -0.1928
  C  C86  1  0.754500  0.567500  0.366600  1.0  0.1921
  C  C87  1  0.872900  0.562500  0.366900  1.0  -0.1752
  C  C88  1  0.935900  0.600600  0.311200  1.0  0.0924
  C  C89  1  0.244900  0.956900  0.547700  1.0  0.2103
  C  C90  1  0.126500  0.955400  0.549700  1.0  -0.179
  C  C91  1  0.331000  0.802700  0.098400  1.0  0.1802
  C  C92  1  0.755800  0.856100  0.760900  1.0  0.1842
  C  C93  1  0.873500  0.858200  0.756700  1.0  -0.1921
  C  C94  1  0.754500  0.932500  0.866600  1.0  0.1914
  C  C95  1  0.872900  0.937500  0.866900  1.0  -0.1753
  C  C96  1  0.935900  0.899400  0.811200  1.0  0.0924
  C  C97  1  0.244900  0.543100  0.047700  1.0  0.2104
  C  C98  1  0.126500  0.544600  0.049700  1.0  -0.1789
  C  C99  1  0.331000  0.197300  0.901600  1.0  0.1799
  C  C100  1  0.755800  0.143900  0.239100  1.0  0.184
  C  C101  1  0.873500  0.141800  0.243300  1.0  -0.1925
  C  C102  1  0.754500  0.067500  0.133400  1.0  0.1909
  C  C103  1  0.872900  0.062500  0.133100  1.0  -0.1753
  C  C104  1  0.935900  0.100600  0.188800  1.0  0.0929
  C  C105  1  0.244900  0.456900  0.952300  1.0  0.2098
  C  C106  1  0.126500  0.455400  0.950300  1.0  -0.1786
  C  C107  1  0.669000  0.697300  0.598400  1.0  0.1793
  C  C108  1  0.244200  0.643900  0.260900  1.0  0.1841
  C  C109  1  0.126500  0.641800  0.256700  1.0  -0.1922
  C  C110  1  0.245500  0.567500  0.366600  1.0  0.1924
  C  C111  1  0.127100  0.562500  0.366900  1.0  -0.1758
  C  C112  1  0.064100  0.600600  0.311200  1.0  0.0924
  C  C113  1  0.755100  0.956900  0.547700  1.0  0.2096
  C  C114  1  0.873500  0.955400  0.549700  1.0  -0.1783
  C  C115  1  0.669000  0.302700  0.401600  1.0  0.1796
  C  C116  1  0.244200  0.356100  0.739100  1.0  0.1845
  C  C117  1  0.126500  0.358200  0.743300  1.0  -0.1922
  C  C118  1  0.245500  0.432500  0.633400  1.0  0.191
  C  C119  1  0.127100  0.437500  0.633100  1.0  -0.1752
  C  C120  1  0.064100  0.399400  0.688800  1.0  0.093
  C  C121  1  0.755100  0.043100  0.452300  1.0  0.2099
  C  C122  1  0.873500  0.044600  0.450300  1.0  -0.1783
  C  C123  1  0.500000  0.164400  0.003800  1.0  0.2706
  C  C124  1  0.500000  0.310300  0.933700  1.0  0.3181
  C  C125  1  0.500000  0.238400  0.798100  1.0  0.2488
  C  C126  1  0.500000  0.085600  0.867400  1.0  0.2838
  C  C127  1  0.500000  0.835600  0.996200  1.0  0.27
  C  C128  1  0.500000  0.689700  0.066300  1.0  0.3187
  C  C129  1  0.500000  0.761600  0.201900  1.0  0.2515
  C  C130  1  0.500000  0.914400  0.132600  1.0  0.2826
  C  C131  1  0.500000  0.335600  0.503800  1.0  0.2706
  C  C132  1  0.500000  0.189700  0.433700  1.0  0.3187
  C  C133  1  0.500000  0.261600  0.298100  1.0  0.2496
  C  C134  1  0.500000  0.414400  0.367400  1.0  0.2831
  C  C135  1  0.500000  0.664400  0.496200  1.0  0.2699
  C  C136  1  0.500000  0.810300  0.566300  1.0  0.3184
  C  C137  1  0.500000  0.738400  0.701900  1.0  0.2509
  C  C138  1  0.500000  0.585600  0.632600  1.0  0.2831
  C  C139  1  0.935900  0.500000  0.000000  1.0  0.1038
  C  C140  1  0.064100  0.000000  0.500000  1.0  0.1039
  C  C141  1  0.064100  0.500000  0.000000  1.0  0.1039
  C  C142  1  0.935900  0.000000  0.500000  1.0  0.1038
  N  N143  1  0.768200  0.197800  0.902300  1.0  -0.4932
  N  N144  1  0.305000  0.107920  0.185300  1.0  -0.3455
  N  N145  1  0.768200  0.802200  0.097700  1.0  -0.4927
  N  N146  1  0.305000  0.892080  0.814700  1.0  -0.3453
  N  N147  1  0.231800  0.302200  0.402300  1.0  -0.493
  N  N148  1  0.695000  0.392080  0.685300  1.0  -0.344
  N  N149  1  0.231800  0.697800  0.597700  1.0  -0.4935
  N  N150  1  0.695000  0.607920  0.314700  1.0  -0.3438
  N  N151  1  0.231800  0.802200  0.097700  1.0  -0.493
  N  N152  1  0.695000  0.892080  0.814700  1.0  -0.3439
  N  N153  1  0.231800  0.197800  0.902300  1.0  -0.4935
  N  N154  1  0.695000  0.107920  0.185300  1.0  -0.3439
  N  N155  1  0.768200  0.697800  0.597700  1.0  -0.4931
  N  N156  1  0.305000  0.607920  0.314700  1.0  -0.3454
  N  N157  1  0.768200  0.302200  0.402300  1.0  -0.4929
  N  N158  1  0.305000  0.392080  0.685300  1.0  -0.3454
  N  N159  1  0.500000  0.148500  0.066200  1.0  -0.4798
  N  N160  1  0.500000  0.378300  0.950000  1.0  -0.585
  N  N161  1  0.500000  0.270600  0.740600  1.0  -0.5019
  N  N162  1  0.500000  0.019100  0.848600  1.0  -0.5189
  N  N163  1  0.500000  0.851500  0.933800  1.0  -0.4796
  N  N164  1  0.500000  0.621700  0.050000  1.0  -0.5855
  N  N165  1  0.500000  0.729400  0.259400  1.0  -0.503
  N  N166  1  0.500000  0.980900  0.151400  1.0  -0.5191
  N  N167  1  0.500000  0.351500  0.566200  1.0  -0.4791
  N  N168  1  0.500000  0.121700  0.450000  1.0  -0.5845
  N  N169  1  0.500000  0.229400  0.240600  1.0  -0.5016
  N  N170  1  0.500000  0.480900  0.348600  1.0  -0.5194
  N  N171  1  0.500000  0.648500  0.433800  1.0  -0.4805
  N  N172  1  0.500000  0.878300  0.550000  1.0  -0.5856
  N  N173  1  0.500000  0.770600  0.759400  1.0  -0.5028
  N  N174  1  0.500000  0.519100  0.651400  1.0  -0.5187
  N  N175  1  0.694800  0.500000  0.000000  1.0  -0.3896
  N  N176  1  0.305200  0.000000  0.500000  1.0  -0.3901
  N  N177  1  0.305200  0.500000  0.000000  1.0  -0.3901
  N  N178  1  0.694800  0.000000  0.500000  1.0  -0.3896
