# generated using pymatgen
data_DyH17C30(NO3)2
_symmetry_space_group_name_H-M   'P 1'
_cell_length_a   10.82370000
_cell_length_b   12.18620000
_cell_length_c   12.24930000
_cell_angle_alpha   94.30100000
_cell_angle_beta   106.53000000
_cell_angle_gamma   101.28100000
_symmetry_Int_Tables_number   1
_chemical_formula_structural   DyH17C30(NO3)2
_chemical_formula_sum   'Dy2 H34 C60 N4 O12'
_cell_volume   1504.24023687
_cell_formula_units_Z   2
loop_
 _symmetry_equiv_pos_site_id
 _symmetry_equiv_pos_as_xyz
  1  'x, y, z'
loop_
 _atom_site_type_symbol
 _atom_site_label
 _atom_site_symmetry_multiplicity
 _atom_site_fract_x
 _atom_site_fract_y
 _atom_site_fract_z
 _atom_site_occupancy
 _atom_site_charge
  Dy  Dy1  1  0.083250  0.309780  0.498190  1.0  2.2393
  Dy  Dy2  1  0.916750  0.690220  0.501810  1.0  2.2387
  H  H3  1  0.287300  0.568200  0.523000  1.0  0.0686
  H  H4  1  0.501000  0.671300  0.595200  1.0  0.0954
  H  H5  1  0.664900  0.591200  0.697100  1.0  0.1178
  H  H6  1  0.120000  0.069200  0.615100  1.0  0.0654
  H  H7  1  0.268700  0.977500  0.720600  1.0  0.1124
  H  H8  1  0.487400  0.063600  0.787600  1.0  0.1181
  H  H9  1  0.667500  0.237500  0.806700  1.0  0.1135
  H  H10  1  0.726300  0.419500  0.781300  1.0  0.09
  H  H11  1  0.256300  0.198200  0.184500  1.0  0.0995
  H  H12  1  0.894800  0.033200  0.164600  1.0  0.0888
  H  H13  1  0.762100  0.895200  0.990200  1.0  0.1066
  H  H14  1  0.023600  0.315000  0.787000  1.0  0.108
  H  H15  1  0.984400  0.631900  0.836500  1.0  0.0827
  H  H16  1  0.979100  0.709200  0.028300  1.0  0.0929
  H  H17  1  0.601700  0.169900  0.411800  1.0  0.088
  H  H18  1  0.821800  0.039600  0.663200  1.0  0.0886
  H  H19  1  0.640700  0.916200  0.672300  1.0  0.0982
  H  H20  1  0.712700  0.431800  0.477000  1.0  0.0688
  H  H21  1  0.499000  0.328700  0.404800  1.0  0.0951
  H  H22  1  0.335100  0.408800  0.302900  1.0  0.1176
  H  H23  1  0.880000  0.930800  0.384900  1.0  0.0652
  H  H24  1  0.731300  0.022500  0.279400  1.0  0.111
  H  H25  1  0.512600  0.936400  0.212400  1.0  0.1177
  H  H26  1  0.332500  0.762500  0.193300  1.0  0.1136
  H  H27  1  0.273700  0.580500  0.218700  1.0  0.0902
  H  H28  1  0.743700  0.801800  0.815500  1.0  0.0998
  H  H29  1  0.105200  0.966800  0.835400  1.0  0.0883
  H  H30  1  0.237900  0.104800  0.009800  1.0  0.1061
  H  H31  1  0.976400  0.685000  0.213000  1.0  0.1081
  H  H32  1  0.015600  0.368100  0.163500  1.0  0.0825
  H  H33  1  0.020900  0.290800  0.971700  1.0  0.0929
  H  H34  1  0.398300  0.830100  0.588200  1.0  0.0903
  H  H35  1  0.178200  0.960400  0.336800  1.0  0.089
  H  H36  1  0.359300  0.083800  0.327700  1.0  0.0991
  C  C37  1  0.351500  0.533900  0.565100  1.0  0.184
  C  C38  1  0.480700  0.596700  0.608200  1.0  -0.1019
  C  C39  1  0.577800  0.549900  0.669100  1.0  -0.0587
  C  C40  1  0.543600  0.437500  0.689100  1.0  0.025
  C  C41  1  0.410600  0.378900  0.643700  1.0  0.1384
  C  C42  1  0.372200  0.263800  0.663500  1.0  0.1728
  C  C43  1  0.208600  0.106500  0.643600  1.0  0.1747
  C  C44  1  0.297800  0.050500  0.706400  1.0  -0.1396
  C  C45  1  0.426600  0.101700  0.746800  1.0  -0.0497
  C  C46  1  0.469800  0.213400  0.727400  1.0  0.0375
  C  C47  1  0.603000  0.273200  0.767900  1.0  -0.1276
  C  C48  1  0.638100  0.381000  0.751400  1.0  -0.0827
  C  C49  1  0.087700  0.181100  0.305800  1.0  0.6489
  C  C50  1  0.075700  0.123200  0.191000  1.0  -0.1001
  C  C51  1  0.179000  0.145300  0.144500  1.0  -0.0793
  C  C52  1  0.963600  0.047800  0.132600  1.0  -0.0985
  C  C53  1  0.947900  0.989200  0.021700  1.0  -0.012
  C  C54  1  0.832300  0.910200  0.959800  1.0  -0.0982
  C  C55  1  0.009700  0.494700  0.676000  1.0  0.7224
  C  C56  1  0.006200  0.478600  0.797700  1.0  -0.1496
  C  C57  1  0.016200  0.374100  0.835600  1.0  -0.0539
  C  C58  1  0.993800  0.564400  0.865000  1.0  -0.1082
  C  C59  1  0.994900  0.553100  0.981600  1.0  -0.0165
  C  C60  1  0.985000  0.639900  0.054000  1.0  -0.1382
  C  C61  1  0.850200  0.194400  0.529700  1.0  0.6666
  C  C62  1  0.729800  0.117400  0.535200  1.0  -0.16
  C  C63  1  0.608500  0.116900  0.462800  1.0  -0.0844
  C  C64  1  0.494000  0.040600  0.461600  1.0  0.0172
  C  C65  1  0.739400  0.039800  0.612900  1.0  -0.0422
  C  C66  1  0.631900  0.964900  0.617100  1.0  -0.1512
  C  C67  1  0.648500  0.466100  0.434900  1.0  0.1854
  C  C68  1  0.519300  0.403300  0.391800  1.0  -0.1015
  C  C69  1  0.422200  0.450100  0.330900  1.0  -0.0577
  C  C70  1  0.456400  0.562500  0.310900  1.0  0.0207
  C  C71  1  0.589400  0.621100  0.356300  1.0  0.137
  C  C72  1  0.627800  0.736200  0.336500  1.0  0.171
  C  C73  1  0.791400  0.893500  0.356400  1.0  0.1746
  C  C74  1  0.702200  0.949500  0.293600  1.0  -0.1406
  C  C75  1  0.573400  0.898300  0.253200  1.0  -0.0435
  C  C76  1  0.530200  0.786600  0.272600  1.0  0.0364
  C  C77  1  0.397000  0.726800  0.232100  1.0  -0.1288
  C  C78  1  0.361900  0.619000  0.248600  1.0  -0.0837
  C  C79  1  0.912300  0.818900  0.694200  1.0  0.6471
  C  C80  1  0.924300  0.876800  0.809000  1.0  -0.1007
  C  C81  1  0.821000  0.854700  0.855500  1.0  -0.078
  C  C82  1  0.036400  0.952200  0.867400  1.0  -0.1
  C  C83  1  0.052100  0.010800  0.978300  1.0  -0.0104
  C  C84  1  0.167700  0.089800  0.040200  1.0  -0.1074
  C  C85  1  0.990300  0.505300  0.324000  1.0  0.7224
  C  C86  1  0.993800  0.521400  0.202300  1.0  -0.1497
  C  C87  1  0.983800  0.625900  0.164400  1.0  -0.0545
  C  C88  1  0.006200  0.435600  0.135000  1.0  -0.1064
  C  C89  1  0.005100  0.446900  0.018400  1.0  -0.0168
  C  C90  1  0.015000  0.360100  0.946000  1.0  -0.1372
  C  C91  1  0.149800  0.805600  0.470300  1.0  0.6663
  C  C92  1  0.270200  0.882600  0.464800  1.0  -0.159
  C  C93  1  0.391500  0.883100  0.537200  1.0  -0.0811
  C  C94  1  0.506000  0.959400  0.538400  1.0  0.0172
  C  C95  1  0.260600  0.960200  0.387100  1.0  -0.0424
  C  C96  1  0.368100  0.035100  0.382900  1.0  -0.1461
  N  N97  1  0.243600  0.211500  0.622100  1.0  -0.4251
  N  N98  1  0.315000  0.427700  0.580900  1.0  -0.4435
  N  N99  1  0.756400  0.788500  0.377900  1.0  -0.4254
  N  N100  1  0.685000  0.572300  0.419100  1.0  -0.4427
  O  O101  1  0.068900  0.434700  0.634800  1.0  -0.6844
  O  O102  1  0.961200  0.182400  0.586800  1.0  -0.6471
  O  O103  1  0.842600  0.268600  0.461400  1.0  -0.6417
  O  O104  1  0.992100  0.161500  0.346400  1.0  -0.6548
  O  O105  1  0.192100  0.251700  0.362900  1.0  -0.6482
  O  O106  1  0.954400  0.566100  0.627900  1.0  -0.6661
  O  O107  1  0.931100  0.565300  0.365200  1.0  -0.6786
  O  O108  1  0.038800  0.817600  0.413200  1.0  -0.647
  O  O109  1  0.157400  0.731400  0.538600  1.0  -0.6429
  O  O110  1  0.007900  0.838500  0.653600  1.0  -0.6527
  O  O111  1  0.807900  0.748300  0.637100  1.0  -0.6483
  O  O112  1  0.045600  0.433900  0.372100  1.0  -0.6672
