# generated using pymatgen
data_Zn3P3H15C18(NO2)5
_symmetry_space_group_name_H-M   'P 1'
_cell_length_a   9.14900000
_cell_length_b   11.20200000
_cell_length_c   14.62800000
_cell_angle_alpha   73.52600000
_cell_angle_beta   88.04500000
_cell_angle_gamma   71.28400000
_symmetry_Int_Tables_number   1
_chemical_formula_structural   Zn3P3H15C18(NO2)5
_chemical_formula_sum   'Zn6 P6 H30 C36 N10 O20'
_cell_volume   1358.94358549
_cell_formula_units_Z   2
loop_
 _symmetry_equiv_pos_site_id
 _symmetry_equiv_pos_as_xyz
  1  'x, y, z'
loop_
 _atom_site_type_symbol
 _atom_site_label
 _atom_site_symmetry_multiplicity
 _atom_site_fract_x
 _atom_site_fract_y
 _atom_site_fract_z
 _atom_site_occupancy
 _atom_site_charge
  Zn  Zn1  1  0.849600  0.183200  0.986360  1.0  1.0297
  Zn  Zn2  1  0.290600  0.236400  0.739900  1.0  0.7845
  Zn  Zn3  1  0.505500  0.487300  0.152340  1.0  1.0324
  Zn  Zn4  1  0.150400  0.816800  0.013640  1.0  1.0312
  Zn  Zn5  1  0.709400  0.763600  0.260100  1.0  0.7837
  Zn  Zn6  1  0.494500  0.512700  0.847660  1.0  1.0325
  P  P7  1  0.750100  0.479200  0.997000  1.0  1.4146
  P  P8  1  0.065800  0.079600  0.836400  1.0  1.5534
  P  P9  1  0.588800  0.227500  0.835700  1.0  1.549
  P  P10  1  0.249900  0.520800  0.003000  1.0  1.4044
  P  P11  1  0.934200  0.920400  0.163600  1.0  1.5504
  P  P12  1  0.411200  0.772500  0.164300  1.0  1.5501
  H  H13  1  0.973700  0.122800  0.761300  1.0  -0.0658
  H  H14  1  0.647800  0.154600  0.766600  1.0  -0.0667
  H  H15  1  0.622300  0.817800  0.029500  1.0  0.2669
  H  H16  1  0.866500  0.766800  0.987200  1.0  0.1141
  H  H17  1  0.923600  0.797600  0.831300  1.0  0.1222
  H  H18  1  0.419500  0.916700  0.915100  1.0  0.1071
  H  H19  1  0.469000  0.940200  0.752700  1.0  0.1271
  H  H20  1  0.247000  0.491000  0.587800  1.0  0.0823
  H  H21  1  0.097700  0.708200  0.549600  1.0  0.1248
  H  H22  1  0.018900  0.405500  0.811800  1.0  0.0849
  H  H23  1  0.839600  0.609800  0.768800  1.0  0.1212
  H  H24  1  0.749400  0.217800  0.218500  1.0  0.0907
  H  H25  1  0.828600  0.047700  0.352000  1.0  0.1133
  H  H26  1  0.419900  0.405100  0.352600  1.0  0.1173
  H  H27  1  0.487600  0.239300  0.484100  1.0  0.1124
  H  H28  1  0.026300  0.877200  0.238700  1.0  -0.069
  H  H29  1  0.352200  0.845400  0.233400  1.0  -0.0704
  H  H30  1  0.377700  0.182200  0.970500  1.0  0.2655
  H  H31  1  0.133500  0.233200  0.012800  1.0  0.1136
  H  H32  1  0.076400  0.202400  0.168700  1.0  0.1218
  H  H33  1  0.580500  0.083300  0.084900  1.0  0.1073
  H  H34  1  0.531000  0.059800  0.247300  1.0  0.1271
  H  H35  1  0.753000  0.509000  0.412200  1.0  0.0833
  H  H36  1  0.902300  0.291800  0.450400  1.0  0.1252
  H  H37  1  0.981100  0.594500  0.188200  1.0  0.0839
  H  H38  1  0.160400  0.390200  0.231200  1.0  0.1213
  H  H39  1  0.250600  0.782200  0.781500  1.0  0.0903
  H  H40  1  0.171400  0.952300  0.648000  1.0  0.1134
  H  H41  1  0.580100  0.594900  0.647400  1.0  0.1169
  H  H42  1  0.512400  0.760700  0.515900  1.0  0.1133
  C  C43  1  0.787000  0.802600  0.939600  1.0  0.0671
  C  C44  1  0.821000  0.820700  0.847000  1.0  -0.0853
  C  C45  1  0.521000  0.890300  0.897000  1.0  0.0476
  C  C46  1  0.549500  0.907400  0.799500  1.0  -0.1164
  C  C47  1  0.704200  0.873100  0.775900  1.0  -0.0294
  C  C48  1  0.167000  0.517000  0.626200  1.0  0.143
  C  C49  1  0.075000  0.647000  0.601100  1.0  -0.1118
  C  C50  1  0.030000  0.466000  0.755700  1.0  0.1995
  C  C51  1  0.925000  0.589900  0.732700  1.0  -0.1804
  C  C52  1  0.947000  0.687600  0.653200  1.0  -0.018
  C  C53  1  0.697000  0.222900  0.273600  1.0  0.1828
  C  C54  1  0.744000  0.119900  0.353900  1.0  -0.1626
  C  C55  1  0.504000  0.331000  0.352800  1.0  0.1637
  C  C56  1  0.545000  0.233000  0.430800  1.0  -0.1032
  C  C57  1  0.672000  0.117900  0.437700  1.0  -0.0129
  C  C58  1  0.737100  0.897600  0.673400  1.0  0.0497
  C  C59  1  0.844000  0.826700  0.624400  1.0  0.0744
  C  C60  1  0.719000  0.008700  0.525100  1.0  0.35
  C  C61  1  0.213000  0.197400  0.060400  1.0  0.0668
  C  C62  1  0.179000  0.179300  0.153000  1.0  -0.0823
  C  C63  1  0.479000  0.109700  0.103000  1.0  0.0505
  C  C64  1  0.450500  0.092600  0.200500  1.0  -0.1152
  C  C65  1  0.295800  0.126900  0.224100  1.0  -0.0303
  C  C66  1  0.833000  0.483000  0.373800  1.0  0.1447
  C  C67  1  0.925000  0.353000  0.398900  1.0  -0.114
  C  C68  1  0.970000  0.534000  0.244300  1.0  0.1988
  C  C69  1  0.075000  0.410100  0.267300  1.0  -0.1802
  C  C70  1  0.053000  0.312400  0.346800  1.0  -0.0189
  C  C71  1  0.303000  0.777100  0.726400  1.0  0.1841
  C  C72  1  0.256000  0.880100  0.646100  1.0  -0.1618
  C  C73  1  0.496000  0.669000  0.647200  1.0  0.1624
  C  C74  1  0.455000  0.767000  0.569200  1.0  -0.1053
  C  C75  1  0.328000  0.882100  0.562300  1.0  -0.0127
  C  C76  1  0.262900  0.102400  0.326600  1.0  0.0499
  C  C77  1  0.156000  0.173300  0.375600  1.0  0.0753
  C  C78  1  0.281000  0.991300  0.474900  1.0  0.3495
  N  N79  1  0.638400  0.836100  0.963500  1.0  -0.1813
  N  N80  1  0.146400  0.426500  0.703100  1.0  -0.2976
  N  N81  1  0.582000  0.328600  0.271100  1.0  -0.3255
  N  N82  1  0.656600  0.012800  0.609900  1.0  -0.3731
  N  N83  1  0.833300  0.897700  0.532100  1.0  -0.333
  N  N84  1  0.361600  0.163900  0.036500  1.0  -0.1797
  N  N85  1  0.853600  0.573500  0.296900  1.0  -0.2997
  N  N86  1  0.418000  0.671400  0.728900  1.0  -0.3256
  N  N87  1  0.343400  0.987200  0.390100  1.0  -0.3722
  N  N88  1  0.166700  0.102300  0.467900  1.0  -0.334
  O  O89  1  0.659300  0.540900  0.905600  1.0  -0.7439
  O  O90  1  0.669000  0.525000  0.076900  1.0  -0.7694
  O  O91  1  0.793000  0.330000  0.036000  1.0  -0.707
  O  O92  1  0.014300  0.167800  0.900500  1.0  -0.8208
  O  O93  1  0.102200  0.933300  0.888800  1.0  -0.8246
  O  O94  1  0.192600  0.106200  0.774600  1.0  -0.7796
  O  O95  1  0.674600  0.159900  0.931100  1.0  -0.7766
  O  O96  1  0.431000  0.207500  0.848300  1.0  -0.8017
  O  O97  1  0.577600  0.369100  0.792900  1.0  -0.8382
  O  O98  1  0.853000  0.348000  0.996000  1.0  -0.6914
  O  O99  1  0.340700  0.459100  0.094400  1.0  -0.7437
  O  O100  1  0.331000  0.475000  0.923100  1.0  -0.7712
  O  O101  1  0.207000  0.670000  0.964000  1.0  -0.7074
  O  O102  1  0.985700  0.832200  0.099500  1.0  -0.8208
  O  O103  1  0.897800  0.066700  0.111200  1.0  -0.8243
  O  O104  1  0.807400  0.893800  0.225400  1.0  -0.7794
  O  O105  1  0.325400  0.840100  0.068900  1.0  -0.7754
  O  O106  1  0.569000  0.792500  0.151700  1.0  -0.8031
  O  O107  1  0.422400  0.630900  0.207100  1.0  -0.8377
  O  O108  1  0.147000  0.652000  0.004000  1.0  -0.6933
