# generated using pymatgen
data_Gd2Mn3H4C28(NO3)8
_symmetry_space_group_name_H-M   'P 1'
_cell_length_a   8.90360000
_cell_length_b   11.12290000
_cell_length_c   13.85100000
_cell_angle_alpha   106.10300000
_cell_angle_beta   90.94400000
_cell_angle_gamma   109.83000000
_symmetry_Int_Tables_number   1
_chemical_formula_structural   Gd2Mn3H4C28(NO3)8
_chemical_formula_sum   'Gd2 Mn3 H4 C28 N8 O24'
_cell_volume   1230.43904193
_cell_formula_units_Z   1
loop_
 _symmetry_equiv_pos_site_id
 _symmetry_equiv_pos_as_xyz
  1  'x, y, z'
loop_
 _atom_site_type_symbol
 _atom_site_label
 _atom_site_symmetry_multiplicity
 _atom_site_fract_x
 _atom_site_fract_y
 _atom_site_fract_z
 _atom_site_occupancy
 _atom_site_charge
  Gd  Gd1  1  0.777230  0.247360  0.237300  1.0  2.1996
  Gd  Gd2  1  0.222770  0.752640  0.762700  1.0  2.1991
  Mn  Mn3  1  0.710860  0.590560  0.026700  1.0  0.9738
  Mn  Mn4  1  0.289140  0.409440  0.973300  1.0  0.9706
  Mn  Mn5  1  0.500000  0.000000  0.500000  1.0  1.07
  H  H6  1  0.889200  0.988900  0.863700  1.0  0.115
  H  H7  1  0.689900  0.688900  0.531700  1.0  0.1158
  H  H8  1  0.110800  0.011100  0.136300  1.0  0.114
  H  H9  1  0.310100  0.311100  0.468300  1.0  0.1153
  C  C10  1  0.462900  0.703400  0.944200  1.0  0.7231
  C  C11  1  0.602400  0.838300  0.965900  1.0  0.1296
  C  C12  1  0.820600  0.973700  0.912500  1.0  0.1486
  C  C13  1  0.700300  0.285900  0.489400  1.0  0.7271
  C  C14  1  0.767900  0.435500  0.537200  1.0  0.0993
  C  C15  1  0.845200  0.074200  0.004300  1.0  0.1313
  C  C16  1  0.984300  0.207800  0.034900  1.0  0.6674
  C  C17  1  0.622300  0.941500  0.054400  1.0  0.1006
  C  C18  1  0.511400  0.935500  0.135900  1.0  0.6219
  C  C19  1  0.742200  0.638200  0.551000  1.0  0.1768
  C  C20  1  0.875500  0.702600  0.624400  1.0  0.0897
  C  C21  1  0.950200  0.852800  0.674400  1.0  0.6544
  C  C22  1  0.904400  0.500800  0.608800  1.0  0.1475
  C  C23  1  0.011100  0.434900  0.641600  1.0  0.6532
  C  C24  1  0.537100  0.296600  0.055800  1.0  0.7227
  C  C25  1  0.397600  0.161700  0.034100  1.0  0.1307
  C  C26  1  0.179400  0.026300  0.087500  1.0  0.1473
  C  C27  1  0.299700  0.714100  0.510600  1.0  0.7301
  C  C28  1  0.232100  0.564500  0.462800  1.0  0.1
  C  C29  1  0.154800  0.925800  0.995700  1.0  0.1302
  C  C30  1  0.015700  0.792200  0.965100  1.0  0.6666
  C  C31  1  0.377700  0.058500  0.945600  1.0  0.1022
  C  C32  1  0.488600  0.064500  0.864100  1.0  0.6254
  C  C33  1  0.257800  0.361800  0.449000  1.0  0.1759
  C  C34  1  0.124500  0.297400  0.375600  1.0  0.0835
  C  C35  1  0.049800  0.147200  0.325600  1.0  0.6522
  C  C36  1  0.095600  0.499200  0.391200  1.0  0.1445
  C  C37  1  0.988900  0.565100  0.358400  1.0  0.657
  N  N38  1  0.698500  0.854500  0.893500  1.0  -0.3806
  N  N39  1  0.745100  0.059300  0.073700  1.0  -0.4254
  N  N40  1  0.686500  0.504200  0.506900  1.0  -0.372
  N  N41  1  0.954600  0.632300  0.651900  1.0  -0.3845
  N  N42  1  0.301500  0.145500  0.106500  1.0  -0.3806
  N  N43  1  0.254900  0.940700  0.926300  1.0  -0.4258
  N  N44  1  0.313500  0.495800  0.493100  1.0  -0.372
  N  N45  1  0.045400  0.367700  0.348100  1.0  -0.3834
  O  O46  1  0.484900  0.612800  0.973800  1.0  -0.627
  O  O47  1  0.339500  0.692500  0.893800  1.0  -0.6811
  O  O48  1  0.088200  0.227800  0.975700  1.0  -0.6486
  O  O49  1  0.981600  0.288200  0.119300  1.0  -0.6872
  O  O50  1  0.548300  0.043500  0.210100  1.0  -0.7085
  O  O51  1  0.392600  0.835100  0.122200  1.0  -0.4584
  O  O52  1  0.738800  0.237800  0.404400  1.0  -0.6892
  O  O53  1  0.608100  0.221100  0.539000  1.0  -0.5932
  O  O54  1  0.883100  0.925700  0.654800  1.0  -0.4949
  O  O55  1  0.081000  0.892400  0.731600  1.0  -0.6739
  O  O56  1  0.128400  0.513000  0.707500  1.0  -0.6891
  O  O57  1  0.976700  0.313700  0.598300  1.0  -0.4974
  O  O58  1  0.515100  0.387200  0.026200  1.0  -0.6285
  O  O59  1  0.660500  0.307500  0.106200  1.0  -0.6797
  O  O60  1  0.911800  0.772200  0.024300  1.0  -0.6501
  O  O61  1  0.018400  0.711800  0.880700  1.0  -0.6897
  O  O62  1  0.451700  0.956500  0.789900  1.0  -0.701
  O  O63  1  0.607400  0.164900  0.877800  1.0  -0.4587
  O  O64  1  0.261200  0.762200  0.595600  1.0  -0.69
  O  O65  1  0.391900  0.778900  0.461000  1.0  -0.5903
  O  O66  1  0.116900  0.074300  0.345200  1.0  -0.4945
  O  O67  1  0.919000  0.107600  0.268400  1.0  -0.6684
  O  O68  1  0.871600  0.487000  0.292500  1.0  -0.6889
  O  O69  1  0.023300  0.686300  0.401700  1.0  -0.4996
