# generated using pymatgen
data_CdCu2(CN)6
_symmetry_space_group_name_H-M   'P 1'
_cell_length_a   27.24600000
_cell_length_b   10.44300000
_cell_length_c   9.36100000
_cell_angle_alpha   90.00000000
_cell_angle_beta   101.74300000
_cell_angle_gamma   90.00000000
_symmetry_Int_Tables_number   1
_chemical_formula_structural   CdCu2(CN)6
_chemical_formula_sum   'Cd6 Cu12 C36 N36'
_cell_volume   2607.73929854
_cell_formula_units_Z   6
loop_
 _symmetry_equiv_pos_site_id
 _symmetry_equiv_pos_as_xyz
  1  'x, y, z'
loop_
 _atom_site_type_symbol
 _atom_site_label
 _atom_site_symmetry_multiplicity
 _atom_site_fract_x
 _atom_site_fract_y
 _atom_site_fract_z
 _atom_site_occupancy
 _atom_site_charge
  Cd  Cd1  1  0.000000  0.000000  0.000000  1.0  0.982
  Cd  Cd2  1  0.500000  0.500000  0.000000  1.0  0.982
  Cd  Cd3  1  0.140040  0.500000  0.556350  1.0  1.0018
  Cd  Cd4  1  0.640040  0.000000  0.556350  1.0  1.0018
  Cd  Cd5  1  0.859960  0.500000  0.443650  1.0  1.0018
  Cd  Cd6  1  0.359960  0.000000  0.443650  1.0  1.0018
  Cu  Cu7  1  0.046890  0.500000  0.004840  1.0  0.464
  Cu  Cu8  1  0.546890  0.000000  0.004840  1.0  0.464
  Cu  Cu9  1  0.953110  0.500000  0.995160  1.0  0.4657
  Cu  Cu10  1  0.453110  0.000000  0.995160  1.0  0.4657
  Cu  Cu11  1  0.164890  0.000000  0.445740  1.0  0.4516
  Cu  Cu12  1  0.148670  0.000000  0.705160  1.0  0.4591
  Cu  Cu13  1  0.664890  0.500000  0.445740  1.0  0.4516
  Cu  Cu14  1  0.648670  0.500000  0.705160  1.0  0.4591
  Cu  Cu15  1  0.835110  0.000000  0.554260  1.0  0.4516
  Cu  Cu16  1  0.851330  0.000000  0.294840  1.0  0.4582
  Cu  Cu17  1  0.335110  0.500000  0.554260  1.0  0.4516
  Cu  Cu18  1  0.351330  0.500000  0.294840  1.0  0.4582
  C  C19  1  0.149840  0.165100  0.578600  1.0  0.0225
  C  C20  1  0.649840  0.665100  0.578600  1.0  0.0225
  C  C21  1  0.850160  0.165100  0.421400  1.0  0.0233
  C  C22  1  0.350160  0.665100  0.421400  1.0  0.0233
  C  C23  1  0.850160  0.834900  0.421400  1.0  0.0255
  C  C24  1  0.350160  0.334900  0.421400  1.0  0.0255
  C  C25  1  0.149840  0.834900  0.578600  1.0  0.025
  C  C26  1  0.649840  0.334900  0.578600  1.0  0.025
  C  C27  1  0.082900  0.500000  0.209800  1.0  0.0859
  C  C28  1  0.080800  0.500000  0.839100  1.0  0.1306
  C  C29  1  0.582900  0.000000  0.209800  1.0  0.0859
  C  C30  1  0.580800  0.000000  0.839100  1.0  0.1306
  C  C31  1  0.917100  0.500000  0.790200  1.0  0.0865
  C  C32  1  0.919200  0.500000  0.160900  1.0  0.1314
  C  C33  1  0.417100  0.000000  0.790200  1.0  0.0865
  C  C34  1  0.419200  0.000000  0.160900  1.0  0.1314
  C  C35  1  0.235800  0.000000  0.444800  1.0  0.1133
  C  C36  1  0.208300  0.000000  0.866700  1.0  0.1386
  C  C37  1  0.111400  0.000000  0.272400  1.0  0.0429
  C  C38  1  0.085000  0.000000  0.774300  1.0  0.1095
  C  C39  1  0.735800  0.500000  0.444800  1.0  0.1133
  C  C40  1  0.708300  0.500000  0.866700  1.0  0.1386
  C  C41  1  0.611400  0.500000  0.272400  1.0  0.0429
  C  C42  1  0.585000  0.500000  0.774300  1.0  0.1095
  C  C43  1  0.764200  0.000000  0.555200  1.0  0.1136
  C  C44  1  0.791700  0.000000  0.133300  1.0  0.1391
  C  C45  1  0.888600  0.000000  0.727600  1.0  0.0423
  C  C46  1  0.915000  0.000000  0.225700  1.0  0.1084
  C  C47  1  0.264200  0.500000  0.555200  1.0  0.1136
  C  C48  1  0.291700  0.500000  0.133300  1.0  0.1391
  C  C49  1  0.388600  0.500000  0.727600  1.0  0.0423
  C  C50  1  0.415000  0.500000  0.225700  1.0  0.1084
  C  C51  1  0.000000  0.332500  0.000000  1.0  0.0954
  C  C52  1  0.500000  0.832500  0.000000  1.0  0.0954
  C  C53  1  0.000000  0.667500  0.000000  1.0  0.0951
  C  C54  1  0.500000  0.167500  0.000000  1.0  0.0951
  N  N55  1  0.146280  0.272400  0.573100  1.0  -0.3844
  N  N56  1  0.646280  0.772400  0.573100  1.0  -0.3844
  N  N57  1  0.853720  0.272400  0.426900  1.0  -0.3841
  N  N58  1  0.353720  0.772400  0.426900  1.0  -0.3841
  N  N59  1  0.853720  0.727600  0.426900  1.0  -0.382
  N  N60  1  0.353720  0.227600  0.426900  1.0  -0.382
  N  N61  1  0.146280  0.727600  0.573100  1.0  -0.382
  N  N62  1  0.646280  0.227600  0.573100  1.0  -0.382
  N  N63  1  0.099300  0.500000  0.329900  1.0  -0.395
  N  N64  1  0.101800  0.500000  0.745800  1.0  -0.4218
  N  N65  1  0.599300  0.000000  0.329900  1.0  -0.395
  N  N66  1  0.601800  0.000000  0.745800  1.0  -0.4218
  N  N67  1  0.900700  0.500000  0.670100  1.0  -0.3967
  N  N68  1  0.898200  0.500000  0.254200  1.0  -0.4236
  N  N69  1  0.400700  0.000000  0.670100  1.0  -0.3967
  N  N70  1  0.398200  0.000000  0.254200  1.0  -0.4236
  N  N71  1  0.277800  0.000000  0.437500  1.0  -0.3976
  N  N72  1  0.241100  0.000000  0.964400  1.0  -0.4079
  N  N73  1  0.076500  0.000000  0.179000  1.0  -0.4228
  N  N74  1  0.050400  0.000000  0.824500  1.0  -0.4016
  N  N75  1  0.777800  0.500000  0.437500  1.0  -0.3976
  N  N76  1  0.741100  0.500000  0.964400  1.0  -0.4079
  N  N77  1  0.576500  0.500000  0.179000  1.0  -0.4228
  N  N78  1  0.550400  0.500000  0.824500  1.0  -0.4016
  N  N79  1  0.722200  0.000000  0.562500  1.0  -0.3984
  N  N80  1  0.758900  0.000000  0.035600  1.0  -0.407
  N  N81  1  0.923500  0.000000  0.821000  1.0  -0.4242
  N  N82  1  0.949600  0.000000  0.175500  1.0  -0.4009
  N  N83  1  0.222200  0.500000  0.562500  1.0  -0.3984
  N  N84  1  0.258900  0.500000  0.035600  1.0  -0.407
  N  N85  1  0.423500  0.500000  0.821000  1.0  -0.4242
  N  N86  1  0.449600  0.500000  0.175500  1.0  -0.4009
  N  N87  1  0.000000  0.223200  0.000000  1.0  -0.4175
  N  N88  1  0.500000  0.723200  0.000000  1.0  -0.4175
  N  N89  1  0.000000  0.776800  0.000000  1.0  -0.417
  N  N90  1  0.500000  0.276800  0.000000  1.0  -0.417
