# generated using pymatgen
data_CuH28C36N8ClO4
_symmetry_space_group_name_H-M   'P 1'
_cell_length_a   21.61450000
_cell_length_b   21.61450000
_cell_length_c   5.16780000
_cell_angle_alpha   90.00000000
_cell_angle_beta   90.00000000
_cell_angle_gamma   90.00000000
_symmetry_Int_Tables_number   1
_chemical_formula_structural   CuH28C36N8ClO4
_chemical_formula_sum   'Cu2 H56 C72 N16 Cl2 O8'
_cell_volume   2414.32696445
_cell_formula_units_Z   2
loop_
 _symmetry_equiv_pos_site_id
 _symmetry_equiv_pos_as_xyz
  1  'x, y, z'
loop_
 _atom_site_type_symbol
 _atom_site_label
 _atom_site_symmetry_multiplicity
 _atom_site_fract_x
 _atom_site_fract_y
 _atom_site_fract_z
 _atom_site_occupancy
 _atom_site_charge
  Cu  Cu1  1  0.000000  0.000000  0.704300  1.0  0.6534
  Cu  Cu2  1  0.500000  0.500000  0.704300  1.0  0.6534
  H  H3  1  0.881200  0.015900  0.420900  1.0  0.0616
  H  H4  1  0.781600  0.975300  0.402600  1.0  0.1078
  H  H5  1  0.754500  0.896500  0.690500  1.0  0.1062
  H  H6  1  0.925200  0.906200  0.989900  1.0  0.0713
  H  H7  1  0.781000  0.838600  0.063700  1.0  0.2708
  H  H8  1  0.890600  0.740900  0.580100  1.0  0.0934
  H  H9  1  0.118800  0.984100  0.420900  1.0  0.0615
  H  H10  1  0.218400  0.024700  0.402600  1.0  0.1084
  H  H11  1  0.245500  0.103500  0.690500  1.0  0.1065
  H  H12  1  0.074800  0.093800  0.989900  1.0  0.0709
  H  H13  1  0.219000  0.161400  0.063700  1.0  0.2713
  H  H14  1  0.109400  0.259100  0.580100  1.0  0.0936
  H  H15  1  0.984100  0.881200  0.420900  1.0  0.0614
  H  H16  1  0.024700  0.781600  0.402600  1.0  0.109
  H  H17  1  0.103500  0.754500  0.690500  1.0  0.106
  H  H18  1  0.093800  0.925200  0.989900  1.0  0.0709
  H  H19  1  0.161400  0.781000  0.063700  1.0  0.269
  H  H20  1  0.259100  0.890600  0.580100  1.0  0.0936
  H  H21  1  0.015900  0.118800  0.420900  1.0  0.0614
  H  H22  1  0.975300  0.218400  0.402600  1.0  0.1104
  H  H23  1  0.896500  0.245500  0.690500  1.0  0.1059
  H  H24  1  0.906200  0.074800  0.989900  1.0  0.072
  H  H25  1  0.838600  0.219000  0.063700  1.0  0.2669
  H  H26  1  0.740900  0.109400  0.580100  1.0  0.0932
  H  H27  1  0.381200  0.484100  0.420900  1.0  0.0614
  H  H28  1  0.281600  0.524700  0.402600  1.0  0.1073
  H  H29  1  0.254500  0.603500  0.690500  1.0  0.1059
  H  H30  1  0.425200  0.593800  0.989900  1.0  0.0709
  H  H31  1  0.281000  0.661400  0.063700  1.0  0.2712
  H  H32  1  0.390600  0.759100  0.580100  1.0  0.0935
  H  H33  1  0.618800  0.515900  0.420900  1.0  0.0617
  H  H34  1  0.718400  0.475300  0.402600  1.0  0.1087
  H  H35  1  0.745500  0.396500  0.690500  1.0  0.1065
  H  H36  1  0.574800  0.406200  0.989900  1.0  0.071
  H  H37  1  0.719000  0.338600  0.063700  1.0  0.2707
  H  H38  1  0.609400  0.240900  0.580100  1.0  0.0936
  H  H39  1  0.484100  0.618800  0.420900  1.0  0.0613
  H  H40  1  0.524700  0.718400  0.402600  1.0  0.1105
  H  H41  1  0.603500  0.745500  0.690500  1.0  0.106
  H  H42  1  0.593800  0.574800  0.989900  1.0  0.0715
  H  H43  1  0.661400  0.719000  0.063700  1.0  0.2677
  H  H44  1  0.759100  0.609400  0.580100  1.0  0.0937
  H  H45  1  0.515900  0.381200  0.420900  1.0  0.0614
  H  H46  1  0.475300  0.281600  0.402600  1.0  0.109
  H  H47  1  0.396500  0.254500  0.690500  1.0  0.1057
  H  H48  1  0.406200  0.425200  0.989900  1.0  0.0713
  H  H49  1  0.338600  0.281000  0.063700  1.0  0.2686
  H  H50  1  0.240900  0.390600  0.580100  1.0  0.0934
  H  H51  1  0.757900  0.742100  0.039500  1.0  0.088
  H  H52  1  0.845900  0.654100  0.766800  1.0  0.0898
  H  H53  1  0.242100  0.257900  0.039500  1.0  0.0879
  H  H54  1  0.154100  0.345900  0.766800  1.0  0.0912
  H  H55  1  0.257900  0.757900  0.039500  1.0  0.088
  H  H56  1  0.345900  0.845900  0.766800  1.0  0.0899
  H  H57  1  0.742100  0.242100  0.039500  1.0  0.0879
  H  H58  1  0.654100  0.154100  0.766800  1.0  0.0911
  C  C59  1  0.870160  0.984290  0.533800  1.0  0.1296
  C  C60  1  0.810050  0.960250  0.522000  1.0  -0.1332
  C  C61  1  0.794070  0.913330  0.693500  1.0  -0.1576
  C  C62  1  0.837620  0.891760  0.869100  1.0  0.1771
  C  C63  1  0.896130  0.919160  0.868800  1.0  0.1281
  C  C64  1  0.859030  0.804820  0.163900  1.0  0.527
  C  C65  1  0.827850  0.751420  0.294100  1.0  -0.0882
  C  C66  1  0.854790  0.724100  0.509200  1.0  -0.0723
  C  C67  1  0.129840  0.015710  0.533800  1.0  0.1288
  C  C68  1  0.189950  0.039750  0.522000  1.0  -0.1312
  C  C69  1  0.205930  0.086670  0.693500  1.0  -0.1594
  C  C70  1  0.162380  0.108240  0.869100  1.0  0.1773
  C  C71  1  0.103870  0.080840  0.868800  1.0  0.1281
  C  C72  1  0.140970  0.195180  0.163900  1.0  0.5261
  C  C73  1  0.172150  0.248580  0.294100  1.0  -0.088
  C  C74  1  0.145210  0.275900  0.509200  1.0  -0.0736
  C  C75  1  0.015710  0.870160  0.533800  1.0  0.1299
  C  C76  1  0.039750  0.810050  0.522000  1.0  -0.1312
  C  C77  1  0.086670  0.794070  0.693500  1.0  -0.1626
  C  C78  1  0.108240  0.837620  0.869100  1.0  0.1756
  C  C79  1  0.080840  0.896130  0.868800  1.0  0.1306
  C  C80  1  0.195180  0.859030  0.163900  1.0  0.5283
  C  C81  1  0.248580  0.827850  0.294100  1.0  -0.0884
  C  C82  1  0.275900  0.854790  0.509200  1.0  -0.0724
  C  C83  1  0.984290  0.129840  0.533800  1.0  0.1296
  C  C84  1  0.960250  0.189950  0.522000  1.0  -0.127
  C  C85  1  0.913330  0.205930  0.693500  1.0  -0.1594
  C  C86  1  0.891760  0.162380  0.869100  1.0  0.1752
  C  C87  1  0.919160  0.103870  0.868800  1.0  0.1296
  C  C88  1  0.804820  0.140970  0.163900  1.0  0.5278
  C  C89  1  0.751420  0.172150  0.294100  1.0  -0.0886
  C  C90  1  0.724100  0.145210  0.509200  1.0  -0.0725
  C  C91  1  0.370160  0.515710  0.533800  1.0  0.1289
  C  C92  1  0.310050  0.539750  0.522000  1.0  -0.1328
  C  C93  1  0.294070  0.586670  0.693500  1.0  -0.1584
  C  C94  1  0.337620  0.608240  0.869100  1.0  0.1771
  C  C95  1  0.396130  0.580840  0.868800  1.0  0.1279
  C  C96  1  0.359030  0.695180  0.163900  1.0  0.527
  C  C97  1  0.327850  0.748580  0.294100  1.0  -0.0884
  C  C98  1  0.354790  0.775900  0.509200  1.0  -0.0712
  C  C99  1  0.629840  0.484290  0.533800  1.0  0.1294
  C  C100  1  0.689950  0.460250  0.522000  1.0  -0.1312
  C  C101  1  0.705930  0.413330  0.693500  1.0  -0.16
  C  C102  1  0.662380  0.391760  0.869100  1.0  0.1773
  C  C103  1  0.603870  0.419160  0.868800  1.0  0.1285
  C  C104  1  0.640970  0.304820  0.163900  1.0  0.5258
  C  C105  1  0.672150  0.251420  0.294100  1.0  -0.0877
  C  C106  1  0.645210  0.224100  0.509200  1.0  -0.0711
  C  C107  1  0.515710  0.629840  0.533800  1.0  0.1297
  C  C108  1  0.539750  0.689950  0.522000  1.0  -0.1287
  C  C109  1  0.586670  0.705930  0.693500  1.0  -0.159
  C  C110  1  0.608240  0.662380  0.869100  1.0  0.175
  C  C111  1  0.580840  0.603870  0.868800  1.0  0.1297
  C  C112  1  0.695180  0.640970  0.163900  1.0  0.5281
  C  C113  1  0.748580  0.672150  0.294100  1.0  -0.0891
  C  C114  1  0.775900  0.645210  0.509200  1.0  -0.0702
  C  C115  1  0.484290  0.370160  0.533800  1.0  0.1296
  C  C116  1  0.460250  0.310050  0.522000  1.0  -0.1307
  C  C117  1  0.413330  0.294070  0.693500  1.0  -0.1618
  C  C118  1  0.391760  0.337620  0.869100  1.0  0.1758
  C  C119  1  0.419160  0.396130  0.868800  1.0  0.1302
  C  C120  1  0.304820  0.359030  0.163900  1.0  0.5289
  C  C121  1  0.251420  0.327850  0.294100  1.0  -0.088
  C  C122  1  0.224100  0.354790  0.509200  1.0  -0.0712
  C  C123  1  0.775410  0.724590  0.186600  1.0  -0.1089
  C  C124  1  0.828500  0.671500  0.619600  1.0  -0.1467
  C  C125  1  0.224590  0.275410  0.186600  1.0  -0.109
  C  C126  1  0.171500  0.328500  0.619600  1.0  -0.1443
  C  C127  1  0.275410  0.775410  0.186600  1.0  -0.1088
  C  C128  1  0.328500  0.828500  0.619600  1.0  -0.1452
  C  C129  1  0.724590  0.224590  0.186600  1.0  -0.109
  C  C130  1  0.671500  0.171500  0.619600  1.0  -0.1461
  N  N131  1  0.911900  0.963460  0.700300  1.0  -0.3143
  N  N132  1  0.819990  0.843740  0.038000  1.0  -0.37
  N  N133  1  0.088100  0.036540  0.700300  1.0  -0.3156
  N  N134  1  0.180010  0.156260  0.038000  1.0  -0.3687
  N  N135  1  0.036540  0.911900  0.700300  1.0  -0.3152
  N  N136  1  0.156260  0.819990  0.038000  1.0  -0.3743
  N  N137  1  0.963460  0.088100  0.700300  1.0  -0.3136
  N  N138  1  0.843740  0.180010  0.038000  1.0  -0.3754
  N  N139  1  0.411900  0.536540  0.700300  1.0  -0.314
  N  N140  1  0.319990  0.656260  0.038000  1.0  -0.3698
  N  N141  1  0.588100  0.463460  0.700300  1.0  -0.3156
  N  N142  1  0.680010  0.343740  0.038000  1.0  -0.369
  N  N143  1  0.536540  0.588100  0.700300  1.0  -0.3148
  N  N144  1  0.656260  0.680010  0.038000  1.0  -0.374
  N  N145  1  0.463460  0.411900  0.700300  1.0  -0.3141
  N  N146  1  0.343740  0.319990  0.038000  1.0  -0.3752
  Cl  Cl147  1  0.000000  0.000000  0.201600  1.0  -0.4955
  Cl  Cl148  1  0.500000  0.500000  0.201600  1.0  -0.4955
  O  O149  1  0.915410  0.810790  0.170800  1.0  -0.5371
  O  O150  1  0.084590  0.189210  0.170800  1.0  -0.5385
  O  O151  1  0.189210  0.915410  0.170800  1.0  -0.5357
  O  O152  1  0.810790  0.084590  0.170800  1.0  -0.5367
  O  O153  1  0.415410  0.689210  0.170800  1.0  -0.5367
  O  O154  1  0.584590  0.310790  0.170800  1.0  -0.5382
  O  O155  1  0.689210  0.584590  0.170800  1.0  -0.536
  O  O156  1  0.310790  0.415410  0.170800  1.0  -0.5371
