# generated using pymatgen
data_CuH28C36Br(N2O)4
_symmetry_space_group_name_H-M   'P 1'
_cell_length_a   20.65800000
_cell_length_b   20.65800000
_cell_length_c   5.61170000
_cell_angle_alpha   90.00000000
_cell_angle_beta   90.00000000
_cell_angle_gamma   90.00000000
_symmetry_Int_Tables_number   1
_chemical_formula_structural   CuH28C36Br(N2O)4
_chemical_formula_sum   'Cu2 H56 C72 Br2 N16 O8'
_cell_volume   2394.80960808
_cell_formula_units_Z   2
loop_
 _symmetry_equiv_pos_site_id
 _symmetry_equiv_pos_as_xyz
  1  'x, y, z'
loop_
 _atom_site_type_symbol
 _atom_site_label
 _atom_site_symmetry_multiplicity
 _atom_site_fract_x
 _atom_site_fract_y
 _atom_site_fract_z
 _atom_site_occupancy
 _atom_site_charge
  Cu  Cu1  1  0.250000  0.250000  0.210200  1.0  0.6274
  Cu  Cu2  1  0.750000  0.750000  0.789800  1.0  0.6271
  H  H3  1  0.130000  0.280400  0.938300  1.0  0.0637
  H  H4  1  0.024000  0.253800  0.923900  1.0  0.1082
  H  H5  1  0.981500  0.179400  0.198600  1.0  0.1261
  H  H6  1  0.159000  0.165100  0.474000  1.0  0.0779
  H  H7  1  0.999000  0.126200  0.569800  1.0  0.289
  H  H8  1  0.104800  0.030200  0.082500  1.0  0.0817
  H  H9  1  0.950600  0.036800  0.659500  1.0  0.108
  H  H10  1  0.370000  0.219600  0.938300  1.0  0.0632
  H  H11  1  0.476000  0.246200  0.923900  1.0  0.108
  H  H12  1  0.518500  0.320600  0.198600  1.0  0.1256
  H  H13  1  0.341000  0.334900  0.474000  1.0  0.0777
  H  H14  1  0.501000  0.373800  0.569800  1.0  0.2873
  H  H15  1  0.395200  0.469800  0.082500  1.0  0.082
  H  H16  1  0.549400  0.463200  0.659500  1.0  0.1085
  H  H17  1  0.219600  0.130000  0.938300  1.0  0.0629
  H  H18  1  0.246200  0.024000  0.923900  1.0  0.1079
  H  H19  1  0.320600  0.981500  0.198600  1.0  0.1238
  H  H20  1  0.334900  0.159000  0.474000  1.0  0.0786
  H  H21  1  0.373800  0.999000  0.569800  1.0  0.2871
  H  H22  1  0.469800  0.104800  0.082500  1.0  0.0818
  H  H23  1  0.463200  0.950600  0.659500  1.0  0.1091
  H  H24  1  0.280400  0.370000  0.938300  1.0  0.0635
  H  H25  1  0.253800  0.476000  0.923900  1.0  0.1084
  H  H26  1  0.179400  0.518500  0.198600  1.0  0.1238
  H  H27  1  0.165100  0.341000  0.474000  1.0  0.0787
  H  H28  1  0.126200  0.501000  0.569800  1.0  0.2863
  H  H29  1  0.030200  0.395200  0.082500  1.0  0.0819
  H  H30  1  0.036800  0.549400  0.659500  1.0  0.1091
  H  H31  1  0.870000  0.719600  0.061700  1.0  0.0635
  H  H32  1  0.976000  0.746200  0.076100  1.0  0.1084
  H  H33  1  0.018500  0.820600  0.801400  1.0  0.1253
  H  H34  1  0.841000  0.834900  0.526000  1.0  0.0781
  H  H35  1  0.001000  0.873800  0.430200  1.0  0.2872
  H  H36  1  0.895200  0.969800  0.917500  1.0  0.0816
  H  H37  1  0.049400  0.963200  0.340500  1.0  0.1083
  H  H38  1  0.630000  0.780400  0.061700  1.0  0.0633
  H  H39  1  0.524000  0.753800  0.076100  1.0  0.1082
  H  H40  1  0.481500  0.679400  0.801400  1.0  0.126
  H  H41  1  0.659000  0.665100  0.526000  1.0  0.0776
  H  H42  1  0.499000  0.626200  0.430200  1.0  0.2884
  H  H43  1  0.604800  0.530200  0.917500  1.0  0.0817
  H  H44  1  0.450600  0.536800  0.340500  1.0  0.1082
  H  H45  1  0.780400  0.870000  0.061700  1.0  0.0636
  H  H46  1  0.753800  0.976000  0.076100  1.0  0.1079
  H  H47  1  0.679400  0.018500  0.801400  1.0  0.1237
  H  H48  1  0.665100  0.841000  0.526000  1.0  0.0785
  H  H49  1  0.626200  0.001000  0.430200  1.0  0.2863
  H  H50  1  0.530200  0.895200  0.917500  1.0  0.0817
  H  H51  1  0.536800  0.049400  0.340500  1.0  0.1088
  H  H52  1  0.719600  0.630000  0.061700  1.0  0.0631
  H  H53  1  0.746200  0.524000  0.076100  1.0  0.1085
  H  H54  1  0.820600  0.481500  0.801400  1.0  0.124
  H  H55  1  0.834900  0.659000  0.526000  1.0  0.0787
  H  H56  1  0.873800  0.499000  0.430200  1.0  0.2863
  H  H57  1  0.969800  0.604800  0.917500  1.0  0.0818
  H  H58  1  0.963200  0.450600  0.340500  1.0  0.1092
  C  C59  1  0.113900  0.250700  0.047800  1.0  0.1662
  C  C60  1  0.050600  0.235200  0.039000  1.0  -0.1895
  C  C61  1  0.024900  0.191000  0.203000  1.0  -0.1864
  C  C62  1  0.066200  0.165400  0.369000  1.0  0.1885
  C  C63  1  0.130700  0.183200  0.363800  1.0  0.1281
  C  C64  1  0.073600  0.081500  0.683200  1.0  0.5113
  C  C65  1  0.035000  0.039900  0.846800  1.0  -0.0097
  C  C66  1  0.062500  0.018200  0.047000  1.0  -0.0848
  C  C67  1  0.970800  0.021900  0.797000  1.0  -0.1668
  C  C68  1  0.386100  0.249300  0.047800  1.0  0.1676
  C  C69  1  0.449400  0.264800  0.039000  1.0  -0.1845
  C  C70  1  0.475100  0.309000  0.203000  1.0  -0.1844
  C  C71  1  0.433800  0.334600  0.369000  1.0  0.1884
  C  C72  1  0.369300  0.316800  0.363800  1.0  0.1296
  C  C73  1  0.426400  0.418500  0.683200  1.0  0.5082
  C  C74  1  0.465000  0.460100  0.846800  1.0  -0.0094
  C  C75  1  0.437500  0.481800  0.047000  1.0  -0.0846
  C  C76  1  0.529200  0.478100  0.797000  1.0  -0.1689
  C  C77  1  0.249300  0.113900  0.047800  1.0  0.168
  C  C78  1  0.264800  0.050600  0.039000  1.0  -0.1854
  C  C79  1  0.309000  0.024900  0.203000  1.0  -0.1893
  C  C80  1  0.334600  0.066200  0.369000  1.0  0.1885
  C  C81  1  0.316800  0.130700  0.363800  1.0  0.1317
  C  C82  1  0.418500  0.073600  0.683200  1.0  0.5078
  C  C83  1  0.460100  0.035000  0.846800  1.0  -0.0094
  C  C84  1  0.481800  0.062500  0.047000  1.0  -0.0848
  C  C85  1  0.478100  0.970800  0.797000  1.0  -0.1703
  C  C86  1  0.250700  0.386100  0.047800  1.0  0.1673
  C  C87  1  0.235200  0.449400  0.039000  1.0  -0.184
  C  C88  1  0.191000  0.475100  0.203000  1.0  -0.1829
  C  C89  1  0.165400  0.433800  0.369000  1.0  0.1882
  C  C90  1  0.183200  0.369300  0.363800  1.0  0.13
  C  C91  1  0.081500  0.426400  0.683200  1.0  0.5081
  C  C92  1  0.039900  0.465000  0.846800  1.0  -0.0092
  C  C93  1  0.018200  0.437500  0.047000  1.0  -0.0862
  C  C94  1  0.021900  0.529200  0.797000  1.0  -0.1704
  C  C95  1  0.886100  0.749300  0.952200  1.0  0.1678
  C  C96  1  0.949400  0.764800  0.961000  1.0  -0.1842
  C  C97  1  0.975100  0.809000  0.797000  1.0  -0.1838
  C  C98  1  0.933800  0.834600  0.631000  1.0  0.1888
  C  C99  1  0.869300  0.816800  0.636200  1.0  0.1287
  C  C100  1  0.926400  0.918500  0.316800  1.0  0.5074
  C  C101  1  0.965000  0.960100  0.153200  1.0  -0.0087
  C  C102  1  0.937500  0.981800  0.953000  1.0  -0.0844
  C  C103  1  0.029200  0.978100  0.203000  1.0  -0.168
  C  C104  1  0.613900  0.750700  0.952200  1.0  0.1659
  C  C105  1  0.550600  0.735200  0.961000  1.0  -0.1909
  C  C106  1  0.524900  0.691000  0.797000  1.0  -0.1863
  C  C107  1  0.566200  0.665400  0.631000  1.0  0.1887
  C  C108  1  0.630700  0.683200  0.636200  1.0  0.1272
  C  C109  1  0.573600  0.581500  0.316800  1.0  0.5098
  C  C110  1  0.535000  0.539900  0.153200  1.0  -0.0091
  C  C111  1  0.562500  0.518200  0.953000  1.0  -0.0848
  C  C112  1  0.470800  0.521900  0.203000  1.0  -0.1659
  C  C113  1  0.750700  0.886100  0.952200  1.0  0.167
  C  C114  1  0.735200  0.949400  0.961000  1.0  -0.1839
  C  C115  1  0.691000  0.975100  0.797000  1.0  -0.1821
  C  C116  1  0.665400  0.933800  0.631000  1.0  0.1885
  C  C117  1  0.683200  0.869300  0.636200  1.0  0.1289
  C  C118  1  0.581500  0.926400  0.316800  1.0  0.5088
  C  C119  1  0.539900  0.965000  0.153200  1.0  -0.0087
  C  C120  1  0.518200  0.937500  0.953000  1.0  -0.086
  C  C121  1  0.521900  0.029200  0.203000  1.0  -0.1707
  C  C122  1  0.749300  0.613900  0.952200  1.0  0.1674
  C  C123  1  0.764800  0.550600  0.961000  1.0  -0.1868
  C  C124  1  0.809000  0.524900  0.797000  1.0  -0.1895
  C  C125  1  0.834600  0.566200  0.631000  1.0  0.1888
  C  C126  1  0.816800  0.630700  0.636200  1.0  0.1311
  C  C127  1  0.918500  0.573600  0.316800  1.0  0.5071
  C  C128  1  0.960100  0.535000  0.153200  1.0  -0.0087
  C  C129  1  0.981800  0.562500  0.953000  1.0  -0.0847
  C  C130  1  0.978100  0.470800  0.203000  1.0  -0.1692
  Br  Br131  1  0.250000  0.250000  0.707600  1.0  -0.44
  Br  Br132  1  0.750000  0.750000  0.292400  1.0  -0.4398
  N  N133  1  0.153600  0.225800  0.204300  1.0  -0.3193
  N  N134  1  0.040100  0.124100  0.546500  1.0  -0.3807
  N  N135  1  0.346400  0.274200  0.204300  1.0  -0.3194
  N  N136  1  0.459900  0.375900  0.546500  1.0  -0.3796
  N  N137  1  0.274200  0.153600  0.204300  1.0  -0.3195
  N  N138  1  0.375900  0.040100  0.546500  1.0  -0.3842
  N  N139  1  0.225800  0.346400  0.204300  1.0  -0.3188
  N  N140  1  0.124100  0.459900  0.546500  1.0  -0.3857
  N  N141  1  0.846400  0.774200  0.795700  1.0  -0.3195
  N  N142  1  0.959900  0.875900  0.453500  1.0  -0.3792
  N  N143  1  0.653600  0.725800  0.795700  1.0  -0.3192
  N  N144  1  0.540100  0.624100  0.453500  1.0  -0.3806
  N  N145  1  0.725800  0.846400  0.795700  1.0  -0.3183
  N  N146  1  0.624100  0.959900  0.453500  1.0  -0.3849
  N  N147  1  0.774200  0.653600  0.795700  1.0  -0.3185
  N  N148  1  0.875900  0.540100  0.453500  1.0  -0.3841
  O  O149  1  0.132500  0.075200  0.677100  1.0  -0.5566
  O  O150  1  0.367500  0.424800  0.677100  1.0  -0.5578
  O  O151  1  0.424800  0.132500  0.677100  1.0  -0.5556
  O  O152  1  0.075200  0.367500  0.677100  1.0  -0.5567
  O  O153  1  0.867500  0.924800  0.322900  1.0  -0.5577
  O  O154  1  0.632500  0.575200  0.322900  1.0  -0.5564
  O  O155  1  0.575200  0.867500  0.322900  1.0  -0.5563
  O  O156  1  0.924800  0.632500  0.322900  1.0  -0.5557
