# generated using pymatgen
data_CdH32C48N3O4
_symmetry_space_group_name_H-M   'P 1'
_cell_length_a   8.83050000
_cell_length_b   19.97870000
_cell_length_c   25.74250000
_cell_angle_alpha   90.00000000
_cell_angle_beta   96.82100000
_cell_angle_gamma   90.00000000
_symmetry_Int_Tables_number   1
_chemical_formula_structural   CdH32C48N3O4
_chemical_formula_sum   'Cd4 H128 C192 N12 O16'
_cell_volume   4509.39620004
_cell_formula_units_Z   4
loop_
 _symmetry_equiv_pos_site_id
 _symmetry_equiv_pos_as_xyz
  1  'x, y, z'
loop_
 _atom_site_type_symbol
 _atom_site_label
 _atom_site_symmetry_multiplicity
 _atom_site_fract_x
 _atom_site_fract_y
 _atom_site_fract_z
 _atom_site_occupancy
 _atom_site_charge
  Cd  Cd1  1  0.274350  0.120890  0.479250  1.0  0.9662
  Cd  Cd2  1  0.725650  0.620890  0.020750  1.0  0.9672
  Cd  Cd3  1  0.725650  0.879110  0.520750  1.0  0.9653
  Cd  Cd4  1  0.274350  0.379110  0.979250  1.0  0.9679
  H  H5  1  0.381500  0.984800  0.538600  1.0  0.0742
  H  H6  1  0.459900  0.941400  0.619300  1.0  0.1068
  H  H7  1  0.404300  0.121700  0.680400  1.0  0.1204
  H  H8  1  0.336700  0.160800  0.598600  1.0  0.074
  H  H9  1  0.411900  0.904500  0.698600  1.0  0.1084
  H  H10  1  0.473000  0.862700  0.781400  1.0  0.123
  H  H11  1  0.629100  0.042600  0.830100  1.0  0.0973
  H  H12  1  0.569600  0.083800  0.746800  1.0  0.1063
  H  H13  1  0.289400  0.938700  0.861000  1.0  0.1084
  H  H14  1  0.107600  0.869900  0.889600  1.0  0.1077
  H  H15  1  0.427400  0.737700  0.939600  1.0  0.0999
  H  H16  1  0.611400  0.805000  0.910100  1.0  0.1162
  H  H17  1  0.994200  0.832000  0.958000  1.0  0.1094
  H  H18  1  0.816300  0.767900  0.992000  1.0  0.0736
  H  H19  1  0.038400  0.605400  0.967300  1.0  0.0716
  H  H20  1  0.224400  0.665300  0.933100  1.0  0.1191
  H  H21  1  0.585300  0.938100  0.965800  1.0  0.0943
  H  H22  1  0.778800  0.971200  0.027700  1.0  0.1086
  H  H23  1  0.045900  0.000400  0.916100  1.0  0.1077
  H  H24  1  0.855700  0.963400  0.855000  1.0  0.1002
  H  H25  1  0.552900  0.328400  0.443000  1.0  0.0924
  H  H26  1  0.741800  0.386000  0.408600  1.0  0.0884
  H  H27  1  0.957600  0.213300  0.386900  1.0  0.1085
  H  H28  1  0.765200  0.156300  0.419900  1.0  0.0867
  H  H29  1  0.168600  0.322000  0.419600  1.0  0.0951
  H  H30  1  0.343900  0.382400  0.380200  1.0  0.097
  H  H31  1  0.273300  0.437000  0.302200  1.0  0.0979
  H  H32  1  0.844600  0.376000  0.305700  1.0  0.1023
  H  H33  1  0.141100  0.524500  0.255600  1.0  0.0939
  H  H34  1  0.065400  0.578300  0.178000  1.0  0.1009
  H  H35  1  0.784300  0.427400  0.134600  1.0  0.0898
  H  H36  1  0.857300  0.374800  0.213600  1.0  0.109
  H  H37  1  0.618500  0.484800  0.961400  1.0  0.0745
  H  H38  1  0.540100  0.441400  0.880700  1.0  0.1067
  H  H39  1  0.595700  0.621700  0.819600  1.0  0.1204
  H  H40  1  0.663300  0.660800  0.901400  1.0  0.0741
  H  H41  1  0.588100  0.404500  0.801400  1.0  0.1084
  H  H42  1  0.527000  0.362700  0.718600  1.0  0.1227
  H  H43  1  0.370900  0.542600  0.669900  1.0  0.0975
  H  H44  1  0.430400  0.583800  0.753200  1.0  0.1066
  H  H45  1  0.710600  0.438700  0.639000  1.0  0.1085
  H  H46  1  0.892400  0.369900  0.610400  1.0  0.1078
  H  H47  1  0.572600  0.237700  0.560400  1.0  0.1003
  H  H48  1  0.388600  0.305000  0.589900  1.0  0.117
  H  H49  1  0.005800  0.332000  0.542000  1.0  0.1092
  H  H50  1  0.183700  0.267900  0.508000  1.0  0.0733
  H  H51  1  0.961600  0.105400  0.532700  1.0  0.0716
  H  H52  1  0.775600  0.165300  0.566900  1.0  0.1195
  H  H53  1  0.414700  0.438100  0.534200  1.0  0.0946
  H  H54  1  0.221200  0.471200  0.472300  1.0  0.1083
  H  H55  1  0.954100  0.500400  0.583900  1.0  0.108
  H  H56  1  0.144300  0.463400  0.645000  1.0  0.0992
  H  H57  1  0.447100  0.828400  0.057000  1.0  0.0928
  H  H58  1  0.258200  0.886000  0.091400  1.0  0.0888
  H  H59  1  0.042400  0.713300  0.113100  1.0  0.1088
  H  H60  1  0.234800  0.656300  0.080100  1.0  0.0866
  H  H61  1  0.831400  0.822000  0.080400  1.0  0.0953
  H  H62  1  0.656100  0.882400  0.119800  1.0  0.098
  H  H63  1  0.726700  0.937000  0.197800  1.0  0.0982
  H  H64  1  0.155400  0.876000  0.194300  1.0  0.1022
  H  H65  1  0.858900  0.024500  0.244400  1.0  0.0939
  H  H66  1  0.934600  0.078300  0.322000  1.0  0.1007
  H  H67  1  0.215700  0.927400  0.365400  1.0  0.0905
  H  H68  1  0.142700  0.874800  0.286400  1.0  0.1094
  H  H69  1  0.618500  0.015200  0.461400  1.0  0.0744
  H  H70  1  0.540100  0.058600  0.380700  1.0  0.1073
  H  H71  1  0.595700  0.878300  0.319600  1.0  0.1205
  H  H72  1  0.663300  0.839200  0.401400  1.0  0.074
  H  H73  1  0.588100  0.095500  0.301400  1.0  0.1078
  H  H74  1  0.527000  0.137300  0.218600  1.0  0.1214
  H  H75  1  0.370900  0.957400  0.169900  1.0  0.0969
  H  H76  1  0.430400  0.916200  0.253200  1.0  0.1072
  H  H77  1  0.710600  0.061300  0.139000  1.0  0.1084
  H  H78  1  0.892400  0.130100  0.110400  1.0  0.1073
  H  H79  1  0.572600  0.262300  0.060400  1.0  0.1004
  H  H80  1  0.388600  0.195000  0.089900  1.0  0.1172
  H  H81  1  0.005800  0.168000  0.042000  1.0  0.1097
  H  H82  1  0.183700  0.232100  0.008000  1.0  0.0731
  H  H83  1  0.961600  0.394600  0.032700  1.0  0.0704
  H  H84  1  0.775600  0.334700  0.066900  1.0  0.1192
  H  H85  1  0.414700  0.061900  0.034200  1.0  0.0945
  H  H86  1  0.221200  0.028800  0.972300  1.0  0.1082
  H  H87  1  0.954100  0.999600  0.083900  1.0  0.1079
  H  H88  1  0.144300  0.036600  0.145000  1.0  0.0992
  H  H89  1  0.447100  0.671600  0.557000  1.0  0.0926
  H  H90  1  0.258200  0.614000  0.591400  1.0  0.0885
  H  H91  1  0.042400  0.786700  0.613100  1.0  0.1088
  H  H92  1  0.234800  0.843700  0.580100  1.0  0.0879
  H  H93  1  0.831400  0.678000  0.580400  1.0  0.0953
  H  H94  1  0.656100  0.617600  0.619800  1.0  0.0984
  H  H95  1  0.726700  0.563000  0.697800  1.0  0.0986
  H  H96  1  0.155400  0.624000  0.694300  1.0  0.1017
  H  H97  1  0.858900  0.475500  0.744400  1.0  0.0943
  H  H98  1  0.934600  0.421700  0.822000  1.0  0.1009
  H  H99  1  0.215700  0.572600  0.865400  1.0  0.0901
  H  H100  1  0.142700  0.625200  0.786400  1.0  0.1085
  H  H101  1  0.381500  0.515200  0.038600  1.0  0.0741
  H  H102  1  0.459900  0.558600  0.119300  1.0  0.1076
  H  H103  1  0.404300  0.378300  0.180400  1.0  0.1207
  H  H104  1  0.336700  0.339200  0.098600  1.0  0.074
  H  H105  1  0.411900  0.595500  0.198600  1.0  0.1086
  H  H106  1  0.473000  0.637300  0.281400  1.0  0.1224
  H  H107  1  0.629100  0.457400  0.330100  1.0  0.0974
  H  H108  1  0.569600  0.416200  0.246800  1.0  0.107
  H  H109  1  0.289400  0.561300  0.361000  1.0  0.1083
  H  H110  1  0.107600  0.630100  0.389600  1.0  0.1078
  H  H111  1  0.427400  0.762300  0.439600  1.0  0.1001
  H  H112  1  0.611400  0.695000  0.410100  1.0  0.1163
  H  H113  1  0.994200  0.668000  0.458000  1.0  0.1102
  H  H114  1  0.816300  0.732100  0.492000  1.0  0.0734
  H  H115  1  0.038400  0.894600  0.467300  1.0  0.0704
  H  H116  1  0.224400  0.834700  0.433100  1.0  0.1191
  H  H117  1  0.585300  0.561900  0.465800  1.0  0.0943
  H  H118  1  0.778800  0.528800  0.527700  1.0  0.1085
  H  H119  1  0.045900  0.499600  0.416100  1.0  0.1077
  H  H120  1  0.855700  0.536600  0.355000  1.0  0.1005
  H  H121  1  0.552900  0.171600  0.943000  1.0  0.0925
  H  H122  1  0.741800  0.114000  0.908600  1.0  0.0884
  H  H123  1  0.957600  0.286700  0.886900  1.0  0.1087
  H  H124  1  0.765200  0.343700  0.919900  1.0  0.0878
  H  H125  1  0.168600  0.178000  0.919600  1.0  0.0951
  H  H126  1  0.343900  0.117600  0.880200  1.0  0.0972
  H  H127  1  0.273300  0.063000  0.802200  1.0  0.0983
  H  H128  1  0.844600  0.124000  0.805700  1.0  0.1024
  H  H129  1  0.141100  0.975500  0.755600  1.0  0.0947
  H  H130  1  0.065400  0.921700  0.678000  1.0  0.1012
  H  H131  1  0.784300  0.072600  0.634600  1.0  0.0901
  H  H132  1  0.857300  0.125200  0.713600  1.0  0.1088
  C  C133  1  0.387200  0.013100  0.567440  1.0  0.1815
  C  C134  1  0.433300  0.986300  0.616180  1.0  -0.2063
  C  C135  1  0.440100  0.025740  0.660040  1.0  0.1036
  C  C136  1  0.401600  0.092700  0.652030  1.0  -0.1921
  C  C137  1  0.360200  0.115600  0.602790  1.0  0.1685
  C  C138  1  0.484800  0.998720  0.713580  1.0  0.0292
  C  C139  1  0.456000  0.932600  0.725000  1.0  -0.1071
  C  C140  1  0.491600  0.907500  0.774690  1.0  -0.1965
  C  C141  1  0.555100  0.948700  0.814770  1.0  0.1862
  C  C142  1  0.584900  0.014600  0.803720  1.0  -0.1742
  C  C143  1  0.549500  0.039200  0.753680  1.0  -0.1235
  C  C144  1  0.468600  0.879100  0.883020  1.0  0.171
  C  C145  1  0.318100  0.898100  0.876990  1.0  -0.1966
  C  C146  1  0.209500  0.857100  0.894610  1.0  -0.137
  C  C147  1  0.249000  0.797030  0.919630  1.0  0.0052
  C  C148  1  0.398900  0.778500  0.924140  1.0  -0.108
  C  C149  1  0.510000  0.818700  0.906360  1.0  -0.2241
  C  C150  1  0.131400  0.756000  0.941290  1.0  0.0911
  C  C151  1  0.006000  0.785700  0.959540  1.0  -0.1969
  C  C152  1  0.899200  0.746800  0.979900  1.0  0.179
  C  C153  1  0.029700  0.651700  0.965470  1.0  0.1792
  C  C154  1  0.142100  0.687500  0.944690  1.0  -0.2139
  C  C155  1  0.700200  0.945800  0.903480  1.0  0.2206
  C  C156  1  0.679300  0.949500  0.955530  1.0  -0.1756
  C  C157  1  0.796100  0.970100  0.992810  1.0  -0.0987
  C  C158  1  0.937400  0.989090  0.979950  1.0  0.0654
  C  C159  1  0.954000  0.986790  0.926980  1.0  -0.1288
  C  C160  1  0.838700  0.965040  0.889970  1.0  -0.1583
  C  C161  1  0.505500  0.197900  0.452340  1.0  0.6537
  C  C162  1  0.633100  0.235720  0.433480  1.0  -0.0585
  C  C163  1  0.632300  0.304800  0.430770  1.0  -0.0513
  C  C164  1  0.746600  0.339500  0.410320  1.0  -0.1045
  C  C165  1  0.868500  0.306570  0.392240  1.0  0.0505
  C  C166  1  0.875100  0.236700  0.397140  1.0  -0.1505
  C  C167  1  0.759400  0.202700  0.417140  1.0  -0.0518
  C  C168  1  0.986400  0.342990  0.367460  1.0  0.0366
  C  C169  1  0.137900  0.345000  0.388740  1.0  -0.1225
  C  C170  1  0.243200  0.380400  0.364860  1.0  -0.0909
  C  C171  1  0.200600  0.413400  0.318080  1.0  -0.112
  C  C172  1  0.051600  0.411700  0.294790  1.0  0.052
  C  C173  1  0.946000  0.376820  0.320440  1.0  -0.1233
  C  C174  1  0.006000  0.445000  0.243770  1.0  0.033
  C  C175  1  0.067100  0.504900  0.231700  1.0  -0.1197
  C  C176  1  0.022300  0.537200  0.184820  1.0  -0.0585
  C  C177  1  0.914300  0.509100  0.148140  1.0  -0.1379
  C  C178  1  0.855100  0.447900  0.159200  1.0  -0.0267
  C  C179  1  0.899600  0.416000  0.206690  1.0  -0.1217
  C  C180  1  0.857200  0.546400  0.099010  1.0  0.6661
  C  C181  1  0.612800  0.513100  0.932560  1.0  0.1822
  C  C182  1  0.566700  0.486300  0.883820  1.0  -0.2074
  C  C183  1  0.559900  0.525740  0.839960  1.0  0.1036
  C  C184  1  0.598400  0.592700  0.847970  1.0  -0.1914
  C  C185  1  0.639800  0.615600  0.897210  1.0  0.168
  C  C186  1  0.515200  0.498720  0.786420  1.0  0.0294
  C  C187  1  0.544000  0.432600  0.775000  1.0  -0.1064
  C  C188  1  0.508400  0.407500  0.725310  1.0  -0.1946
  C  C189  1  0.444900  0.448700  0.685230  1.0  0.1867
  C  C190  1  0.415100  0.514600  0.696280  1.0  -0.1741
  C  C191  1  0.450500  0.539200  0.746320  1.0  -0.1234
  C  C192  1  0.531400  0.379100  0.616980  1.0  0.1712
  C  C193  1  0.681900  0.398100  0.623010  1.0  -0.1974
  C  C194  1  0.790500  0.357100  0.605390  1.0  -0.1374
  C  C195  1  0.751000  0.297030  0.580370  1.0  0.006
  C  C196  1  0.601100  0.278500  0.575860  1.0  -0.1085
  C  C197  1  0.490000  0.318700  0.593640  1.0  -0.2219
  C  C198  1  0.868600  0.256000  0.558710  1.0  0.0915
  C  C199  1  0.994000  0.285700  0.540460  1.0  -0.1962
  C  C200  1  0.100800  0.246800  0.520100  1.0  0.1787
  C  C201  1  0.970300  0.151700  0.534530  1.0  0.18
  C  C202  1  0.857900  0.187500  0.555310  1.0  -0.2114
  C  C203  1  0.299800  0.445800  0.596520  1.0  0.2208
  C  C204  1  0.320700  0.449500  0.544470  1.0  -0.1769
  C  C205  1  0.203900  0.470100  0.507190  1.0  -0.0995
  C  C206  1  0.062600  0.489090  0.520050  1.0  0.066
  C  C207  1  0.046000  0.486790  0.573020  1.0  -0.1285
  C  C208  1  0.161300  0.465040  0.610030  1.0  -0.1596
  C  C209  1  0.494500  0.697900  0.047660  1.0  0.6557
  C  C210  1  0.366900  0.735720  0.066520  1.0  -0.0573
  C  C211  1  0.367700  0.804800  0.069230  1.0  -0.0524
  C  C212  1  0.253400  0.839500  0.089680  1.0  -0.1057
  C  C213  1  0.131500  0.806570  0.107760  1.0  0.0499
  C  C214  1  0.124900  0.736700  0.102860  1.0  -0.1493
  C  C215  1  0.240600  0.702700  0.082860  1.0  -0.0505
  C  C216  1  0.013600  0.842990  0.132540  1.0  0.0365
  C  C217  1  0.862100  0.845000  0.111260  1.0  -0.1207
  C  C218  1  0.756800  0.880400  0.135140  1.0  -0.092
  C  C219  1  0.799400  0.913400  0.181920  1.0  -0.1118
  C  C220  1  0.948400  0.911700  0.205210  1.0  0.0514
  C  C221  1  0.054000  0.876820  0.179560  1.0  -0.1229
  C  C222  1  0.994000  0.945000  0.256230  1.0  0.0333
  C  C223  1  0.932900  0.004900  0.268300  1.0  -0.1194
  C  C224  1  0.977700  0.037200  0.315180  1.0  -0.059
  C  C225  1  0.085700  0.009100  0.351860  1.0  -0.1386
  C  C226  1  0.144900  0.947900  0.340800  1.0  -0.0285
  C  C227  1  0.100400  0.916000  0.293310  1.0  -0.1219
  C  C228  1  0.142800  0.046400  0.400990  1.0  0.666
  C  C229  1  0.612800  0.986900  0.432560  1.0  0.183
  C  C230  1  0.566700  0.013700  0.383820  1.0  -0.2075
  C  C231  1  0.559900  0.974260  0.339960  1.0  0.1035
  C  C232  1  0.598400  0.907300  0.347970  1.0  -0.1906
  C  C233  1  0.639800  0.884400  0.397210  1.0  0.1688
  C  C234  1  0.515200  0.001280  0.286420  1.0  0.0293
  C  C235  1  0.544000  0.067400  0.275000  1.0  -0.1072
  C  C236  1  0.508400  0.092500  0.225310  1.0  -0.1929
  C  C237  1  0.444900  0.051300  0.185230  1.0  0.1865
  C  C238  1  0.415100  0.985400  0.196280  1.0  -0.1739
  C  C239  1  0.450500  0.960800  0.246320  1.0  -0.122
  C  C240  1  0.531400  0.120900  0.116980  1.0  0.1714
  C  C241  1  0.681900  0.101900  0.123010  1.0  -0.1971
  C  C242  1  0.790500  0.142900  0.105390  1.0  -0.137
  C  C243  1  0.751000  0.202970  0.080370  1.0  0.0055
  C  C244  1  0.601100  0.221500  0.075860  1.0  -0.1088
  C  C245  1  0.490000  0.181300  0.093640  1.0  -0.2227
  C  C246  1  0.868600  0.244000  0.058710  1.0  0.0913
  C  C247  1  0.994000  0.214300  0.040460  1.0  -0.1962
  C  C248  1  0.100800  0.253200  0.020100  1.0  0.1785
  C  C249  1  0.970300  0.348300  0.034530  1.0  0.1788
  C  C250  1  0.857900  0.312500  0.055310  1.0  -0.2121
  C  C251  1  0.299800  0.054200  0.096520  1.0  0.2205
  C  C252  1  0.320700  0.050500  0.044470  1.0  -0.177
  C  C253  1  0.203900  0.029900  0.007190  1.0  -0.0987
  C  C254  1  0.062600  0.010910  0.020050  1.0  0.066
  C  C255  1  0.046000  0.013210  0.073020  1.0  -0.1253
  C  C256  1  0.161300  0.034960  0.110030  1.0  -0.1596
  C  C257  1  0.494500  0.802100  0.547660  1.0  0.6559
  C  C258  1  0.366900  0.764280  0.566520  1.0  -0.0574
  C  C259  1  0.367700  0.695200  0.569230  1.0  -0.0525
  C  C260  1  0.253400  0.660500  0.589680  1.0  -0.1051
  C  C261  1  0.131500  0.693430  0.607760  1.0  0.0505
  C  C262  1  0.124900  0.763300  0.602860  1.0  -0.1498
  C  C263  1  0.240600  0.797300  0.582860  1.0  -0.0521
  C  C264  1  0.013600  0.657010  0.632540  1.0  0.0368
  C  C265  1  0.862100  0.655000  0.611260  1.0  -0.1195
  C  C266  1  0.756800  0.619600  0.635140  1.0  -0.0923
  C  C267  1  0.799400  0.586600  0.681920  1.0  -0.1132
  C  C268  1  0.948400  0.588300  0.705210  1.0  0.0508
  C  C269  1  0.054000  0.623180  0.679560  1.0  -0.1226
  C  C270  1  0.994000  0.555000  0.756230  1.0  0.0338
  C  C271  1  0.932900  0.495100  0.768300  1.0  -0.1193
  C  C272  1  0.977700  0.462800  0.815180  1.0  -0.0596
  C  C273  1  0.085700  0.490900  0.851860  1.0  -0.1387
  C  C274  1  0.144900  0.552100  0.840800  1.0  -0.0287
  C  C275  1  0.100400  0.584000  0.793310  1.0  -0.1229
  C  C276  1  0.142800  0.453600  0.900990  1.0  0.6662
  C  C277  1  0.387200  0.486900  0.067440  1.0  0.1817
  C  C278  1  0.433300  0.513700  0.116180  1.0  -0.2061
  C  C279  1  0.440100  0.474260  0.160040  1.0  0.1035
  C  C280  1  0.401600  0.407300  0.152030  1.0  -0.19
  C  C281  1  0.360200  0.384400  0.102790  1.0  0.1689
  C  C282  1  0.484800  0.501280  0.213580  1.0  0.029
  C  C283  1  0.456000  0.567400  0.225000  1.0  -0.1076
  C  C284  1  0.491600  0.592500  0.274690  1.0  -0.195
  C  C285  1  0.555100  0.551300  0.314770  1.0  0.1861
  C  C286  1  0.584900  0.485400  0.303720  1.0  -0.1738
  C  C287  1  0.549500  0.460800  0.253680  1.0  -0.1219
  C  C288  1  0.468600  0.620900  0.383020  1.0  0.1712
  C  C289  1  0.318100  0.601900  0.376990  1.0  -0.1966
  C  C290  1  0.209500  0.642900  0.394610  1.0  -0.1367
  C  C291  1  0.249000  0.702970  0.419630  1.0  0.006
  C  C292  1  0.398900  0.721500  0.424140  1.0  -0.1084
  C  C293  1  0.510000  0.681300  0.406360  1.0  -0.2236
  C  C294  1  0.131400  0.744000  0.441290  1.0  0.0904
  C  C295  1  0.006000  0.714300  0.459540  1.0  -0.1971
  C  C296  1  0.899200  0.753200  0.479900  1.0  0.1789
  C  C297  1  0.029700  0.848300  0.465470  1.0  0.1787
  C  C298  1  0.142100  0.812500  0.444690  1.0  -0.2137
  C  C299  1  0.700200  0.554200  0.403480  1.0  0.2204
  C  C300  1  0.679300  0.550500  0.455530  1.0  -0.1755
  C  C301  1  0.796100  0.529900  0.492810  1.0  -0.098
  C  C302  1  0.937400  0.510910  0.479950  1.0  0.0653
  C  C303  1  0.954000  0.513210  0.426980  1.0  -0.1259
  C  C304  1  0.838700  0.534960  0.389970  1.0  -0.1593
  C  C305  1  0.505500  0.302100  0.952340  1.0  0.6534
  C  C306  1  0.633100  0.264280  0.933480  1.0  -0.0575
  C  C307  1  0.632300  0.195200  0.930770  1.0  -0.0519
  C  C308  1  0.746600  0.160500  0.910320  1.0  -0.1049
  C  C309  1  0.868500  0.193430  0.892240  1.0  0.0507
  C  C310  1  0.875100  0.263300  0.897140  1.0  -0.1494
  C  C311  1  0.759400  0.297300  0.917140  1.0  -0.0518
  C  C312  1  0.986400  0.157010  0.867460  1.0  0.0371
  C  C313  1  0.137900  0.155000  0.888740  1.0  -0.1221
  C  C314  1  0.243200  0.119600  0.864860  1.0  -0.0911
  C  C315  1  0.200600  0.086600  0.818080  1.0  -0.112
  C  C316  1  0.051600  0.088300  0.794790  1.0  0.0517
  C  C317  1  0.946000  0.123180  0.820440  1.0  -0.1231
  C  C318  1  0.006000  0.055000  0.743770  1.0  0.0333
  C  C319  1  0.067100  0.995100  0.731700  1.0  -0.1194
  C  C320  1  0.022300  0.962800  0.684820  1.0  -0.0593
  C  C321  1  0.914300  0.990900  0.648140  1.0  -0.1393
  C  C322  1  0.855100  0.052100  0.659200  1.0  -0.0269
  C  C323  1  0.899600  0.084000  0.706690  1.0  -0.1236
  C  C324  1  0.857200  0.953600  0.599010  1.0  0.6662
  N  N325  1  0.582500  0.922180  0.866310  1.0  -0.1644
  N  N326  1  0.350800  0.076790  0.559500  1.0  -0.3357
  N  N327  1  0.908700  0.680570  0.983170  1.0  -0.3491
  N  N328  1  0.417500  0.422180  0.633690  1.0  -0.1641
  N  N329  1  0.649200  0.576790  0.940500  1.0  -0.3362
  N  N330  1  0.091300  0.180570  0.516830  1.0  -0.349
  N  N331  1  0.417500  0.077820  0.133690  1.0  -0.1637
  N  N332  1  0.649200  0.923210  0.440500  1.0  -0.3354
  N  N333  1  0.091300  0.319430  0.016830  1.0  -0.3484
  N  N334  1  0.582500  0.577820  0.366310  1.0  -0.1642
  N  N335  1  0.350800  0.423210  0.059500  1.0  -0.337
  N  N336  1  0.908700  0.819430  0.483170  1.0  -0.3486
  O  O337  1  0.391300  0.227980  0.463590  1.0  -0.6257
  O  O338  1  0.517300  0.136340  0.456810  1.0  -0.6043
  O  O339  1  0.785500  0.516130  0.061940  1.0  -0.5958
  O  O340  1  0.878900  0.607490  0.098200  1.0  -0.5937
  O  O341  1  0.608700  0.727980  0.036410  1.0  -0.6247
  O  O342  1  0.482700  0.636340  0.043190  1.0  -0.604
  O  O343  1  0.214500  0.016130  0.438060  1.0  -0.5956
  O  O344  1  0.121100  0.107490  0.401800  1.0  -0.5934
  O  O345  1  0.608700  0.772020  0.536410  1.0  -0.6248
  O  O346  1  0.482700  0.863660  0.543190  1.0  -0.6052
  O  O347  1  0.214500  0.483870  0.938060  1.0  -0.597
  O  O348  1  0.121100  0.392510  0.901800  1.0  -0.5945
  O  O349  1  0.391300  0.272020  0.963590  1.0  -0.6257
  O  O350  1  0.517300  0.363660  0.956810  1.0  -0.6061
  O  O351  1  0.785500  0.983870  0.561940  1.0  -0.5957
  O  O352  1  0.878900  0.892510  0.598200  1.0  -0.5945
