# generated using pymatgen
data_ZnH28C43N3O5
_symmetry_space_group_name_H-M   'P 1'
_cell_length_a   13.73550000
_cell_length_b   40.62400000
_cell_length_c   20.83030000
_cell_angle_alpha   90.00000000
_cell_angle_beta   90.00000000
_cell_angle_gamma   90.00000000
_symmetry_Int_Tables_number   1
_chemical_formula_structural   ZnH28C43N3O5
_chemical_formula_sum   'Zn8 H224 C344 N24 O40'
_cell_volume   11623.11892745
_cell_formula_units_Z   8
loop_
 _symmetry_equiv_pos_site_id
 _symmetry_equiv_pos_as_xyz
  1  'x, y, z'
loop_
 _atom_site_type_symbol
 _atom_site_label
 _atom_site_symmetry_multiplicity
 _atom_site_fract_x
 _atom_site_fract_y
 _atom_site_fract_z
 _atom_site_occupancy
 _atom_site_charge
  Zn  Zn1  1  0.732360  0.856040  0.335080  1.0  0.8502
  Zn  Zn2  1  0.767640  0.143960  0.335080  1.0  0.8504
  Zn  Zn3  1  0.232360  0.643960  0.835080  1.0  0.8506
  Zn  Zn4  1  0.267640  0.356040  0.835080  1.0  0.85
  Zn  Zn5  1  0.767640  0.356040  0.164920  1.0  0.8495
  Zn  Zn6  1  0.732360  0.643960  0.164920  1.0  0.8499
  Zn  Zn7  1  0.267640  0.143960  0.664920  1.0  0.8498
  Zn  Zn8  1  0.232360  0.856040  0.664920  1.0  0.8496
  H  H9  1  0.912500  0.893500  0.313200  1.0  0.0963
  H  H10  1  0.024900  0.925100  0.364800  1.0  0.1308
  H  H11  1  0.872900  0.914900  0.523200  1.0  0.1185
  H  H12  1  0.762700  0.885400  0.467500  1.0  0.0882
  H  H13  1  0.143200  0.938000  0.421600  1.0  0.1307
  H  H14  1  0.259600  0.969300  0.473100  1.0  0.1114
  H  H15  1  0.069400  0.988200  0.612800  1.0  0.1277
  H  H16  1  0.957200  0.956600  0.561900  1.0  0.1168
  H  H17  1  0.256900  0.048700  0.662800  1.0  0.1083
  H  H18  1  0.262500  0.048400  0.772500  1.0  0.1183
  H  H19  1  0.244800  0.048700  0.870900  1.0  0.1238
  H  H20  1  0.243800  0.048800  0.980200  1.0  0.1446
  H  H21  1  0.273800  0.031300  0.166200  1.0  0.1181
  H  H22  1  0.169400  0.064400  0.222100  1.0  0.1197
  H  H23  1  0.964000  0.047700  0.090400  1.0  0.1159
  H  H24  1  0.072300  0.017100  0.033300  1.0  0.1182
  H  H25  1  0.037700  0.065200  0.291500  1.0  0.1271
  H  H26  1  0.930200  0.096600  0.351000  1.0  0.0908
  H  H27  1  0.800300  0.126800  0.197200  1.0  0.0851
  H  H28  1  0.900900  0.096800  0.132700  1.0  0.1383
  H  H29  1  0.482600  0.843100  0.517100  1.0  0.0829
  H  H30  1  0.410400  0.808000  0.587900  1.0  0.1164
  H  H31  1  0.582900  0.737800  0.529900  1.0  0.1728
  H  H32  1  0.655100  0.772500  0.456800  1.0  0.1289
  H  H33  1  0.316700  0.771400  0.624300  1.0  0.1194
  H  H34  1  0.246400  0.735000  0.696600  1.0  0.1213
  H  H35  1  0.472300  0.673300  0.674000  1.0  0.1342
  H  H36  1  0.542600  0.709600  0.601700  1.0  0.1305
  H  H37  1  0.587500  0.106500  0.313200  1.0  0.0961
  H  H38  1  0.475100  0.074900  0.364800  1.0  0.1302
  H  H39  1  0.627100  0.085100  0.523200  1.0  0.1181
  H  H40  1  0.737300  0.114600  0.467500  1.0  0.0885
  H  H41  1  0.356800  0.062000  0.421600  1.0  0.1304
  H  H42  1  0.240400  0.030700  0.473100  1.0  0.1114
  H  H43  1  0.430600  0.011800  0.612800  1.0  0.1273
  H  H44  1  0.542800  0.043400  0.561900  1.0  0.1169
  H  H45  1  0.243100  0.951300  0.662800  1.0  0.1083
  H  H46  1  0.237500  0.951600  0.772500  1.0  0.1181
  H  H47  1  0.255200  0.951300  0.870900  1.0  0.1239
  H  H48  1  0.256200  0.951200  0.980200  1.0  0.1443
  H  H49  1  0.226200  0.968700  0.166200  1.0  0.1186
  H  H50  1  0.330600  0.935600  0.222100  1.0  0.1202
  H  H51  1  0.536000  0.952300  0.090400  1.0  0.1155
  H  H52  1  0.427700  0.982900  0.033300  1.0  0.1181
  H  H53  1  0.462300  0.934800  0.291500  1.0  0.1277
  H  H54  1  0.569800  0.903400  0.351000  1.0  0.0913
  H  H55  1  0.699700  0.873200  0.197200  1.0  0.0851
  H  H56  1  0.599100  0.903200  0.132700  1.0  0.1389
  H  H57  1  0.017400  0.156900  0.517100  1.0  0.0819
  H  H58  1  0.089600  0.192000  0.587900  1.0  0.1171
  H  H59  1  0.917100  0.262200  0.529900  1.0  0.1725
  H  H60  1  0.844900  0.227500  0.456800  1.0  0.1293
  H  H61  1  0.183300  0.228600  0.624300  1.0  0.1197
  H  H62  1  0.253600  0.265000  0.696600  1.0  0.1218
  H  H63  1  0.027700  0.326700  0.674000  1.0  0.1341
  H  H64  1  0.957400  0.290400  0.601700  1.0  0.1315
  H  H65  1  0.412500  0.606500  0.813200  1.0  0.0962
  H  H66  1  0.524900  0.574900  0.864800  1.0  0.1302
  H  H67  1  0.372900  0.585100  0.023200  1.0  0.1182
  H  H68  1  0.262700  0.614600  0.967500  1.0  0.088
  H  H69  1  0.643200  0.562000  0.921600  1.0  0.1309
  H  H70  1  0.759600  0.530700  0.973100  1.0  0.1116
  H  H71  1  0.569400  0.511800  0.112800  1.0  0.128
  H  H72  1  0.457200  0.543400  0.061900  1.0  0.1168
  H  H73  1  0.756900  0.451300  0.162800  1.0  0.1082
  H  H74  1  0.762500  0.451600  0.272500  1.0  0.1182
  H  H75  1  0.744800  0.451300  0.370900  1.0  0.124
  H  H76  1  0.743800  0.451200  0.480200  1.0  0.1443
  H  H77  1  0.773800  0.468700  0.666200  1.0  0.1184
  H  H78  1  0.669400  0.435600  0.722100  1.0  0.1196
  H  H79  1  0.464000  0.452300  0.590400  1.0  0.1155
  H  H80  1  0.572300  0.482900  0.533300  1.0  0.1178
  H  H81  1  0.537700  0.434800  0.791500  1.0  0.1272
  H  H82  1  0.430200  0.403400  0.851000  1.0  0.0909
  H  H83  1  0.300300  0.373200  0.697200  1.0  0.0852
  H  H84  1  0.400900  0.403200  0.632700  1.0  0.1384
  H  H85  1  0.982600  0.656900  0.017100  1.0  0.0821
  H  H86  1  0.910400  0.692000  0.087900  1.0  0.1164
  H  H87  1  0.082900  0.762200  0.029900  1.0  0.1729
  H  H88  1  0.155100  0.727500  0.956800  1.0  0.1291
  H  H89  1  0.816700  0.728600  0.124300  1.0  0.1193
  H  H90  1  0.746400  0.765000  0.196600  1.0  0.1212
  H  H91  1  0.972300  0.826700  0.174000  1.0  0.1339
  H  H92  1  0.042600  0.790400  0.101700  1.0  0.1311
  H  H93  1  0.087500  0.393500  0.813200  1.0  0.096
  H  H94  1  0.975100  0.425100  0.864800  1.0  0.1303
  H  H95  1  0.127100  0.414900  0.023200  1.0  0.1186
  H  H96  1  0.237300  0.385400  0.967500  1.0  0.0887
  H  H97  1  0.856800  0.438000  0.921600  1.0  0.1305
  H  H98  1  0.740400  0.469300  0.973100  1.0  0.1112
  H  H99  1  0.930600  0.488200  0.112800  1.0  0.1273
  H  H100  1  0.042800  0.456600  0.061900  1.0  0.117
  H  H101  1  0.743100  0.548700  0.162800  1.0  0.1084
  H  H102  1  0.737500  0.548400  0.272500  1.0  0.1181
  H  H103  1  0.755200  0.548700  0.370900  1.0  0.1236
  H  H104  1  0.756200  0.548800  0.480200  1.0  0.1446
  H  H105  1  0.726200  0.531300  0.666200  1.0  0.1181
  H  H106  1  0.830600  0.564400  0.722100  1.0  0.12
  H  H107  1  0.036000  0.547700  0.590400  1.0  0.1157
  H  H108  1  0.927700  0.517100  0.533300  1.0  0.1185
  H  H109  1  0.962300  0.565200  0.791500  1.0  0.1274
  H  H110  1  0.069800  0.596600  0.851000  1.0  0.0912
  H  H111  1  0.199700  0.626800  0.697200  1.0  0.0848
  H  H112  1  0.099100  0.596800  0.632700  1.0  0.1389
  H  H113  1  0.517400  0.343100  0.017100  1.0  0.0826
  H  H114  1  0.589600  0.308000  0.087900  1.0  0.117
  H  H115  1  0.417100  0.237800  0.029900  1.0  0.1719
  H  H116  1  0.344900  0.272500  0.956800  1.0  0.1286
  H  H117  1  0.683300  0.271400  0.124300  1.0  0.1196
  H  H118  1  0.753600  0.235000  0.196600  1.0  0.1219
  H  H119  1  0.527700  0.173300  0.174000  1.0  0.1335
  H  H120  1  0.457400  0.209600  0.101700  1.0  0.131
  H  H121  1  0.587500  0.393500  0.186800  1.0  0.0969
  H  H122  1  0.475100  0.425100  0.135200  1.0  0.1311
  H  H123  1  0.627100  0.414900  0.976800  1.0  0.1189
  H  H124  1  0.737300  0.385400  0.032500  1.0  0.0882
  H  H125  1  0.356800  0.438000  0.078400  1.0  0.1314
  H  H126  1  0.240400  0.469300  0.026900  1.0  0.1109
  H  H127  1  0.430600  0.488200  0.887200  1.0  0.1286
  H  H128  1  0.542800  0.456600  0.938100  1.0  0.1154
  H  H129  1  0.243100  0.548700  0.837200  1.0  0.1085
  H  H130  1  0.237500  0.548400  0.727500  1.0  0.1183
  H  H131  1  0.255200  0.548700  0.629100  1.0  0.1233
  H  H132  1  0.256200  0.548800  0.519800  1.0  0.1451
  H  H133  1  0.226200  0.531300  0.333800  1.0  0.1181
  H  H134  1  0.330600  0.564400  0.277900  1.0  0.1197
  H  H135  1  0.536000  0.547700  0.409600  1.0  0.1158
  H  H136  1  0.427700  0.517100  0.466700  1.0  0.1185
  H  H137  1  0.462300  0.565200  0.208500  1.0  0.1277
  H  H138  1  0.569800  0.596600  0.149000  1.0  0.0919
  H  H139  1  0.699700  0.626800  0.302800  1.0  0.085
  H  H140  1  0.599100  0.596800  0.367300  1.0  0.1396
  H  H141  1  0.017400  0.343100  0.982900  1.0  0.0824
  H  H142  1  0.089600  0.308000  0.912100  1.0  0.1168
  H  H143  1  0.917100  0.237800  0.970100  1.0  0.1717
  H  H144  1  0.844900  0.272500  0.043200  1.0  0.1286
  H  H145  1  0.183300  0.271400  0.875700  1.0  0.1196
  H  H146  1  0.253600  0.235000  0.803400  1.0  0.1236
  H  H147  1  0.027700  0.173300  0.826000  1.0  0.1337
  H  H148  1  0.957400  0.209600  0.898300  1.0  0.1308
  H  H149  1  0.912500  0.606500  0.186800  1.0  0.0965
  H  H150  1  0.024900  0.574900  0.135200  1.0  0.1314
  H  H151  1  0.872900  0.585100  0.976800  1.0  0.119
  H  H152  1  0.762700  0.614600  0.032500  1.0  0.0883
  H  H153  1  0.143200  0.562000  0.078400  1.0  0.1305
  H  H154  1  0.259600  0.530700  0.026900  1.0  0.1115
  H  H155  1  0.069400  0.511800  0.887200  1.0  0.1286
  H  H156  1  0.957200  0.543400  0.938100  1.0  0.1158
  H  H157  1  0.256900  0.451300  0.837200  1.0  0.1082
  H  H158  1  0.262500  0.451600  0.727500  1.0  0.1177
  H  H159  1  0.244800  0.451300  0.629100  1.0  0.1236
  H  H160  1  0.243800  0.451200  0.519800  1.0  0.1443
  H  H161  1  0.273800  0.468700  0.333800  1.0  0.1184
  H  H162  1  0.169400  0.435600  0.277900  1.0  0.1197
  H  H163  1  0.964000  0.452300  0.409600  1.0  0.1156
  H  H164  1  0.072300  0.482900  0.466700  1.0  0.1179
  H  H165  1  0.037700  0.434800  0.208500  1.0  0.1283
  H  H166  1  0.930200  0.403400  0.149000  1.0  0.091
  H  H167  1  0.800300  0.373200  0.302800  1.0  0.085
  H  H168  1  0.900900  0.403200  0.367300  1.0  0.1388
  H  H169  1  0.482600  0.656900  0.982900  1.0  0.0822
  H  H170  1  0.410400  0.692000  0.912100  1.0  0.1161
  H  H171  1  0.582900  0.762200  0.970100  1.0  0.1726
  H  H172  1  0.655100  0.727500  0.043200  1.0  0.1291
  H  H173  1  0.316700  0.728600  0.875700  1.0  0.1195
  H  H174  1  0.246400  0.765000  0.803400  1.0  0.123
  H  H175  1  0.472300  0.826700  0.826000  1.0  0.1344
  H  H176  1  0.542600  0.790400  0.898300  1.0  0.1308
  H  H177  1  0.087500  0.106500  0.686800  1.0  0.097
  H  H178  1  0.975100  0.074900  0.635200  1.0  0.1317
  H  H179  1  0.127100  0.085100  0.476800  1.0  0.1189
  H  H180  1  0.237300  0.114600  0.532500  1.0  0.0883
  H  H181  1  0.856800  0.062000  0.578400  1.0  0.1306
  H  H182  1  0.740400  0.030700  0.526900  1.0  0.1111
  H  H183  1  0.930600  0.011800  0.387200  1.0  0.1286
  H  H184  1  0.042800  0.043400  0.438100  1.0  0.1158
  H  H185  1  0.743100  0.951300  0.337200  1.0  0.1084
  H  H186  1  0.737500  0.951600  0.227500  1.0  0.1178
  H  H187  1  0.755200  0.951300  0.129100  1.0  0.1234
  H  H188  1  0.756200  0.951200  0.019800  1.0  0.1443
  H  H189  1  0.726200  0.968700  0.833800  1.0  0.1191
  H  H190  1  0.830600  0.935600  0.777900  1.0  0.1199
  H  H191  1  0.036000  0.952300  0.909600  1.0  0.116
  H  H192  1  0.927700  0.982900  0.966700  1.0  0.1181
  H  H193  1  0.962300  0.934800  0.708500  1.0  0.1284
  H  H194  1  0.069800  0.903400  0.649000  1.0  0.0919
  H  H195  1  0.199700  0.873200  0.802800  1.0  0.0852
  H  H196  1  0.099100  0.903200  0.867300  1.0  0.1395
  H  H197  1  0.517400  0.156900  0.482900  1.0  0.082
  H  H198  1  0.589600  0.192000  0.412100  1.0  0.1168
  H  H199  1  0.417100  0.262200  0.470100  1.0  0.1724
  H  H200  1  0.344900  0.227500  0.543200  1.0  0.1291
  H  H201  1  0.683300  0.228600  0.375700  1.0  0.1198
  H  H202  1  0.753600  0.265000  0.303400  1.0  0.1235
  H  H203  1  0.527700  0.326700  0.326000  1.0  0.1345
  H  H204  1  0.457400  0.290400  0.398300  1.0  0.1309
  H  H205  1  0.412500  0.893500  0.686800  1.0  0.0964
  H  H206  1  0.524900  0.925100  0.635200  1.0  0.1312
  H  H207  1  0.372900  0.914900  0.476800  1.0  0.1188
  H  H208  1  0.262700  0.885400  0.532500  1.0  0.0883
  H  H209  1  0.643200  0.938000  0.578400  1.0  0.1308
  H  H210  1  0.759600  0.969300  0.526900  1.0  0.1115
  H  H211  1  0.569400  0.988200  0.387200  1.0  0.1283
  H  H212  1  0.457200  0.956600  0.438100  1.0  0.1154
  H  H213  1  0.756900  0.048700  0.337200  1.0  0.1084
  H  H214  1  0.762500  0.048400  0.227500  1.0  0.1183
  H  H215  1  0.744800  0.048700  0.129100  1.0  0.1237
  H  H216  1  0.743800  0.048800  0.019800  1.0  0.1449
  H  H217  1  0.773800  0.031300  0.833800  1.0  0.1179
  H  H218  1  0.669400  0.064400  0.777900  1.0  0.1198
  H  H219  1  0.464000  0.047700  0.909600  1.0  0.1157
  H  H220  1  0.572300  0.017100  0.966700  1.0  0.1183
  H  H221  1  0.537700  0.065200  0.708500  1.0  0.1278
  H  H222  1  0.430200  0.096600  0.649000  1.0  0.0911
  H  H223  1  0.300300  0.126800  0.802800  1.0  0.085
  H  H224  1  0.400900  0.096800  0.867300  1.0  0.1389
  H  H225  1  0.982600  0.843100  0.482900  1.0  0.0827
  H  H226  1  0.910400  0.808000  0.412100  1.0  0.1164
  H  H227  1  0.082900  0.737800  0.470100  1.0  0.1725
  H  H228  1  0.155100  0.772500  0.543200  1.0  0.129
  H  H229  1  0.816700  0.771400  0.375700  1.0  0.1194
  H  H230  1  0.746400  0.735000  0.303400  1.0  0.123
  H  H231  1  0.972300  0.673300  0.326000  1.0  0.1346
  H  H232  1  0.042600  0.709600  0.398300  1.0  0.1308
  C  C233  1  0.271000  0.687500  0.744000  1.0  0.1031
  C  C234  1  0.355900  0.662700  0.734600  1.0  0.3366
  C  C235  1  0.903500  0.897870  0.356600  1.0  0.1938
  C  C236  1  0.972300  0.916860  0.387900  1.0  -0.1903
  C  C237  1  0.965200  0.923820  0.451600  1.0  0.0733
  C  C238  1  0.883600  0.911100  0.479800  1.0  -0.2166
  C  C239  1  0.817500  0.893030  0.445900  1.0  0.1862
  C  C240  1  0.037400  0.943720  0.486000  1.0  0.0236
  C  C241  1  0.128000  0.947910  0.460600  1.0  -0.141
  C  C242  1  0.198600  0.966780  0.491700  1.0  -0.1844
  C  C243  1  0.179200  0.981610  0.549200  1.0  0.1836
  C  C244  1  0.085700  0.977850  0.574500  1.0  -0.1875
  C  C245  1  0.018400  0.959100  0.543500  1.0  -0.0827
  C  C246  1  0.254800  0.028730  0.684500  1.0  -0.1809
  C  C247  1  0.256600  0.028500  0.750700  1.0  -0.1121
  C  C248  1  0.246800  0.028660  0.892500  1.0  -0.1083
  C  C249  1  0.246400  0.028930  0.958100  1.0  -0.2171
  C  C250  1  0.184200  0.020540  0.094300  1.0  0.1671
  C  C251  1  0.211200  0.034790  0.150600  1.0  -0.1768
  C  C252  1  0.148000  0.054240  0.184700  1.0  -0.1202
  C  C253  1  0.052900  0.059000  0.164600  1.0  0.0916
  C  C254  1  0.026600  0.044610  0.106300  1.0  -0.1292
  C  C255  1  0.091400  0.026130  0.072300  1.0  -0.1763
  C  C256  1  0.985800  0.078310  0.203900  1.0  0.1072
  C  C257  1  0.990900  0.077970  0.270800  1.0  -0.2121
  C  C258  1  0.925300  0.096880  0.306500  1.0  0.1953
  C  C259  1  0.849500  0.114460  0.216100  1.0  0.1798
  C  C260  1  0.910200  0.096660  0.176900  1.0  -0.1795
  C  C261  1  0.616600  0.836700  0.432400  1.0  0.7126
  C  C262  1  0.572500  0.812090  0.478800  1.0  -0.1615
  C  C263  1  0.503000  0.821310  0.518200  1.0  -0.0447
  C  C264  1  0.459200  0.800200  0.560900  1.0  -0.1714
  C  C265  1  0.487100  0.767800  0.564000  1.0  0.1066
  C  C266  1  0.559800  0.759300  0.526700  1.0  -0.1002
  C  C267  1  0.604700  0.780050  0.482800  1.0  -0.1477
  C  C268  1  0.436620  0.744090  0.605830  1.0  0.0364
  C  C269  1  0.347860  0.751700  0.634250  1.0  -0.12
  C  C270  1  0.305700  0.729920  0.677570  1.0  -0.1201
  C  C271  1  0.352400  0.700530  0.692480  1.0  0.0315
  C  C272  1  0.441100  0.692920  0.664070  1.0  -0.1379
  C  C273  1  0.483200  0.714700  0.620740  1.0  -0.1632
  C  C274  1  0.229000  0.312500  0.744000  1.0  0.1026
  C  C275  1  0.144100  0.337300  0.734600  1.0  0.3359
  C  C276  1  0.596500  0.102130  0.356600  1.0  0.1939
  C  C277  1  0.527700  0.083140  0.387900  1.0  -0.1903
  C  C278  1  0.534800  0.076180  0.451600  1.0  0.0727
  C  C279  1  0.616400  0.088900  0.479800  1.0  -0.2158
  C  C280  1  0.682500  0.106970  0.445900  1.0  0.186
  C  C281  1  0.462600  0.056280  0.486000  1.0  0.0238
  C  C282  1  0.372000  0.052090  0.460600  1.0  -0.1402
  C  C283  1  0.301400  0.033220  0.491700  1.0  -0.1823
  C  C284  1  0.320800  0.018390  0.549200  1.0  0.1838
  C  C285  1  0.414300  0.022150  0.574500  1.0  -0.188
  C  C286  1  0.481600  0.040900  0.543500  1.0  -0.0839
  C  C287  1  0.245200  0.971270  0.684500  1.0  -0.179
  C  C288  1  0.243400  0.971500  0.750700  1.0  -0.1109
  C  C289  1  0.253200  0.971340  0.892500  1.0  -0.1093
  C  C290  1  0.253600  0.971070  0.958100  1.0  -0.214
  C  C291  1  0.315800  0.979460  0.094300  1.0  0.1669
  C  C292  1  0.288800  0.965210  0.150600  1.0  -0.1785
  C  C293  1  0.352000  0.945760  0.184700  1.0  -0.1196
  C  C294  1  0.447100  0.941000  0.164600  1.0  0.0917
  C  C295  1  0.473400  0.955390  0.106300  1.0  -0.1277
  C  C296  1  0.408600  0.973870  0.072300  1.0  -0.1756
  C  C297  1  0.514200  0.921690  0.203900  1.0  0.1082
  C  C298  1  0.509100  0.922030  0.270800  1.0  -0.2147
  C  C299  1  0.574700  0.903120  0.306500  1.0  0.1946
  C  C300  1  0.650500  0.885540  0.216100  1.0  0.1781
  C  C301  1  0.589800  0.903340  0.176900  1.0  -0.1785
  C  C302  1  0.883400  0.163300  0.432400  1.0  0.7129
  C  C303  1  0.927500  0.187910  0.478800  1.0  -0.1616
  C  C304  1  0.997000  0.178690  0.518200  1.0  -0.0383
  C  C305  1  0.040800  0.199800  0.560900  1.0  -0.1718
  C  C306  1  0.012900  0.232200  0.564000  1.0  0.1093
  C  C307  1  0.940200  0.240700  0.526700  1.0  -0.1016
  C  C308  1  0.895300  0.219950  0.482800  1.0  -0.1466
  C  C309  1  0.063380  0.255910  0.605830  1.0  0.0352
  C  C310  1  0.152140  0.248300  0.634250  1.0  -0.1205
  C  C311  1  0.194300  0.270080  0.677570  1.0  -0.1175
  C  C312  1  0.147600  0.299470  0.692480  1.0  0.0313
  C  C313  1  0.058900  0.307080  0.664070  1.0  -0.1402
  C  C314  1  0.016800  0.285300  0.620740  1.0  -0.164
  C  C315  1  0.771000  0.812500  0.244000  1.0  0.1031
  C  C316  1  0.855900  0.837300  0.234600  1.0  0.337
  C  C317  1  0.403500  0.602130  0.856600  1.0  0.1941
  C  C318  1  0.472300  0.583140  0.887900  1.0  -0.1908
  C  C319  1  0.465200  0.576180  0.951600  1.0  0.0735
  C  C320  1  0.383600  0.588900  0.979800  1.0  -0.216
  C  C321  1  0.317500  0.606970  0.945900  1.0  0.1853
  C  C322  1  0.537400  0.556280  0.986000  1.0  0.0237
  C  C323  1  0.628000  0.552090  0.960600  1.0  -0.1423
  C  C324  1  0.698600  0.533220  0.991700  1.0  -0.1845
  C  C325  1  0.679200  0.518390  0.049200  1.0  0.1836
  C  C326  1  0.585700  0.522150  0.074500  1.0  -0.1876
  C  C327  1  0.518400  0.540900  0.043500  1.0  -0.0827
  C  C328  1  0.754800  0.471270  0.184500  1.0  -0.1809
  C  C329  1  0.756600  0.471500  0.250700  1.0  -0.1118
  C  C330  1  0.746800  0.471340  0.392500  1.0  -0.1083
  C  C331  1  0.746400  0.471070  0.458100  1.0  -0.2152
  C  C332  1  0.684200  0.479460  0.594300  1.0  0.1669
  C  C333  1  0.711200  0.465210  0.650600  1.0  -0.1768
  C  C334  1  0.648000  0.445760  0.684700  1.0  -0.1203
  C  C335  1  0.552900  0.441000  0.664600  1.0  0.0914
  C  C336  1  0.526600  0.455390  0.606300  1.0  -0.1289
  C  C337  1  0.591400  0.473870  0.572300  1.0  -0.1763
  C  C338  1  0.485800  0.421690  0.703900  1.0  0.1071
  C  C339  1  0.490900  0.422030  0.770800  1.0  -0.2121
  C  C340  1  0.425300  0.403120  0.806500  1.0  0.1951
  C  C341  1  0.349500  0.385540  0.716100  1.0  0.1787
  C  C342  1  0.410200  0.403340  0.676900  1.0  -0.1787
  C  C343  1  0.116600  0.663300  0.932400  1.0  0.7122
  C  C344  1  0.072500  0.687910  0.978800  1.0  -0.1615
  C  C345  1  0.003000  0.678690  0.018200  1.0  -0.0404
  C  C346  1  0.959200  0.699800  0.060900  1.0  -0.1716
  C  C347  1  0.987100  0.732200  0.064000  1.0  0.107
  C  C348  1  0.059800  0.740700  0.026700  1.0  -0.102
  C  C349  1  0.104700  0.719950  0.982800  1.0  -0.1474
  C  C350  1  0.936620  0.755910  0.105830  1.0  0.0364
  C  C351  1  0.847860  0.748300  0.134250  1.0  -0.1195
  C  C352  1  0.805700  0.770080  0.177570  1.0  -0.1198
  C  C353  1  0.852400  0.799470  0.192480  1.0  0.0317
  C  C354  1  0.941100  0.807080  0.164070  1.0  -0.1382
  C  C355  1  0.983200  0.785300  0.120740  1.0  -0.1615
  C  C356  1  0.729000  0.187500  0.244000  1.0  0.1024
  C  C357  1  0.644100  0.162700  0.234600  1.0  0.3348
  C  C358  1  0.096500  0.397870  0.856600  1.0  0.1934
  C  C359  1  0.027700  0.416860  0.887900  1.0  -0.1897
  C  C360  1  0.034800  0.423820  0.951600  1.0  0.0724
  C  C361  1  0.116400  0.411100  0.979800  1.0  -0.2164
  C  C362  1  0.182500  0.393030  0.945900  1.0  0.1865
  C  C363  1  0.962600  0.443720  0.986000  1.0  0.0237
  C  C364  1  0.872000  0.447910  0.960600  1.0  -0.1391
  C  C365  1  0.801400  0.466780  0.991700  1.0  -0.182
  C  C366  1  0.820800  0.481610  0.049200  1.0  0.1838
  C  C367  1  0.914300  0.477850  0.074500  1.0  -0.1883
  C  C368  1  0.981600  0.459100  0.043500  1.0  -0.0841
  C  C369  1  0.745200  0.528730  0.184500  1.0  -0.1793
  C  C370  1  0.743400  0.528500  0.250700  1.0  -0.1117
  C  C371  1  0.753200  0.528660  0.392500  1.0  -0.1099
  C  C372  1  0.753600  0.528930  0.458100  1.0  -0.2153
  C  C373  1  0.815800  0.520540  0.594300  1.0  0.1672
  C  C374  1  0.788800  0.534790  0.650600  1.0  -0.1793
  C  C375  1  0.852000  0.554240  0.684700  1.0  -0.1197
  C  C376  1  0.947100  0.559000  0.664600  1.0  0.0922
  C  C377  1  0.973400  0.544610  0.606300  1.0  -0.1276
  C  C378  1  0.908600  0.526130  0.572300  1.0  -0.1756
  C  C379  1  0.014200  0.578310  0.703900  1.0  0.1084
  C  C380  1  0.009100  0.577970  0.770800  1.0  -0.2142
  C  C381  1  0.074700  0.596880  0.806500  1.0  0.1949
  C  C382  1  0.150500  0.614460  0.716100  1.0  0.1797
  C  C383  1  0.089800  0.596660  0.676900  1.0  -0.1789
  C  C384  1  0.383400  0.336700  0.932400  1.0  0.7135
  C  C385  1  0.427500  0.312090  0.978800  1.0  -0.1617
  C  C386  1  0.497000  0.321310  0.018200  1.0  -0.0432
  C  C387  1  0.540800  0.300200  0.060900  1.0  -0.1717
  C  C388  1  0.512900  0.267800  0.064000  1.0  0.109
  C  C389  1  0.440200  0.259300  0.026700  1.0  -0.1016
  C  C390  1  0.395300  0.280050  0.982800  1.0  -0.1466
  C  C391  1  0.563380  0.244090  0.105830  1.0  0.035
  C  C392  1  0.652140  0.251700  0.134250  1.0  -0.1215
  C  C393  1  0.694300  0.229920  0.177570  1.0  -0.1177
  C  C394  1  0.647600  0.200530  0.192480  1.0  0.0316
  C  C395  1  0.558900  0.192920  0.164070  1.0  -0.1396
  C  C396  1  0.516800  0.214700  0.120740  1.0  -0.1647
  C  C397  1  0.250000  0.000000  0.650400  1.0  0.2237
  C  C398  1  0.250000  0.000000  0.785600  1.0  0.0512
  C  C399  1  0.250000  0.000000  0.856600  1.0  0.0629
  C  C400  1  0.250000  0.000000  0.991000  1.0  0.2018
  C  C401  1  0.750000  0.500000  0.150400  1.0  0.2237
  C  C402  1  0.750000  0.500000  0.285600  1.0  0.0512
  C  C403  1  0.750000  0.500000  0.356600  1.0  0.0629
  C  C404  1  0.750000  0.500000  0.491000  1.0  0.2018
  C  C405  1  0.229000  0.187500  0.756000  1.0  0.1011
  C  C406  1  0.144100  0.162700  0.765400  1.0  0.3351
  C  C407  1  0.596500  0.397870  0.143400  1.0  0.1942
  C  C408  1  0.527700  0.416860  0.112100  1.0  -0.1925
  C  C409  1  0.534800  0.423820  0.048400  1.0  0.0723
  C  C410  1  0.616400  0.411100  0.020200  1.0  -0.2159
  C  C411  1  0.682500  0.393030  0.054100  1.0  0.1861
  C  C412  1  0.462600  0.443720  0.014000  1.0  0.0237
  C  C413  1  0.372000  0.447910  0.039400  1.0  -0.14
  C  C414  1  0.301400  0.466780  0.008300  1.0  -0.1821
  C  C415  1  0.320800  0.481610  0.950800  1.0  0.1841
  C  C416  1  0.414300  0.477850  0.925500  1.0  -0.1889
  C  C417  1  0.481600  0.459100  0.956500  1.0  -0.0844
  C  C418  1  0.245200  0.528730  0.815500  1.0  -0.1819
  C  C419  1  0.243400  0.528500  0.749300  1.0  -0.1115
  C  C420  1  0.253200  0.528660  0.607500  1.0  -0.1089
  C  C421  1  0.253600  0.528930  0.541900  1.0  -0.2153
  C  C422  1  0.315800  0.520540  0.405700  1.0  0.1666
  C  C423  1  0.288800  0.534790  0.349400  1.0  -0.1786
  C  C424  1  0.352000  0.554240  0.315300  1.0  -0.1187
  C  C425  1  0.447100  0.559000  0.335400  1.0  0.0923
  C  C426  1  0.473400  0.544610  0.393700  1.0  -0.1276
  C  C427  1  0.408600  0.526130  0.427700  1.0  -0.1759
  C  C428  1  0.514200  0.578310  0.296100  1.0  0.1083
  C  C429  1  0.509100  0.577970  0.229200  1.0  -0.2141
  C  C430  1  0.574700  0.596880  0.193500  1.0  0.1936
  C  C431  1  0.650500  0.614460  0.283900  1.0  0.1773
  C  C432  1  0.589800  0.596660  0.323100  1.0  -0.18
  C  C433  1  0.883400  0.336700  0.067600  1.0  0.714
  C  C434  1  0.927500  0.312090  0.021200  1.0  -0.1616
  C  C435  1  0.997000  0.321310  0.981800  1.0  -0.0428
  C  C436  1  0.040800  0.300200  0.939100  1.0  -0.1722
  C  C437  1  0.012900  0.267800  0.936000  1.0  0.1086
  C  C438  1  0.940200  0.259300  0.973300  1.0  -0.1014
  C  C439  1  0.895300  0.280050  0.017200  1.0  -0.147
  C  C440  1  0.063380  0.244090  0.894170  1.0  0.0348
  C  C441  1  0.152140  0.251700  0.865750  1.0  -0.1216
  C  C442  1  0.194300  0.229920  0.822430  1.0  -0.1182
  C  C443  1  0.147600  0.200530  0.807520  1.0  0.0311
  C  C444  1  0.058900  0.192920  0.835930  1.0  -0.1402
  C  C445  1  0.016800  0.214700  0.879260  1.0  -0.1651
  C  C446  1  0.271000  0.812500  0.756000  1.0  0.1019
  C  C447  1  0.355900  0.837300  0.765400  1.0  0.3366
  C  C448  1  0.903500  0.602130  0.143400  1.0  0.1942
  C  C449  1  0.972300  0.583140  0.112100  1.0  -0.1926
  C  C450  1  0.965200  0.576180  0.048400  1.0  0.0733
  C  C451  1  0.883600  0.588900  0.020200  1.0  -0.2161
  C  C452  1  0.817500  0.606970  0.054100  1.0  0.1858
  C  C453  1  0.037400  0.556280  0.014000  1.0  0.0237
  C  C454  1  0.128000  0.552090  0.039400  1.0  -0.139
  C  C455  1  0.198600  0.533220  0.008300  1.0  -0.1841
  C  C456  1  0.179200  0.518390  0.950800  1.0  0.1841
  C  C457  1  0.085700  0.522150  0.925500  1.0  -0.1884
  C  C458  1  0.018400  0.540900  0.956500  1.0  -0.0829
  C  C459  1  0.254800  0.471270  0.815500  1.0  -0.1792
  C  C460  1  0.256600  0.471500  0.749300  1.0  -0.1117
  C  C461  1  0.246800  0.471340  0.607500  1.0  -0.1087
  C  C462  1  0.246400  0.471070  0.541900  1.0  -0.2135
  C  C463  1  0.184200  0.479460  0.405700  1.0  0.1663
  C  C464  1  0.211200  0.465210  0.349400  1.0  -0.1768
  C  C465  1  0.148000  0.445760  0.315300  1.0  -0.1206
  C  C466  1  0.052900  0.441000  0.335400  1.0  0.0914
  C  C467  1  0.026600  0.455390  0.393700  1.0  -0.1288
  C  C468  1  0.091400  0.473870  0.427700  1.0  -0.1766
  C  C469  1  0.985800  0.421690  0.296100  1.0  0.1071
  C  C470  1  0.990900  0.422030  0.229200  1.0  -0.2122
  C  C471  1  0.925300  0.403120  0.193500  1.0  0.1945
  C  C472  1  0.849500  0.385540  0.283900  1.0  0.1797
  C  C473  1  0.910200  0.403340  0.323100  1.0  -0.1815
  C  C474  1  0.616600  0.663300  0.067600  1.0  0.7126
  C  C475  1  0.572500  0.687910  0.021200  1.0  -0.1612
  C  C476  1  0.503000  0.678690  0.981800  1.0  -0.0407
  C  C477  1  0.459200  0.699800  0.939100  1.0  -0.1725
  C  C478  1  0.487100  0.732200  0.936000  1.0  0.1068
  C  C479  1  0.559800  0.740700  0.973300  1.0  -0.1014
  C  C480  1  0.604700  0.719950  0.017200  1.0  -0.1487
  C  C481  1  0.436620  0.755910  0.894170  1.0  0.0357
  C  C482  1  0.347860  0.748300  0.865750  1.0  -0.1201
  C  C483  1  0.305700  0.770080  0.822430  1.0  -0.1207
  C  C484  1  0.352400  0.799470  0.807520  1.0  0.0313
  C  C485  1  0.441100  0.807080  0.835930  1.0  -0.1376
  C  C486  1  0.483200  0.785300  0.879260  1.0  -0.1615
  C  C487  1  0.729000  0.312500  0.256000  1.0  0.1014
  C  C488  1  0.644100  0.337300  0.265400  1.0  0.3364
  C  C489  1  0.096500  0.102130  0.643400  1.0  0.1941
  C  C490  1  0.027700  0.083140  0.612100  1.0  -0.1923
  C  C491  1  0.034800  0.076180  0.548400  1.0  0.0726
  C  C492  1  0.116400  0.088900  0.520200  1.0  -0.2163
  C  C493  1  0.182500  0.106970  0.554100  1.0  0.1864
  C  C494  1  0.962600  0.056280  0.514000  1.0  0.024
  C  C495  1  0.872000  0.052090  0.539400  1.0  -0.1402
  C  C496  1  0.801400  0.033220  0.508300  1.0  -0.1833
  C  C497  1  0.820800  0.018390  0.450800  1.0  0.1842
  C  C498  1  0.914300  0.022150  0.425500  1.0  -0.1888
  C  C499  1  0.981600  0.040900  0.456500  1.0  -0.0843
  C  C500  1  0.745200  0.971270  0.315500  1.0  -0.1812
  C  C501  1  0.743400  0.971500  0.249300  1.0  -0.1109
  C  C502  1  0.753200  0.971340  0.107500  1.0  -0.1082
  C  C503  1  0.753600  0.971070  0.041900  1.0  -0.2142
  C  C504  1  0.815800  0.979460  0.905700  1.0  0.1663
  C  C505  1  0.788800  0.965210  0.849400  1.0  -0.1785
  C  C506  1  0.852000  0.945760  0.815300  1.0  -0.1191
  C  C507  1  0.947100  0.941000  0.835400  1.0  0.0917
  C  C508  1  0.973400  0.955390  0.893700  1.0  -0.1273
  C  C509  1  0.908600  0.973870  0.927700  1.0  -0.1762
  C  C510  1  0.014200  0.921690  0.796100  1.0  0.1082
  C  C511  1  0.009100  0.922030  0.729200  1.0  -0.2146
  C  C512  1  0.074700  0.903120  0.693500  1.0  0.1932
  C  C513  1  0.150500  0.885540  0.783900  1.0  0.1789
  C  C514  1  0.089800  0.903340  0.823100  1.0  -0.1805
  C  C515  1  0.383400  0.163300  0.567600  1.0  0.7134
  C  C516  1  0.427500  0.187910  0.521200  1.0  -0.1611
  C  C517  1  0.497000  0.178690  0.481800  1.0  -0.0381
  C  C518  1  0.540800  0.199800  0.439100  1.0  -0.1726
  C  C519  1  0.512900  0.232200  0.436000  1.0  0.109
  C  C520  1  0.440200  0.240700  0.473300  1.0  -0.1013
  C  C521  1  0.395300  0.219950  0.517200  1.0  -0.1477
  C  C522  1  0.563380  0.255910  0.394170  1.0  0.0349
  C  C523  1  0.652140  0.248300  0.365750  1.0  -0.1212
  C  C524  1  0.694300  0.270080  0.322430  1.0  -0.1182
  C  C525  1  0.647600  0.299470  0.307520  1.0  0.0309
  C  C526  1  0.558900  0.307080  0.335930  1.0  -0.14
  C  C527  1  0.516800  0.285300  0.379260  1.0  -0.1649
  C  C528  1  0.771000  0.687500  0.256000  1.0  0.1017
  C  C529  1  0.855900  0.662700  0.265400  1.0  0.3361
  C  C530  1  0.403500  0.897870  0.643400  1.0  0.1945
  C  C531  1  0.472300  0.916860  0.612100  1.0  -0.1928
  C  C532  1  0.465200  0.923820  0.548400  1.0  0.0734
  C  C533  1  0.383600  0.911100  0.520200  1.0  -0.2157
  C  C534  1  0.317500  0.893030  0.554100  1.0  0.1861
  C  C535  1  0.537400  0.943720  0.514000  1.0  0.0234
  C  C536  1  0.628000  0.947910  0.539400  1.0  -0.1388
  C  C537  1  0.698600  0.966780  0.508300  1.0  -0.1835
  C  C538  1  0.679200  0.981610  0.450800  1.0  0.184
  C  C539  1  0.585700  0.977850  0.425500  1.0  -0.188
  C  C540  1  0.518400  0.959100  0.456500  1.0  -0.083
  C  C541  1  0.754800  0.028730  0.315500  1.0  -0.1796
  C  C542  1  0.756600  0.028500  0.249300  1.0  -0.112
  C  C543  1  0.746800  0.028660  0.107500  1.0  -0.109
  C  C544  1  0.746400  0.028930  0.041900  1.0  -0.2151
  C  C545  1  0.684200  0.020540  0.905700  1.0  0.1665
  C  C546  1  0.711200  0.034790  0.849400  1.0  -0.1762
  C  C547  1  0.648000  0.054240  0.815300  1.0  -0.1203
  C  C548  1  0.552900  0.059000  0.835400  1.0  0.0916
  C  C549  1  0.526600  0.044610  0.893700  1.0  -0.1294
  C  C550  1  0.591400  0.026130  0.927700  1.0  -0.1762
  C  C551  1  0.485800  0.078310  0.796100  1.0  0.1071
  C  C552  1  0.490900  0.077970  0.729200  1.0  -0.2119
  C  C553  1  0.425300  0.096880  0.693500  1.0  0.1948
  C  C554  1  0.349500  0.114460  0.783900  1.0  0.178
  C  C555  1  0.410200  0.096660  0.823100  1.0  -0.1805
  C  C556  1  0.116600  0.836700  0.567600  1.0  0.7132
  C  C557  1  0.072500  0.812090  0.521200  1.0  -0.1616
  C  C558  1  0.003000  0.821310  0.481800  1.0  -0.0447
  C  C559  1  0.959200  0.800200  0.439100  1.0  -0.1722
  C  C560  1  0.987100  0.767800  0.436000  1.0  0.1063
  C  C561  1  0.059800  0.759300  0.473300  1.0  -0.0996
  C  C562  1  0.104700  0.780050  0.517200  1.0  -0.1483
  C  C563  1  0.936620  0.744090  0.394170  1.0  0.0355
  C  C564  1  0.847860  0.751700  0.365750  1.0  -0.1201
  C  C565  1  0.805700  0.729920  0.322430  1.0  -0.1206
  C  C566  1  0.852400  0.700530  0.307520  1.0  0.031
  C  C567  1  0.941100  0.692920  0.335930  1.0  -0.1379
  C  C568  1  0.983200  0.714700  0.379260  1.0  -0.1626
  C  C569  1  0.250000  0.500000  0.849600  1.0  0.2236
  C  C570  1  0.250000  0.500000  0.714400  1.0  0.0509
  C  C571  1  0.250000  0.500000  0.643400  1.0  0.0625
  C  C572  1  0.250000  0.500000  0.509000  1.0  0.2021
  C  C573  1  0.750000  0.000000  0.349600  1.0  0.2236
  C  C574  1  0.750000  0.000000  0.214400  1.0  0.0509
  C  C575  1  0.750000  0.000000  0.143400  1.0  0.0625
  C  C576  1  0.750000  0.000000  0.009000  1.0  0.2021
  N  N577  1  0.826420  0.885790  0.384790  1.0  -0.3269
  N  N578  1  0.857400  0.114910  0.280020  1.0  -0.313
  N  N579  1  0.673580  0.114210  0.384790  1.0  -0.3272
  N  N580  1  0.642600  0.885090  0.280020  1.0  -0.3128
  N  N581  1  0.326420  0.614210  0.884790  1.0  -0.3266
  N  N582  1  0.357400  0.385090  0.780020  1.0  -0.313
  N  N583  1  0.173580  0.385790  0.884790  1.0  -0.327
  N  N584  1  0.142600  0.614910  0.780020  1.0  -0.3132
  N  N585  1  0.250000  0.000000  0.581920  1.0  -0.1558
  N  N586  1  0.250000  0.000000  0.059290  1.0  -0.1131
  N  N587  1  0.750000  0.500000  0.081920  1.0  -0.1558
  N  N588  1  0.750000  0.500000  0.559290  1.0  -0.1131
  N  N589  1  0.673580  0.385790  0.115210  1.0  -0.3257
  N  N590  1  0.642600  0.614910  0.219980  1.0  -0.3127
  N  N591  1  0.826420  0.614210  0.115210  1.0  -0.3262
  N  N592  1  0.857400  0.385090  0.219980  1.0  -0.3135
  N  N593  1  0.173580  0.114210  0.615210  1.0  -0.3264
  N  N594  1  0.142600  0.885090  0.719980  1.0  -0.3132
  N  N595  1  0.326420  0.885790  0.615210  1.0  -0.3258
  N  N596  1  0.357400  0.114910  0.719980  1.0  -0.3126
  N  N597  1  0.250000  0.500000  0.918080  1.0  -0.1557
  N  N598  1  0.250000  0.500000  0.440710  1.0  -0.1128
  N  N599  1  0.750000  0.000000  0.418080  1.0  -0.1557
  N  N600  1  0.750000  0.000000  0.940710  1.0  -0.1128
  O  O601  1  0.682470  0.824350  0.397170  1.0  -0.612
  O  O602  1  0.593190  0.865140  0.433810  1.0  -0.5367
  O  O603  1  0.311200  0.669840  0.777060  1.0  -0.5327
  O  O604  1  0.375800  0.634200  0.722900  1.0  -0.4417
  O  O605  1  0.185300  0.689500  0.752700  1.0  -0.5076
  O  O606  1  0.817530  0.175650  0.397170  1.0  -0.6135
  O  O607  1  0.906810  0.134860  0.433810  1.0  -0.5356
  O  O608  1  0.188800  0.330160  0.777060  1.0  -0.534
  O  O609  1  0.124200  0.365800  0.722900  1.0  -0.4405
  O  O610  1  0.314700  0.310500  0.752700  1.0  -0.5081
  O  O611  1  0.182470  0.675650  0.897170  1.0  -0.6124
  O  O612  1  0.093190  0.634860  0.933810  1.0  -0.536
  O  O613  1  0.811200  0.830160  0.277060  1.0  -0.5323
  O  O614  1  0.875800  0.865800  0.222900  1.0  -0.4403
  O  O615  1  0.685300  0.810500  0.252700  1.0  -0.5079
  O  O616  1  0.317530  0.324350  0.897170  1.0  -0.613
  O  O617  1  0.406810  0.365140  0.933810  1.0  -0.5368
  O  O618  1  0.688800  0.169840  0.277060  1.0  -0.5344
  O  O619  1  0.624200  0.134200  0.222900  1.0  -0.4406
  O  O620  1  0.814700  0.189500  0.252700  1.0  -0.5066
  O  O621  1  0.817530  0.324350  0.102830  1.0  -0.6133
  O  O622  1  0.906810  0.365140  0.066190  1.0  -0.5364
  O  O623  1  0.188800  0.169840  0.722940  1.0  -0.5341
  O  O624  1  0.124200  0.134200  0.777100  1.0  -0.4391
  O  O625  1  0.314700  0.189500  0.747300  1.0  -0.5063
  O  O626  1  0.682470  0.675650  0.102830  1.0  -0.612
  O  O627  1  0.593190  0.634860  0.066190  1.0  -0.5359
  O  O628  1  0.311200  0.830160  0.722940  1.0  -0.535
  O  O629  1  0.375800  0.865800  0.777100  1.0  -0.4405
  O  O630  1  0.185300  0.810500  0.747300  1.0  -0.5075
  O  O631  1  0.317530  0.175650  0.602830  1.0  -0.6135
  O  O632  1  0.406810  0.134860  0.566190  1.0  -0.5355
  O  O633  1  0.688800  0.330160  0.222940  1.0  -0.5342
  O  O634  1  0.624200  0.365800  0.277100  1.0  -0.4391
  O  O635  1  0.814700  0.310500  0.247300  1.0  -0.5074
  O  O636  1  0.182470  0.824350  0.602830  1.0  -0.6118
  O  O637  1  0.093190  0.865140  0.566190  1.0  -0.5366
  O  O638  1  0.811200  0.669840  0.222940  1.0  -0.5347
  O  O639  1  0.875800  0.634200  0.277100  1.0  -0.4418
  O  O640  1  0.685300  0.689500  0.247300  1.0  -0.5076
