# generated using pymatgen
data_HoH5C7O6
_symmetry_space_group_name_H-M   'P 1'
_cell_length_a   17.76400000
_cell_length_b   17.76400000
_cell_length_c   15.35500000
_cell_angle_alpha   90.00000000
_cell_angle_beta   90.00000000
_cell_angle_gamma   90.00000000
_symmetry_Int_Tables_number   1
_chemical_formula_structural   HoH5C7O6
_chemical_formula_sum   'Ho16 H80 C112 O96'
_cell_volume   4845.41913208
_cell_formula_units_Z   16
loop_
 _symmetry_equiv_pos_site_id
 _symmetry_equiv_pos_as_xyz
  1  'x, y, z'
loop_
 _atom_site_type_symbol
 _atom_site_label
 _atom_site_symmetry_multiplicity
 _atom_site_fract_x
 _atom_site_fract_y
 _atom_site_fract_z
 _atom_site_occupancy
 _atom_site_charge
  Ho  Ho1  1  0.971600  0.489080  0.138410  1.0  2.2304
  Ho  Ho2  1  0.028400  0.510920  0.638410  1.0  2.2296
  Ho  Ho3  1  0.010920  0.471600  0.888410  1.0  2.2315
  Ho  Ho4  1  0.989080  0.528400  0.388410  1.0  2.2317
  Ho  Ho5  1  0.528400  0.989080  0.611590  1.0  2.2291
  Ho  Ho6  1  0.471600  0.010920  0.111590  1.0  2.2307
  Ho  Ho7  1  0.489080  0.971600  0.861590  1.0  2.231
  Ho  Ho8  1  0.510920  0.028400  0.361590  1.0  2.23
  Ho  Ho9  1  0.031600  0.031600  0.500000  1.0  2.2481
  Ho  Ho10  1  0.968400  0.968400  0.000000  1.0  2.2487
  Ho  Ho11  1  0.468400  0.531600  0.250000  1.0  2.2475
  Ho  Ho12  1  0.531600  0.468400  0.750000  1.0  2.2489
  Ho  Ho13  1  0.989190  0.010810  0.250000  1.0  2.219
  Ho  Ho14  1  0.010810  0.989190  0.750000  1.0  2.2227
  Ho  Ho15  1  0.489190  0.489190  0.000000  1.0  2.218
  Ho  Ho16  1  0.510810  0.510810  0.500000  1.0  2.2233
  H  H17  1  0.744800  0.899900  0.396100  1.0  0.1163
  H  H18  1  0.766500  0.908900  0.494500  1.0  0.1058
  H  H19  1  0.828500  0.888900  0.425700  1.0  0.1079
  H  H20  1  0.788200  0.015900  0.360100  1.0  0.0963
  H  H21  1  0.212300  0.501300  0.993500  1.0  0.0936
  H  H22  1  0.771000  0.039100  0.540600  1.0  0.0885
  H  H23  1  0.762200  0.141500  0.400900  1.0  0.1093
  H  H24  1  0.817400  0.145500  0.480500  1.0  0.1042
  H  H25  1  0.731600  0.162900  0.493400  1.0  0.1113
  H  H26  1  0.226200  0.507400  0.178300  1.0  0.1116
  H  H27  1  0.255200  0.100100  0.896100  1.0  0.116
  H  H28  1  0.233500  0.091100  0.994500  1.0  0.1066
  H  H29  1  0.171500  0.111100  0.925700  1.0  0.1093
  H  H30  1  0.211800  0.984100  0.860100  1.0  0.0962
  H  H31  1  0.787700  0.498700  0.493500  1.0  0.094
  H  H32  1  0.229000  0.960900  0.040600  1.0  0.0887
  H  H33  1  0.237800  0.858500  0.900900  1.0  0.1095
  H  H34  1  0.182600  0.854500  0.980500  1.0  0.1028
  H  H35  1  0.268400  0.837100  0.993400  1.0  0.1124
  H  H36  1  0.773800  0.492600  0.678300  1.0  0.1116
  H  H37  1  0.600100  0.244800  0.146100  1.0  0.1164
  H  H38  1  0.591100  0.266500  0.244500  1.0  0.107
  H  H39  1  0.611100  0.328500  0.175700  1.0  0.1113
  H  H40  1  0.484100  0.288200  0.110100  1.0  0.0958
  H  H41  1  0.998700  0.712300  0.743500  1.0  0.0938
  H  H42  1  0.460900  0.271000  0.290600  1.0  0.0887
  H  H43  1  0.358500  0.262200  0.150900  1.0  0.1115
  H  H44  1  0.354500  0.317400  0.230500  1.0  0.1058
  H  H45  1  0.337100  0.231600  0.243400  1.0  0.113
  H  H46  1  0.992600  0.726200  0.928300  1.0  0.1113
  H  H47  1  0.399900  0.755200  0.646100  1.0  0.1169
  H  H48  1  0.408900  0.733500  0.744500  1.0  0.1075
  H  H49  1  0.388900  0.671500  0.675700  1.0  0.1108
  H  H50  1  0.515900  0.711800  0.610100  1.0  0.0969
  H  H51  1  0.001300  0.287700  0.243500  1.0  0.0945
  H  H52  1  0.539100  0.729000  0.790600  1.0  0.0885
  H  H53  1  0.641500  0.737800  0.650900  1.0  0.1123
  H  H54  1  0.645500  0.682600  0.730500  1.0  0.1046
  H  H55  1  0.662900  0.768400  0.743400  1.0  0.1109
  H  H56  1  0.007400  0.273800  0.428300  1.0  0.111
  H  H57  1  0.755200  0.399900  0.353900  1.0  0.1162
  H  H58  1  0.733500  0.408900  0.255500  1.0  0.1072
  H  H59  1  0.671500  0.388900  0.324300  1.0  0.1098
  H  H60  1  0.711800  0.515900  0.389900  1.0  0.0949
  H  H61  1  0.287700  0.001300  0.756500  1.0  0.0923
  H  H62  1  0.729000  0.539100  0.209400  1.0  0.0886
  H  H63  1  0.737800  0.641500  0.349100  1.0  0.1105
  H  H64  1  0.682600  0.645500  0.269500  1.0  0.1028
  H  H65  1  0.768400  0.662900  0.256600  1.0  0.111
  H  H66  1  0.273800  0.007400  0.571700  1.0  0.1117
  H  H67  1  0.244800  0.600100  0.853900  1.0  0.1165
  H  H68  1  0.266500  0.591100  0.755500  1.0  0.1063
  H  H69  1  0.328500  0.611100  0.824300  1.0  0.108
  H  H70  1  0.288200  0.484100  0.889900  1.0  0.0948
  H  H71  1  0.712300  0.998700  0.256500  1.0  0.0924
  H  H72  1  0.271000  0.460900  0.709400  1.0  0.0878
  H  H73  1  0.262200  0.358500  0.849100  1.0  0.1111
  H  H74  1  0.317400  0.354500  0.769500  1.0  0.1033
  H  H75  1  0.231600  0.337100  0.756600  1.0  0.1111
  H  H76  1  0.726200  0.992600  0.071700  1.0  0.1116
  H  H77  1  0.899900  0.744800  0.603900  1.0  0.1171
  H  H78  1  0.908900  0.766500  0.505500  1.0  0.1076
  H  H79  1  0.888900  0.828500  0.574300  1.0  0.1116
  H  H80  1  0.015900  0.788200  0.639900  1.0  0.0953
  H  H81  1  0.501300  0.212300  0.006500  1.0  0.093
  H  H82  1  0.039100  0.771000  0.459400  1.0  0.0882
  H  H83  1  0.141500  0.762200  0.599100  1.0  0.113
  H  H84  1  0.145500  0.817400  0.519500  1.0  0.1051
  H  H85  1  0.162900  0.731600  0.506600  1.0  0.1112
  H  H86  1  0.507400  0.226200  0.821700  1.0  0.1112
  H  H87  1  0.100100  0.255200  0.103900  1.0  0.1165
  H  H88  1  0.091100  0.233500  0.005500  1.0  0.1091
  H  H89  1  0.111100  0.171500  0.074300  1.0  0.1112
  H  H90  1  0.984100  0.211800  0.139900  1.0  0.0944
  H  H91  1  0.498700  0.787700  0.506500  1.0  0.0923
  H  H92  1  0.960900  0.229000  0.959400  1.0  0.088
  H  H93  1  0.858500  0.237800  0.099100  1.0  0.1126
  H  H94  1  0.854500  0.182600  0.019500  1.0  0.1037
  H  H95  1  0.837100  0.268400  0.006600  1.0  0.1115
  H  H96  1  0.492600  0.773800  0.321700  1.0  0.1112
  C  C97  1  0.327700  0.500200  0.112500  1.0  0.7092
  C  C98  1  0.783100  0.916800  0.436000  1.0  -0.3715
  C  C99  1  0.995000  0.641200  0.199100  1.0  0.6402
  C  C100  1  0.121700  0.496800  0.078300  1.0  0.6162
  C  C101  1  0.989600  0.859300  0.190700  1.0  0.6652
  C  C102  1  0.997600  0.721700  0.229900  1.0  -0.0176
  C  C103  1  0.994000  0.777200  0.162000  1.0  -0.0307
  C  C104  1  0.798300  0.002000  0.420800  1.0  -0.1342
  C  C105  1  0.881200  0.010200  0.441300  1.0  0.659
  C  C106  1  0.671000  0.026200  0.479100  1.0  0.66
  C  C107  1  0.199900  0.483900  0.052300  1.0  -0.0599
  C  C108  1  0.752600  0.049100  0.481600  1.0  -0.1108
  C  C109  1  0.767400  0.132500  0.462000  1.0  -0.3431
  C  C110  1  0.246400  0.514000  0.119500  1.0  -0.0217
  C  C111  1  0.672300  0.499800  0.612500  1.0  0.7081
  C  C112  1  0.216900  0.083200  0.936000  1.0  -0.373
  C  C113  1  0.005000  0.358800  0.699100  1.0  0.6389
  C  C114  1  0.878300  0.503200  0.578300  1.0  0.6177
  C  C115  1  0.010400  0.140700  0.690700  1.0  0.6644
  C  C116  1  0.002400  0.278300  0.729900  1.0  -0.017
  C  C117  1  0.006000  0.222800  0.662000  1.0  -0.0296
  C  C118  1  0.201700  0.998000  0.920800  1.0  -0.1346
  C  C119  1  0.118800  0.989800  0.941300  1.0  0.6603
  C  C120  1  0.329000  0.973800  0.979100  1.0  0.6613
  C  C121  1  0.800100  0.516100  0.552300  1.0  -0.0657
  C  C122  1  0.247400  0.950900  0.981600  1.0  -0.1122
  C  C123  1  0.232600  0.867500  0.962000  1.0  -0.3412
  C  C124  1  0.753600  0.486000  0.619500  1.0  -0.0173
  C  C125  1  0.999800  0.827700  0.862500  1.0  0.7097
  C  C126  1  0.583200  0.283100  0.186000  1.0  -0.3707
  C  C127  1  0.858800  0.495000  0.949100  1.0  0.6406
  C  C128  1  0.003200  0.621700  0.828300  1.0  0.6167
  C  C129  1  0.640700  0.489600  0.940700  1.0  0.6652
  C  C130  1  0.778300  0.497600  0.979900  1.0  -0.0175
  C  C131  1  0.722800  0.494000  0.912000  1.0  -0.0301
  C  C132  1  0.498000  0.298300  0.170800  1.0  -0.135
  C  C133  1  0.489800  0.381200  0.191300  1.0  0.6632
  C  C134  1  0.473800  0.171000  0.229100  1.0  0.6624
  C  C135  1  0.016100  0.699900  0.802300  1.0  -0.0595
  C  C136  1  0.450900  0.252600  0.231600  1.0  -0.1114
  C  C137  1  0.367500  0.267400  0.212000  1.0  -0.3448
  C  C138  1  0.986000  0.746400  0.869500  1.0  -0.02
  C  C139  1  0.000200  0.172300  0.362500  1.0  0.7098
  C  C140  1  0.416800  0.716900  0.686000  1.0  -0.3713
  C  C141  1  0.141200  0.505000  0.449100  1.0  0.6385
  C  C142  1  0.996800  0.378300  0.328300  1.0  0.6175
  C  C143  1  0.359300  0.510400  0.440700  1.0  0.6646
  C  C144  1  0.221700  0.502400  0.479900  1.0  -0.0168
  C  C145  1  0.277200  0.506000  0.412000  1.0  -0.0304
  C  C146  1  0.502000  0.701700  0.670800  1.0  -0.1351
  C  C147  1  0.510200  0.618800  0.691300  1.0  0.663
  C  C148  1  0.526200  0.829000  0.729100  1.0  0.6631
  C  C149  1  0.983900  0.300100  0.302300  1.0  -0.0588
  C  C150  1  0.549100  0.747400  0.731600  1.0  -0.111
  C  C151  1  0.632500  0.732600  0.712000  1.0  -0.3441
  C  C152  1  0.014000  0.253600  0.369500  1.0  -0.0206
  C  C153  1  0.172300  0.000200  0.637500  1.0  0.7074
  C  C154  1  0.716900  0.416800  0.314000  1.0  -0.3718
  C  C155  1  0.505000  0.141200  0.550900  1.0  0.64
  C  C156  1  0.378300  0.996800  0.671700  1.0  0.6164
  C  C157  1  0.510400  0.359300  0.559300  1.0  0.6643
  C  C158  1  0.502400  0.221700  0.520100  1.0  -0.0203
  C  C159  1  0.506000  0.277200  0.588000  1.0  -0.0295
  C  C160  1  0.701700  0.502000  0.329200  1.0  -0.135
  C  C161  1  0.618800  0.510200  0.308700  1.0  0.6604
  C  C162  1  0.829000  0.526200  0.270900  1.0  0.6627
  C  C163  1  0.300100  0.983900  0.697700  1.0  -0.0601
  C  C164  1  0.747400  0.549100  0.268400  1.0  -0.1131
  C  C165  1  0.732600  0.632500  0.288000  1.0  -0.3434
  C  C166  1  0.253600  0.014000  0.630500  1.0  -0.0198
  C  C167  1  0.827700  0.999800  0.137500  1.0  0.7074
  C  C168  1  0.283100  0.583200  0.814000  1.0  -0.3732
  C  C169  1  0.495000  0.858800  0.050900  1.0  0.6404
  C  C170  1  0.621700  0.003200  0.171700  1.0  0.6179
  C  C171  1  0.489600  0.640700  0.059300  1.0  0.6638
  C  C172  1  0.497600  0.778300  0.020100  1.0  -0.0205
  C  C173  1  0.494000  0.722800  0.088000  1.0  -0.0296
  C  C174  1  0.298300  0.498000  0.829200  1.0  -0.134
  C  C175  1  0.381200  0.489800  0.808700  1.0  0.6585
  C  C176  1  0.171000  0.473800  0.770900  1.0  0.6606
  C  C177  1  0.699900  0.016100  0.197700  1.0  -0.0648
  C  C178  1  0.252600  0.450900  0.768400  1.0  -0.1132
  C  C179  1  0.267400  0.367500  0.788000  1.0  -0.3416
  C  C180  1  0.746400  0.986000  0.130500  1.0  -0.0204
  C  C181  1  0.500200  0.327700  0.887500  1.0  0.709
  C  C182  1  0.916800  0.783100  0.564000  1.0  -0.3709
  C  C183  1  0.641200  0.995000  0.800900  1.0  0.6392
  C  C184  1  0.496800  0.121700  0.921700  1.0  0.6157
  C  C185  1  0.859300  0.989600  0.809300  1.0  0.6643
  C  C186  1  0.721700  0.997600  0.770100  1.0  -0.0203
  C  C187  1  0.777200  0.994000  0.838000  1.0  -0.0298
  C  C188  1  0.002000  0.798300  0.579200  1.0  -0.1343
  C  C189  1  0.010200  0.881200  0.558700  1.0  0.6628
  C  C190  1  0.026200  0.671000  0.520900  1.0  0.6629
  C  C191  1  0.483900  0.199900  0.947700  1.0  -0.0578
  C  C192  1  0.049100  0.752600  0.518400  1.0  -0.113
  C  C193  1  0.132500  0.767400  0.538000  1.0  -0.3441
  C  C194  1  0.514000  0.246400  0.880500  1.0  -0.023
  C  C195  1  0.499800  0.672300  0.387500  1.0  0.708
  C  C196  1  0.083200  0.216900  0.064000  1.0  -0.3706
  C  C197  1  0.358800  0.005000  0.300900  1.0  0.6412
  C  C198  1  0.503200  0.878300  0.421700  1.0  0.6177
  C  C199  1  0.140700  0.010400  0.309300  1.0  0.6639
  C  C200  1  0.278300  0.002400  0.270100  1.0  -0.0202
  C  C201  1  0.222800  0.006000  0.338000  1.0  -0.0294
  C  C202  1  0.998000  0.201700  0.079200  1.0  -0.1355
  C  C203  1  0.989800  0.118800  0.058700  1.0  0.6628
  C  C204  1  0.973800  0.329000  0.020900  1.0  0.6643
  C  C205  1  0.516100  0.800100  0.447700  1.0  -0.0591
  C  C206  1  0.950900  0.247400  0.018400  1.0  -0.1124
  C  C207  1  0.867500  0.232600  0.038000  1.0  -0.3456
  C  C208  1  0.486000  0.753600  0.380500  1.0  -0.0192
  O  O209  1  0.634400  0.037500  0.407100  1.0  -0.6826
  O  O210  1  0.990800  0.910000  0.134500  1.0  -0.7584
  O  O211  1  0.070000  0.487600  0.021700  1.0  -0.7786
  O  O212  1  0.930900  0.008700  0.383400  1.0  -0.7585
  O  O213  1  0.364000  0.493400  0.043700  1.0  -0.6532
  O  O214  1  0.985100  0.624000  0.121200  1.0  -0.6251
  O  O215  1  0.640000  0.008300  0.549100  1.0  -0.6579
  O  O216  1  0.997700  0.588700  0.256500  1.0  -0.8432
  O  O217  1  0.357500  0.516800  0.185200  1.0  -0.6998
  O  O218  1  0.901700  0.025200  0.519300  1.0  -0.6532
  O  O219  1  0.995000  0.876300  0.269700  1.0  -0.6221
  O  O220  1  0.100300  0.490100  0.156600  1.0  -0.6387
  O  O221  1  0.365600  0.962500  0.907100  1.0  -0.6822
  O  O222  1  0.009200  0.090000  0.634500  1.0  -0.7593
  O  O223  1  0.930000  0.512400  0.521700  1.0  -0.778
  O  O224  1  0.069100  0.991300  0.883400  1.0  -0.7597
  O  O225  1  0.636000  0.506600  0.543700  1.0  -0.6522
  O  O226  1  0.014900  0.376000  0.621200  1.0  -0.6257
  O  O227  1  0.360000  0.991700  0.049100  1.0  -0.6592
  O  O228  1  0.002300  0.411300  0.756500  1.0  -0.8424
  O  O229  1  0.642500  0.483200  0.685200  1.0  -0.6989
  O  O230  1  0.098300  0.974800  0.019300  1.0  -0.6542
  O  O231  1  0.005000  0.123700  0.769700  1.0  -0.6222
  O  O232  1  0.899700  0.509900  0.656600  1.0  -0.6393
  O  O233  1  0.462500  0.134400  0.157100  1.0  -0.6823
  O  O234  1  0.590000  0.490800  0.884500  1.0  -0.76
  O  O235  1  0.012400  0.570000  0.771700  1.0  -0.7794
  O  O236  1  0.491300  0.430900  0.133400  1.0  -0.7638
  O  O237  1  0.006600  0.864000  0.793700  1.0  -0.6543
  O  O238  1  0.876000  0.485100  0.871200  1.0  -0.6312
  O  O239  1  0.491700  0.140000  0.299100  1.0  -0.6606
  O  O240  1  0.911300  0.497700  0.006500  1.0  -0.8427
  O  O241  1  0.983200  0.857500  0.935200  1.0  -0.697
  O  O242  1  0.474800  0.401700  0.269300  1.0  -0.6559
  O  O243  1  0.623700  0.495000  0.019700  1.0  -0.6233
  O  O244  1  0.009900  0.600300  0.906600  1.0  -0.6382
  O  O245  1  0.537500  0.865600  0.657100  1.0  -0.682
  O  O246  1  0.410000  0.509200  0.384500  1.0  -0.76
  O  O247  1  0.987600  0.430000  0.271700  1.0  -0.7781
  O  O248  1  0.508700  0.569100  0.633400  1.0  -0.764
  O  O249  1  0.993400  0.136000  0.293700  1.0  -0.6535
  O  O250  1  0.124000  0.514900  0.371200  1.0  -0.6293
  O  O251  1  0.508300  0.860000  0.799100  1.0  -0.6595
  O  O252  1  0.088700  0.502300  0.506500  1.0  -0.844
  O  O253  1  0.016800  0.142500  0.435200  1.0  -0.6973
  O  O254  1  0.525200  0.598300  0.769300  1.0  -0.6527
  O  O255  1  0.376300  0.505000  0.519700  1.0  -0.6231
  O  O256  1  0.990100  0.399700  0.406600  1.0  -0.6376
  O  O257  1  0.865600  0.537500  0.342900  1.0  -0.6823
  O  O258  1  0.509200  0.410000  0.615500  1.0  -0.7572
  O  O259  1  0.430000  0.987600  0.728300  1.0  -0.7773
  O  O260  1  0.569100  0.508700  0.366600  1.0  -0.7601
  O  O261  1  0.136000  0.993400  0.706300  1.0  -0.6516
  O  O262  1  0.514900  0.124000  0.628800  1.0  -0.6301
  O  O263  1  0.860000  0.508300  0.200900  1.0  -0.6603
  O  O264  1  0.502300  0.088700  0.493500  1.0  -0.8442
  O  O265  1  0.142500  0.016800  0.564800  1.0  -0.6976
  O  O266  1  0.598300  0.525200  0.230700  1.0  -0.6513
  O  O267  1  0.505000  0.376300  0.480300  1.0  -0.6199
  O  O268  1  0.399700  0.990100  0.593400  1.0  -0.6353
  O  O269  1  0.134400  0.462500  0.842900  1.0  -0.6829
  O  O270  1  0.490800  0.590000  0.115500  1.0  -0.7582
  O  O271  1  0.570000  0.012400  0.228300  1.0  -0.7778
  O  O272  1  0.430900  0.491300  0.866600  1.0  -0.7587
  O  O273  1  0.864000  0.006600  0.206300  1.0  -0.6515
  O  O274  1  0.485100  0.876000  0.128800  1.0  -0.6288
  O  O275  1  0.140000  0.491700  0.700900  1.0  -0.6603
  O  O276  1  0.497700  0.911300  0.993500  1.0  -0.8424
  O  O277  1  0.857500  0.983200  0.064800  1.0  -0.6986
  O  O278  1  0.401700  0.474800  0.730700  1.0  -0.6513
  O  O279  1  0.495000  0.623700  0.980300  1.0  -0.6194
  O  O280  1  0.600300  0.009900  0.093400  1.0  -0.6358
  O  O281  1  0.037500  0.634400  0.592900  1.0  -0.6827
  O  O282  1  0.910000  0.990800  0.865500  1.0  -0.7587
  O  O283  1  0.487600  0.070000  0.978300  1.0  -0.7778
  O  O284  1  0.008700  0.930900  0.616600  1.0  -0.7642
  O  O285  1  0.493400  0.364000  0.956300  1.0  -0.6522
  O  O286  1  0.624000  0.985100  0.878800  1.0  -0.6347
  O  O287  1  0.008300  0.640000  0.450900  1.0  -0.6608
  O  O288  1  0.588700  0.997700  0.743500  1.0  -0.8447
  O  O289  1  0.516800  0.357500  0.814800  1.0  -0.6959
  O  O290  1  0.025200  0.901700  0.480700  1.0  -0.6512
  O  O291  1  0.876300  0.995000  0.730300  1.0  -0.6215
  O  O292  1  0.490100  0.100300  0.843400  1.0  -0.6336
  O  O293  1  0.962500  0.365600  0.092900  1.0  -0.6829
  O  O294  1  0.090000  0.009200  0.365500  1.0  -0.7593
  O  O295  1  0.512400  0.930000  0.478300  1.0  -0.7785
  O  O296  1  0.991300  0.069100  0.116600  1.0  -0.7639
  O  O297  1  0.506600  0.636000  0.456300  1.0  -0.6528
  O  O298  1  0.376000  0.014900  0.378800  1.0  -0.6348
  O  O299  1  0.991700  0.360000  0.950900  1.0  -0.6613
  O  O300  1  0.411300  0.002300  0.243500  1.0  -0.8427
  O  O301  1  0.483200  0.642500  0.314800  1.0  -0.6967
  O  O302  1  0.974800  0.098300  0.980700  1.0  -0.6518
  O  O303  1  0.123700  0.005000  0.230300  1.0  -0.6213
  O  O304  1  0.509900  0.899700  0.343400  1.0  -0.6339
