# generated using pymatgen
data_Ho2H9C24(NO6)3
_symmetry_space_group_name_H-M   'P 1'
_cell_length_a   13.68310000
_cell_length_b   13.68310000
_cell_length_c   16.19550000
_cell_angle_alpha   66.58150000
_cell_angle_beta   66.58150000
_cell_angle_gamma   74.94560000
_symmetry_Int_Tables_number   1
_chemical_formula_structural   Ho2H9C24(NO6)3
_chemical_formula_sum   'Ho4 H18 C48 N6 O36'
_cell_volume   2534.54188076
_cell_formula_units_Z   2
loop_
 _symmetry_equiv_pos_site_id
 _symmetry_equiv_pos_as_xyz
  1  'x, y, z'
loop_
 _atom_site_type_symbol
 _atom_site_label
 _atom_site_symmetry_multiplicity
 _atom_site_fract_x
 _atom_site_fract_y
 _atom_site_fract_z
 _atom_site_occupancy
 _atom_site_charge
  Ho  Ho1  1  0.662810  0.954560  0.997960  1.0  2.1739
  Ho  Ho2  1  0.045440  0.337190  0.502040  1.0  2.174
  Ho  Ho3  1  0.337190  0.045440  0.002040  1.0  2.1731
  Ho  Ho4  1  0.954560  0.662810  0.497960  1.0  2.1729
  H  H5  1  0.837100  0.725700  0.244000  1.0  0.1132
  H  H6  1  0.960000  0.418400  0.277000  1.0  0.1201
  H  H7  1  0.843700  0.591500  0.062100  1.0  0.1219
  H  H8  1  0.579000  0.630200  0.154000  1.0  0.1244
  H  H9  1  0.274300  0.162900  0.256000  1.0  0.1127
  H  H10  1  0.581600  0.040000  0.223000  1.0  0.12
  H  H11  1  0.408500  0.156300  0.437900  1.0  0.1215
  H  H12  1  0.369800  0.421000  0.346000  1.0  0.1244
  H  H13  1  0.162900  0.274300  0.756000  1.0  0.1126
  H  H14  1  0.040000  0.581600  0.723000  1.0  0.1205
  H  H15  1  0.156300  0.408500  0.937900  1.0  0.1218
  H  H16  1  0.421000  0.369800  0.846000  1.0  0.1252
  H  H17  1  0.725700  0.837100  0.744000  1.0  0.1131
  H  H18  1  0.418400  0.960000  0.777000  1.0  0.1196
  H  H19  1  0.591500  0.843700  0.562100  1.0  0.1218
  H  H20  1  0.630200  0.579000  0.654000  1.0  0.1244
  H  H21  1  0.266600  0.733400  0.250000  1.0  0.1086
  H  H22  1  0.733400  0.266600  0.750000  1.0  0.1081
  C  C23  1  0.449000  0.810800  0.124700  1.0  0.8083
  C  C24  1  0.832000  0.674800  0.145100  1.0  -0.1305
  C  C25  1  0.854900  0.666500  0.223900  1.0  0.0238
  C  C26  1  0.903800  0.571600  0.273200  1.0  -0.1715
  C  C27  1  0.928400  0.483200  0.244300  1.0  0.0002
  C  C28  1  0.905000  0.493200  0.166500  1.0  -0.0336
  C  C29  1  0.857600  0.587400  0.115200  1.0  -0.0008
  C  C30  1  0.777800  0.776200  0.090700  1.0  0.6707
  C  C31  1  0.929900  0.563500  0.357900  1.0  0.8182
  C  C32  1  0.425300  0.698900  0.190400  1.0  -0.1612
  C  C33  1  0.508800  0.616800  0.191600  1.0  -0.0074
  C  C34  1  0.189200  0.551000  0.375300  1.0  0.807
  C  C35  1  0.325200  0.168000  0.354900  1.0  -0.1304
  C  C36  1  0.333500  0.145100  0.276100  1.0  0.0218
  C  C37  1  0.428400  0.096200  0.226800  1.0  -0.1712
  C  C38  1  0.516800  0.071600  0.255700  1.0  -0.0013
  C  C39  1  0.506800  0.095000  0.333500  1.0  -0.0347
  C  C40  1  0.412600  0.142400  0.384800  1.0  0.0015
  C  C41  1  0.223800  0.222200  0.409300  1.0  0.6725
  C  C42  1  0.436500  0.070100  0.142100  1.0  0.8173
  C  C43  1  0.301100  0.574700  0.309600  1.0  -0.1612
  C  C44  1  0.383200  0.491200  0.308400  1.0  -0.009
  C  C45  1  0.551000  0.189200  0.875300  1.0  0.8079
  C  C46  1  0.168000  0.325200  0.854900  1.0  -0.1309
  C  C47  1  0.145100  0.333500  0.776100  1.0  0.024
  C  C48  1  0.096200  0.428400  0.726800  1.0  -0.1714
  C  C49  1  0.071600  0.516800  0.755700  1.0  0.0012
  C  C50  1  0.095000  0.506800  0.833500  1.0  -0.0323
  C  C51  1  0.142400  0.412600  0.884800  1.0  0.0019
  C  C52  1  0.222200  0.223800  0.909300  1.0  0.6705
  C  C53  1  0.070100  0.436500  0.642100  1.0  0.8184
  C  C54  1  0.574700  0.301100  0.809600  1.0  -0.1615
  C  C55  1  0.491200  0.383200  0.808400  1.0  -0.0082
  C  C56  1  0.810800  0.449000  0.624700  1.0  0.8058
  C  C57  1  0.674800  0.832000  0.645100  1.0  -0.1303
  C  C58  1  0.666500  0.854900  0.723900  1.0  0.0227
  C  C59  1  0.571600  0.903800  0.773200  1.0  -0.172
  C  C60  1  0.483200  0.928400  0.744300  1.0  -0.0008
  C  C61  1  0.493200  0.905000  0.666500  1.0  -0.0347
  C  C62  1  0.587400  0.857600  0.615200  1.0  0.001
  C  C63  1  0.776200  0.777800  0.590700  1.0  0.6722
  C  C64  1  0.563500  0.929900  0.857900  1.0  0.8184
  C  C65  1  0.698900  0.425300  0.690400  1.0  -0.1603
  C  C66  1  0.616800  0.508800  0.691600  1.0  -0.0041
  C  C67  1  0.322400  0.677600  0.250000  1.0  0.0352
  C  C68  1  0.485500  0.514500  0.250000  1.0  -0.0544
  C  C69  1  0.677600  0.322400  0.750000  1.0  0.0359
  C  C70  1  0.514500  0.485500  0.750000  1.0  -0.0545
  N  N71  1  0.927700  0.399100  0.134300  1.0  0.6223
  N  N72  1  0.600900  0.072300  0.365700  1.0  0.624
  N  N73  1  0.072300  0.600900  0.865700  1.0  0.623
  N  N74  1  0.399100  0.927700  0.634300  1.0  0.623
  N  N75  1  0.574100  0.425900  0.250000  1.0  0.6193
  N  N76  1  0.425900  0.574100  0.750000  1.0  0.621
  O  O77  1  0.735500  0.851300  0.125700  1.0  -0.6901
  O  O78  1  0.770800  0.780000  0.015400  1.0  -0.6581
  O  O79  1  0.546300  0.825900  0.086200  1.0  -0.7054
  O  O80  1  0.372500  0.879900  0.110600  1.0  -0.7966
  O  O81  1  0.910400  0.647000  0.378800  1.0  -0.6844
  O  O82  1  0.969800  0.474200  0.401200  1.0  -0.8035
  O  O83  1  0.959400  0.314000  0.185300  1.0  -0.3809
  O  O84  1  0.917300  0.411900  0.061100  1.0  -0.3638
  O  O85  1  0.664200  0.448600  0.202600  1.0  -0.3661
  O  O86  1  0.148700  0.264500  0.374300  1.0  -0.6866
  O  O87  1  0.220000  0.229200  0.484600  1.0  -0.6584
  O  O88  1  0.174100  0.453700  0.413800  1.0  -0.7061
  O  O89  1  0.120100  0.627500  0.389400  1.0  -0.7944
  O  O90  1  0.353000  0.089600  0.121200  1.0  -0.6874
  O  O91  1  0.525800  0.030200  0.098800  1.0  -0.8016
  O  O92  1  0.686000  0.040600  0.314700  1.0  -0.3787
  O  O93  1  0.588100  0.082700  0.438900  1.0  -0.3663
  O  O94  1  0.551400  0.335800  0.297400  1.0  -0.3677
  O  O95  1  0.264500  0.148700  0.874300  1.0  -0.6879
  O  O96  1  0.229200  0.220000  0.984600  1.0  -0.6594
  O  O97  1  0.453700  0.174100  0.913800  1.0  -0.706
  O  O98  1  0.627500  0.120100  0.889400  1.0  -0.796
  O  O99  1  0.089600  0.353000  0.621200  1.0  -0.6812
  O  O100  1  0.030200  0.525800  0.598800  1.0  -0.8037
  O  O101  1  0.040600  0.686000  0.814700  1.0  -0.38
  O  O102  1  0.082700  0.588100  0.938900  1.0  -0.3648
  O  O103  1  0.335800  0.551400  0.797400  1.0  -0.364
  O  O104  1  0.851300  0.735500  0.625700  1.0  -0.6901
  O  O105  1  0.780000  0.770800  0.515400  1.0  -0.6573
  O  O106  1  0.825900  0.546300  0.586200  1.0  -0.7086
  O  O107  1  0.879900  0.372500  0.610600  1.0  -0.7925
  O  O108  1  0.647000  0.910400  0.878800  1.0  -0.6873
  O  O109  1  0.474200  0.969800  0.901200  1.0  -0.8017
  O  O110  1  0.314000  0.959400  0.685300  1.0  -0.3804
  O  O111  1  0.411900  0.917300  0.561100  1.0  -0.3652
  O  O112  1  0.448600  0.664200  0.702600  1.0  -0.367
