# generated using pymatgen
data_Nd2H9C24(NO6)3
_symmetry_space_group_name_H-M   'P 1'
_cell_length_a   13.85420000
_cell_length_b   13.85420000
_cell_length_c   16.44500000
_cell_angle_alpha   67.10220000
_cell_angle_beta   67.10220000
_cell_angle_gamma   75.86890000
_symmetry_Int_Tables_number   1
_chemical_formula_structural   Nd2H9C24(NO6)3
_chemical_formula_sum   'Nd4 H18 C48 N6 O36'
_cell_volume   2662.53478769
_cell_formula_units_Z   2
loop_
 _symmetry_equiv_pos_site_id
 _symmetry_equiv_pos_as_xyz
  1  'x, y, z'
loop_
 _atom_site_type_symbol
 _atom_site_label
 _atom_site_symmetry_multiplicity
 _atom_site_fract_x
 _atom_site_fract_y
 _atom_site_fract_z
 _atom_site_occupancy
 _atom_site_charge
  Nd  Nd1  1  0.953650  0.666260  0.499350  1.0  2.2545
  Nd  Nd2  1  0.333740  0.046350  0.000650  1.0  2.2545
  Nd  Nd3  1  0.046350  0.333740  0.500650  1.0  2.2548
  Nd  Nd4  1  0.666260  0.953650  0.999350  1.0  2.2558
  H  H5  1  0.721500  0.840100  0.742400  1.0  0.1114
  H  H6  1  0.418000  0.953200  0.781700  1.0  0.1136
  H  H7  1  0.582700  0.843300  0.567600  1.0  0.1222
  H  H8  1  0.630000  0.575200  0.653600  1.0  0.1223
  H  H9  1  0.159900  0.278500  0.757600  1.0  0.112
  H  H10  1  0.046800  0.582000  0.718300  1.0  0.114
  H  H11  1  0.156700  0.417300  0.932400  1.0  0.1223
  H  H12  1  0.424800  0.370000  0.846400  1.0  0.1227
  H  H13  1  0.278500  0.159900  0.257600  1.0  0.1117
  H  H14  1  0.582000  0.046800  0.218300  1.0  0.1141
  H  H15  1  0.417300  0.156700  0.432400  1.0  0.122
  H  H16  1  0.370000  0.424800  0.346400  1.0  0.1225
  H  H17  1  0.840100  0.721500  0.242400  1.0  0.1119
  H  H18  1  0.953200  0.418000  0.281700  1.0  0.1148
  H  H19  1  0.843300  0.582700  0.067600  1.0  0.1222
  H  H20  1  0.575200  0.630000  0.153600  1.0  0.1219
  H  H21  1  0.731900  0.268100  0.750000  1.0  0.1124
  H  H22  1  0.268100  0.731900  0.250000  1.0  0.1127
  C  C23  1  0.668100  0.833300  0.647100  1.0  -0.1349
  C  C24  1  0.662100  0.855700  0.724400  1.0  0.0326
  C  C25  1  0.569700  0.901100  0.775000  1.0  -0.1801
  C  C26  1  0.481300  0.923500  0.748300  1.0  0.0089
  C  C27  1  0.488900  0.900700  0.670900  1.0  -0.038
  C  C28  1  0.579900  0.856900  0.619600  1.0  0.0113
  C  C29  1  0.768200  0.780600  0.592800  1.0  0.6809
  C  C30  1  0.564100  0.926500  0.858400  1.0  0.8227
  C  C31  1  0.698800  0.424200  0.690900  1.0  -0.1691
  C  C32  1  0.617140  0.506340  0.691600  1.0  -0.0203
  C  C33  1  0.809000  0.448200  0.625000  1.0  0.8298
  C  C34  1  0.166700  0.331900  0.852900  1.0  -0.1351
  C  C35  1  0.144300  0.337900  0.775600  1.0  0.0324
  C  C36  1  0.098900  0.430300  0.725000  1.0  -0.1798
  C  C37  1  0.076500  0.518700  0.751700  1.0  0.0089
  C  C38  1  0.099300  0.511100  0.829100  1.0  -0.0366
  C  C39  1  0.143100  0.420100  0.880400  1.0  0.0119
  C  C40  1  0.219400  0.231800  0.907200  1.0  0.6815
  C  C41  1  0.073500  0.435900  0.641600  1.0  0.8216
  C  C42  1  0.575800  0.301200  0.809100  1.0  -0.1699
  C  C43  1  0.493660  0.382860  0.808400  1.0  -0.0215
  C  C44  1  0.551800  0.191000  0.875000  1.0  0.8307
  C  C45  1  0.331900  0.166700  0.352900  1.0  -0.1348
  C  C46  1  0.337900  0.144300  0.275600  1.0  0.0313
  C  C47  1  0.430300  0.098900  0.225000  1.0  -0.1796
  C  C48  1  0.518700  0.076500  0.251700  1.0  0.0083
  C  C49  1  0.511100  0.099300  0.329100  1.0  -0.0374
  C  C50  1  0.420100  0.143100  0.380400  1.0  0.0123
  C  C51  1  0.231800  0.219400  0.407200  1.0  0.6831
  C  C52  1  0.435900  0.073500  0.141600  1.0  0.821
  C  C53  1  0.301200  0.575800  0.309100  1.0  -0.1689
  C  C54  1  0.382860  0.493660  0.308400  1.0  -0.0224
  C  C55  1  0.191000  0.551800  0.375000  1.0  0.8322
  C  C56  1  0.833300  0.668100  0.147100  1.0  -0.1348
  C  C57  1  0.855700  0.662100  0.224400  1.0  0.033
  C  C58  1  0.901100  0.569700  0.275000  1.0  -0.18
  C  C59  1  0.923500  0.481300  0.248300  1.0  0.0097
  C  C60  1  0.900700  0.488900  0.170900  1.0  -0.036
  C  C61  1  0.856900  0.579900  0.119600  1.0  0.0097
  C  C62  1  0.780600  0.768200  0.092800  1.0  0.6815
  C  C63  1  0.926500  0.564100  0.358400  1.0  0.8225
  C  C64  1  0.424200  0.698800  0.190900  1.0  -0.1695
  C  C65  1  0.506340  0.617140  0.191600  1.0  -0.0207
  C  C66  1  0.448200  0.809000  0.125000  1.0  0.8307
  C  C67  1  0.677300  0.322700  0.750000  1.0  0.0315
  C  C68  1  0.517100  0.482900  0.750000  1.0  -0.0405
  C  C69  1  0.322700  0.677300  0.250000  1.0  0.0304
  C  C70  1  0.482900  0.517100  0.250000  1.0  -0.0411
  N  N71  1  0.394600  0.923800  0.642100  1.0  0.6239
  N  N72  1  0.076200  0.605400  0.857900  1.0  0.6247
  N  N73  1  0.605400  0.076200  0.357900  1.0  0.6255
  N  N74  1  0.923800  0.394600  0.142100  1.0  0.6264
  N  N75  1  0.430800  0.569200  0.750000  1.0  0.6043
  N  N76  1  0.569200  0.430800  0.250000  1.0  0.6045
  O  O77  1  0.771540  0.770580  0.519400  1.0  -0.6539
  O  O78  1  0.844830  0.748850  0.623200  1.0  -0.7221
  O  O79  1  0.647390  0.907030  0.877500  1.0  -0.7084
  O  O80  1  0.477540  0.968540  0.900500  1.0  -0.8271
  O  O81  1  0.310800  0.945800  0.696000  1.0  -0.3878
  O  O82  1  0.406800  0.919200  0.566800  1.0  -0.372
  O  O83  1  0.874670  0.371770  0.610500  1.0  -0.788
  O  O84  1  0.825010  0.543010  0.589100  1.0  -0.7148
  O  O85  1  0.339970  0.547370  0.793800  1.0  -0.3762
  O  O86  1  0.229420  0.228460  0.980600  1.0  -0.6567
  O  O87  1  0.251150  0.155170  0.876800  1.0  -0.7196
  O  O88  1  0.092970  0.352610  0.622500  1.0  -0.7009
  O  O89  1  0.031460  0.522460  0.599500  1.0  -0.8276
  O  O90  1  0.054200  0.689200  0.804000  1.0  -0.3833
  O  O91  1  0.080800  0.593200  0.933200  1.0  -0.3693
  O  O92  1  0.628230  0.125330  0.889500  1.0  -0.7933
  O  O93  1  0.456990  0.174990  0.910900  1.0  -0.7161
  O  O94  1  0.452630  0.660030  0.706200  1.0  -0.3753
  O  O95  1  0.228460  0.229420  0.480600  1.0  -0.6556
  O  O96  1  0.155170  0.251150  0.376800  1.0  -0.7227
  O  O97  1  0.352610  0.092970  0.122500  1.0  -0.7073
  O  O98  1  0.522460  0.031460  0.099500  1.0  -0.8276
  O  O99  1  0.689200  0.054200  0.304000  1.0  -0.3874
  O  O100  1  0.593200  0.080800  0.433200  1.0  -0.3716
  O  O101  1  0.125330  0.628230  0.389500  1.0  -0.7899
  O  O102  1  0.174990  0.456990  0.410900  1.0  -0.7143
  O  O103  1  0.660030  0.452630  0.206200  1.0  -0.3763
  O  O104  1  0.770580  0.771540  0.019400  1.0  -0.6559
  O  O105  1  0.748850  0.844830  0.123200  1.0  -0.7236
  O  O106  1  0.907030  0.647390  0.377500  1.0  -0.7013
  O  O107  1  0.968540  0.477540  0.400500  1.0  -0.8256
  O  O108  1  0.945800  0.310800  0.196000  1.0  -0.3849
  O  O109  1  0.919200  0.406800  0.066800  1.0  -0.3703
  O  O110  1  0.371770  0.874670  0.110500  1.0  -0.7953
  O  O111  1  0.543010  0.825010  0.089100  1.0  -0.7164
  O  O112  1  0.547370  0.339970  0.293800  1.0  -0.3766
