# generated using pymatgen
data_BaH4C4O5
_symmetry_space_group_name_H-M   'P 1'
_cell_length_a   6.41900000
_cell_length_b   7.93610000
_cell_length_c   8.91100000
_cell_angle_alpha   103.75700000
_cell_angle_beta   104.13700000
_cell_angle_gamma   106.94500000
_symmetry_Int_Tables_number   1
_chemical_formula_structural   BaH4C4O5
_chemical_formula_sum   'Ba2 H8 C8 O10'
_cell_volume   397.03601057
_cell_formula_units_Z   2
loop_
 _symmetry_equiv_pos_site_id
 _symmetry_equiv_pos_as_xyz
  1  'x, y, z'
loop_
 _atom_site_type_symbol
 _atom_site_label
 _atom_site_symmetry_multiplicity
 _atom_site_fract_x
 _atom_site_fract_y
 _atom_site_fract_z
 _atom_site_occupancy
 _atom_site_charge
  Ba  Ba1  1  0.151180  0.270660  0.427500  1.0  1.6148
  Ba  Ba2  1  0.848820  0.729340  0.572500  1.0  1.6156
  H  H3  1  0.179700  0.711500  0.977300  1.0  0.0737
  H  H4  1  0.207800  0.388300  0.052900  1.0  0.0738
  H  H5  1  0.261000  0.908000  0.435000  1.0  0.4305
  H  H6  1  0.344000  0.015000  0.582000  1.0  0.4371
  H  H7  1  0.820300  0.288500  0.022700  1.0  0.0723
  H  H8  1  0.792200  0.611700  0.947100  1.0  0.0754
  H  H9  1  0.739000  0.092000  0.565000  1.0  0.4305
  H  H10  1  0.656000  0.985000  0.418000  1.0  0.4373
  C  C11  1  0.163100  0.489500  0.787300  1.0  0.6721
  C  C12  1  0.108500  0.572000  0.937700  1.0  -0.1229
  C  C13  1  0.318800  0.639300  0.246900  1.0  0.6614
  C  C14  1  0.158000  0.496400  0.082000  1.0  -0.1127
  C  C15  1  0.836900  0.510500  0.212700  1.0  0.6708
  C  C16  1  0.891500  0.428000  0.062300  1.0  -0.1225
  C  C17  1  0.681200  0.360700  0.753100  1.0  0.6597
  C  C18  1  0.842000  0.503600  0.918000  1.0  -0.1142
  O  O19  1  0.164700  0.578200  0.684980  1.0  -0.7921
  O  O20  1  0.198000  0.339900  0.764880  1.0  -0.6429
  O  O21  1  0.383000  0.579300  0.362470  1.0  -0.7545
  O  O22  1  0.372100  0.810200  0.263130  1.0  -0.61
  O  O23  1  0.217700  0.958900  0.508260  1.0  -0.9357
  O  O24  1  0.835300  0.421800  0.315020  1.0  -0.7931
  O  O25  1  0.802000  0.660100  0.235120  1.0  -0.6429
  O  O26  1  0.617000  0.420700  0.637530  1.0  -0.7539
  O  O27  1  0.627900  0.189800  0.736870  1.0  -0.6079
  O  O28  1  0.782300  0.041100  0.491740  1.0  -0.9197
