# generated using pymatgen
data_Dy2H9C24(NO6)3
_symmetry_space_group_name_H-M   'P 1'
_cell_length_a   13.70380000
_cell_length_b   13.70380000
_cell_length_c   16.21560000
_cell_angle_alpha   66.62030000
_cell_angle_beta   66.62030000
_cell_angle_gamma   74.98580000
_symmetry_Int_Tables_number   1
_chemical_formula_structural   Dy2H9C24(NO6)3
_chemical_formula_sum   'Dy4 H18 C48 N6 O36'
_cell_volume   2546.95379241
_cell_formula_units_Z   2
loop_
 _symmetry_equiv_pos_site_id
 _symmetry_equiv_pos_as_xyz
  1  'x, y, z'
loop_
 _atom_site_type_symbol
 _atom_site_label
 _atom_site_symmetry_multiplicity
 _atom_site_fract_x
 _atom_site_fract_y
 _atom_site_fract_z
 _atom_site_occupancy
 _atom_site_charge
  Dy  Dy1  1  0.454620  0.163010  0.497780  1.0  2.2641
  Dy  Dy2  1  0.836990  0.545380  0.002220  1.0  2.2644
  Dy  Dy3  1  0.545380  0.836990  0.502220  1.0  2.2647
  Dy  Dy4  1  0.163010  0.454620  0.997780  1.0  2.264
  H  H5  1  0.225000  0.337800  0.744300  1.0  0.1115
  H  H6  1  0.918500  0.460500  0.776800  1.0  0.1166
  H  H7  1  0.090800  0.344200  0.562600  1.0  0.1183
  H  H8  1  0.128800  0.079200  0.654300  1.0  0.1157
  H  H9  1  0.662200  0.775000  0.755700  1.0  0.1112
  H  H10  1  0.539500  0.081500  0.723200  1.0  0.1166
  H  H11  1  0.655800  0.909200  0.937400  1.0  0.1179
  H  H12  1  0.920800  0.871200  0.845700  1.0  0.117
  H  H13  1  0.775000  0.662200  0.255700  1.0  0.1113
  H  H14  1  0.081500  0.539500  0.223200  1.0  0.1172
  H  H15  1  0.909200  0.655800  0.437400  1.0  0.1175
  H  H16  1  0.871200  0.920800  0.345700  1.0  0.1164
  H  H17  1  0.337800  0.225000  0.244300  1.0  0.1118
  H  H18  1  0.460500  0.918500  0.276800  1.0  0.1171
  H  H19  1  0.344200  0.090800  0.062600  1.0  0.1183
  H  H20  1  0.079200  0.128800  0.154300  1.0  0.1161
  H  H21  1  0.233100  0.766900  0.750000  1.0  0.1102
  H  H22  1  0.766900  0.233100  0.250000  1.0  0.1109
  C  C23  1  0.276400  0.278200  0.590500  1.0  0.6762
  C  C24  1  0.174100  0.331700  0.645200  1.0  -0.132
  C  C25  1  0.166100  0.355300  0.724200  1.0  0.03
  C  C26  1  0.071200  0.404400  0.773200  1.0  -0.1814
  C  C27  1  0.982900  0.428500  0.744300  1.0  -0.0004
  C  C28  1  0.992100  0.404300  0.666667  1.0  -0.0385
  C  C29  1  0.086500  0.357700  0.615900  1.0  0.0029
  C  C30  1  0.063600  0.429000  0.857800  1.0  0.8284
  C  C31  1  0.310500  0.949500  0.624200  1.0  0.8205
  C  C32  1  0.198800  0.926000  0.689900  1.0  -0.1648
  C  C33  1  0.115700  0.009100  0.691800  1.0  0.0026
  C  C34  1  0.721800  0.723600  0.909500  1.0  0.6743
  C  C35  1  0.668300  0.825900  0.854800  1.0  -0.1309
  C  C36  1  0.644700  0.833900  0.775800  1.0  0.0312
  C  C37  1  0.595600  0.928800  0.726800  1.0  -0.1809
  C  C38  1  0.571500  0.017100  0.755700  1.0  0.0027
  C  C39  1  0.595700  0.007900  0.833300  1.0  -0.0381
  C  C40  1  0.642300  0.913500  0.884100  1.0  0.0027
  C  C41  1  0.571000  0.936400  0.642200  1.0  0.8255
  C  C42  1  0.050500  0.689500  0.875800  1.0  0.8234
  C  C43  1  0.074000  0.801200  0.810100  1.0  -0.166
  C  C44  1  0.990900  0.884300  0.808200  1.0  0.0011
  C  C45  1  0.723600  0.721800  0.409500  1.0  0.6759
  C  C46  1  0.825900  0.668300  0.354800  1.0  -0.1313
  C  C47  1  0.833900  0.644700  0.275800  1.0  0.0282
  C  C48  1  0.928800  0.595600  0.226800  1.0  -0.1807
  C  C49  1  0.017100  0.571500  0.255700  1.0  -0.0008
  C  C50  1  0.007900  0.595700  0.333333  1.0  -0.039
  C  C51  1  0.913500  0.642300  0.384100  1.0  0.0015
  C  C52  1  0.936400  0.571000  0.142200  1.0  0.8252
  C  C53  1  0.689500  0.050500  0.375800  1.0  0.8221
  C  C54  1  0.801200  0.074000  0.310100  1.0  -0.166
  C  C55  1  0.884300  0.990900  0.308200  1.0  -0.0002
  C  C56  1  0.278200  0.276400  0.090500  1.0  0.6747
  C  C57  1  0.331700  0.174100  0.145200  1.0  -0.1303
  C  C58  1  0.355300  0.166100  0.224200  1.0  0.0321
  C  C59  1  0.404400  0.071200  0.273200  1.0  -0.1812
  C  C60  1  0.428500  0.982900  0.244300  1.0  0.0017
  C  C61  1  0.404300  0.992100  0.166700  1.0  -0.0389
  C  C62  1  0.357700  0.086500  0.115900  1.0  0.0012
  C  C63  1  0.429000  0.063600  0.357800  1.0  0.8271
  C  C64  1  0.949500  0.310500  0.124200  1.0  0.823
  C  C65  1  0.926000  0.198800  0.189900  1.0  -0.1652
  C  C66  1  0.009100  0.115700  0.191800  1.0  0.0025
  C  C67  1  0.177300  0.822700  0.750000  1.0  0.0378
  C  C68  1  0.013700  0.986300  0.750000  1.0  -0.0243
  C  C69  1  0.822700  0.177300  0.250000  1.0  0.0377
  C  C70  1  0.986300  0.013700  0.250000  1.0  -0.0246
  N  N71  1  0.899000  0.427600  0.634800  1.0  0.6258
  N  N72  1  0.572400  0.101000  0.865200  1.0  0.6259
  N  N73  1  0.101000  0.572400  0.365200  1.0  0.6261
  N  N74  1  0.427600  0.899000  0.134800  1.0  0.6263
  N  N75  1  0.925800  0.074200  0.750000  1.0  0.5963
  N  N76  1  0.074200  0.925800  0.250000  1.0  0.5966
  O  O77  1  0.280100  0.271700  0.514700  1.0  -0.6657
  O  O78  1  0.350900  0.237500  0.625000  1.0  -0.7169
  O  O79  1  0.146800  0.410200  0.878000  1.0  -0.7057
  O  O80  1  0.973500  0.469300  0.900900  1.0  -0.8194
  O  O81  1  0.911100  0.417300  0.561400  1.0  -0.3727
  O  O82  1  0.814000  0.458600  0.686100  1.0  -0.38
  O  O83  1  0.325800  0.046400  0.586600  1.0  -0.7201
  O  O84  1  0.378700  0.872300  0.611200  1.0  -0.7952
  O  O85  1  0.835600  0.052000  0.797300  1.0  -0.3758
  O  O86  1  0.728300  0.719900  0.985300  1.0  -0.6667
  O  O87  1  0.762500  0.649100  0.875000  1.0  -0.7155
  O  O88  1  0.589800  0.853200  0.622000  1.0  -0.701
  O  O89  1  0.530700  0.026500  0.599100  1.0  -0.8219
  O  O90  1  0.582700  0.088900  0.938600  1.0  -0.3741
  O  O91  1  0.541400  0.186000  0.813900  1.0  -0.3785
  O  O92  1  0.953600  0.674200  0.913400  1.0  -0.718
  O  O93  1  0.127700  0.621300  0.888800  1.0  -0.8008
  O  O94  1  0.948000  0.164400  0.702700  1.0  -0.3777
  O  O95  1  0.719900  0.728300  0.485300  1.0  -0.6658
  O  O96  1  0.649100  0.762500  0.375000  1.0  -0.7145
  O  O97  1  0.853200  0.589800  0.122000  1.0  -0.7059
  O  O98  1  0.026500  0.530700  0.099100  1.0  -0.8188
  O  O99  1  0.088900  0.582700  0.438600  1.0  -0.376
  O  O100  1  0.186000  0.541400  0.313900  1.0  -0.3816
  O  O101  1  0.674200  0.953600  0.413400  1.0  -0.7182
  O  O102  1  0.621300  0.127700  0.388800  1.0  -0.7972
  O  O103  1  0.164400  0.948000  0.202700  1.0  -0.3776
  O  O104  1  0.271700  0.280100  0.014700  1.0  -0.6667
  O  O105  1  0.237500  0.350900  0.125000  1.0  -0.7172
  O  O106  1  0.410200  0.146800  0.378000  1.0  -0.7034
  O  O107  1  0.469300  0.973500  0.400900  1.0  -0.8215
  O  O108  1  0.417300  0.911100  0.061400  1.0  -0.372
  O  O109  1  0.458600  0.814000  0.186100  1.0  -0.3818
  O  O110  1  0.046400  0.325800  0.086600  1.0  -0.7177
  O  O111  1  0.872300  0.378700  0.111200  1.0  -0.8012
  O  O112  1  0.052000  0.835600  0.297300  1.0  -0.3794
