# generated using pymatgen
data_LiH4C6NO2
_symmetry_space_group_name_H-M   'P 1'
_cell_length_a   5.39680000
_cell_length_b   11.48860000
_cell_length_c   13.42330000
_cell_angle_alpha   90.67000000
_cell_angle_beta   94.90000000
_cell_angle_gamma   91.23800000
_symmetry_Int_Tables_number   1
_chemical_formula_structural   LiH4C6NO2
_chemical_formula_sum   'Li4 H16 C24 N4 O8'
_cell_volume   828.95527201
_cell_formula_units_Z   4
loop_
 _symmetry_equiv_pos_site_id
 _symmetry_equiv_pos_as_xyz
  1  'x, y, z'
loop_
 _atom_site_type_symbol
 _atom_site_label
 _atom_site_symmetry_multiplicity
 _atom_site_fract_x
 _atom_site_fract_y
 _atom_site_fract_z
 _atom_site_occupancy
 _atom_site_charge
  Li  Li1  1  0.687300  0.987900  0.935000  1.0  0.8748
  Li  Li2  1  0.305700  0.486100  0.559700  1.0  0.8673
  Li  Li3  1  0.312700  0.012100  0.065000  1.0  0.8744
  Li  Li4  1  0.694300  0.513900  0.440300  1.0  0.8675
  H  H5  1  0.067900  0.184500  0.655000  1.0  0.1168
  H  H6  1  0.995000  0.045200  0.768800  1.0  0.0727
  H  H7  1  0.413100  0.204300  0.846400  1.0  0.0684
  H  H8  1  0.459800  0.345800  0.729700  1.0  0.122
  H  H9  1  0.557300  0.733400  0.867800  1.0  0.1255
  H  H10  1  0.595500  0.592900  0.748600  1.0  0.0671
  H  H11  1  0.950400  0.664500  0.614200  1.0  0.0723
  H  H12  1  0.884000  0.800200  0.734100  1.0  0.1186
  H  H13  1  0.932100  0.815500  0.345000  1.0  0.1179
  H  H14  1  0.005000  0.954800  0.231200  1.0  0.0736
  H  H15  1  0.586900  0.795700  0.153600  1.0  0.0679
  H  H16  1  0.540200  0.654200  0.270300  1.0  0.1227
  H  H17  1  0.442700  0.266600  0.132200  1.0  0.1246
  H  H18  1  0.404500  0.407100  0.251400  1.0  0.0679
  H  H19  1  0.049600  0.335500  0.385800  1.0  0.0728
  H  H20  1  0.116000  0.199800  0.265900  1.0  0.1184
  C  C21  1  0.824600  0.373900  0.602500  1.0  0.7226
  C  C22  1  0.772800  0.282400  0.679200  1.0  -0.0422
  C  C23  1  0.931900  0.190300  0.692700  1.0  -0.1605
  C  C24  1  0.887900  0.107500  0.762200  1.0  0.1831
  C  C25  1  0.546300  0.199900  0.807000  1.0  0.1802
  C  C26  1  0.573700  0.286200  0.737300  1.0  -0.1662
  C  C27  1  0.165800  0.870600  0.897000  1.0  0.7172
  C  C28  1  0.212700  0.782600  0.815800  1.0  -0.0352
  C  C29  1  0.429300  0.719500  0.817900  1.0  -0.1702
  C  C30  1  0.451500  0.636200  0.745100  1.0  0.1805
  C  C31  1  0.072100  0.677100  0.666800  1.0  0.1894
  C  C32  1  0.031900  0.759700  0.738000  1.0  -0.1672
  C  C33  1  0.175400  0.626100  0.397500  1.0  0.7225
  C  C34  1  0.227200  0.717600  0.320800  1.0  -0.0439
  C  C35  1  0.068100  0.809700  0.307300  1.0  -0.1605
  C  C36  1  0.112100  0.892500  0.237800  1.0  0.1825
  C  C37  1  0.453700  0.800100  0.193000  1.0  0.1812
  C  C38  1  0.426300  0.713800  0.262700  1.0  -0.1652
  C  C39  1  0.834200  0.129400  0.103000  1.0  0.7181
  C  C40  1  0.787300  0.217400  0.184200  1.0  -0.0353
  C  C41  1  0.570700  0.280500  0.182100  1.0  -0.1726
  C  C42  1  0.548500  0.363800  0.254900  1.0  0.1795
  C  C43  1  0.927900  0.322900  0.333200  1.0  0.1896
  C  C44  1  0.968100  0.240300  0.262000  1.0  -0.1688
  N  N45  1  0.699900  0.110900  0.821100  1.0  -0.4444
  N  N46  1  0.278500  0.613400  0.669200  1.0  -0.4506
  N  N47  1  0.300100  0.889100  0.178900  1.0  -0.4307
  N  N48  1  0.721500  0.386600  0.330800  1.0  -0.4546
  O  O49  1  0.038200  0.379800  0.575300  1.0  -0.6995
  O  O50  1  0.646300  0.437500  0.571100  1.0  -0.8117
  O  O51  1  0.946000  0.887600  0.911500  1.0  -0.7216
  O  O52  1  0.353300  0.920300  0.942900  1.0  -0.8123
  O  O53  1  0.961800  0.620200  0.424700  1.0  -0.6997
  O  O54  1  0.353700  0.562500  0.428900  1.0  -0.812
  O  O55  1  0.054000  0.112400  0.088500  1.0  -0.7223
  O  O56  1  0.646700  0.079700  0.057100  1.0  -0.8121
