# generated using pymatgen
data_LiH4C6NO2
_symmetry_space_group_name_H-M   'P 1'
_cell_length_a   5.40280000
_cell_length_b   11.28620000
_cell_length_c   13.91750000
_cell_angle_alpha   90.00000000
_cell_angle_beta   90.00000000
_cell_angle_gamma   102.87500000
_symmetry_Int_Tables_number   1
_chemical_formula_structural   LiH4C6NO2
_chemical_formula_sum   'Li4 H16 C24 N4 O8'
_cell_volume   827.31224354
_cell_formula_units_Z   4
loop_
 _symmetry_equiv_pos_site_id
 _symmetry_equiv_pos_as_xyz
  1  'x, y, z'
loop_
 _atom_site_type_symbol
 _atom_site_label
 _atom_site_symmetry_multiplicity
 _atom_site_fract_x
 _atom_site_fract_y
 _atom_site_fract_z
 _atom_site_occupancy
 _atom_site_charge
  Li  Li1  1  0.812400  0.008900  0.565800  1.0  0.867
  Li  Li2  1  0.687600  0.491100  0.065800  1.0  0.8668
  Li  Li3  1  0.187600  0.991100  0.434200  1.0  0.8667
  Li  Li4  1  0.312400  0.508900  0.934200  1.0  0.867
  H  H5  1  0.957400  0.724300  0.373200  1.0  0.1288
  H  H6  1  0.394500  0.668200  0.122700  1.0  0.0714
  H  H7  1  0.364300  0.810200  0.237600  1.0  0.1156
  H  H8  1  0.963700  0.582900  0.255300  1.0  0.0661
  H  H9  1  0.542600  0.775700  0.873200  1.0  0.129
  H  H10  1  0.105500  0.831800  0.622700  1.0  0.0715
  H  H11  1  0.135700  0.689800  0.737600  1.0  0.1153
  H  H12  1  0.536300  0.917100  0.755300  1.0  0.0667
  H  H13  1  0.042600  0.275700  0.626800  1.0  0.1287
  H  H14  1  0.605500  0.331800  0.877300  1.0  0.0713
  H  H15  1  0.635700  0.189800  0.762400  1.0  0.1154
  H  H16  1  0.036300  0.417100  0.744700  1.0  0.0665
  H  H17  1  0.457400  0.224300  0.126800  1.0  0.1285
  H  H18  1  0.894500  0.168200  0.377300  1.0  0.0714
  H  H19  1  0.864300  0.310200  0.262400  1.0  0.1154
  H  H20  1  0.463700  0.082900  0.244700  1.0  0.066
  C  C21  1  0.635900  0.874800  0.396890  1.0  0.75
  C  C22  1  0.658500  0.784400  0.318840  1.0  -0.0513
  C  C23  1  0.840300  0.714400  0.323200  1.0  -0.1544
  C  C24  1  0.508100  0.679300  0.173860  1.0  0.1871
  C  C25  1  0.489100  0.765500  0.242550  1.0  -0.1569
  C  C26  1  0.842700  0.629800  0.251590  1.0  0.1906
  C  C27  1  0.864100  0.625200  0.896890  1.0  0.7494
  C  C28  1  0.841500  0.715600  0.818840  1.0  -0.0499
  C  C29  1  0.659700  0.785600  0.823200  1.0  -0.1548
  C  C30  1  0.991900  0.820700  0.673860  1.0  0.1878
  C  C31  1  0.010900  0.734500  0.742550  1.0  -0.1578
  C  C32  1  0.657300  0.870200  0.751590  1.0  0.1896
  C  C33  1  0.364100  0.125200  0.603110  1.0  0.7488
  C  C34  1  0.341500  0.215600  0.681160  1.0  -0.0499
  C  C35  1  0.159700  0.285600  0.676800  1.0  -0.1556
  C  C36  1  0.491900  0.320700  0.826140  1.0  0.1887
  C  C37  1  0.510900  0.234500  0.757450  1.0  -0.1585
  C  C38  1  0.157300  0.370200  0.748410  1.0  0.1898
  C  C39  1  0.135900  0.374800  0.103110  1.0  0.7495
  C  C40  1  0.158500  0.284400  0.181160  1.0  -0.0506
  C  C41  1  0.340300  0.214400  0.176800  1.0  -0.1562
  C  C42  1  0.008100  0.179300  0.326140  1.0  0.1875
  C  C43  1  0.989100  0.265500  0.257450  1.0  -0.158
  C  C44  1  0.342700  0.129800  0.248410  1.0  0.1904
  N  N45  1  0.681600  0.611200  0.177270  1.0  -0.4537
  N  N46  1  0.818400  0.888800  0.677270  1.0  -0.4572
  N  N47  1  0.318400  0.388800  0.822730  1.0  -0.4648
  N  N48  1  0.181600  0.111200  0.322730  1.0  -0.4598
  O  O49  1  0.826000  0.913020  0.449430  1.0  -0.8134
  O  O50  1  0.427900  0.904170  0.402970  1.0  -0.7396
  O  O51  1  0.674000  0.586980  0.949430  1.0  -0.8134
  O  O52  1  0.072100  0.595830  0.902970  1.0  -0.7402
  O  O53  1  0.174000  0.086980  0.550570  1.0  -0.8132
  O  O54  1  0.572100  0.095830  0.597030  1.0  -0.7409
  O  O55  1  0.326000  0.413020  0.050570  1.0  -0.8136
  O  O56  1  0.927900  0.404170  0.097030  1.0  -0.7404
