# generated using pymatgen
data_LiH4C6NO2
_symmetry_space_group_name_H-M   'P 1'
_cell_length_a   5.47330000
_cell_length_b   11.73040000
_cell_length_c   13.45800000
_cell_angle_alpha   90.00000000
_cell_angle_beta   90.00000000
_cell_angle_gamma   101.16600000
_symmetry_Int_Tables_number   1
_chemical_formula_structural   LiH4C6NO2
_chemical_formula_sum   'Li4 H16 C24 N4 O8'
_cell_volume   847.70101312
_cell_formula_units_Z   4
loop_
 _symmetry_equiv_pos_site_id
 _symmetry_equiv_pos_as_xyz
  1  'x, y, z'
loop_
 _atom_site_type_symbol
 _atom_site_label
 _atom_site_symmetry_multiplicity
 _atom_site_fract_x
 _atom_site_fract_y
 _atom_site_fract_z
 _atom_site_occupancy
 _atom_site_charge
  Li  Li1  1  0.922500  0.739700  0.016200  1.0  0.8688
  Li  Li2  1  0.557900  0.760400  0.155600  1.0  0.8734
  Li  Li3  1  0.077500  0.260300  0.516200  1.0  0.8706
  Li  Li4  1  0.442100  0.239600  0.655600  1.0  0.8733
  H  H5  1  0.391700  0.948500  0.342200  1.0  0.1121
  H  H6  1  0.380400  0.097900  0.451800  1.0  0.0704
  H  H7  1  0.794400  0.171200  0.322000  1.0  0.0719
  H  H8  1  0.783900  0.022700  0.209000  1.0  0.1246
  H  H9  1  0.904300  0.452600  0.327900  1.0  0.1139
  H  H10  1  0.876600  0.596500  0.216200  1.0  0.0704
  H  H11  1  0.297100  0.521300  0.465200  1.0  0.1251
  H  H12  1  0.297300  0.669400  0.352100  1.0  0.0736
  H  H13  1  0.608300  0.051500  0.842200  1.0  0.1124
  H  H14  1  0.619600  0.902100  0.951800  1.0  0.0699
  H  H15  1  0.205600  0.828800  0.822000  1.0  0.0713
  H  H16  1  0.216100  0.977300  0.709000  1.0  0.1248
  H  H17  1  0.095700  0.547400  0.827900  1.0  0.1143
  H  H18  1  0.123400  0.403500  0.716200  1.0  0.0702
  H  H19  1  0.702900  0.478700  0.965200  1.0  0.1254
  H  H20  1  0.702700  0.330600  0.852100  1.0  0.0735
  C  C21  1  0.098900  0.870200  0.189200  1.0  0.7309
  C  C22  1  0.087100  0.967200  0.263200  1.0  -0.055
  C  C23  1  0.267200  0.992000  0.336900  1.0  -0.1611
  C  C24  1  0.259300  0.082500  0.402500  1.0  0.1822
  C  C25  1  0.914700  0.125200  0.326300  1.0  0.1865
  C  C26  1  0.906900  0.036100  0.257600  1.0  -0.143
  C  C27  1  0.623700  0.375200  0.484700  1.0  0.7342
  C  C28  1  0.602400  0.469100  0.409600  1.0  -0.0615
  C  C29  1  0.777100  0.494500  0.333800  1.0  -0.1535
  C  C30  1  0.760400  0.582100  0.267400  1.0  0.185
  C  C31  1  0.418100  0.535600  0.415900  1.0  -0.1497
  C  C32  1  0.418800  0.624200  0.346600  1.0  0.1852
  C  C33  1  0.901100  0.129800  0.689200  1.0  0.7309
  C  C34  1  0.912900  0.032800  0.763200  1.0  -0.0547
  C  C35  1  0.732800  0.008000  0.836900  1.0  -0.1597
  C  C36  1  0.740700  0.917500  0.902500  1.0  0.1839
  C  C37  1  0.085300  0.874800  0.826300  1.0  0.1856
  C  C38  1  0.093100  0.963900  0.757600  1.0  -0.1433
  C  C39  1  0.376300  0.624800  0.984700  1.0  0.7334
  C  C40  1  0.397600  0.530900  0.909600  1.0  -0.0634
  C  C41  1  0.222900  0.505500  0.833800  1.0  -0.1529
  C  C42  1  0.239600  0.417900  0.767400  1.0  0.187
  C  C43  1  0.581900  0.464400  0.915900  1.0  -0.1515
  C  C44  1  0.581200  0.375800  0.846600  1.0  0.1861
  N  N45  1  0.085800  0.148600  0.398350  1.0  -0.443
  N  N46  1  0.585100  0.647800  0.272550  1.0  -0.4399
  N  N47  1  0.914200  0.851400  0.898350  1.0  -0.447
  N  N48  1  0.414900  0.352200  0.772550  1.0  -0.4472
  O  O49  1  0.909400  0.835260  0.136150  1.0  -0.8197
  O  O50  1  0.296600  0.833920  0.186270  1.0  -0.7327
  O  O51  1  0.432200  0.335010  0.535430  1.0  -0.8196
  O  O52  1  0.828300  0.346100  0.490730  1.0  -0.726
  O  O53  1  0.090600  0.164740  0.636150  1.0  -0.8196
  O  O54  1  0.703400  0.166080  0.686270  1.0  -0.7313
  O  O55  1  0.567800  0.664990  0.035430  1.0  -0.8197
  O  O56  1  0.171700  0.653900  0.990730  1.0  -0.7257
