# generated using pymatgen
data_LiH4C6NO2
_symmetry_space_group_name_H-M   'P 1'
_cell_length_a   10.86810000
_cell_length_b   9.83580000
_cell_length_c   14.60590000
_cell_angle_alpha   90.00000000
_cell_angle_beta   94.09600000
_cell_angle_gamma   90.00000000
_symmetry_Int_Tables_number   1
_chemical_formula_structural   LiH4C6NO2
_chemical_formula_sum   'Li8 H32 C48 N8 O16'
_cell_volume   1557.33101091
_cell_formula_units_Z   8
loop_
 _symmetry_equiv_pos_site_id
 _symmetry_equiv_pos_as_xyz
  1  'x, y, z'
loop_
 _atom_site_type_symbol
 _atom_site_label
 _atom_site_symmetry_multiplicity
 _atom_site_fract_x
 _atom_site_fract_y
 _atom_site_fract_z
 _atom_site_occupancy
 _atom_site_charge
  Li  Li1  1  0.089800  0.021200  0.439500  1.0  0.8789
  Li  Li2  1  0.404700  0.984200  0.555900  1.0  0.8758
  Li  Li3  1  0.910200  0.521200  0.060500  1.0  0.8787
  Li  Li4  1  0.595300  0.484200  0.944100  1.0  0.8762
  Li  Li5  1  0.910200  0.978800  0.560500  1.0  0.8783
  Li  Li6  1  0.595300  0.015800  0.444100  1.0  0.8765
  Li  Li7  1  0.089800  0.478800  0.939500  1.0  0.8787
  Li  Li8  1  0.404700  0.515800  0.055900  1.0  0.8762
  H  H9  1  0.211900  0.339600  0.131400  1.0  0.0646
  H  H10  1  0.557800  0.395400  0.216800  1.0  0.0682
  H  H11  1  0.177800  0.208300  0.259100  1.0  0.1117
  H  H12  1  0.537400  0.256500  0.343200  1.0  0.1013
  H  H13  1  0.962900  0.531400  0.744100  1.0  0.0615
  H  H14  1  0.240800  0.703300  0.885000  1.0  0.0704
  H  H15  1  0.284300  0.837000  0.760800  1.0  0.117
  H  H16  1  0.989800  0.669000  0.618400  1.0  0.1195
  H  H17  1  0.788100  0.839600  0.368600  1.0  0.0651
  H  H18  1  0.442200  0.895400  0.283200  1.0  0.0686
  H  H19  1  0.822200  0.708300  0.240900  1.0  0.1117
  H  H20  1  0.462600  0.756500  0.156800  1.0  0.1012
  H  H21  1  0.037100  0.031400  0.755900  1.0  0.062
  H  H22  1  0.759200  0.203300  0.615000  1.0  0.071
  H  H23  1  0.715700  0.337000  0.739200  1.0  0.1179
  H  H24  1  0.010200  0.169000  0.881600  1.0  0.1199
  H  H25  1  0.788100  0.660400  0.868600  1.0  0.065
  H  H26  1  0.442200  0.604600  0.783200  1.0  0.0688
  H  H27  1  0.822200  0.791700  0.740900  1.0  0.1117
  H  H28  1  0.462600  0.743500  0.656800  1.0  0.101
  H  H29  1  0.037100  0.468600  0.255900  1.0  0.0617
  H  H30  1  0.759200  0.296700  0.115000  1.0  0.0722
  H  H31  1  0.715700  0.163000  0.239200  1.0  0.1176
  H  H32  1  0.010200  0.331000  0.381600  1.0  0.1198
  H  H33  1  0.211900  0.160400  0.631400  1.0  0.0646
  H  H34  1  0.557800  0.104600  0.716800  1.0  0.0685
  H  H35  1  0.177800  0.291700  0.759100  1.0  0.112
  H  H36  1  0.537400  0.243500  0.843200  1.0  0.1013
  H  H37  1  0.962900  0.968600  0.244100  1.0  0.0617
  H  H38  1  0.240800  0.796700  0.385000  1.0  0.0721
  H  H39  1  0.284300  0.663000  0.260800  1.0  0.1172
  H  H40  1  0.989800  0.831000  0.118400  1.0  0.1198
  C  C41  1  0.278500  0.324500  0.176030  1.0  0.1754
  C  C42  1  0.479740  0.355600  0.225030  1.0  0.1689
  C  C43  1  0.257400  0.244700  0.251690  1.0  -0.1757
  C  C44  1  0.468050  0.274200  0.301500  1.0  -0.1503
  C  C45  1  0.354210  0.219100  0.316200  1.0  -0.0885
  C  C46  1  0.332910  0.137000  0.401240  1.0  0.6785
  C  C47  1  0.028200  0.595900  0.747970  1.0  0.1541
  C  C48  1  0.190500  0.694300  0.829400  1.0  0.1613
  C  C49  1  0.216300  0.776100  0.755910  1.0  -0.2006
  C  C50  1  0.141380  0.767600  0.675200  1.0  -0.0843
  C  C51  1  0.044400  0.676400  0.671960  1.0  -0.1852
  C  C52  1  0.167560  0.852900  0.592420  1.0  0.7024
  C  C53  1  0.721500  0.824500  0.323970  1.0  0.1761
  C  C54  1  0.520260  0.855600  0.274970  1.0  0.1684
  C  C55  1  0.742600  0.744700  0.248310  1.0  -0.1769
  C  C56  1  0.531950  0.774200  0.198500  1.0  -0.1508
  C  C57  1  0.645790  0.719100  0.183800  1.0  -0.0893
  C  C58  1  0.667090  0.637000  0.098760  1.0  0.6779
  C  C59  1  0.971800  0.095900  0.752030  1.0  0.154
  C  C60  1  0.809500  0.194300  0.670600  1.0  0.1618
  C  C61  1  0.783700  0.276100  0.744090  1.0  -0.2006
  C  C62  1  0.858620  0.267600  0.824800  1.0  -0.0852
  C  C63  1  0.955600  0.176400  0.828040  1.0  -0.1842
  C  C64  1  0.832440  0.352900  0.907580  1.0  0.7014
  C  C65  1  0.721500  0.675500  0.823970  1.0  0.1761
  C  C66  1  0.520260  0.644400  0.774970  1.0  0.169
  C  C67  1  0.742600  0.755300  0.748310  1.0  -0.1766
  C  C68  1  0.531950  0.725800  0.698500  1.0  -0.1509
  C  C69  1  0.645790  0.780900  0.683800  1.0  -0.0892
  C  C70  1  0.667090  0.863000  0.598760  1.0  0.6772
  C  C71  1  0.971800  0.404100  0.252030  1.0  0.1542
  C  C72  1  0.809500  0.305700  0.170600  1.0  0.1612
  C  C73  1  0.783700  0.223900  0.244090  1.0  -0.2007
  C  C74  1  0.858620  0.232400  0.324800  1.0  -0.0853
  C  C75  1  0.955600  0.323600  0.328040  1.0  -0.1842
  C  C76  1  0.832440  0.147100  0.407580  1.0  0.7015
  C  C77  1  0.278500  0.175500  0.676030  1.0  0.1757
  C  C78  1  0.479740  0.144400  0.725030  1.0  0.1689
  C  C79  1  0.257400  0.255300  0.751690  1.0  -0.1755
  C  C80  1  0.468050  0.225800  0.801500  1.0  -0.1505
  C  C81  1  0.354210  0.280900  0.816200  1.0  -0.0896
  C  C82  1  0.332910  0.363000  0.901240  1.0  0.6784
  C  C83  1  0.028200  0.904100  0.247970  1.0  0.1544
  C  C84  1  0.190500  0.805700  0.329400  1.0  0.1609
  C  C85  1  0.216300  0.723900  0.255910  1.0  -0.2001
  C  C86  1  0.141380  0.732400  0.175200  1.0  -0.0851
  C  C87  1  0.044400  0.823600  0.171960  1.0  -0.1848
  C  C88  1  0.167560  0.647100  0.092420  1.0  0.703
  N  N89  1  0.387020  0.381100  0.162530  1.0  -0.3511
  N  N90  1  0.098950  0.603800  0.826440  1.0  -0.3568
  N  N91  1  0.612980  0.881100  0.337470  1.0  -0.3511
  N  N92  1  0.901050  0.103800  0.673560  1.0  -0.3565
  N  N93  1  0.612980  0.618900  0.837470  1.0  -0.3515
  N  N94  1  0.901050  0.396200  0.173560  1.0  -0.356
  N  N95  1  0.387020  0.118900  0.662530  1.0  -0.3521
  N  N96  1  0.098950  0.896200  0.326440  1.0  -0.357
  O  O97  1  0.226760  0.136820  0.428410  1.0  -0.6651
  O  O98  1  0.424600  0.076300  0.439540  1.0  -0.8033
  O  O99  1  0.276570  0.859060  0.572420  1.0  -0.6612
  O  O100  1  0.076660  0.910000  0.550230  1.0  -0.788
  O  O101  1  0.773240  0.636820  0.071590  1.0  -0.6643
  O  O102  1  0.575400  0.576300  0.060460  1.0  -0.8023
  O  O103  1  0.723430  0.359060  0.927580  1.0  -0.6614
  O  O104  1  0.923340  0.410000  0.949770  1.0  -0.7892
  O  O105  1  0.773240  0.863180  0.571590  1.0  -0.6653
  O  O106  1  0.575400  0.923700  0.560460  1.0  -0.8026
  O  O107  1  0.723430  0.140940  0.427580  1.0  -0.6619
  O  O108  1  0.923340  0.090000  0.449770  1.0  -0.7891
  O  O109  1  0.226760  0.363180  0.928410  1.0  -0.6652
  O  O110  1  0.424600  0.423700  0.939540  1.0  -0.8031
  O  O111  1  0.276570  0.640940  0.072420  1.0  -0.6609
  O  O112  1  0.076660  0.590000  0.050230  1.0  -0.7879
