# generated using pymatgen
data_LiH4C6NO2
_symmetry_space_group_name_H-M   'P 1'
_cell_length_a   10.80930000
_cell_length_b   14.34760000
_cell_length_c   10.82430000
_cell_angle_alpha   90.00000000
_cell_angle_beta   103.55900000
_cell_angle_gamma   90.00000000
_symmetry_Int_Tables_number   1
_chemical_formula_structural   LiH4C6NO2
_chemical_formula_sum   'Li8 H32 C48 N8 O16'
_cell_volume   1631.92635886
_cell_formula_units_Z   8
loop_
 _symmetry_equiv_pos_site_id
 _symmetry_equiv_pos_as_xyz
  1  'x, y, z'
loop_
 _atom_site_type_symbol
 _atom_site_label
 _atom_site_symmetry_multiplicity
 _atom_site_fract_x
 _atom_site_fract_y
 _atom_site_fract_z
 _atom_site_occupancy
 _atom_site_charge
  Li  Li1  1  0.469600  0.482600  0.744300  1.0  0.8751
  Li  Li2  1  0.273600  0.358300  0.747900  1.0  0.8899
  Li  Li3  1  0.972000  0.489500  0.739200  1.0  0.8847
  Li  Li4  1  0.782000  0.360100  0.765900  1.0  0.858
  Li  Li5  1  0.530400  0.982600  0.255700  1.0  0.8753
  Li  Li6  1  0.726400  0.858300  0.252100  1.0  0.8901
  Li  Li7  1  0.028000  0.989500  0.260800  1.0  0.8842
  Li  Li8  1  0.218000  0.860100  0.234100  1.0  0.8569
  H  H9  1  0.689000  0.043300  0.073500  1.0  0.0689
  H  H10  1  0.072400  0.796500  0.407200  1.0  0.0776
  H  H11  1  0.054900  0.680000  0.549600  1.0  0.1086
  H  H12  1  0.173100  0.157200  0.923000  1.0  0.118
  H  H13  1  0.150900  0.040200  0.064000  1.0  0.0783
  H  H14  1  0.908600  0.306500  0.048300  1.0  0.122
  H  H15  1  0.611900  0.815100  0.464400  1.0  0.083
  H  H16  1  0.900900  0.187200  0.190800  1.0  0.0782
  H  H17  1  0.853900  0.667800  0.324700  1.0  0.0705
  H  H18  1  0.844300  0.545300  0.462700  1.0  0.1283
  H  H19  1  0.584300  0.693500  0.596000  1.0  0.1128
  H  H20  1  0.706600  0.166400  0.939700  1.0  0.1196
  H  H21  1  0.376400  0.678700  0.335700  1.0  0.0672
  H  H22  1  0.372600  0.145300  0.136300  1.0  0.0715
  H  H23  1  0.373200  0.561700  0.482900  1.0  0.1172
  H  H24  1  0.374600  0.267900  0.997400  1.0  0.1241
  H  H25  1  0.311000  0.543300  0.926500  1.0  0.0686
  H  H26  1  0.927600  0.296500  0.592800  1.0  0.0774
  H  H27  1  0.945100  0.180000  0.450400  1.0  0.1086
  H  H28  1  0.826900  0.657200  0.077000  1.0  0.1187
  H  H29  1  0.849100  0.540200  0.936000  1.0  0.0783
  H  H30  1  0.091400  0.806500  0.951700  1.0  0.1221
  H  H31  1  0.388100  0.315100  0.535600  1.0  0.0824
  H  H32  1  0.099100  0.687200  0.809200  1.0  0.0776
  H  H33  1  0.146100  0.167800  0.675300  1.0  0.0704
  H  H34  1  0.155700  0.045300  0.537300  1.0  0.1278
  H  H35  1  0.415700  0.193500  0.404000  1.0  0.1123
  H  H36  1  0.293400  0.666400  0.060300  1.0  0.1196
  H  H37  1  0.623600  0.178700  0.664300  1.0  0.0672
  H  H38  1  0.627400  0.645300  0.863700  1.0  0.0717
  H  H39  1  0.626800  0.061700  0.517100  1.0  0.1168
  H  H40  1  0.625400  0.767900  0.002600  1.0  0.1246
  C  C41  1  0.625800  0.090610  0.059800  1.0  0.1614
  C  C42  1  0.132900  0.747340  0.421100  1.0  0.1666
  C  C43  1  0.122400  0.678360  0.507100  1.0  -0.1456
  C  C44  1  0.043750  0.245610  0.970730  1.0  -0.091
  C  C45  1  0.058680  0.323980  0.880800  1.0  0.7046
  C  C46  1  0.711160  0.605590  0.543700  1.0  -0.0949
  C  C47  1  0.115700  0.164870  0.976600  1.0  -0.1796
  C  C48  1  0.102300  0.095650  0.062000  1.0  0.1607
  C  C49  1  0.961000  0.252980  0.050920  1.0  -0.1675
  C  C50  1  0.694400  0.525480  0.628750  1.0  0.7055
  C  C51  1  0.657700  0.758900  0.462300  1.0  0.1447
  C  C52  1  0.196600  0.528010  0.619900  1.0  0.7034
  C  C53  1  0.956200  0.180830  0.134820  1.0  0.1617
  C  C54  1  0.800200  0.673630  0.382300  1.0  0.1612
  C  C55  1  0.793500  0.599360  0.462900  1.0  -0.164
  C  C56  1  0.642000  0.687070  0.542400  1.0  -0.1568
  C  C57  1  0.636600  0.163530  0.978850  1.0  -0.1787
  C  C58  1  0.210900  0.606910  0.531170  1.0  -0.0847
  C  C59  1  0.310600  0.679170  0.380500  1.0  0.1657
  C  C60  1  0.557170  0.317350  0.877470  1.0  0.69
  C  C61  1  0.441000  0.149500  0.095200  1.0  0.1642
  C  C62  1  0.543500  0.232360  0.955910  1.0  -0.0963
  C  C63  1  0.308900  0.608280  0.467300  1.0  -0.1623
  C  C64  1  0.442000  0.223740  0.013600  1.0  -0.1666
  C  C65  1  0.374200  0.590610  0.940200  1.0  0.1629
  C  C66  1  0.867100  0.247340  0.578900  1.0  0.1662
  C  C67  1  0.877600  0.178360  0.492900  1.0  -0.1461
  C  C68  1  0.956250  0.745610  0.029270  1.0  -0.0917
  C  C69  1  0.941320  0.823980  0.119200  1.0  0.7046
  C  C70  1  0.288840  0.105590  0.456300  1.0  -0.0938
  C  C71  1  0.884300  0.664870  0.023400  1.0  -0.1794
  C  C72  1  0.897700  0.595650  0.938000  1.0  0.1615
  C  C73  1  0.039000  0.752980  0.949080  1.0  -0.1668
  C  C74  1  0.305600  0.025480  0.371250  1.0  0.7047
  C  C75  1  0.342300  0.258900  0.537700  1.0  0.1448
  C  C76  1  0.803400  0.028010  0.380100  1.0  0.7006
  C  C77  1  0.043800  0.680830  0.865180  1.0  0.1624
  C  C78  1  0.199800  0.173630  0.617700  1.0  0.1616
  C  C79  1  0.206500  0.099360  0.537100  1.0  -0.1638
  C  C80  1  0.358000  0.187070  0.457600  1.0  -0.1538
  C  C81  1  0.363400  0.663530  0.021150  1.0  -0.1787
  C  C82  1  0.789100  0.106910  0.468830  1.0  -0.0845
  C  C83  1  0.689400  0.179170  0.619500  1.0  0.1657
  C  C84  1  0.442830  0.817350  0.122530  1.0  0.6912
  C  C85  1  0.559000  0.649500  0.904800  1.0  0.1638
  C  C86  1  0.456500  0.732360  0.044090  1.0  -0.0968
  C  C87  1  0.691100  0.108280  0.532700  1.0  -0.1623
  C  C88  1  0.558000  0.723740  0.986400  1.0  -0.1669
  N  N89  1  0.734950  0.752820  0.381510  1.0  -0.3588
  N  N90  1  0.025170  0.102560  0.141400  1.0  -0.3502
  N  N91  1  0.224830  0.748220  0.355950  1.0  -0.3724
  N  N92  1  0.531020  0.083460  0.119690  1.0  -0.3516
  N  N93  1  0.265050  0.252820  0.618490  1.0  -0.3608
  N  N94  1  0.974830  0.602560  0.858600  1.0  -0.3491
  N  N95  1  0.775170  0.248220  0.644050  1.0  -0.3767
  N  N96  1  0.468980  0.583460  0.880310  1.0  -0.3518
  O  O97  1  0.965510  0.377360  0.843290  1.0  -0.8159
  O  O98  1  0.787770  0.471230  0.665260  1.0  -0.7994
  O  O99  1  0.092350  0.520980  0.648320  1.0  -0.7022
  O  O100  1  0.668800  0.338850  0.873270  1.0  -0.6777
  O  O101  1  0.290660  0.474260  0.657230  1.0  -0.8347
  O  O102  1  0.163000  0.328920  0.851670  1.0  -0.7056
  O  O103  1  0.459040  0.361660  0.826280  1.0  -0.7849
  O  O104  1  0.589180  0.518640  0.655810  1.0  -0.7003
  O  O105  1  0.034490  0.877360  0.156710  1.0  -0.8176
  O  O106  1  0.212230  0.971230  0.334740  1.0  -0.7989
  O  O107  1  0.907650  0.020980  0.351680  1.0  -0.7023
  O  O108  1  0.331200  0.838850  0.126730  1.0  -0.677
  O  O109  1  0.709340  0.974260  0.342770  1.0  -0.8341
  O  O110  1  0.837000  0.828920  0.148330  1.0  -0.7045
  O  O111  1  0.540960  0.861660  0.173720  1.0  -0.786
  O  O112  1  0.410820  0.018640  0.344190  1.0  -0.699
