# generated using pymatgen
data_LiH4C6NO2
_symmetry_space_group_name_H-M   'P 1'
_cell_length_a   10.24020000
_cell_length_b   9.50230000
_cell_length_c   15.29120000
_cell_angle_alpha   90.00000000
_cell_angle_beta   98.32800000
_cell_angle_gamma   90.00000000
_symmetry_Int_Tables_number   1
_chemical_formula_structural   LiH4C6NO2
_chemical_formula_sum   'Li8 H32 C48 N8 O16'
_cell_volume   1472.22723471
_cell_formula_units_Z   8
loop_
 _symmetry_equiv_pos_site_id
 _symmetry_equiv_pos_as_xyz
  1  'x, y, z'
loop_
 _atom_site_type_symbol
 _atom_site_label
 _atom_site_symmetry_multiplicity
 _atom_site_fract_x
 _atom_site_fract_y
 _atom_site_fract_z
 _atom_site_occupancy
 _atom_site_charge
  Li  Li1  1  0.649100  0.032000  0.564900  1.0  0.8983
  Li  Li2  1  0.838600  0.961300  0.464700  1.0  0.8981
  Li  Li3  1  0.850900  0.532000  0.935100  1.0  0.8973
  Li  Li4  1  0.661400  0.461300  0.035300  1.0  0.8976
  Li  Li5  1  0.350900  0.968000  0.435100  1.0  0.8972
  Li  Li6  1  0.161400  0.038700  0.535300  1.0  0.8983
  Li  Li7  1  0.149100  0.468000  0.064900  1.0  0.8982
  Li  Li8  1  0.338600  0.538700  0.964700  1.0  0.8983
  H  H9  1  0.709400  0.332900  0.813900  1.0  0.0724
  H  H10  1  0.726200  0.188800  0.695100  1.0  0.097
  H  H11  1  0.084800  0.358900  0.681200  1.0  0.1117
  H  H12  1  0.451000  0.566200  0.382300  1.0  0.1091
  H  H13  1  0.821100  0.658100  0.501800  1.0  0.1207
  H  H14  1  0.879300  0.428200  0.474900  1.0  0.0646
  H  H15  1  0.054700  0.502400  0.798400  1.0  0.0693
  H  H16  1  0.521800  0.339800  0.359900  1.0  0.0607
  H  H17  1  0.790600  0.832900  0.686100  1.0  0.0728
  H  H18  1  0.773800  0.688800  0.804900  1.0  0.0969
  H  H19  1  0.415200  0.858900  0.818800  1.0  0.1119
  H  H20  1  0.049000  0.066200  0.117700  1.0  0.1086
  H  H21  1  0.678900  0.158100  0.998200  1.0  0.1214
  H  H22  1  0.620700  0.928200  0.025100  1.0  0.0655
  H  H23  1  0.445300  0.002400  0.701600  1.0  0.0699
  H  H24  1  0.978200  0.839800  0.140100  1.0  0.061
  H  H25  1  0.290600  0.667100  0.186100  1.0  0.0727
  H  H26  1  0.273800  0.811200  0.304900  1.0  0.0971
  H  H27  1  0.915200  0.641100  0.318800  1.0  0.1118
  H  H28  1  0.549000  0.433800  0.617700  1.0  0.1089
  H  H29  1  0.178900  0.341900  0.498200  1.0  0.1211
  H  H30  1  0.120700  0.571800  0.525100  1.0  0.0652
  H  H31  1  0.945300  0.497600  0.201600  1.0  0.0696
  H  H32  1  0.478200  0.660200  0.640100  1.0  0.061
  H  H33  1  0.209400  0.167100  0.313900  1.0  0.0722
  H  H34  1  0.226200  0.311200  0.195100  1.0  0.0973
  H  H35  1  0.584800  0.141100  0.181200  1.0  0.1117
  H  H36  1  0.951000  0.933800  0.882300  1.0  0.109
  H  H37  1  0.321100  0.841900  0.001800  1.0  0.1213
  H  H38  1  0.379300  0.071800  0.974900  1.0  0.0643
  H  H39  1  0.554700  0.997600  0.298400  1.0  0.0691
  H  H40  1  0.021800  0.160200  0.859900  1.0  0.0613
  C  C41  1  0.928000  0.157900  0.599400  1.0  0.6939
  C  C42  1  0.908000  0.256400  0.673700  1.0  -0.0933
  C  C43  1  0.629300  0.638700  0.444200  1.0  -0.0589
  C  C44  1  0.786600  0.338700  0.786300  1.0  0.1583
  C  C45  1  0.796100  0.251800  0.715500  1.0  -0.1729
  C  C46  1  0.006000  0.352000  0.706900  1.0  -0.1658
  C  C47  1  0.540100  0.540400  0.401900  1.0  -0.1664
  C  C48  1  0.584500  0.787900  0.458600  1.0  0.6885
  C  C49  1  0.757600  0.595000  0.472200  1.0  -0.1739
  C  C50  1  0.791000  0.457200  0.456000  1.0  0.1414
  C  C51  1  0.987600  0.436600  0.777600  1.0  0.1527
  C  C52  1  0.583100  0.405700  0.389000  1.0  0.1503
  C  C53  1  0.572000  0.657900  0.900600  1.0  0.694
  C  C54  1  0.592000  0.756400  0.826300  1.0  -0.0925
  C  C55  1  0.870700  0.138700  0.055800  1.0  -0.0591
  C  C56  1  0.713400  0.838700  0.713700  1.0  0.1586
  C  C57  1  0.703900  0.751800  0.784500  1.0  -0.1722
  C  C58  1  0.494000  0.852000  0.793100  1.0  -0.1645
  C  C59  1  0.959900  0.040400  0.098100  1.0  -0.1649
  C  C60  1  0.915500  0.287900  0.041400  1.0  0.6872
  C  C61  1  0.742400  0.095000  0.027800  1.0  -0.1753
  C  C62  1  0.709000  0.957200  0.044000  1.0  0.1429
  C  C63  1  0.512400  0.936600  0.722400  1.0  0.1528
  C  C64  1  0.916900  0.905700  0.111000  1.0  0.151
  C  C65  1  0.072000  0.842100  0.400600  1.0  0.6937
  C  C66  1  0.092000  0.743600  0.326300  1.0  -0.0927
  C  C67  1  0.370700  0.361300  0.555800  1.0  -0.0596
  C  C68  1  0.213400  0.661300  0.213700  1.0  0.1584
  C  C69  1  0.203900  0.748200  0.284500  1.0  -0.1719
  C  C70  1  0.994000  0.648000  0.293100  1.0  -0.1645
  C  C71  1  0.459900  0.459600  0.598100  1.0  -0.1654
  C  C72  1  0.415500  0.212100  0.541400  1.0  0.6872
  C  C73  1  0.242400  0.405000  0.527800  1.0  -0.1761
  C  C74  1  0.209000  0.542800  0.544000  1.0  0.1422
  C  C75  1  0.012400  0.563400  0.222400  1.0  0.1528
  C  C76  1  0.416900  0.594300  0.611000  1.0  0.151
  C  C77  1  0.428000  0.342100  0.099400  1.0  0.695
  C  C78  1  0.408000  0.243600  0.173700  1.0  -0.0918
  C  C79  1  0.129300  0.861300  0.944200  1.0  -0.0604
  C  C80  1  0.286600  0.161300  0.286300  1.0  0.1583
  C  C81  1  0.296100  0.248200  0.215500  1.0  -0.1726
  C  C82  1  0.506000  0.148000  0.206900  1.0  -0.1656
  C  C83  1  0.040100  0.959600  0.901900  1.0  -0.1661
  C  C84  1  0.084500  0.712100  0.958600  1.0  0.6887
  C  C85  1  0.257600  0.905000  0.972200  1.0  -0.1742
  C  C86  1  0.291000  0.042800  0.956000  1.0  0.1411
  C  C87  1  0.487600  0.063400  0.277600  1.0  0.1527
  C  C88  1  0.083100  0.094300  0.889000  1.0  0.1501
  N  N89  1  0.880100  0.430800  0.818400  1.0  -0.353
  N  N90  1  0.707200  0.363400  0.415600  1.0  -0.429
  N  N91  1  0.619900  0.930800  0.681600  1.0  -0.3546
  N  N92  1  0.792800  0.863400  0.084400  1.0  -0.4319
  N  N93  1  0.119900  0.569200  0.181600  1.0  -0.3547
  N  N94  1  0.292800  0.636600  0.584400  1.0  -0.4324
  N  N95  1  0.380100  0.069200  0.318400  1.0  -0.3531
  N  N96  1  0.207200  0.136600  0.915600  1.0  -0.4307
  O  O97  1  0.835000  0.073000  0.573400  1.0  -0.819
  O  O98  1  0.673200  0.877400  0.484300  1.0  -0.8145
  O  O99  1  0.034800  0.165700  0.569800  1.0  -0.6212
  O  O100  1  0.464200  0.811900  0.444700  1.0  -0.621
  O  O101  1  0.665000  0.573000  0.926600  1.0  -0.8168
  O  O102  1  0.826800  0.377400  0.015700  1.0  -0.8119
  O  O103  1  0.465200  0.665700  0.930200  1.0  -0.6213
  O  O104  1  0.035800  0.311900  0.055300  1.0  -0.6209
  O  O105  1  0.165000  0.927000  0.426600  1.0  -0.8176
  O  O106  1  0.326800  0.122600  0.515700  1.0  -0.8127
  O  O107  1  0.965200  0.834300  0.430200  1.0  -0.6214
  O  O108  1  0.535800  0.188100  0.555300  1.0  -0.6209
  O  O109  1  0.335000  0.427000  0.073400  1.0  -0.8179
  O  O110  1  0.173200  0.622600  0.984300  1.0  -0.8141
  O  O111  1  0.534800  0.334300  0.069800  1.0  -0.6212
  O  O112  1  0.964200  0.688100  0.944700  1.0  -0.6213
