# generated using pymatgen
data_LiH4C6NO2
_symmetry_space_group_name_H-M   'P 1'
_cell_length_a   5.40130000
_cell_length_b   17.64400000
_cell_length_c   17.82500000
_cell_angle_alpha   89.39100000
_cell_angle_beta   85.70800000
_cell_angle_gamma   86.26800000
_symmetry_Int_Tables_number   1
_chemical_formula_structural   LiH4C6NO2
_chemical_formula_sum   'Li8 H32 C48 N8 O16'
_cell_volume   1690.34765020
_cell_formula_units_Z   8
loop_
 _symmetry_equiv_pos_site_id
 _symmetry_equiv_pos_as_xyz
  1  'x, y, z'
loop_
 _atom_site_type_symbol
 _atom_site_label
 _atom_site_symmetry_multiplicity
 _atom_site_fract_x
 _atom_site_fract_y
 _atom_site_fract_z
 _atom_site_occupancy
 _atom_site_charge
  Li  Li1  1  0.198900  0.470400  0.037500  1.0  0.8841
  Li  Li2  1  0.294100  0.465500  0.533400  1.0  0.8726
  Li  Li3  1  0.310600  0.972400  0.461300  1.0  0.8698
  Li  Li4  1  0.309900  0.963900  0.968200  1.0  0.8874
  Li  Li5  1  0.801100  0.529600  0.962500  1.0  0.8831
  Li  Li6  1  0.705900  0.534500  0.466600  1.0  0.872
  Li  Li7  1  0.689400  0.027600  0.538700  1.0  0.8697
  Li  Li8  1  0.690100  0.036100  0.031800  1.0  0.8879
  H  H9  1  0.433600  0.063800  0.313000  1.0  0.1266
  H  H10  1  0.554300  0.697500  0.527800  1.0  0.1087
  H  H11  1  0.515800  0.322400  0.082500  1.0  0.0674
  H  H12  1  0.503100  0.191500  0.069900  1.0  0.1081
  H  H13  1  0.988200  0.853600  0.410900  1.0  0.0727
  H  H14  1  0.591100  0.827600  0.518800  1.0  0.07
  H  H15  1  0.921000  0.726500  0.423900  1.0  0.1006
  H  H16  1  0.977000  0.439500  0.809200  1.0  0.1218
  H  H17  1  0.867900  0.229800  0.967500  1.0  0.1168
  H  H18  1  0.112400  0.961600  0.263900  1.0  0.1048
  H  H19  1  0.969900  0.422400  0.681300  1.0  0.0664
  H  H20  1  0.572400  0.531600  0.642300  1.0  0.069
  H  H21  1  0.394100  0.078400  0.185100  1.0  0.069
  H  H22  1  0.907400  0.358400  0.978800  1.0  0.0726
  H  H23  1  0.610000  0.546600  0.768700  1.0  0.1214
  H  H24  1  0.047800  0.974400  0.137800  1.0  0.0732
  H  H25  1  0.566400  0.936200  0.687000  1.0  0.1266
  H  H26  1  0.445700  0.302500  0.472200  1.0  0.1084
  H  H27  1  0.484200  0.677600  0.917500  1.0  0.0673
  H  H28  1  0.496900  0.808500  0.930100  1.0  0.108
  H  H29  1  0.011800  0.146400  0.589100  1.0  0.0727
  H  H30  1  0.408900  0.172400  0.481200  1.0  0.07
  H  H31  1  0.079000  0.273500  0.576100  1.0  0.1001
  H  H32  1  0.023000  0.560500  0.190800  1.0  0.1217
  H  H33  1  0.132100  0.770200  0.032500  1.0  0.1168
  H  H34  1  0.887600  0.038400  0.736100  1.0  0.105
  H  H35  1  0.030100  0.577600  0.318700  1.0  0.0662
  H  H36  1  0.427600  0.468400  0.357700  1.0  0.0684
  H  H37  1  0.605900  0.921600  0.814900  1.0  0.0691
  H  H38  1  0.092600  0.641600  0.021200  1.0  0.0731
  H  H39  1  0.390000  0.453400  0.231300  1.0  0.1212
  H  H40  1  0.952200  0.025600  0.862200  1.0  0.073
  C  C41  1  0.186600  0.195800  0.016000  1.0  -0.059
  C  C42  1  0.228600  0.697000  0.478100  1.0  -0.0447
  C  C43  1  0.565000  0.045800  0.278000  1.0  -0.189
  C  C44  1  0.430800  0.728700  0.504900  1.0  -0.1688
  C  C45  1  0.179800  0.614400  0.488700  1.0  0.6859
  C  C46  1  0.382800  0.303400  0.057900  1.0  0.1647
  C  C47  1  0.376500  0.224600  0.050800  1.0  -0.1623
  C  C48  1  0.831500  0.005100  0.385200  1.0  0.6896
  C  C49  1  0.155200  0.112100  0.007400  1.0  0.6785
  C  C50  1  0.332400  0.499000  0.886300  1.0  0.6639
  C  C51  1  0.782600  0.011300  0.302800  1.0  -0.0692
  C  C52  1  0.103000  0.821900  0.436800  1.0  0.1768
  C  C53  1  0.453400  0.806800  0.498200  1.0  0.1548
  C  C54  1  0.063400  0.745500  0.443500  1.0  -0.1699
  C  C55  1  0.299400  0.493200  0.803800  1.0  -0.0593
  C  C56  1  0.106100  0.457600  0.775900  1.0  -0.1702
  C  C57  1  0.006500  0.247300  0.990400  1.0  -0.178
  C  C58  1  0.960700  0.985500  0.249300  1.0  -0.1732
  C  C59  1  0.101800  0.448600  0.699200  1.0  0.1731
  C  C60  1  0.451700  0.510900  0.676800  1.0  0.1778
  C  C61  1  0.542600  0.053500  0.201000  1.0  0.1713
  C  C62  1  0.029500  0.324100  0.998500  1.0  0.1607
  C  C63  1  0.474800  0.520900  0.752300  1.0  -0.1958
  C  C64  1  0.921300  0.994000  0.173600  1.0  0.1694
  C  C65  1  0.813400  0.804200  0.984000  1.0  -0.0595
  C  C66  1  0.771400  0.303000  0.521900  1.0  -0.0444
  C  C67  1  0.435000  0.954200  0.722000  1.0  -0.1874
  C  C68  1  0.569200  0.271300  0.495100  1.0  -0.169
  C  C69  1  0.820200  0.385600  0.511300  1.0  0.6865
  C  C70  1  0.617200  0.696600  0.942100  1.0  0.1635
  C  C71  1  0.623500  0.775400  0.949200  1.0  -0.1624
  C  C72  1  0.168500  0.994900  0.614800  1.0  0.6891
  C  C73  1  0.844800  0.887900  0.992600  1.0  0.6787
  C  C74  1  0.667600  0.501000  0.113700  1.0  0.6621
  C  C75  1  0.217400  0.988700  0.697200  1.0  -0.069
  C  C76  1  0.897000  0.178100  0.563200  1.0  0.1768
  C  C77  1  0.546600  0.193200  0.501800  1.0  0.1539
  C  C78  1  0.936600  0.254500  0.556500  1.0  -0.1697
  C  C79  1  0.700600  0.506800  0.196200  1.0  -0.0596
  C  C80  1  0.893900  0.542400  0.224100  1.0  -0.17
  C  C81  1  0.993500  0.752700  0.009600  1.0  -0.1771
  C  C82  1  0.039300  0.014500  0.750700  1.0  -0.1747
  C  C83  1  0.898200  0.551400  0.300800  1.0  0.173
  C  C84  1  0.548300  0.489100  0.323200  1.0  0.1769
  C  C85  1  0.457400  0.946500  0.799000  1.0  0.1728
  C  C86  1  0.970500  0.675900  0.001500  1.0  0.1607
  C  C87  1  0.525200  0.479100  0.247700  1.0  -0.1956
  C  C88  1  0.078700  0.006000  0.826400  1.0  0.1699
  N  N89  1  0.292700  0.853700  0.464700  1.0  -0.3605
  N  N90  1  0.714200  0.028400  0.147900  1.0  -0.3618
  N  N91  1  0.213900  0.352800  0.032400  1.0  -0.3255
  N  N92  1  0.271700  0.474300  0.648700  1.0  -0.3502
  N  N93  1  0.707300  0.146300  0.535300  1.0  -0.3603
  N  N94  1  0.285800  0.971600  0.852100  1.0  -0.3642
  N  N95  1  0.786100  0.647200  0.967600  1.0  -0.3252
  N  N96  1  0.728300  0.525700  0.351300  1.0  -0.351
  O  O97  1  0.364400  0.568370  0.498130  1.0  -0.7881
  O  O98  1  0.051800  0.004080  0.400880  1.0  -0.7033
  O  O99  1  0.346800  0.066850  0.013640  1.0  -0.8075
  O  O100  1  0.947300  0.092610  0.992020  1.0  -0.6758
  O  O101  1  0.142300  0.497230  0.932380  1.0  -0.8095
  O  O102  1  0.961100  0.597560  0.487510  1.0  -0.7026
  O  O103  1  0.642700  0.002810  0.432620  1.0  -0.8225
  O  O104  1  0.549700  0.503490  0.904940  1.0  -0.7004
  O  O105  1  0.635600  0.431630  0.501870  1.0  -0.788
  O  O106  1  0.948200  0.995920  0.599120  1.0  -0.7011
  O  O107  1  0.653200  0.933150  0.986360  1.0  -0.8078
  O  O108  1  0.052700  0.907390  0.007980  1.0  -0.6762
  O  O109  1  0.857700  0.502770  0.067620  1.0  -0.8098
  O  O110  1  0.038900  0.402440  0.512490  1.0  -0.7001
  O  O111  1  0.357300  0.997190  0.567380  1.0  -0.8237
  O  O112  1  0.450300  0.496510  0.095060  1.0  -0.7008
