# generated using pymatgen
data_LiH4C6NO2
_symmetry_space_group_name_H-M   'P 1'
_cell_length_a   5.42410000
_cell_length_b   13.82930000
_cell_length_c   11.11810000
_cell_angle_alpha   90.00000000
_cell_angle_beta   102.79000000
_cell_angle_gamma   90.00000000
_symmetry_Int_Tables_number   1
_chemical_formula_structural   LiH4C6NO2
_chemical_formula_sum   'Li4 H16 C24 N4 O8'
_cell_volume   813.29258571
_cell_formula_units_Z   4
loop_
 _symmetry_equiv_pos_site_id
 _symmetry_equiv_pos_as_xyz
  1  'x, y, z'
loop_
 _atom_site_type_symbol
 _atom_site_label
 _atom_site_symmetry_multiplicity
 _atom_site_fract_x
 _atom_site_fract_y
 _atom_site_fract_z
 _atom_site_occupancy
 _atom_site_charge
  Li  Li1  1  0.182900  0.065600  0.485000  1.0  0.8849
  Li  Li2  1  0.317100  0.565600  0.015000  1.0  0.8841
  Li  Li3  1  0.817100  0.934400  0.515000  1.0  0.8843
  Li  Li4  1  0.682900  0.434400  0.985000  1.0  0.8832
  H  H5  1  0.963400  0.123200  0.218600  1.0  0.122
  H  H6  1  0.384900  0.372400  0.155300  1.0  0.0724
  H  H7  1  0.963100  0.240500  0.069900  1.0  0.0705
  H  H8  1  0.354400  0.255900  0.299700  1.0  0.1231
  H  H9  1  0.536600  0.623200  0.281400  1.0  0.1218
  H  H10  1  0.115100  0.872400  0.344700  1.0  0.0723
  H  H11  1  0.536900  0.740500  0.430100  1.0  0.0708
  H  H12  1  0.145600  0.755900  0.200300  1.0  0.1226
  H  H13  1  0.036600  0.876800  0.781400  1.0  0.1225
  H  H14  1  0.615100  0.627600  0.844700  1.0  0.0726
  H  H15  1  0.036900  0.759500  0.930100  1.0  0.0708
  H  H16  1  0.645600  0.744100  0.700300  1.0  0.1223
  H  H17  1  0.463400  0.376800  0.718600  1.0  0.1223
  H  H18  1  0.884900  0.127600  0.655300  1.0  0.0726
  H  H19  1  0.463100  0.259500  0.569900  1.0  0.0706
  H  H20  1  0.854400  0.244100  0.799700  1.0  0.123
  C  C21  1  0.630600  0.096470  0.365760  1.0  0.699
  C  C22  1  0.653200  0.175120  0.273950  1.0  -0.1005
  C  C23  1  0.839200  0.172840  0.205640  1.0  -0.1643
  C  C24  1  0.501800  0.320240  0.167400  1.0  0.1724
  C  C25  1  0.839700  0.244130  0.118560  1.0  0.1663
  C  C26  1  0.482700  0.251370  0.254040  1.0  -0.1645
  C  C27  1  0.869400  0.596470  0.134240  1.0  0.6974
  C  C28  1  0.846800  0.675120  0.226050  1.0  -0.1009
  C  C29  1  0.660800  0.672840  0.294360  1.0  -0.1643
  C  C30  1  0.998200  0.820240  0.332600  1.0  0.1692
  C  C31  1  0.660300  0.744130  0.381440  1.0  0.1676
  C  C32  1  0.017300  0.751370  0.245960  1.0  -0.1583
  C  C33  1  0.369400  0.903530  0.634240  1.0  0.6973
  C  C34  1  0.346800  0.824880  0.726050  1.0  -0.1
  C  C35  1  0.160800  0.827160  0.794360  1.0  -0.1637
  C  C36  1  0.498200  0.679760  0.832600  1.0  0.1695
  C  C37  1  0.160300  0.755870  0.881440  1.0  0.1666
  C  C38  1  0.517300  0.748630  0.745960  1.0  -0.1561
  C  C39  1  0.130600  0.403530  0.865760  1.0  0.6991
  C  C40  1  0.153200  0.324880  0.773950  1.0  -0.0998
  C  C41  1  0.339200  0.327160  0.705640  1.0  -0.1653
  C  C42  1  0.001800  0.179760  0.667400  1.0  0.1723
  C  C43  1  0.339700  0.255870  0.618560  1.0  0.1665
  C  C44  1  0.982700  0.248630  0.754040  1.0  -0.157
  N  N45  1  0.677000  0.317690  0.098960  1.0  -0.3739
  N  N46  1  0.823000  0.817690  0.401040  1.0  -0.3731
  N  N47  1  0.323000  0.682310  0.901040  1.0  -0.3716
  N  N48  1  0.177000  0.182310  0.598960  1.0  -0.3752
  O  O49  1  0.823900  0.046770  0.408840  1.0  -0.8279
  O  O50  1  0.419500  0.086350  0.389620  1.0  -0.6847
  O  O51  1  0.676100  0.546770  0.091160  1.0  -0.827
  O  O52  1  0.080500  0.586350  0.110380  1.0  -0.6826
  O  O53  1  0.176100  0.953230  0.591160  1.0  -0.8265
  O  O54  1  0.580500  0.913650  0.610380  1.0  -0.6825
  O  O55  1  0.323900  0.453230  0.908840  1.0  -0.8282
  O  O56  1  0.919500  0.413650  0.889620  1.0  -0.6842
