# generated using pymatgen
data_LiH4C6NO2
_symmetry_space_group_name_H-M   'P 1'
_cell_length_a   5.38810000
_cell_length_b   14.11750000
_cell_length_c   11.40980000
_cell_angle_alpha   90.00000000
_cell_angle_beta   101.18700000
_cell_angle_gamma   90.00000000
_symmetry_Int_Tables_number   1
_chemical_formula_structural   LiH4C6NO2
_chemical_formula_sum   'Li4 H16 C24 N4 O8'
_cell_volume   851.41270990
_cell_formula_units_Z   4
loop_
 _symmetry_equiv_pos_site_id
 _symmetry_equiv_pos_as_xyz
  1  'x, y, z'
loop_
 _atom_site_type_symbol
 _atom_site_label
 _atom_site_symmetry_multiplicity
 _atom_site_fract_x
 _atom_site_fract_y
 _atom_site_fract_z
 _atom_site_occupancy
 _atom_site_charge
  Li  Li1  1  0.205200  0.436600  0.003500  1.0  0.8732
  Li  Li2  1  0.294800  0.936600  0.496500  1.0  0.8731
  Li  Li3  1  0.794800  0.563400  0.996500  1.0  0.8731
  Li  Li4  1  0.705200  0.063400  0.503500  1.0  0.873
  H  H5  1  0.437800  0.108400  0.700300  1.0  0.0662
  H  H6  1  0.999500  0.357200  0.749400  1.0  0.1178
  H  H7  1  0.007900  0.240600  0.606900  1.0  0.0719
  H  H8  1  0.400800  0.224300  0.838900  1.0  0.1145
  H  H9  1  0.062200  0.608400  0.799700  1.0  0.0667
  H  H10  1  0.500500  0.857200  0.750600  1.0  0.117
  H  H11  1  0.492100  0.740600  0.893100  1.0  0.0722
  H  H12  1  0.099200  0.724300  0.661100  1.0  0.1139
  H  H13  1  0.562200  0.891600  0.299700  1.0  0.0665
  H  H14  1  0.000500  0.642800  0.250600  1.0  0.1168
  H  H15  1  0.992100  0.759400  0.393100  1.0  0.072
  H  H16  1  0.599200  0.775700  0.161100  1.0  0.1138
  H  H17  1  0.937800  0.391600  0.200300  1.0  0.0664
  H  H18  1  0.499500  0.142800  0.249400  1.0  0.1176
  H  H19  1  0.507900  0.259400  0.106900  1.0  0.0716
  H  H20  1  0.900800  0.275700  0.338900  1.0  0.1148
  C  C21  1  0.689700  0.306600  0.806100  1.0  -0.0564
  C  C22  1  0.653600  0.386700  0.890200  1.0  0.693
  C  C23  1  0.550200  0.160900  0.708300  1.0  0.1589
  C  C24  1  0.876500  0.308200  0.738700  1.0  -0.1635
  C  C25  1  0.882500  0.237100  0.655000  1.0  0.1657
  C  C26  1  0.527200  0.229700  0.791800  1.0  -0.1729
  C  C27  1  0.810300  0.806600  0.693900  1.0  -0.0559
  C  C28  1  0.846400  0.886700  0.609800  1.0  0.692
  C  C29  1  0.949800  0.660900  0.791700  1.0  0.1582
  C  C30  1  0.623500  0.808200  0.761300  1.0  -0.1639
  C  C31  1  0.617500  0.737100  0.845000  1.0  0.1653
  C  C32  1  0.972800  0.729700  0.708200  1.0  -0.1716
  C  C33  1  0.310300  0.693400  0.193900  1.0  -0.0561
  C  C34  1  0.346400  0.613300  0.109800  1.0  0.6918
  C  C35  1  0.449800  0.839100  0.291700  1.0  0.1584
  C  C36  1  0.123500  0.691800  0.261300  1.0  -0.1634
  C  C37  1  0.117500  0.762900  0.345000  1.0  0.1655
  C  C38  1  0.472800  0.770300  0.208200  1.0  -0.1714
  C  C39  1  0.189700  0.193400  0.306100  1.0  -0.0565
  C  C40  1  0.153600  0.113300  0.390200  1.0  0.6931
  C  C41  1  0.050200  0.339100  0.208300  1.0  0.1586
  C  C42  1  0.376500  0.191800  0.238700  1.0  -0.1632
  C  C43  1  0.382500  0.262900  0.155000  1.0  0.166
  C  C44  1  0.027200  0.270300  0.291800  1.0  -0.1734
  N  N45  1  0.722100  0.164200  0.638300  1.0  -0.34
  N  N46  1  0.777900  0.664200  0.861700  1.0  -0.3408
  N  N47  1  0.277900  0.835800  0.361700  1.0  -0.3406
  N  N48  1  0.222100  0.335800  0.138300  1.0  -0.3385
  O  O49  1  0.841600  0.439200  0.927200  1.0  -0.8149
  O  O50  1  0.440400  0.395300  0.913600  1.0  -0.7142
  O  O51  1  0.658400  0.939200  0.572800  1.0  -0.8136
  O  O52  1  0.059600  0.895300  0.586400  1.0  -0.7119
  O  O53  1  0.158400  0.560800  0.072800  1.0  -0.8142
  O  O54  1  0.559600  0.604700  0.086400  1.0  -0.7121
  O  O55  1  0.341600  0.060800  0.427200  1.0  -0.8151
  O  O56  1  0.940400  0.104700  0.413600  1.0  -0.7145
