# generated using pymatgen
data_LiH4C6NO2
_symmetry_space_group_name_H-M   'P 1'
_cell_length_a   5.20380000
_cell_length_b   14.51600000
_cell_length_c   10.29500000
_cell_angle_alpha   90.00000000
_cell_angle_beta   96.14000000
_cell_angle_gamma   90.00000000
_symmetry_Int_Tables_number   1
_chemical_formula_structural   LiH4C6NO2
_chemical_formula_sum   'Li4 H16 C24 N4 O8'
_cell_volume   773.20634732
_cell_formula_units_Z   4
loop_
 _symmetry_equiv_pos_site_id
 _symmetry_equiv_pos_as_xyz
  1  'x, y, z'
loop_
 _atom_site_type_symbol
 _atom_site_label
 _atom_site_symmetry_multiplicity
 _atom_site_fract_x
 _atom_site_fract_y
 _atom_site_fract_z
 _atom_site_occupancy
 _atom_site_charge
  Li  Li1  1  0.685000  0.434300  0.998000  1.0  0.864
  Li  Li2  1  0.315000  0.934300  0.502000  1.0  0.8644
  Li  Li3  1  0.315000  0.565700  0.002000  1.0  0.8642
  Li  Li4  1  0.685000  0.065700  0.498000  1.0  0.8638
  H  H5  1  0.833700  0.237700  0.925700  1.0  0.069
  H  H6  1  0.079900  0.281400  0.651800  1.0  0.0585
  H  H7  1  0.671200  0.119300  0.783600  1.0  0.0906
  H  H8  1  0.234200  0.397500  0.799400  1.0  0.1028
  H  H9  1  0.166300  0.737700  0.574300  1.0  0.0692
  H  H10  1  0.920100  0.781400  0.848200  1.0  0.0575
  H  H11  1  0.328800  0.619300  0.716400  1.0  0.091
  H  H12  1  0.765800  0.897500  0.700600  1.0  0.1023
  H  H13  1  0.166300  0.762300  0.074300  1.0  0.0694
  H  H14  1  0.920100  0.718600  0.348200  1.0  0.0573
  H  H15  1  0.328800  0.880700  0.216400  1.0  0.0906
  H  H16  1  0.765800  0.602500  0.200600  1.0  0.1026
  H  H17  1  0.833700  0.262300  0.425700  1.0  0.0689
  H  H18  1  0.079900  0.218600  0.151800  1.0  0.0576
  H  H19  1  0.671200  0.380700  0.283600  1.0  0.0905
  H  H20  1  0.234200  0.102500  0.299400  1.0  0.1029
  C  C21  1  0.679000  0.247600  0.869500  1.0  0.1428
  C  C22  1  0.341000  0.188000  0.708600  1.0  -0.0729
  C  C23  1  0.225000  0.111300  0.624400  1.0  0.6619
  C  C24  1  0.231000  0.270100  0.710100  1.0  -0.0878
  C  C25  1  0.579000  0.175600  0.786800  1.0  -0.1246
  C  C26  1  0.327000  0.341500  0.794400  1.0  0.1065
  C  C27  1  0.321000  0.747600  0.630500  1.0  0.141
  C  C28  1  0.659000  0.688000  0.791400  1.0  -0.073
  C  C29  1  0.775000  0.611300  0.875600  1.0  0.6625
  C  C30  1  0.769000  0.770100  0.789900  1.0  -0.0877
  C  C31  1  0.421000  0.675600  0.713200  1.0  -0.1244
  C  C32  1  0.673000  0.841500  0.705600  1.0  0.1078
  C  C33  1  0.321000  0.752400  0.130500  1.0  0.1412
  C  C34  1  0.659000  0.812000  0.291400  1.0  -0.0725
  C  C35  1  0.775000  0.888700  0.375600  1.0  0.6617
  C  C36  1  0.769000  0.729900  0.289900  1.0  -0.0877
  C  C37  1  0.421000  0.824400  0.213200  1.0  -0.1227
  C  C38  1  0.673000  0.658500  0.205600  1.0  0.1071
  C  C39  1  0.679000  0.252400  0.369500  1.0  0.1429
  C  C40  1  0.341000  0.312000  0.208600  1.0  -0.0729
  C  C41  1  0.225000  0.388700  0.124400  1.0  0.6613
  C  C42  1  0.231000  0.229900  0.210100  1.0  -0.0885
  C  C43  1  0.579000  0.324400  0.286800  1.0  -0.1223
  C  C44  1  0.327000  0.158500  0.294400  1.0  0.1063
  N  N45  1  0.564000  0.328000  0.870900  1.0  -0.36
  N  N46  1  0.436000  0.828000  0.629100  1.0  -0.3595
  N  N47  1  0.436000  0.672000  0.129100  1.0  -0.36
  N  N48  1  0.564000  0.172000  0.370900  1.0  -0.3604
  O  O49  1  0.387000  0.046300  0.594100  1.0  -0.8056
  O  O50  1  0.004000  0.115300  0.583900  1.0  -0.6452
  O  O51  1  0.613000  0.546300  0.905900  1.0  -0.8068
  O  O52  1  0.996000  0.615300  0.916100  1.0  -0.6453
  O  O53  1  0.613000  0.953700  0.405900  1.0  -0.8046
  O  O54  1  0.996000  0.884700  0.416100  1.0  -0.6457
  O  O55  1  0.387000  0.453700  0.094100  1.0  -0.8042
  O  O56  1  0.004000  0.384700  0.083900  1.0  -0.6457
