# generated using pymatgen
data_LiH4C6NO2
_symmetry_space_group_name_H-M   'P 1'
_cell_length_a   10.41750000
_cell_length_b   9.59220000
_cell_length_c   15.28770000
_cell_angle_alpha   90.00000000
_cell_angle_beta   97.47900000
_cell_angle_gamma   90.00000000
_symmetry_Int_Tables_number   1
_chemical_formula_structural   LiH4C6NO2
_chemical_formula_sum   'Li8 H32 C48 N8 O16'
_cell_volume   1514.65380001
_cell_formula_units_Z   8
loop_
 _symmetry_equiv_pos_site_id
 _symmetry_equiv_pos_as_xyz
  1  'x, y, z'
loop_
 _atom_site_type_symbol
 _atom_site_label
 _atom_site_symmetry_multiplicity
 _atom_site_fract_x
 _atom_site_fract_y
 _atom_site_fract_z
 _atom_site_occupancy
 _atom_site_charge
  Li  Li1  1  0.148990  0.967700  0.066240  1.0  0.8893
  Li  Li2  1  0.339030  0.033200  0.963900  1.0  0.9003
  Li  Li3  1  0.351010  0.467700  0.433760  1.0  0.8876
  Li  Li4  1  0.160970  0.533200  0.536100  1.0  0.8992
  Li  Li5  1  0.851010  0.032300  0.933760  1.0  0.8877
  Li  Li6  1  0.660970  0.966800  0.036100  1.0  0.8999
  Li  Li7  1  0.648990  0.532300  0.566240  1.0  0.8894
  Li  Li8  1  0.839030  0.466800  0.463900  1.0  0.9014
  H  H9  1  0.955300  0.428500  0.889500  1.0  0.1116
  H  H10  1  0.319900  0.333333  0.998900  1.0  0.1181
  H  H11  1  0.564600  0.528600  0.312500  1.0  0.072
  H  H12  1  0.591900  0.669200  0.193000  1.0  0.1032
  H  H13  1  0.024500  0.654300  0.869300  1.0  0.0618
  H  H14  1  0.201600  0.638200  0.300200  1.0  0.0789
  H  H15  1  0.376500  0.563900  0.976900  1.0  0.0697
  H  H16  1  0.217900  0.784500  0.181900  1.0  0.1055
  H  H17  1  0.544700  0.928500  0.610500  1.0  0.1109
  H  H18  1  0.180100  0.833300  0.501100  1.0  0.118
  H  H19  1  0.935400  0.028600  0.187500  1.0  0.0715
  H  H20  1  0.908100  0.169200  0.307000  1.0  0.1026
  H  H21  1  0.475500  0.154300  0.630700  1.0  0.0612
  H  H22  1  0.298400  0.138200  0.199800  1.0  0.0798
  H  H23  1  0.123500  0.063900  0.523100  1.0  0.07
  H  H24  1  0.282100  0.284500  0.318100  1.0  0.1046
  H  H25  1  0.044700  0.571500  0.110500  1.0  0.1106
  H  H26  1  0.680100  0.666667  0.001100  1.0  0.1183
  H  H27  1  0.435400  0.471400  0.687500  1.0  0.0717
  H  H28  1  0.408100  0.330800  0.807000  1.0  0.1027
  H  H29  1  0.975500  0.345700  0.130700  1.0  0.0614
  H  H30  1  0.798400  0.361800  0.699800  1.0  0.0797
  H  H31  1  0.623500  0.436100  0.023100  1.0  0.0702
  H  H32  1  0.782100  0.215500  0.818100  1.0  0.1047
  H  H33  1  0.455300  0.071500  0.389500  1.0  0.1116
  H  H34  1  0.819900  0.166700  0.498900  1.0  0.1177
  H  H35  1  0.064600  0.971400  0.812500  1.0  0.0721
  H  H36  1  0.091900  0.830800  0.693000  1.0  0.1032
  H  H37  1  0.524500  0.845700  0.369300  1.0  0.0615
  H  H38  1  0.701600  0.861800  0.800200  1.0  0.0786
  H  H39  1  0.876500  0.936100  0.476900  1.0  0.0698
  H  H40  1  0.717900  0.715500  0.681900  1.0  0.1055
  C  C41  1  0.426310  0.844730  0.099840  1.0  0.7037
  C  C42  1  0.087680  0.205730  0.958500  1.0  0.6648
  C  C43  1  0.131060  0.354640  0.945300  1.0  -0.0658
  C  C44  1  0.043130  0.453300  0.907280  1.0  -0.1864
  C  C45  1  0.257200  0.397080  0.971840  1.0  -0.1798
  C  C46  1  0.408050  0.744450  0.174360  1.0  -0.0867
  C  C47  1  0.492840  0.581020  0.285520  1.0  0.1455
  C  C48  1  0.510190  0.665650  0.214180  1.0  -0.1531
  C  C49  1  0.085330  0.588030  0.895750  1.0  0.1514
  C  C50  1  0.282680  0.645100  0.278310  1.0  0.1636
  C  C51  1  0.290020  0.535230  0.958020  1.0  0.1499
  C  C52  1  0.291230  0.733000  0.207380  1.0  -0.1703
  C  C53  1  0.073690  0.344730  0.400160  1.0  0.7022
  C  C54  1  0.412320  0.705730  0.541500  1.0  0.6636
  C  C55  1  0.368940  0.854640  0.554700  1.0  -0.0655
  C  C56  1  0.456870  0.953300  0.592720  1.0  -0.1871
  C  C57  1  0.242800  0.897080  0.528160  1.0  -0.1794
  C  C58  1  0.091950  0.244450  0.325640  1.0  -0.0898
  C  C59  1  0.007160  0.081020  0.214480  1.0  0.1459
  C  C60  1  0.989810  0.165650  0.285820  1.0  -0.1512
  C  C61  1  0.414670  0.088030  0.604250  1.0  0.1519
  C  C62  1  0.217320  0.145100  0.221690  1.0  0.1628
  C  C63  1  0.209980  0.035230  0.541980  1.0  0.1493
  C  C64  1  0.208770  0.233000  0.292620  1.0  -0.1693
  C  C65  1  0.573690  0.155270  0.900160  1.0  0.7027
  C  C66  1  0.912320  0.794270  0.041500  1.0  0.6638
  C  C67  1  0.868940  0.645360  0.054700  1.0  -0.0635
  C  C68  1  0.956870  0.546700  0.092720  1.0  -0.1873
  C  C69  1  0.742800  0.602920  0.028160  1.0  -0.1804
  C  C70  1  0.591950  0.255550  0.825640  1.0  -0.0896
  C  C71  1  0.507160  0.418980  0.714480  1.0  0.1455
  C  C72  1  0.489810  0.334350  0.785820  1.0  -0.1513
  C  C73  1  0.914670  0.411970  0.104250  1.0  0.1522
  C  C74  1  0.717320  0.354900  0.721690  1.0  0.1633
  C  C75  1  0.709980  0.464770  0.041980  1.0  0.1502
  C  C76  1  0.708770  0.267000  0.792620  1.0  -0.1697
  C  C77  1  0.926310  0.655270  0.599840  1.0  0.7031
  C  C78  1  0.587680  0.294270  0.458500  1.0  0.6649
  C  C79  1  0.631060  0.145360  0.445300  1.0  -0.0634
  C  C80  1  0.543130  0.046700  0.407280  1.0  -0.1867
  C  C81  1  0.757200  0.102920  0.471840  1.0  -0.1783
  C  C82  1  0.908050  0.755550  0.674360  1.0  -0.0881
  C  C83  1  0.992840  0.918980  0.785520  1.0  0.1451
  C  C84  1  0.010190  0.834350  0.714180  1.0  -0.1531
  C  C85  1  0.585330  0.911970  0.395750  1.0  0.1516
  C  C86  1  0.782680  0.854900  0.778310  1.0  0.1636
  C  C87  1  0.790020  0.964770  0.458020  1.0  0.1504
  C  C88  1  0.791230  0.767000  0.707380  1.0  -0.1707
  N  N89  1  0.381070  0.569730  0.317790  1.0  -0.3218
  N  N90  1  0.206820  0.629770  0.919730  1.0  -0.4452
  N  N91  1  0.118930  0.069730  0.182210  1.0  -0.3247
  N  N92  1  0.293180  0.129770  0.580270  1.0  -0.4452
  N  N93  1  0.618930  0.430270  0.682210  1.0  -0.3235
  N  N94  1  0.793180  0.370230  0.080270  1.0  -0.4453
  N  N95  1  0.881070  0.930270  0.817790  1.0  -0.3213
  N  N96  1  0.706820  0.870230  0.419730  1.0  -0.4435
  O  O97  1  0.332540  0.922850  0.072690  1.0  -0.8146
  O  O98  1  0.174410  0.117560  0.983190  1.0  -0.8111
  O  O99  1  0.533780  0.844390  0.072410  1.0  -0.6322
  O  O100  1  0.969560  0.182330  0.944780  1.0  -0.6178
  O  O101  1  0.167460  0.422850  0.427310  1.0  -0.8151
  O  O102  1  0.325590  0.617560  0.516810  1.0  -0.8112
  O  O103  1  0.966220  0.344390  0.427590  1.0  -0.6343
  O  O104  1  0.530440  0.682330  0.555220  1.0  -0.6177
  O  O105  1  0.667460  0.077150  0.927310  1.0  -0.8152
  O  O106  1  0.825590  0.882440  0.016810  1.0  -0.811
  O  O107  1  0.466220  0.155610  0.927590  1.0  -0.6339
  O  O108  1  0.030440  0.817670  0.055220  1.0  -0.6175
  O  O109  1  0.832540  0.577150  0.572690  1.0  -0.8154
  O  O110  1  0.674410  0.382440  0.483190  1.0  -0.8111
  O  O111  1  0.033780  0.655610  0.572410  1.0  -0.632
  O  O112  1  0.469560  0.317670  0.444780  1.0  -0.6177
