# generated using pymatgen
data_TbH3C8NO6
_symmetry_space_group_name_H-M   'P 1'
_cell_length_a   7.61180000
_cell_length_b   9.82530000
_cell_length_c   14.74800000
_cell_angle_alpha   90.00000000
_cell_angle_beta   98.14000000
_cell_angle_gamma   90.00000000
_symmetry_Int_Tables_number   1
_chemical_formula_structural   TbH3C8NO6
_chemical_formula_sum   'Tb4 H12 C32 N4 O24'
_cell_volume   1091.86421118
_cell_formula_units_Z   4
loop_
 _symmetry_equiv_pos_site_id
 _symmetry_equiv_pos_as_xyz
  1  'x, y, z'
loop_
 _atom_site_type_symbol
 _atom_site_label
 _atom_site_symmetry_multiplicity
 _atom_site_fract_x
 _atom_site_fract_y
 _atom_site_fract_z
 _atom_site_occupancy
 _atom_site_charge
  Tb  Tb1  1  0.601210  0.762170  0.889220  1.0  2.247
  Tb  Tb2  1  0.101270  0.171320  0.389290  1.0  2.2569
  Tb  Tb3  1  0.398790  0.262170  0.110780  1.0  2.2428
  Tb  Tb4  1  0.898730  0.671320  0.610710  1.0  2.2568
  H  H5  1  0.653000  0.534600  0.265100  1.0  0.0475
  H  H6  1  0.450800  0.829000  0.389500  1.0  0.1193
  H  H7  1  0.413900  0.822800  0.107900  1.0  0.1049
  H  H8  1  0.945600  0.090900  0.621800  1.0  0.0777
  H  H9  1  0.952400  0.105000  0.885100  1.0  0.0663
  H  H10  1  0.106500  0.426700  0.764900  1.0  0.0878
  H  H11  1  0.347000  0.034600  0.734900  1.0  0.0471
  H  H12  1  0.549200  0.329000  0.610500  1.0  0.119
  H  H13  1  0.586100  0.322800  0.892100  1.0  0.1048
  H  H14  1  0.054400  0.590900  0.378200  1.0  0.0769
  H  H15  1  0.047600  0.605000  0.114900  1.0  0.0671
  H  H16  1  0.893500  0.926700  0.235100  1.0  0.0884
  C  C17  1  0.552100  0.581400  0.089700  1.0  0.6635
  C  C18  1  0.515000  0.657100  0.173400  1.0  -0.0362
  C  C19  1  0.578900  0.610300  0.261300  1.0  0.2013
  C  C20  1  0.472800  0.788500  0.335200  1.0  0.1379
  C  C21  1  0.432900  0.854500  0.251200  1.0  -0.208
  C  C22  1  0.448400  0.782800  0.164800  1.0  -0.045
  C  C23  1  0.352800  0.986000  0.246500  1.0  0.7278
  C  C24  1  0.062700  0.351500  0.595500  1.0  0.6755
  C  C25  1  0.043200  0.271700  0.677700  1.0  -0.1057
  C  C26  1  0.963600  0.139400  0.676500  1.0  -0.0547
  C  C27  1  0.914700  0.084100  0.751300  1.0  -0.0245
  C  C28  1  0.976600  0.148400  0.832300  1.0  0.1963
  C  C29  1  0.076300  0.334900  0.762100  1.0  0.1252
  C  C30  1  0.828700  0.942000  0.752300  1.0  0.689
  C  C31  1  0.283800  0.750600  0.709900  1.0  0.5626
  C  C32  1  0.201700  0.686600  0.788700  1.0  0.5818
  C  C33  1  0.447900  0.081400  0.910300  1.0  0.6647
  C  C34  1  0.485000  0.157100  0.826600  1.0  -0.0373
  C  C35  1  0.421100  0.110300  0.738700  1.0  0.2007
  C  C36  1  0.527200  0.288500  0.664800  1.0  0.1392
  C  C37  1  0.567100  0.354500  0.748800  1.0  -0.2075
  C  C38  1  0.551600  0.282800  0.835200  1.0  -0.0429
  C  C39  1  0.647200  0.486000  0.753500  1.0  0.7288
  C  C40  1  0.937300  0.851500  0.404500  1.0  0.6754
  C  C41  1  0.956800  0.771700  0.322300  1.0  -0.1053
  C  C42  1  0.036400  0.639400  0.323500  1.0  -0.0535
  C  C43  1  0.085300  0.584100  0.248700  1.0  -0.0234
  C  C44  1  0.023400  0.648400  0.167700  1.0  0.1976
  C  C45  1  0.923700  0.834900  0.237900  1.0  0.1244
  C  C46  1  0.171300  0.442000  0.247700  1.0  0.6889
  C  C47  1  0.716200  0.250600  0.290100  1.0  0.5621
  C  C48  1  0.798300  0.186600  0.211300  1.0  0.5827
  N  N49  1  0.547500  0.658600  0.334300  1.0  -0.3746
  N  N50  1  0.065200  0.262600  0.845000  1.0  -0.401
  N  N51  1  0.452500  0.158600  0.665700  1.0  -0.3759
  N  N52  1  0.934800  0.762600  0.155000  1.0  -0.3991
  O  O53  1  0.557500  0.630300  0.018900  1.0  -0.7218
  O  O54  1  0.583900  0.455400  0.102600  1.0  -0.7225
  O  O55  1  0.267600  0.018700  0.314500  1.0  -0.7296
  O  O56  1  0.343900  0.057500  0.175800  1.0  -0.729
  O  O57  1  0.053300  0.283400  0.518500  1.0  -0.7515
  O  O58  1  0.080700  0.482200  0.602400  1.0  -0.7369
  O  O59  1  0.775300  0.903500  0.820300  1.0  -0.6982
  O  O60  1  0.842000  0.871500  0.681900  1.0  -0.7359
  O  O61  1  0.456200  0.777900  0.729800  1.0  -0.6234
  O  O62  1  0.305100  0.674300  0.864800  1.0  -0.6786
  O  O63  1  0.198200  0.767700  0.635900  1.0  -0.5816
  O  O64  1  0.048100  0.652600  0.771200  1.0  -0.61
  O  O65  1  0.442500  0.130300  0.981100  1.0  -0.7224
  O  O66  1  0.416100  0.955400  0.897400  1.0  -0.7216
  O  O67  1  0.732400  0.518700  0.685500  1.0  -0.7302
  O  O68  1  0.656100  0.557500  0.824200  1.0  -0.7306
  O  O69  1  0.946700  0.783400  0.481500  1.0  -0.7515
  O  O70  1  0.919300  0.982200  0.397600  1.0  -0.7372
  O  O71  1  0.224700  0.403500  0.179700  1.0  -0.6994
  O  O72  1  0.158000  0.371500  0.318100  1.0  -0.7357
  O  O73  1  0.543800  0.277900  0.270200  1.0  -0.6237
  O  O74  1  0.694900  0.174300  0.135200  1.0  -0.6768
  O  O75  1  0.801800  0.267700  0.364100  1.0  -0.5832
  O  O76  1  0.951900  0.152600  0.228800  1.0  -0.6098
