# generated using pymatgen
data_AlH4C8O5
_symmetry_space_group_name_H-M   'P 1'
_cell_length_a   14.79550000
_cell_length_b   14.79550000
_cell_length_c   11.77850000
_cell_angle_alpha   90.00000000
_cell_angle_beta   90.00000000
_cell_angle_gamma   90.00000000
_symmetry_Int_Tables_number   1
_chemical_formula_structural   AlH4C8O5
_chemical_formula_sum   'Al8 H32 C64 O40'
_cell_volume   2578.39398231
_cell_formula_units_Z   8
loop_
 _symmetry_equiv_pos_site_id
 _symmetry_equiv_pos_as_xyz
  1  'x, y, z'
loop_
 _atom_site_type_symbol
 _atom_site_label
 _atom_site_symmetry_multiplicity
 _atom_site_fract_x
 _atom_site_fract_y
 _atom_site_fract_z
 _atom_site_occupancy
 _atom_site_charge
  Al  Al1  1  0.692360  0.307640  0.500000  1.0  1.6897
  Al  Al2  1  0.192360  0.807640  0.000000  1.0  1.6897
  Al  Al3  1  0.807640  0.192360  0.000000  1.0  1.6845
  Al  Al4  1  0.307640  0.692360  0.500000  1.0  1.6845
  Al  Al5  1  0.692360  0.192360  0.750000  1.0  1.6901
  Al  Al6  1  0.192360  0.692360  0.250000  1.0  1.6901
  Al  Al7  1  0.807640  0.307640  0.250000  1.0  1.6838
  Al  Al8  1  0.307640  0.807640  0.750000  1.0  1.6838
  H  H9  1  0.574010  0.379620  0.919590  1.0  0.1121
  H  H10  1  0.074010  0.879620  0.419590  1.0  0.1121
  H  H11  1  0.925990  0.120380  0.419590  1.0  0.112
  H  H12  1  0.425990  0.620380  0.919590  1.0  0.112
  H  H13  1  0.620380  0.074010  0.169590  1.0  0.1133
  H  H14  1  0.120380  0.574010  0.669590  1.0  0.1133
  H  H15  1  0.879620  0.425990  0.669590  1.0  0.1123
  H  H16  1  0.379620  0.925990  0.169590  1.0  0.1123
  H  H17  1  0.925990  0.379620  0.830410  1.0  0.1122
  H  H18  1  0.425990  0.879620  0.330410  1.0  0.1122
  H  H19  1  0.574010  0.120380  0.330410  1.0  0.112
  H  H20  1  0.074010  0.620380  0.830410  1.0  0.112
  H  H21  1  0.879620  0.074010  0.580410  1.0  0.1127
  H  H22  1  0.379620  0.574010  0.080410  1.0  0.1127
  H  H23  1  0.620380  0.425990  0.080410  1.0  0.113
  H  H24  1  0.120380  0.925990  0.580410  1.0  0.113
  H  H25  1  0.812820  0.250000  0.625000  1.0  0.368
  H  H26  1  0.312820  0.750000  0.125000  1.0  0.368
  H  H27  1  0.687180  0.250000  0.125000  1.0  0.3689
  H  H28  1  0.187180  0.750000  0.625000  1.0  0.3689
  H  H29  1  0.750000  0.312820  0.875000  1.0  0.3715
  H  H30  1  0.250000  0.812820  0.375000  1.0  0.3715
  H  H31  1  0.750000  0.187180  0.375000  1.0  0.3699
  H  H32  1  0.250000  0.687180  0.875000  1.0  0.3699
  H  H33  1  0.500000  0.500000  0.612140  1.0  0.1241
  H  H34  1  0.000000  0.000000  0.112140  1.0  0.1242
  H  H35  1  0.500000  0.000000  0.862140  1.0  0.1241
  H  H36  1  0.000000  0.500000  0.362140  1.0  0.1241
  H  H37  1  0.000000  0.500000  0.137860  1.0  0.1208
  H  H38  1  0.500000  0.000000  0.637860  1.0  0.1208
  H  H39  1  0.000000  0.000000  0.887860  1.0  0.1207
  H  H40  1  0.500000  0.500000  0.387860  1.0  0.1208
  C  C41  1  0.592710  0.361410  0.696270  1.0  0.7414
  C  C42  1  0.542770  0.430430  0.757880  1.0  -0.0935
  C  C43  1  0.542770  0.430430  0.876330  1.0  -0.0778
  C  C44  1  0.092710  0.861410  0.196270  1.0  0.7414
  C  C45  1  0.042770  0.930430  0.257880  1.0  -0.0935
  C  C46  1  0.042770  0.930430  0.376330  1.0  -0.0778
  C  C47  1  0.907290  0.138590  0.196270  1.0  0.7415
  C  C48  1  0.957230  0.069570  0.257880  1.0  -0.093
  C  C49  1  0.957230  0.069570  0.376330  1.0  -0.0789
  C  C50  1  0.407290  0.638590  0.696270  1.0  0.7415
  C  C51  1  0.457230  0.569570  0.757880  1.0  -0.093
  C  C52  1  0.457230  0.569570  0.876330  1.0  -0.0789
  C  C53  1  0.638590  0.092710  0.946270  1.0  0.7398
  C  C54  1  0.569570  0.042770  0.007880  1.0  -0.0924
  C  C55  1  0.569570  0.042770  0.126330  1.0  -0.0753
  C  C56  1  0.138590  0.592710  0.446270  1.0  0.7398
  C  C57  1  0.069570  0.542770  0.507880  1.0  -0.0924
  C  C58  1  0.069570  0.542770  0.626330  1.0  -0.0753
  C  C59  1  0.861410  0.407290  0.446270  1.0  0.74
  C  C60  1  0.930430  0.457230  0.507880  1.0  -0.0931
  C  C61  1  0.930430  0.457230  0.626330  1.0  -0.0769
  C  C62  1  0.361410  0.907290  0.946270  1.0  0.74
  C  C63  1  0.430430  0.957230  0.007880  1.0  -0.0931
  C  C64  1  0.430430  0.957230  0.126330  1.0  -0.0769
  C  C65  1  0.907290  0.361410  0.053730  1.0  0.7421
  C  C66  1  0.957230  0.430430  0.992120  1.0  -0.0933
  C  C67  1  0.957230  0.430430  0.873670  1.0  -0.0788
  C  C68  1  0.407290  0.861410  0.553730  1.0  0.7421
  C  C69  1  0.457230  0.930430  0.492120  1.0  -0.0933
  C  C70  1  0.457230  0.930430  0.373670  1.0  -0.0788
  C  C71  1  0.592710  0.138590  0.553730  1.0  0.7416
  C  C72  1  0.542770  0.069570  0.492120  1.0  -0.0931
  C  C73  1  0.542770  0.069570  0.373670  1.0  -0.0776
  C  C74  1  0.092710  0.638590  0.053730  1.0  0.7416
  C  C75  1  0.042770  0.569570  0.992120  1.0  -0.0931
  C  C76  1  0.042770  0.569570  0.873670  1.0  -0.0779
  C  C77  1  0.861410  0.092710  0.803730  1.0  0.7404
  C  C78  1  0.930430  0.042770  0.742120  1.0  -0.0931
  C  C79  1  0.930430  0.042770  0.623670  1.0  -0.0771
  C  C80  1  0.361410  0.592710  0.303730  1.0  0.7404
  C  C81  1  0.430430  0.542770  0.242120  1.0  -0.0931
  C  C82  1  0.430430  0.542770  0.123670  1.0  -0.0771
  C  C83  1  0.638590  0.407290  0.303730  1.0  0.7401
  C  C84  1  0.569570  0.457230  0.242120  1.0  -0.0925
  C  C85  1  0.569570  0.457230  0.123670  1.0  -0.0757
  C  C86  1  0.138590  0.907290  0.803730  1.0  0.7401
  C  C87  1  0.069570  0.957230  0.742120  1.0  -0.0925
  C  C88  1  0.069570  0.957230  0.623670  1.0  -0.0757
  C  C89  1  0.500000  0.500000  0.698660  1.0  -0.0219
  C  C90  1  0.500000  0.500000  0.935560  1.0  0.0338
  C  C91  1  0.000000  0.000000  0.198660  1.0  -0.0219
  C  C92  1  0.000000  0.000000  0.435560  1.0  0.0338
  C  C93  1  0.500000  0.000000  0.948660  1.0  -0.0219
  C  C94  1  0.500000  0.000000  0.185560  1.0  0.0338
  C  C95  1  0.000000  0.500000  0.448660  1.0  -0.0219
  C  C96  1  0.000000  0.500000  0.685560  1.0  0.0338
  C  C97  1  0.000000  0.500000  0.051340  1.0  -0.0228
  C  C98  1  0.000000  0.500000  0.814440  1.0  0.034
  C  C99  1  0.500000  0.000000  0.551340  1.0  -0.0228
  C  C100  1  0.500000  0.000000  0.314440  1.0  0.034
  C  C101  1  0.000000  0.000000  0.801340  1.0  -0.0228
  C  C102  1  0.000000  0.000000  0.564440  1.0  0.034
  C  C103  1  0.500000  0.500000  0.301340  1.0  -0.0228
  C  C104  1  0.500000  0.500000  0.064440  1.0  0.034
  O  O105  1  0.621290  0.380320  0.600890  1.0  -0.6128
  O  O106  1  0.603890  0.287560  0.742600  1.0  -0.634
  O  O107  1  0.121290  0.880320  0.100890  1.0  -0.6128
  O  O108  1  0.103890  0.787560  0.242600  1.0  -0.634
  O  O109  1  0.878710  0.119680  0.100890  1.0  -0.6119
  O  O110  1  0.896110  0.212440  0.242600  1.0  -0.6308
  O  O111  1  0.378710  0.619680  0.600890  1.0  -0.6119
  O  O112  1  0.396110  0.712440  0.742600  1.0  -0.6308
  O  O113  1  0.619680  0.121290  0.850890  1.0  -0.611
  O  O114  1  0.712440  0.103890  0.992600  1.0  -0.6327
  O  O115  1  0.119680  0.621290  0.350890  1.0  -0.611
  O  O116  1  0.212440  0.603890  0.492600  1.0  -0.6327
  O  O117  1  0.880320  0.378710  0.350890  1.0  -0.6101
  O  O118  1  0.787560  0.396110  0.492600  1.0  -0.6314
  O  O119  1  0.380320  0.878710  0.850890  1.0  -0.6101
  O  O120  1  0.287560  0.896110  0.992600  1.0  -0.6314
  O  O121  1  0.878710  0.380320  0.149110  1.0  -0.6117
  O  O122  1  0.896110  0.287560  0.007400  1.0  -0.6314
  O  O123  1  0.378710  0.880320  0.649110  1.0  -0.6117
  O  O124  1  0.396110  0.787560  0.507400  1.0  -0.6314
  O  O125  1  0.621290  0.119680  0.649110  1.0  -0.6118
  O  O126  1  0.603890  0.212440  0.507400  1.0  -0.6345
  O  O127  1  0.121290  0.619680  0.149110  1.0  -0.6118
  O  O128  1  0.103890  0.712440  0.007400  1.0  -0.6345
  O  O129  1  0.880320  0.121290  0.899110  1.0  -0.6096
  O  O130  1  0.787560  0.103890  0.757400  1.0  -0.6334
  O  O131  1  0.380320  0.621290  0.399110  1.0  -0.6096
  O  O132  1  0.287560  0.603890  0.257400  1.0  -0.6334
  O  O133  1  0.619680  0.378710  0.399110  1.0  -0.6101
  O  O134  1  0.712440  0.396110  0.257400  1.0  -0.6322
  O  O135  1  0.119680  0.878710  0.899110  1.0  -0.6101
  O  O136  1  0.212440  0.896110  0.757400  1.0  -0.6322
  O  O137  1  0.751990  0.250000  0.625000  1.0  -1.0703
  O  O138  1  0.251990  0.750000  0.125000  1.0  -1.0703
  O  O139  1  0.748010  0.250000  0.125000  1.0  -1.0677
  O  O140  1  0.248010  0.750000  0.625000  1.0  -1.0677
  O  O141  1  0.750000  0.251990  0.875000  1.0  -1.0687
  O  O142  1  0.250000  0.751990  0.375000  1.0  -1.0687
  O  O143  1  0.750000  0.248010  0.375000  1.0  -1.0706
  O  O144  1  0.250000  0.748010  0.875000  1.0  -1.0706
