# generated using pymatgen
data_Mn3W2(CN)16
_symmetry_space_group_name_H-M   'P 1'
_cell_length_a   15.43800000
_cell_length_b   14.69100000
_cell_length_c   33.04600000
_cell_angle_alpha   90.00000000
_cell_angle_beta   94.83200000
_cell_angle_gamma   90.00000000
_symmetry_Int_Tables_number   1
_chemical_formula_structural   Mn3W2(CN)16
_chemical_formula_sum   'Mn24 W16 C128 N128'
_cell_volume   7468.18467265
_cell_formula_units_Z   8
loop_
 _symmetry_equiv_pos_site_id
 _symmetry_equiv_pos_as_xyz
  1  'x, y, z'
loop_
 _atom_site_type_symbol
 _atom_site_label
 _atom_site_symmetry_multiplicity
 _atom_site_fract_x
 _atom_site_fract_y
 _atom_site_fract_z
 _atom_site_occupancy
 _atom_site_charge
  Mn  Mn1  1  0.819340  0.123080  0.302100  1.0  1.1135
  Mn  Mn2  1  0.454660  0.003890  0.248360  1.0  1.0969
  Mn  Mn3  1  0.191570  0.290850  0.314560  1.0  1.0927
  Mn  Mn4  1  0.804930  0.474480  0.412070  1.0  1.1812
  Mn  Mn5  1  0.715510  0.002900  0.474270  1.0  1.2139
  Mn  Mn6  1  0.042190  0.829600  0.394080  1.0  1.2044
  Mn  Mn7  1  0.180660  0.623080  0.197900  1.0  1.114
  Mn  Mn8  1  0.545340  0.503890  0.251640  1.0  1.0962
  Mn  Mn9  1  0.808430  0.790850  0.185440  1.0  1.0926
  Mn  Mn10  1  0.195070  0.974480  0.087930  1.0  1.1835
  Mn  Mn11  1  0.284490  0.502900  0.025730  1.0  1.2147
  Mn  Mn12  1  0.957810  0.329600  0.105920  1.0  1.2054
  Mn  Mn13  1  0.180660  0.876920  0.697900  1.0  1.1143
  Mn  Mn14  1  0.545340  0.996110  0.751640  1.0  1.0961
  Mn  Mn15  1  0.808430  0.709150  0.685440  1.0  1.092
  Mn  Mn16  1  0.195070  0.525520  0.587930  1.0  1.1833
  Mn  Mn17  1  0.284490  0.997100  0.525730  1.0  1.2144
  Mn  Mn18  1  0.957810  0.170400  0.605920  1.0  1.2059
  Mn  Mn19  1  0.819340  0.376920  0.802100  1.0  1.1139
  Mn  Mn20  1  0.454660  0.496110  0.748360  1.0  1.0969
  Mn  Mn21  1  0.191570  0.209150  0.814560  1.0  1.0923
  Mn  Mn22  1  0.804930  0.025520  0.912070  1.0  1.1807
  Mn  Mn23  1  0.715510  0.497100  0.974270  1.0  1.2138
  Mn  Mn24  1  0.042190  0.670400  0.894080  1.0  1.2051
  W  W25  1  0.532050  0.244710  0.371650  1.0  -0.0291
  W  W26  1  0.106400  0.961160  0.244740  1.0  0.0005
  W  W27  1  0.017060  0.181950  0.443960  1.0  -0.0347
  W  W28  1  0.696360  0.792750  0.338800  1.0  -0.0301
  W  W29  1  0.467950  0.744710  0.128350  1.0  -0.0327
  W  W30  1  0.893600  0.461160  0.255260  1.0  -0.0035
  W  W31  1  0.982940  0.681950  0.056040  1.0  -0.038
  W  W32  1  0.303640  0.292750  0.161200  1.0  -0.0356
  W  W33  1  0.467950  0.755290  0.628350  1.0  -0.0334
  W  W34  1  0.893600  0.038840  0.755260  1.0  -0.0041
  W  W35  1  0.982940  0.818050  0.556040  1.0  -0.0393
  W  W36  1  0.303640  0.207250  0.661200  1.0  -0.0351
  W  W37  1  0.532050  0.255290  0.871650  1.0  -0.0294
  W  W38  1  0.106400  0.538840  0.744740  1.0  0.0002
  W  W39  1  0.017060  0.318050  0.943960  1.0  -0.0363
  W  W40  1  0.696360  0.707250  0.838800  1.0  -0.0289
  C  C41  1  0.446500  0.162100  0.405500  1.0  0.1934
  C  C42  1  0.486400  0.339000  0.414700  1.0  0.226
  C  C43  1  0.642100  0.212000  0.337800  1.0  0.1931
  C  C44  1  0.495400  0.138100  0.328100  1.0  0.1789
  C  C45  1  0.536600  0.351500  0.326300  1.0  0.1887
  C  C46  1  0.399200  0.270400  0.349000  1.0  0.202
  C  C47  1  0.637800  0.331900  0.395200  1.0  0.2346
  C  C48  1  0.606100  0.152600  0.411000  1.0  0.2012
  C  C49  1  0.993100  0.016800  0.271900  1.0  0.1487
  C  C50  1  0.938100  0.177900  0.386600  1.0  0.1882
  C  C51  1  0.739500  0.931900  0.332800  1.0  0.1929
  C  C52  1  0.592000  0.862800  0.303800  1.0  0.2038
  C  C53  1  0.933900  0.298800  0.441500  1.0  0.1782
  C  C54  1  0.898700  0.113200  0.455300  1.0  0.1821
  C  C55  1  0.702200  0.857000  0.398200  1.0  0.1713
  C  C56  1  0.051100  0.067100  0.205600  1.0  0.1712
  C  C57  1  0.143600  0.820200  0.238200  1.0  0.214
  C  C58  1  0.245300  0.956400  0.255300  1.0  0.2004
  C  C59  1  0.995300  0.887800  0.218000  1.0  0.2177
  C  C60  1  0.149700  0.083000  0.277200  1.0  0.2013
  C  C61  1  0.101200  0.898900  0.303800  1.0  0.122
  C  C62  1  0.150400  0.947700  0.183600  1.0  0.172
  C  C63  1  0.095700  0.293900  0.468100  1.0  0.1742
  C  C64  1  0.100900  0.220400  0.397500  1.0  0.1993
  C  C65  1  0.030100  0.047000  0.419000  1.0  0.1848
  C  C66  1  0.998200  0.188200  0.508300  1.0  0.2234
  C  C67  1  0.134200  0.119400  0.471700  1.0  0.2158
  C  C68  1  0.577200  0.756800  0.365900  1.0  0.1666
  C  C69  1  0.643200  0.680400  0.302000  1.0  0.1996
  C  C70  1  0.748800  0.803100  0.280200  1.0  0.1717
  C  C71  1  0.835400  0.798100  0.355400  1.0  0.15
  C  C72  1  0.730700  0.668900  0.372200  1.0  0.2168
  C  C73  1  0.553500  0.662100  0.094500  1.0  0.1935
  C  C74  1  0.513600  0.839000  0.085300  1.0  0.2272
  C  C75  1  0.357900  0.712000  0.162200  1.0  0.1923
  C  C76  1  0.504600  0.638100  0.171900  1.0  0.1782
  C  C77  1  0.463400  0.851500  0.173700  1.0  0.1877
  C  C78  1  0.600800  0.770400  0.151000  1.0  0.2013
  C  C79  1  0.362200  0.831900  0.104800  1.0  0.2344
  C  C80  1  0.393900  0.652600  0.089000  1.0  0.2007
  C  C81  1  0.006900  0.516800  0.228100  1.0  0.1507
  C  C82  1  0.061900  0.677900  0.113400  1.0  0.1898
  C  C83  1  0.260500  0.431900  0.167200  1.0  0.192
  C  C84  1  0.408000  0.362800  0.196200  1.0  0.2034
  C  C85  1  0.066100  0.798800  0.058500  1.0  0.1782
  C  C86  1  0.101300  0.613200  0.044700  1.0  0.1821
  C  C87  1  0.297800  0.357000  0.101800  1.0  0.1709
  C  C88  1  0.948900  0.567100  0.294400  1.0  0.1715
  C  C89  1  0.856400  0.320200  0.261800  1.0  0.2153
  C  C90  1  0.754700  0.456400  0.244700  1.0  0.2003
  C  C91  1  0.004700  0.387800  0.282000  1.0  0.2184
  C  C92  1  0.850300  0.583000  0.222800  1.0  0.2027
  C  C93  1  0.898800  0.398900  0.196200  1.0  0.1203
  C  C94  1  0.849600  0.447700  0.316400  1.0  0.1721
  C  C95  1  0.904300  0.793900  0.031900  1.0  0.1745
  C  C96  1  0.899100  0.720400  0.102500  1.0  0.1993
  C  C97  1  0.969900  0.547000  0.081000  1.0  0.1837
  C  C98  1  0.001800  0.688200  0.991700  1.0  0.2238
  C  C99  1  0.865800  0.619400  0.028300  1.0  0.2155
  C  C100  1  0.422800  0.256800  0.134100  1.0  0.1663
  C  C101  1  0.356800  0.180400  0.198000  1.0  0.2009
  C  C102  1  0.251200  0.303100  0.219800  1.0  0.173
  C  C103  1  0.164600  0.298100  0.144600  1.0  0.1508
  C  C104  1  0.269300  0.168900  0.127800  1.0  0.2162
  C  C105  1  0.553500  0.837900  0.594500  1.0  0.1938
  C  C106  1  0.513600  0.661000  0.585300  1.0  0.2286
  C  C107  1  0.357900  0.788000  0.662200  1.0  0.1923
  C  C108  1  0.504600  0.861900  0.671900  1.0  0.1782
  C  C109  1  0.463400  0.648500  0.673700  1.0  0.1888
  C  C110  1  0.600800  0.729600  0.651000  1.0  0.2014
  C  C111  1  0.362200  0.668100  0.604800  1.0  0.2346
  C  C112  1  0.393900  0.847400  0.589000  1.0  0.1996
  C  C113  1  0.006900  0.983200  0.728100  1.0  0.1512
  C  C114  1  0.061900  0.822100  0.613400  1.0  0.1898
  C  C115  1  0.260500  0.068100  0.667200  1.0  0.1934
  C  C116  1  0.408000  0.137200  0.696200  1.0  0.2043
  C  C117  1  0.066100  0.701200  0.558500  1.0  0.1788
  C  C118  1  0.101300  0.886800  0.544700  1.0  0.1819
  C  C119  1  0.297800  0.143000  0.601800  1.0  0.1713
  C  C120  1  0.948900  0.932900  0.794400  1.0  0.1724
  C  C121  1  0.856400  0.179800  0.761800  1.0  0.214
  C  C122  1  0.754700  0.043600  0.744700  1.0  0.2005
  C  C123  1  0.004700  0.112200  0.782000  1.0  0.2175
  C  C124  1  0.850300  0.917000  0.722800  1.0  0.2038
  C  C125  1  0.898800  0.101100  0.696200  1.0  0.12
  C  C126  1  0.849600  0.052300  0.816400  1.0  0.1721
  C  C127  1  0.904300  0.706100  0.531900  1.0  0.1761
  C  C128  1  0.899100  0.779600  0.602500  1.0  0.1996
  C  C129  1  0.969900  0.953000  0.581000  1.0  0.184
  C  C130  1  0.001800  0.811800  0.491700  1.0  0.2238
  C  C131  1  0.865800  0.880600  0.528300  1.0  0.2153
  C  C132  1  0.422800  0.243200  0.634100  1.0  0.1665
  C  C133  1  0.356800  0.319600  0.698000  1.0  0.2001
  C  C134  1  0.251200  0.196900  0.719800  1.0  0.1724
  C  C135  1  0.164600  0.201900  0.644600  1.0  0.1505
  C  C136  1  0.269300  0.331100  0.627800  1.0  0.2156
  C  C137  1  0.446500  0.337900  0.905500  1.0  0.1923
  C  C138  1  0.486400  0.161000  0.914700  1.0  0.2275
  C  C139  1  0.642100  0.288000  0.837800  1.0  0.1932
  C  C140  1  0.495400  0.361900  0.828100  1.0  0.1789
  C  C141  1  0.536600  0.148500  0.826300  1.0  0.1901
  C  C142  1  0.399200  0.229600  0.849000  1.0  0.2022
  C  C143  1  0.637800  0.168100  0.895200  1.0  0.2351
  C  C144  1  0.606100  0.347400  0.911000  1.0  0.2009
  C  C145  1  0.993100  0.483200  0.771900  1.0  0.1486
  C  C146  1  0.938100  0.322100  0.886600  1.0  0.1876
  C  C147  1  0.739500  0.568100  0.832800  1.0  0.1939
  C  C148  1  0.592000  0.637200  0.803800  1.0  0.2042
  C  C149  1  0.933900  0.201200  0.941500  1.0  0.1792
  C  C150  1  0.898700  0.386800  0.955300  1.0  0.1817
  C  C151  1  0.702200  0.643000  0.898200  1.0  0.1716
  C  C152  1  0.051100  0.432900  0.705600  1.0  0.1707
  C  C153  1  0.143600  0.679800  0.738200  1.0  0.2129
  C  C154  1  0.245300  0.543600  0.755300  1.0  0.2004
  C  C155  1  0.995300  0.612200  0.718000  1.0  0.2171
  C  C156  1  0.149700  0.417000  0.777200  1.0  0.2027
  C  C157  1  0.101200  0.601100  0.803800  1.0  0.1208
  C  C158  1  0.150400  0.552300  0.683600  1.0  0.1721
  C  C159  1  0.095700  0.206100  0.968100  1.0  0.1755
  C  C160  1  0.100900  0.279600  0.897500  1.0  0.1997
  C  C161  1  0.030100  0.453000  0.919000  1.0  0.1851
  C  C162  1  0.998200  0.311800  0.008300  1.0  0.2236
  C  C163  1  0.134200  0.380600  0.971700  1.0  0.2151
  C  C164  1  0.577200  0.743200  0.865900  1.0  0.1669
  C  C165  1  0.643200  0.819600  0.802000  1.0  0.1999
  C  C166  1  0.748800  0.696900  0.780200  1.0  0.1709
  C  C167  1  0.835400  0.701900  0.855400  1.0  0.1499
  C  C168  1  0.730700  0.831100  0.872200  1.0  0.2163
  N  N169  1  0.401200  0.120000  0.423600  1.0  -0.3893
  N  N170  1  0.462600  0.390000  0.437100  1.0  -0.3613
  N  N171  1  0.700800  0.193500  0.321100  1.0  -0.4012
  N  N172  1  0.474900  0.087500  0.304200  1.0  -0.3389
  N  N173  1  0.541700  0.406400  0.302800  1.0  -0.4117
  N  N174  1  0.328000  0.279200  0.336200  1.0  -0.4315
  N  N175  1  0.694100  0.378500  0.406500  1.0  -0.4389
  N  N176  1  0.644200  0.100300  0.432100  1.0  -0.4505
  N  N177  1  0.934500  0.046100  0.284900  1.0  -0.3782
  N  N178  1  0.896100  0.171400  0.356700  1.0  -0.3825
  N  N179  1  0.764700  0.003200  0.328900  1.0  -0.3965
  N  N180  1  0.840500  0.245900  0.266100  1.0  -0.4257
  N  N181  1  0.537100  0.901300  0.284900  1.0  -0.4496
  N  N182  1  0.320500  0.957200  0.260500  1.0  -0.418
  N  N183  1  0.386900  0.120400  0.215500  1.0  -0.3947
  N  N184  1  0.888400  0.361800  0.437000  1.0  -0.415
  N  N185  1  0.832000  0.443800  0.348200  1.0  -0.3907
  N  N186  1  0.746800  0.604000  0.389500  1.0  -0.4033
  N  N187  1  0.835600  0.075500  0.460600  1.0  -0.4142
  N  N188  1  0.708800  0.895600  0.427400  1.0  -0.4026
  N  N189  1  0.803700  0.913400  0.514500  1.0  -0.4275
  N  N190  1  0.015800  0.119700  0.184400  1.0  -0.4086
  N  N191  1  0.937300  0.846800  0.205000  1.0  -0.3956
  N  N192  1  0.170900  0.146300  0.294300  1.0  -0.379
  N  N193  1  0.090200  0.863400  0.333700  1.0  -0.4354
  N  N194  1  0.136000  0.352600  0.481700  1.0  -0.3734
  N  N195  1  0.143800  0.244600  0.373500  1.0  -0.4159
  N  N196  1  0.032400  0.976000  0.406500  1.0  -0.3721
  N  N197  1  0.988500  0.190700  0.541800  1.0  -0.4176
  N  N198  1  0.515400  0.738300  0.380600  1.0  -0.3671
  N  N199  1  0.771900  0.811900  0.248700  1.0  -0.3991
  N  N200  1  0.907300  0.804500  0.367100  1.0  -0.4067
  N  N201  1  0.598800  0.620000  0.076400  1.0  -0.3889
  N  N202  1  0.537400  0.890000  0.062900  1.0  -0.3595
  N  N203  1  0.299200  0.693500  0.178900  1.0  -0.4011
  N  N204  1  0.525100  0.587500  0.195800  1.0  -0.3377
  N  N205  1  0.458300  0.906400  0.197200  1.0  -0.4108
  N  N206  1  0.672000  0.779200  0.163800  1.0  -0.432
  N  N207  1  0.305900  0.878500  0.093500  1.0  -0.4378
  N  N208  1  0.355800  0.600300  0.067900  1.0  -0.449
  N  N209  1  0.065500  0.546100  0.215100  1.0  -0.3785
  N  N210  1  0.103900  0.671400  0.143300  1.0  -0.3806
  N  N211  1  0.235300  0.503200  0.171100  1.0  -0.3964
  N  N212  1  0.159500  0.745900  0.233900  1.0  -0.427
  N  N213  1  0.462900  0.401300  0.215100  1.0  -0.4509
  N  N214  1  0.679500  0.457200  0.239500  1.0  -0.4177
  N  N215  1  0.613100  0.620400  0.284500  1.0  -0.3939
  N  N216  1  0.111600  0.861800  0.063000  1.0  -0.4144
  N  N217  1  0.168000  0.943800  0.151800  1.0  -0.3905
  N  N218  1  0.253200  0.104000  0.110500  1.0  -0.4031
  N  N219  1  0.164400  0.575500  0.039400  1.0  -0.412
  N  N220  1  0.291200  0.395600  0.072600  1.0  -0.4023
  N  N221  1  0.196300  0.413400  0.985500  1.0  -0.4268
  N  N222  1  0.984200  0.619700  0.315600  1.0  -0.4104
  N  N223  1  0.062700  0.346800  0.295000  1.0  -0.3957
  N  N224  1  0.829100  0.646300  0.205700  1.0  -0.3787
  N  N225  1  0.909800  0.363400  0.166300  1.0  -0.4366
  N  N226  1  0.864000  0.852600  0.018300  1.0  -0.3721
  N  N227  1  0.856200  0.744600  0.126500  1.0  -0.4164
  N  N228  1  0.967600  0.476000  0.093500  1.0  -0.3722
  N  N229  1  0.011500  0.690700  0.958200  1.0  -0.4185
  N  N230  1  0.484600  0.238300  0.119400  1.0  -0.3666
  N  N231  1  0.228100  0.311900  0.251300  1.0  -0.3994
  N  N232  1  0.092700  0.304500  0.132900  1.0  -0.406
  N  N233  1  0.598800  0.880000  0.576400  1.0  -0.3894
  N  N234  1  0.537400  0.610000  0.562900  1.0  -0.359
  N  N235  1  0.299200  0.806500  0.678900  1.0  -0.4013
  N  N236  1  0.525100  0.912500  0.695800  1.0  -0.3402
  N  N237  1  0.458300  0.593600  0.697200  1.0  -0.4099
  N  N238  1  0.672000  0.720800  0.663800  1.0  -0.4313
  N  N239  1  0.305900  0.621500  0.593500  1.0  -0.4378
  N  N240  1  0.355800  0.899700  0.567900  1.0  -0.4504
  N  N241  1  0.065500  0.953900  0.715100  1.0  -0.3785
  N  N242  1  0.103900  0.828600  0.643300  1.0  -0.3809
  N  N243  1  0.235300  0.996800  0.671100  1.0  -0.3953
  N  N244  1  0.159500  0.754100  0.733900  1.0  -0.4284
  N  N245  1  0.462900  0.098700  0.715100  1.0  -0.4509
  N  N246  1  0.679500  0.042800  0.739500  1.0  -0.4176
  N  N247  1  0.613100  0.879600  0.784500  1.0  -0.3952
  N  N248  1  0.111600  0.638200  0.563000  1.0  -0.4116
  N  N249  1  0.168000  0.556200  0.651800  1.0  -0.3902
  N  N250  1  0.253200  0.396000  0.610500  1.0  -0.4049
  N  N251  1  0.164400  0.924500  0.539400  1.0  -0.4119
  N  N252  1  0.291200  0.104400  0.572600  1.0  -0.4032
  N  N253  1  0.196300  0.086600  0.485500  1.0  -0.4269
  N  N254  1  0.984200  0.880300  0.815600  1.0  -0.4099
  N  N255  1  0.062700  0.153200  0.795000  1.0  -0.395
  N  N256  1  0.829100  0.853700  0.705700  1.0  -0.3783
  N  N257  1  0.909800  0.136600  0.666300  1.0  -0.4376
  N  N258  1  0.864000  0.647400  0.518300  1.0  -0.3712
  N  N259  1  0.856200  0.755400  0.626500  1.0  -0.4162
  N  N260  1  0.967600  0.024000  0.593500  1.0  -0.3743
  N  N261  1  0.011500  0.809300  0.458200  1.0  -0.4191
  N  N262  1  0.484600  0.261700  0.619400  1.0  -0.3664
  N  N263  1  0.228100  0.188100  0.751300  1.0  -0.3974
  N  N264  1  0.092700  0.195500  0.632900  1.0  -0.4065
  N  N265  1  0.401200  0.380000  0.923600  1.0  -0.3904
  N  N266  1  0.462600  0.110000  0.937100  1.0  -0.3601
  N  N267  1  0.700800  0.306500  0.821100  1.0  -0.4008
  N  N268  1  0.474900  0.412500  0.804200  1.0  -0.3408
  N  N269  1  0.541700  0.093600  0.802800  1.0  -0.4112
  N  N270  1  0.328000  0.220800  0.836200  1.0  -0.4311
  N  N271  1  0.694100  0.121500  0.906500  1.0  -0.4381
  N  N272  1  0.644200  0.399700  0.932100  1.0  -0.4523
  N  N273  1  0.934500  0.453900  0.784900  1.0  -0.3782
  N  N274  1  0.896100  0.328600  0.856700  1.0  -0.3827
  N  N275  1  0.764700  0.496800  0.828900  1.0  -0.3952
  N  N276  1  0.840500  0.254100  0.766100  1.0  -0.4265
  N  N277  1  0.537100  0.598700  0.784900  1.0  -0.4496
  N  N278  1  0.320500  0.542800  0.760500  1.0  -0.418
  N  N279  1  0.386900  0.379600  0.715500  1.0  -0.3962
  N  N280  1  0.888400  0.138200  0.937000  1.0  -0.4113
  N  N281  1  0.832000  0.056200  0.848200  1.0  -0.3909
  N  N282  1  0.746800  0.896000  0.889500  1.0  -0.4063
  N  N283  1  0.835600  0.424500  0.960600  1.0  -0.4138
  N  N284  1  0.708800  0.604400  0.927400  1.0  -0.4028
  N  N285  1  0.803700  0.586600  0.014500  1.0  -0.4274
  N  N286  1  0.015800  0.380300  0.684400  1.0  -0.4086
  N  N287  1  0.937300  0.653200  0.705000  1.0  -0.3954
  N  N288  1  0.170900  0.353700  0.794300  1.0  -0.3787
  N  N289  1  0.090200  0.636600  0.833700  1.0  -0.4381
  N  N290  1  0.136000  0.147400  0.981700  1.0  -0.3712
  N  N291  1  0.143800  0.255400  0.873500  1.0  -0.4161
  N  N292  1  0.032400  0.524000  0.906500  1.0  -0.374
  N  N293  1  0.988500  0.309300  0.041800  1.0  -0.4165
  N  N294  1  0.515400  0.761700  0.880600  1.0  -0.367
  N  N295  1  0.771900  0.688100  0.748700  1.0  -0.3994
  N  N296  1  0.907300  0.695500  0.867100  1.0  -0.4068
