# generated using pymatgen
data_NiH10C16(NO2)2
_symmetry_space_group_name_H-M   'P 1'
_cell_length_a   11.30150000
_cell_length_b   33.52110000
_cell_length_c   33.52110000
_cell_angle_alpha   120.00000000
_cell_angle_beta   90.00000000
_cell_angle_gamma   90.00000000
_symmetry_Int_Tables_number   1
_chemical_formula_structural   NiH10C16(NO2)2
_chemical_formula_sum   'Ni9 H90 C144 N18 O36'
_cell_volume   10997.73483687
_cell_formula_units_Z   9
loop_
 _symmetry_equiv_pos_site_id
 _symmetry_equiv_pos_as_xyz
  1  'x, y, z'
loop_
 _atom_site_type_symbol
 _atom_site_label
 _atom_site_symmetry_multiplicity
 _atom_site_fract_x
 _atom_site_fract_y
 _atom_site_fract_z
 _atom_site_occupancy
 _atom_site_charge
  Ni  Ni1  1  0.993320  0.165460  0.835300  1.0  0.5392
  Ni  Ni2  1  0.091300  0.001530  0.500730  1.0  0.6258
  Ni  Ni3  1  0.151890  0.834340  0.669300  1.0  0.5964
  Ni  Ni4  1  0.993320  0.669840  0.834540  1.0  0.5393
  Ni  Ni5  1  0.091300  0.499200  0.998470  1.0  0.6254
  Ni  Ni6  1  0.151890  0.834960  0.165660  1.0  0.5964
  Ni  Ni7  1  0.993320  0.164700  0.330160  1.0  0.5389
  Ni  Ni8  1  0.091300  0.499270  0.500800  1.0  0.6255
  Ni  Ni9  1  0.151890  0.330700  0.165040  1.0  0.5971
  H  H10  1  0.083100  0.975000  0.722200  1.0  0.1282
  H  H11  1  0.120300  0.948100  0.590700  1.0  0.1322
  H  H12  1  0.028500  0.076200  0.691600  1.0  0.1343
  H  H13  1  0.033000  0.309100  0.923700  1.0  0.1277
  H  H14  1  0.118800  0.410000  0.052500  1.0  0.125
  H  H15  1  0.079200  0.278600  0.025400  1.0  0.1351
  H  H16  1  0.207900  0.234500  0.858000  1.0  0.1192
  H  H17  1  0.408000  0.229800  0.855800  1.0  0.1245
  H  H18  1  0.394800  0.094500  0.815800  1.0  0.14
  H  H19  1  0.199000  0.102700  0.817900  1.0  0.0922
  H  H20  1  0.787100  0.210600  0.901700  1.0  0.1085
  H  H21  1  0.584500  0.216700  0.904200  1.0  0.1406
  H  H22  1  0.577000  0.120700  0.770100  1.0  0.1203
  H  H23  1  0.778400  0.114500  0.767500  1.0  0.1322
  H  H24  1  0.297300  0.044700  0.573900  1.0  0.1288
  H  H25  1  0.496300  0.039700  0.565800  1.0  0.0926
  H  H26  1  0.513000  0.965000  0.432400  1.0  0.1444
  H  H27  1  0.309700  0.964800  0.432300  1.0  0.1138
  H  H28  1  0.885100  0.039100  0.467300  1.0  0.1213
  H  H29  1  0.679700  0.038500  0.469000  1.0  0.1254
  H  H30  1  0.678600  0.967300  0.534800  1.0  0.1295
  H  H31  1  0.883700  0.964000  0.533300  1.0  0.1404
  H  H32  1  0.364600  0.885200  0.652100  1.0  0.111
  H  H33  1  0.567000  0.882200  0.649400  1.0  0.145
  H  H34  1  0.556900  0.784900  0.686100  1.0  0.1386
  H  H35  1  0.355600  0.788900  0.689900  1.0  0.1163
  H  H36  1  0.946800  0.897800  0.708600  1.0  0.1163
  H  H37  1  0.747500  0.899000  0.711800  1.0  0.1272
  H  H38  1  0.737000  0.763300  0.619600  1.0  0.1506
  H  H39  1  0.930300  0.766700  0.619300  1.0  0.0976
  H  H40  1  0.083100  0.747200  0.025000  1.0  0.1289
  H  H41  1  0.120300  0.642600  0.051900  1.0  0.132
  H  H42  1  0.028500  0.615400  0.923800  1.0  0.1346
  H  H43  1  0.033000  0.614600  0.690900  1.0  0.1278
  H  H44  1  0.118800  0.642500  0.590000  1.0  0.1247
  H  H45  1  0.079200  0.746800  0.721400  1.0  0.1349
  H  H46  1  0.207900  0.623500  0.765500  1.0  0.1186
  H  H47  1  0.408000  0.626000  0.770200  1.0  0.1239
  H  H48  1  0.394800  0.721300  0.905500  1.0  0.1377
  H  H49  1  0.199000  0.715200  0.897300  1.0  0.0901
  H  H50  1  0.787100  0.691100  0.789400  1.0  0.1094
  H  H51  1  0.584500  0.687500  0.783300  1.0  0.1401
  H  H52  1  0.577000  0.649400  0.879300  1.0  0.1202
  H  H53  1  0.778400  0.653000  0.885500  1.0  0.1323
  H  H54  1  0.297300  0.529200  0.955300  1.0  0.1281
  H  H55  1  0.496300  0.526100  0.960300  1.0  0.0905
  H  H56  1  0.513000  0.467400  0.035000  1.0  0.1447
  H  H57  1  0.309700  0.467500  0.035200  1.0  0.1141
  H  H58  1  0.885100  0.428200  0.960900  1.0  0.123
  H  H59  1  0.679700  0.430500  0.961500  1.0  0.1253
  H  H60  1  0.678600  0.567500  0.032700  1.0  0.1291
  H  H61  1  0.883700  0.569300  0.036000  1.0  0.1399
  H  H62  1  0.364600  0.766900  0.114800  1.0  0.1124
  H  H63  1  0.567000  0.767200  0.117800  1.0  0.145
  H  H64  1  0.556900  0.901200  0.215100  1.0  0.1378
  H  H65  1  0.355600  0.901000  0.211100  1.0  0.1163
  H  H66  1  0.946800  0.810800  0.102200  1.0  0.1161
  H  H67  1  0.747500  0.812800  0.101000  1.0  0.1274
  H  H68  1  0.737000  0.856300  0.236700  1.0  0.1484
  H  H69  1  0.930300  0.852600  0.233300  1.0  0.098
  H  H70  1  0.083100  0.277800  0.252800  1.0  0.1287
  H  H71  1  0.120300  0.409300  0.357400  1.0  0.1321
  H  H72  1  0.028500  0.308400  0.384600  1.0  0.1333
  H  H73  1  0.033000  0.076300  0.385400  1.0  0.1273
  H  H74  1  0.118800  0.947500  0.357500  1.0  0.1255
  H  H75  1  0.079200  0.974600  0.253200  1.0  0.1342
  H  H76  1  0.207900  0.142000  0.376500  1.0  0.1189
  H  H77  1  0.408000  0.144200  0.374000  1.0  0.1236
  H  H78  1  0.394800  0.184200  0.278700  1.0  0.1378
  H  H79  1  0.199000  0.182100  0.284800  1.0  0.0908
  H  H80  1  0.787100  0.098300  0.308900  1.0  0.1103
  H  H81  1  0.584500  0.095800  0.312500  1.0  0.1398
  H  H82  1  0.577000  0.229900  0.350600  1.0  0.1208
  H  H83  1  0.778400  0.232500  0.347000  1.0  0.1324
  H  H84  1  0.297300  0.426100  0.470800  1.0  0.1302
  H  H85  1  0.496300  0.434200  0.473900  1.0  0.0893
  H  H86  1  0.513000  0.567600  0.532600  1.0  0.145
  H  H87  1  0.309700  0.567700  0.532500  1.0  0.1147
  H  H88  1  0.885100  0.532700  0.571800  1.0  0.1231
  H  H89  1  0.679700  0.531000  0.569500  1.0  0.1247
  H  H90  1  0.678600  0.465200  0.432500  1.0  0.1287
  H  H91  1  0.883700  0.466700  0.430700  1.0  0.1398
  H  H92  1  0.364600  0.347900  0.233100  1.0  0.1125
  H  H93  1  0.567000  0.350600  0.232800  1.0  0.1443
  H  H94  1  0.556900  0.313900  0.098800  1.0  0.1373
  H  H95  1  0.355600  0.310100  0.099000  1.0  0.1172
  H  H96  1  0.946800  0.291400  0.189200  1.0  0.1149
  H  H97  1  0.747500  0.288200  0.187200  1.0  0.1269
  H  H98  1  0.737000  0.380400  0.143700  1.0  0.1501
  H  H99  1  0.930300  0.380700  0.147400  1.0  0.0976
  C  C100  1  0.051700  0.030460  0.714150  1.0  -0.1192
  C  C101  1  0.080700  0.985050  0.700240  1.0  -0.095
  C  C102  1  0.106200  0.954360  0.654250  1.0  -0.0922
  C  C103  1  0.102800  0.969080  0.622170  1.0  0.0202
  C  C104  1  0.073800  0.014490  0.636080  1.0  -0.1108
  C  C105  1  0.048300  0.045180  0.682070  1.0  0.0332
  C  C106  1  0.022700  0.067600  0.763400  1.0  0.3775
  C  C107  1  0.133800  0.907700  0.644300  1.0  0.2459
  C  C108  1  0.072400  0.029500  0.600200  1.0  0.6334
  C  C109  1  0.052100  0.286540  0.969640  1.0  -0.1191
  C  C110  1  0.050800  0.318590  0.954870  1.0  0.0322
  C  C111  1  0.075600  0.364600  0.985750  1.0  -0.1202
  C  C112  1  0.101800  0.378550  0.031400  1.0  0.0193
  C  C113  1  0.103100  0.346490  0.046170  1.0  0.0088
  C  C114  1  0.078300  0.300490  0.015290  1.0  -0.0494
  C  C115  1  0.024900  0.236200  0.933700  1.0  0.7108
  C  C116  1  0.076900  0.401900  0.972000  1.0  0.4686
  C  C117  1  0.128400  0.358300  0.091600  1.0  0.4099
  C  C118  1  0.243100  0.205600  0.849400  1.0  0.1248
  C  C119  1  0.364300  0.202700  0.848100  1.0  -0.1692
  C  C120  1  0.428200  0.162140  0.836060  1.0  -0.0056
  C  C121  1  0.360600  0.123600  0.824500  1.0  -0.1219
  C  C122  1  0.242100  0.130200  0.826500  1.0  0.1184
  C  C123  1  0.743400  0.191800  0.874360  1.0  0.1638
  C  C124  1  0.623100  0.195700  0.876300  1.0  -0.1332
  C  C125  1  0.559400  0.168700  0.837400  1.0  0.0779
  C  C126  1  0.620900  0.139200  0.797500  1.0  -0.1081
  C  C127  1  0.740300  0.135400  0.795600  1.0  0.0982
  C  C128  1  0.336100  0.028300  0.545000  1.0  0.0365
  C  C129  1  0.454300  0.023800  0.537500  1.0  -0.0241
  C  C130  1  0.530700  0.003200  0.501400  1.0  0.1111
  C  C131  1  0.471000  0.980700  0.460700  1.0  -0.125
  C  C132  1  0.349900  0.981000  0.461000  1.0  0.155
  C  C133  1  0.843600  0.024300  0.480900  1.0  0.1375
  C  C134  1  0.722800  0.023800  0.482400  1.0  -0.1164
  C  C135  1  0.661500  0.003040  0.501840  1.0  0.0995
  C  C136  1  0.721800  0.981500  0.520900  1.0  -0.0871
  C  C137  1  0.842200  0.979700  0.520600  1.0  0.1392
  C  C138  1  0.403900  0.864500  0.659200  1.0  0.1559
  C  C139  1  0.523400  0.863000  0.657500  1.0  -0.1653
  C  C140  1  0.580700  0.832790  0.667890  1.0  0.0759
  C  C141  1  0.517000  0.805700  0.679300  1.0  -0.1144
  C  C142  1  0.397700  0.807900  0.681200  1.0  0.1188
  C  C143  1  0.907200  0.869500  0.689700  1.0  0.1425
  C  C144  1  0.784800  0.870400  0.691700  1.0  -0.1221
  C  C145  1  0.712200  0.831600  0.666000  1.0  0.0933
  C  C146  1  0.775500  0.791900  0.638400  1.0  -0.1404
  C  C147  1  0.895000  0.795600  0.639500  1.0  0.0921
  C  C148  1  0.051700  0.683690  0.969540  1.0  -0.1192
  C  C149  1  0.080700  0.715190  0.014950  1.0  -0.0894
  C  C150  1  0.106200  0.699890  0.045640  1.0  -0.0949
  C  C151  1  0.102800  0.653090  0.030920  1.0  0.018
  C  C152  1  0.073800  0.621590  0.985510  1.0  -0.1097
  C  C153  1  0.048300  0.636890  0.954820  1.0  0.0329
  C  C154  1  0.022700  0.695800  0.932400  1.0  0.3768
  C  C155  1  0.133800  0.736600  0.092300  1.0  0.2478
  C  C156  1  0.072400  0.570700  0.970500  1.0  0.6342
  C  C157  1  0.052100  0.683100  0.713460  1.0  -0.1196
  C  C158  1  0.050800  0.636280  0.681410  1.0  0.0336
  C  C159  1  0.075600  0.621150  0.635400  1.0  -0.1199
  C  C160  1  0.101800  0.652850  0.621450  1.0  0.0169
  C  C161  1  0.103100  0.699680  0.653510  1.0  0.0088
  C  C162  1  0.078300  0.714800  0.699510  1.0  -0.0515
  C  C163  1  0.024900  0.697500  0.763800  1.0  0.7108
  C  C164  1  0.076900  0.570100  0.598100  1.0  0.4664
  C  C165  1  0.128400  0.733300  0.641700  1.0  0.4117
  C  C166  1  0.243100  0.643800  0.794400  1.0  0.1211
  C  C167  1  0.364300  0.645400  0.797300  1.0  -0.1684
  C  C168  1  0.428200  0.673920  0.837860  1.0  -0.0058
  C  C169  1  0.360600  0.700900  0.876400  1.0  -0.1235
  C  C170  1  0.242100  0.696300  0.869800  1.0  0.1199
  C  C171  1  0.743400  0.682560  0.808200  1.0  0.1608
  C  C172  1  0.623100  0.680600  0.804300  1.0  -0.1305
  C  C173  1  0.559400  0.668700  0.831300  1.0  0.0775
  C  C174  1  0.620900  0.658300  0.860800  1.0  -0.1076
  C  C175  1  0.740300  0.660200  0.864600  1.0  0.0977
  C  C176  1  0.336100  0.516700  0.971700  1.0  0.0392
  C  C177  1  0.454300  0.513700  0.976200  1.0  -0.0249
  C  C178  1  0.530700  0.498200  0.996800  1.0  0.1111
  C  C179  1  0.471000  0.480000  0.019300  1.0  -0.1233
  C  C180  1  0.349900  0.480000  0.019000  1.0  0.1543
  C  C181  1  0.843600  0.456600  0.975700  1.0  0.1385
  C  C182  1  0.722800  0.458600  0.976200  1.0  -0.1158
  C  C183  1  0.661500  0.498800  0.996960  1.0  0.0996
  C  C184  1  0.721800  0.539400  0.018500  1.0  -0.0865
  C  C185  1  0.842200  0.540900  0.020300  1.0  0.1395
  C  C186  1  0.403900  0.794700  0.135500  1.0  0.156
  C  C187  1  0.523400  0.794500  0.137000  1.0  -0.1656
  C  C188  1  0.580700  0.835100  0.167210  1.0  0.0759
  C  C189  1  0.517000  0.873600  0.194300  1.0  -0.1144
  C  C190  1  0.397700  0.873300  0.192100  1.0  0.1179
  C  C191  1  0.907200  0.820200  0.130500  1.0  0.142
  C  C192  1  0.784800  0.821300  0.129600  1.0  -0.1209
  C  C193  1  0.712200  0.834400  0.168400  1.0  0.0933
  C  C194  1  0.775500  0.846500  0.208100  1.0  -0.1375
  C  C195  1  0.895000  0.843900  0.204400  1.0  0.0907
  C  C196  1  0.051700  0.285850  0.316310  1.0  -0.1181
  C  C197  1  0.080700  0.299760  0.284810  1.0  -0.0917
  C  C198  1  0.106200  0.345750  0.300110  1.0  -0.0923
  C  C199  1  0.102800  0.377830  0.346910  1.0  0.0216
  C  C200  1  0.073800  0.363920  0.378410  1.0  -0.1114
  C  C201  1  0.048300  0.317930  0.363110  1.0  0.0299
  C  C202  1  0.022700  0.236600  0.304200  1.0  0.3777
  C  C203  1  0.133800  0.355700  0.263400  1.0  0.2449
  C  C204  1  0.072400  0.399800  0.429300  1.0  0.6326
  C  C205  1  0.052100  0.030360  0.316900  1.0  -0.119
  C  C206  1  0.050800  0.045130  0.363720  1.0  0.0345
  C  C207  1  0.075600  0.014250  0.378850  1.0  -0.121
  C  C208  1  0.101800  0.968600  0.347150  1.0  0.0184
  C  C209  1  0.103100  0.953830  0.300320  1.0  0.0083
  C  C210  1  0.078300  0.984710  0.285200  1.0  -0.0504
  C  C211  1  0.024900  0.066300  0.302500  1.0  0.7134
  C  C212  1  0.076900  0.028000  0.429900  1.0  0.4675
  C  C213  1  0.128400  0.908400  0.266700  1.0  0.4104
  C  C214  1  0.243100  0.150600  0.356200  1.0  0.1233
  C  C215  1  0.364300  0.151900  0.354600  1.0  -0.1637
  C  C216  1  0.428200  0.163940  0.326080  1.0  -0.0055
  C  C217  1  0.360600  0.175500  0.299100  1.0  -0.1209
  C  C218  1  0.242100  0.173500  0.303700  1.0  0.1187
  C  C219  1  0.743400  0.125640  0.317440  1.0  0.1649
  C  C220  1  0.623100  0.123700  0.319400  1.0  -0.131
  C  C221  1  0.559400  0.162600  0.331300  1.0  0.0773
  C  C222  1  0.620900  0.202500  0.341700  1.0  -0.1071
  C  C223  1  0.740300  0.204400  0.339800  1.0  0.0981
  C  C224  1  0.336100  0.455000  0.483300  1.0  0.0379
  C  C225  1  0.454300  0.462500  0.486300  1.0  -0.0252
  C  C226  1  0.530700  0.498600  0.501800  1.0  0.1112
  C  C227  1  0.471000  0.539300  0.520000  1.0  -0.1239
  C  C228  1  0.349900  0.539000  0.520000  1.0  0.1558
  C  C229  1  0.843600  0.519100  0.543400  1.0  0.1373
  C  C230  1  0.722800  0.517600  0.541400  1.0  -0.1154
  C  C231  1  0.661500  0.498160  0.501200  1.0  0.0996
  C  C232  1  0.721800  0.479100  0.460600  1.0  -0.0856
  C  C233  1  0.842200  0.479400  0.459100  1.0  0.1376
  C  C234  1  0.403900  0.340800  0.205300  1.0  0.1549
  C  C235  1  0.523400  0.342500  0.205500  1.0  -0.1654
  C  C236  1  0.580700  0.332110  0.164900  1.0  0.076
  C  C237  1  0.517000  0.320700  0.126400  1.0  -0.1128
  C  C238  1  0.397700  0.318800  0.126700  1.0  0.1182
  C  C239  1  0.907200  0.310300  0.179800  1.0  0.1424
  C  C240  1  0.784800  0.308300  0.178700  1.0  -0.1224
  C  C241  1  0.712200  0.334000  0.165600  1.0  0.0935
  C  C242  1  0.775500  0.361600  0.153500  1.0  -0.1435
  C  C243  1  0.895000  0.360500  0.156100  1.0  0.0929
  N  N244  1  0.168400  0.167880  0.838340  1.0  -0.3267
  N  N245  1  0.806200  0.161870  0.834520  1.0  -0.4034
  N  N246  1  0.282000  0.003940  0.501290  1.0  -0.3173
  N  N247  1  0.902200  0.001930  0.500740  1.0  -0.3079
  N  N248  1  0.334900  0.837210  0.671010  1.0  -0.391
  N  N249  1  0.981600  0.829600  0.661690  1.0  -0.4101
  N  N250  1  0.168400  0.670460  0.832120  1.0  -0.3268
  N  N251  1  0.806200  0.672650  0.838130  1.0  -0.4035
  N  N252  1  0.282000  0.497350  0.996060  1.0  -0.3172
  N  N253  1  0.902200  0.498810  0.998070  1.0  -0.3083
  N  N254  1  0.334900  0.833800  0.162790  1.0  -0.3905
  N  N255  1  0.981600  0.832090  0.170400  1.0  -0.4102
  N  N256  1  0.168400  0.161660  0.329540  1.0  -0.3266
  N  N257  1  0.806200  0.165480  0.327350  1.0  -0.4036
  N  N258  1  0.282000  0.498710  0.502650  1.0  -0.3171
  N  N259  1  0.902200  0.499260  0.501190  1.0  -0.3084
  N  N260  1  0.334900  0.328990  0.166200  1.0  -0.3907
  N  N261  1  0.981600  0.338310  0.167910  1.0  -0.4104
  O  O262  1  0.996700  0.104080  0.776310  1.0  -0.5895
  O  O263  1  0.026700  0.051300  0.792600  1.0  -0.4453
  O  O264  1  0.138600  0.895940  0.669750  1.0  -0.57
  O  O265  1  0.163000  0.874990  0.597460  1.0  -0.438
  O  O266  1  0.090900  0.003320  0.562540  1.0  -0.5831
  O  O267  1  0.043400  0.071700  0.614200  1.0  -0.4573
  O  O268  1  0.026200  0.207600  0.948500  1.0  -0.47
  O  O269  1  0.000200  0.224370  0.893990  1.0  -0.5774
  O  O270  1  0.049800  0.386100  0.926800  1.0  -0.4249
  O  O271  1  0.095500  0.438800  0.997150  1.0  -0.5683
  O  O272  1  0.154300  0.402400  0.123700  1.0  -0.4067
  O  O273  1  0.132200  0.333530  0.106900  1.0  -0.593
  O  O274  1  0.996700  0.672230  0.895920  1.0  -0.5875
  O  O275  1  0.026700  0.741300  0.948700  1.0  -0.4366
  O  O276  1  0.138600  0.773810  0.104060  1.0  -0.5717
  O  O277  1  0.163000  0.722470  0.125010  1.0  -0.4372
  O  O278  1  0.090900  0.559220  0.996680  1.0  -0.5853
  O  O279  1  0.043400  0.542500  0.928300  1.0  -0.4527
  O  O280  1  0.026200  0.740900  0.792400  1.0  -0.4668
  O  O281  1  0.000200  0.669620  0.775630  1.0  -0.5789
  O  O282  1  0.049800  0.540700  0.613900  1.0  -0.4429
  O  O283  1  0.095500  0.558350  0.561200  1.0  -0.5671
  O  O284  1  0.154300  0.721300  0.597600  1.0  -0.3975
  O  O285  1  0.132200  0.773370  0.666470  1.0  -0.5953
  O  O286  1  0.996700  0.223690  0.327770  1.0  -0.5892
  O  O287  1  0.026700  0.207400  0.258700  1.0  -0.4346
  O  O288  1  0.138600  0.330250  0.226190  1.0  -0.5699
  O  O289  1  0.163000  0.402540  0.277530  1.0  -0.4459
  O  O290  1  0.090900  0.437460  0.440780  1.0  -0.5858
  O  O291  1  0.043400  0.385800  0.457500  1.0  -0.4488
  O  O292  1  0.026200  0.051500  0.259100  1.0  -0.466
  O  O293  1  0.000200  0.106010  0.330380  1.0  -0.582
  O  O294  1  0.049800  0.073200  0.459300  1.0  -0.4376
  O  O295  1  0.095500  0.002850  0.441650  1.0  -0.5659
  O  O296  1  0.154300  0.876300  0.278700  1.0  -0.4124
  O  O297  1  0.132200  0.893100  0.226630  1.0  -0.5937
