# generated using pymatgen
data_Rb2Ga9P9H36C12N4O36F7
_symmetry_space_group_name_H-M   'P 1'
_cell_length_a   18.23820000
_cell_length_b   18.23820000
_cell_length_c   10.21200000
_cell_angle_alpha   90.00000000
_cell_angle_beta   90.00000000
_cell_angle_gamma   123.62830000
_symmetry_Int_Tables_number   1
_chemical_formula_structural   Rb2Ga9P9H36C12N4O36F7
_chemical_formula_sum   'Rb4 Ga18 P18 H72 C24 N8 O72 F14'
_cell_volume   2828.36916938
_cell_formula_units_Z   2
loop_
 _symmetry_equiv_pos_site_id
 _symmetry_equiv_pos_as_xyz
  1  'x, y, z'
loop_
 _atom_site_type_symbol
 _atom_site_label
 _atom_site_symmetry_multiplicity
 _atom_site_fract_x
 _atom_site_fract_y
 _atom_site_fract_z
 _atom_site_occupancy
 _atom_site_charge
  Rb  Rb1  1  0.092410  0.762090  0.960490  1.0  0.9253
  Rb  Rb2  1  0.907590  0.237910  0.460490  1.0  0.9247
  Rb  Rb3  1  0.237910  0.907590  0.460490  1.0  0.925
  Rb  Rb4  1  0.762090  0.092410  0.960490  1.0  0.9248
  Ga  Ga5  1  0.845820  0.007020  0.288940  1.0  1.652
  Ga  Ga6  1  0.154920  0.668660  0.299170  1.0  1.6625
  Ga  Ga7  1  0.345580  0.008700  0.107300  1.0  1.6222
  Ga  Ga8  1  0.962140  0.511680  0.132300  1.0  1.5033
  Ga  Ga9  1  0.154180  0.992980  0.788940  1.0  1.6532
  Ga  Ga10  1  0.845080  0.331340  0.799170  1.0  1.6611
  Ga  Ga11  1  0.654420  0.991300  0.607300  1.0  1.6213
  Ga  Ga12  1  0.037860  0.488320  0.632300  1.0  1.5041
  Ga  Ga13  1  0.992980  0.154180  0.788940  1.0  1.6535
  Ga  Ga14  1  0.331340  0.845080  0.799170  1.0  1.6613
  Ga  Ga15  1  0.991300  0.654420  0.607300  1.0  1.6226
  Ga  Ga16  1  0.488320  0.037860  0.632300  1.0  1.505
  Ga  Ga17  1  0.007020  0.845820  0.288940  1.0  1.6543
  Ga  Ga18  1  0.668660  0.154920  0.299170  1.0  1.6615
  Ga  Ga19  1  0.008700  0.345580  0.107300  1.0  1.6223
  Ga  Ga20  1  0.511680  0.962140  0.132300  1.0  1.5045
  Ga  Ga21  1  0.050930  0.050930  0.212660  1.0  1.6586
  Ga  Ga22  1  0.949070  0.949070  0.712660  1.0  1.6603
  P  P23  1  0.307680  0.817560  0.104600  1.0  1.7646
  P  P24  1  0.342920  0.026240  0.816210  1.0  1.7457
  P  P25  1  0.158830  0.976810  0.095680  1.0  1.855
  P  P26  1  0.932720  0.526560  0.834670  1.0  1.7753
  P  P27  1  0.692320  0.182440  0.604600  1.0  1.768
  P  P28  1  0.657080  0.973760  0.316210  1.0  1.7482
  P  P29  1  0.841170  0.023190  0.595680  1.0  1.855
  P  P30  1  0.067280  0.473440  0.334670  1.0  1.7759
  P  P31  1  0.182440  0.692320  0.604600  1.0  1.7669
  P  P32  1  0.973760  0.657080  0.316210  1.0  1.7507
  P  P33  1  0.023190  0.841170  0.595680  1.0  1.8548
  P  P34  1  0.473440  0.067280  0.334670  1.0  1.7734
  P  P35  1  0.817560  0.307680  0.104600  1.0  1.7654
  P  P36  1  0.026240  0.342920  0.816210  1.0  1.7498
  P  P37  1  0.976810  0.158830  0.095680  1.0  1.8549
  P  P38  1  0.526560  0.932720  0.834670  1.0  1.7766
  P  P39  1  0.872580  0.872580  0.162550  1.0  1.7452
  P  P40  1  0.127420  0.127420  0.662550  1.0  1.7456
  H  H41  1  0.625900  0.204500  0.861400  1.0  0.1714
  H  H42  1  0.535200  0.137000  0.895100  1.0  0.1889
  H  H43  1  0.605800  0.159200  0.986300  1.0  0.2018
  H  H44  1  0.608100  0.265700  0.069800  1.0  0.0755
  H  H45  1  0.515000  0.222200  0.005100  1.0  0.0839
  H  H46  1  0.568100  0.313900  0.834000  1.0  0.085
  H  H47  1  0.664600  0.342000  0.860700  1.0  0.0919
  H  H48  1  0.573500  0.403500  0.982200  1.0  0.1046
  H  H49  1  0.654100  0.414100  0.051900  1.0  0.0708
  H  H50  1  0.660400  0.520800  0.850200  1.0  0.0851
  H  H51  1  0.746700  0.525500  0.896600  1.0  0.0919
  H  H52  1  0.646400  0.483200  0.107300  1.0  0.075
  H  H53  1  0.642000  0.558600  0.044600  1.0  0.0825
  H  H54  1  0.752400  0.648600  0.158400  1.0  0.0767
  H  H55  1  0.764900  0.574300  0.204700  1.0  0.076
  H  H56  1  0.835600  0.666400  0.977900  1.0  0.2167
  H  H57  1  0.850400  0.601000  0.027700  1.0  0.1956
  H  H58  1  0.886300  0.683700  0.097100  1.0  0.2013
  H  H59  1  0.374100  0.795500  0.361400  1.0  0.1716
  H  H60  1  0.464800  0.863000  0.395100  1.0  0.1901
  H  H61  1  0.394200  0.840800  0.486300  1.0  0.1987
  H  H62  1  0.391900  0.734300  0.569800  1.0  0.0754
  H  H63  1  0.485000  0.777800  0.505100  1.0  0.0838
  H  H64  1  0.431900  0.686100  0.334000  1.0  0.0853
  H  H65  1  0.335400  0.658000  0.360700  1.0  0.0893
  H  H66  1  0.426500  0.596500  0.482200  1.0  0.1047
  H  H67  1  0.345900  0.585900  0.551900  1.0  0.0719
  H  H68  1  0.339600  0.479200  0.350200  1.0  0.0854
  H  H69  1  0.253300  0.474500  0.396600  1.0  0.0887
  H  H70  1  0.353600  0.516800  0.607300  1.0  0.0756
  H  H71  1  0.358000  0.441400  0.544600  1.0  0.0858
  H  H72  1  0.247600  0.351400  0.658400  1.0  0.0775
  H  H73  1  0.235100  0.425700  0.704700  1.0  0.076
  H  H74  1  0.164400  0.333600  0.477900  1.0  0.2177
  H  H75  1  0.149600  0.399000  0.527700  1.0  0.1915
  H  H76  1  0.113700  0.316300  0.597100  1.0  0.2008
  H  H77  1  0.795500  0.374100  0.361400  1.0  0.1723
  H  H78  1  0.863000  0.464800  0.395100  1.0  0.1912
  H  H79  1  0.840800  0.394200  0.486300  1.0  0.2016
  H  H80  1  0.734300  0.391900  0.569800  1.0  0.0762
  H  H81  1  0.777800  0.485000  0.505100  1.0  0.0848
  H  H82  1  0.686100  0.431900  0.334000  1.0  0.0837
  H  H83  1  0.658000  0.335400  0.360700  1.0  0.0891
  H  H84  1  0.596500  0.426500  0.482200  1.0  0.1024
  H  H85  1  0.585900  0.345900  0.551900  1.0  0.0716
  H  H86  1  0.479200  0.339600  0.350200  1.0  0.0853
  H  H87  1  0.474500  0.253300  0.396600  1.0  0.0915
  H  H88  1  0.516800  0.353600  0.607300  1.0  0.0753
  H  H89  1  0.441400  0.358000  0.544600  1.0  0.0814
  H  H90  1  0.351400  0.247600  0.658400  1.0  0.0777
  H  H91  1  0.425700  0.235100  0.704700  1.0  0.0768
  H  H92  1  0.333600  0.164400  0.477900  1.0  0.2158
  H  H93  1  0.399000  0.149600  0.527700  1.0  0.1892
  H  H94  1  0.316300  0.113700  0.597100  1.0  0.201
  H  H95  1  0.204500  0.625900  0.861400  1.0  0.1716
  H  H96  1  0.137000  0.535200  0.895100  1.0  0.19
  H  H97  1  0.159200  0.605800  0.986300  1.0  0.1993
  H  H98  1  0.265700  0.608100  0.069800  1.0  0.0769
  H  H99  1  0.222200  0.515000  0.005100  1.0  0.0844
  H  H100  1  0.313900  0.568100  0.834000  1.0  0.0833
  H  H101  1  0.342000  0.664600  0.860700  1.0  0.0894
  H  H102  1  0.403500  0.573500  0.982200  1.0  0.1035
  H  H103  1  0.414100  0.654100  0.051900  1.0  0.0713
  H  H104  1  0.520800  0.660400  0.850200  1.0  0.0862
  H  H105  1  0.525500  0.746700  0.896600  1.0  0.0921
  H  H106  1  0.483200  0.646400  0.107300  1.0  0.0757
  H  H107  1  0.558600  0.642000  0.044600  1.0  0.0852
  H  H108  1  0.648600  0.752400  0.158400  1.0  0.0751
  H  H109  1  0.574300  0.764900  0.204700  1.0  0.077
  H  H110  1  0.666400  0.835600  0.977900  1.0  0.2221
  H  H111  1  0.601000  0.850400  0.027700  1.0  0.1871
  H  H112  1  0.683700  0.886300  0.097100  1.0  0.204
  C  C113  1  0.576930  0.248070  0.986900  1.0  -0.0042
  C  C114  1  0.610940  0.329060  0.902800  1.0  -0.1628
  C  C115  1  0.630800  0.413400  0.966300  1.0  -0.0987
  C  C116  1  0.687100  0.506700  0.919400  1.0  -0.1265
  C  C117  1  0.678600  0.535600  0.053300  1.0  -0.1331
  C  C118  1  0.759400  0.602400  0.128200  1.0  -0.0167
  C  C119  1  0.423070  0.751930  0.486900  1.0  -0.0037
  C  C120  1  0.389060  0.670940  0.402800  1.0  -0.1608
  C  C121  1  0.369200  0.586600  0.466300  1.0  -0.0998
  C  C122  1  0.312900  0.493300  0.419400  1.0  -0.1249
  C  C123  1  0.321400  0.464400  0.553300  1.0  -0.1348
  C  C124  1  0.240600  0.397600  0.628200  1.0  -0.0186
  C  C125  1  0.751930  0.423070  0.486900  1.0  -0.0056
  C  C126  1  0.670940  0.389060  0.402800  1.0  -0.1621
  C  C127  1  0.586600  0.369200  0.466300  1.0  -0.1027
  C  C128  1  0.493300  0.312900  0.419400  1.0  -0.1243
  C  C129  1  0.464400  0.321400  0.553300  1.0  -0.1395
  C  C130  1  0.397600  0.240600  0.628200  1.0  -0.0151
  C  C131  1  0.248070  0.576930  0.986900  1.0  -0.0056
  C  C132  1  0.329060  0.610940  0.902800  1.0  -0.1614
  C  C133  1  0.413400  0.630800  0.966300  1.0  -0.1013
  C  C134  1  0.506700  0.687100  0.919400  1.0  -0.1253
  C  C135  1  0.535600  0.678600  0.053300  1.0  -0.1396
  C  C136  1  0.602400  0.759400  0.128200  1.0  -0.0157
  N  N137  1  0.586930  0.180430  0.926400  1.0  -0.3074
  N  N138  1  0.841100  0.642300  0.050000  1.0  -0.2595
  N  N139  1  0.413070  0.819570  0.426400  1.0  -0.306
  N  N140  1  0.158900  0.357700  0.550000  1.0  -0.2594
  N  N141  1  0.819570  0.413070  0.426400  1.0  -0.3071
  N  N142  1  0.357700  0.158900  0.550000  1.0  -0.2611
  N  N143  1  0.180430  0.586930  0.926400  1.0  -0.3069
  N  N144  1  0.642300  0.841100  0.050000  1.0  -0.2625
  O  O145  1  0.012980  0.528100  0.792800  1.0  -0.8095
  O  O146  1  0.404060  0.848340  0.126400  1.0  -0.8496
  O  O147  1  0.253430  0.742610  0.199100  1.0  -0.8724
  O  O148  1  0.944150  0.559350  0.975500  1.0  -0.8443
  O  O149  1  0.428110  0.076310  0.735800  1.0  -0.8118
  O  O150  1  0.277660  0.784420  0.965300  1.0  -0.8796
  O  O151  1  0.848270  0.433130  0.820000  1.0  -0.8921
  O  O152  1  0.306930  0.927930  0.836800  1.0  -0.9244
  O  O153  1  0.167340  0.957320  0.951700  1.0  -0.9598
  O  O154  1  0.921110  0.589410  0.747400  1.0  -0.8723
  O  O155  1  0.245320  0.011320  0.164800  1.0  -0.8241
  O  O156  1  0.134370  0.044310  0.104800  1.0  -0.7833
  O  O157  1  0.274630  0.034110  0.743100  1.0  -0.8103
  O  O158  1  0.087550  0.886390  0.153800  1.0  -0.9505
  O  O159  1  0.361000  0.069340  0.952900  1.0  -0.8572
  O  O160  1  0.289430  0.888370  0.139000  1.0  -0.8803
  O  O161  1  0.817590  0.894790  0.246800  1.0  -0.8278
  O  O162  1  0.987020  0.471900  0.292800  1.0  -0.8074
  O  O163  1  0.595940  0.151660  0.626400  1.0  -0.8483
  O  O164  1  0.746570  0.257390  0.699100  1.0  -0.8704
  O  O165  1  0.055850  0.440650  0.475500  1.0  -0.8451
  O  O166  1  0.571890  0.923690  0.235800  1.0  -0.812
  O  O167  1  0.722340  0.215580  0.465300  1.0  -0.8791
  O  O168  1  0.151730  0.566870  0.320000  1.0  -0.8927
  O  O169  1  0.693070  0.072070  0.336800  1.0  -0.926
  O  O170  1  0.832660  0.042680  0.451700  1.0  -0.9597
  O  O171  1  0.078890  0.410590  0.247400  1.0  -0.8746
  O  O172  1  0.754680  0.988680  0.664800  1.0  -0.8239
  O  O173  1  0.865630  0.955690  0.604800  1.0  -0.7844
  O  O174  1  0.725370  0.965890  0.243100  1.0  -0.8101
  O  O175  1  0.912450  0.113610  0.653800  1.0  -0.9499
  O  O176  1  0.639000  0.930660  0.452900  1.0  -0.8578
  O  O177  1  0.710570  0.111630  0.639000  1.0  -0.8796
  O  O178  1  0.182410  0.105210  0.746800  1.0  -0.8281
  O  O179  1  0.471900  0.987020  0.292800  1.0  -0.8089
  O  O180  1  0.151660  0.595940  0.626400  1.0  -0.8485
  O  O181  1  0.257390  0.746570  0.699100  1.0  -0.8759
  O  O182  1  0.440650  0.055850  0.475500  1.0  -0.8441
  O  O183  1  0.923690  0.571890  0.235800  1.0  -0.811
  O  O184  1  0.215580  0.722340  0.465300  1.0  -0.88
  O  O185  1  0.566870  0.151730  0.320000  1.0  -0.8897
  O  O186  1  0.072070  0.693070  0.336800  1.0  -0.9301
  O  O187  1  0.042680  0.832660  0.451700  1.0  -0.9596
  O  O188  1  0.410590  0.078890  0.247400  1.0  -0.8715
  O  O189  1  0.988680  0.754680  0.664800  1.0  -0.8216
  O  O190  1  0.955690  0.865630  0.604800  1.0  -0.7829
  O  O191  1  0.965890  0.725370  0.243100  1.0  -0.8108
  O  O192  1  0.113610  0.912450  0.653800  1.0  -0.9483
  O  O193  1  0.930660  0.639000  0.452900  1.0  -0.8585
  O  O194  1  0.111630  0.710570  0.639000  1.0  -0.8825
  O  O195  1  0.105210  0.182410  0.746800  1.0  -0.8274
  O  O196  1  0.528100  0.012980  0.792800  1.0  -0.8084
  O  O197  1  0.848340  0.404060  0.126400  1.0  -0.8482
  O  O198  1  0.742610  0.253430  0.199100  1.0  -0.8721
  O  O199  1  0.559350  0.944150  0.975500  1.0  -0.8445
  O  O200  1  0.076310  0.428110  0.735800  1.0  -0.8118
  O  O201  1  0.784420  0.277660  0.965300  1.0  -0.8798
  O  O202  1  0.433130  0.848270  0.820000  1.0  -0.8903
  O  O203  1  0.927930  0.306930  0.836800  1.0  -0.9282
  O  O204  1  0.957320  0.167340  0.951700  1.0  -0.9586
  O  O205  1  0.589410  0.921110  0.747400  1.0  -0.8737
  O  O206  1  0.011320  0.245320  0.164800  1.0  -0.8203
  O  O207  1  0.044310  0.134370  0.104800  1.0  -0.7832
  O  O208  1  0.034110  0.274630  0.743100  1.0  -0.8106
  O  O209  1  0.886390  0.087550  0.153800  1.0  -0.9472
  O  O210  1  0.069340  0.361000  0.952900  1.0  -0.8578
  O  O211  1  0.888370  0.289430  0.139000  1.0  -0.8814
  O  O212  1  0.894790  0.817590  0.246800  1.0  -0.8292
  O  O213  1  0.954720  0.954720  0.106200  1.0  -0.8126
  O  O214  1  0.813400  0.813400  0.047500  1.0  -0.6559
  O  O215  1  0.045280  0.045280  0.606200  1.0  -0.8132
  O  O216  1  0.186600  0.186600  0.547500  1.0  -0.6556
  F  F217  1  0.084480  0.616620  0.128800  1.0  -0.4894
  F  F218  1  0.966270  0.048410  0.331600  1.0  -0.5179
  F  F219  1  0.452910  0.010270  0.042200  1.0  -0.6325
  F  F220  1  0.915520  0.383380  0.628800  1.0  -0.4886
  F  F221  1  0.033730  0.951590  0.831600  1.0  -0.5182
  F  F222  1  0.547090  0.989730  0.542200  1.0  -0.6331
  F  F223  1  0.383380  0.915520  0.628800  1.0  -0.489
  F  F224  1  0.951590  0.033730  0.831600  1.0  -0.5172
  F  F225  1  0.989730  0.547090  0.542200  1.0  -0.6333
  F  F226  1  0.616620  0.084480  0.128800  1.0  -0.4882
  F  F227  1  0.048410  0.966270  0.331600  1.0  -0.517
  F  F228  1  0.010270  0.452910  0.042200  1.0  -0.6329
  F  F229  1  0.146860  0.146860  0.308500  1.0  -0.499
  F  F230  1  0.853140  0.853140  0.808500  1.0  -0.4985
