# generated using pymatgen
data_Rb2Ga9P9H37C12N4O36F7
_symmetry_space_group_name_H-M   'P 1'
_cell_length_a   10.21200000
_cell_length_b   17.22900000
_cell_length_c   18.23820000
_cell_angle_alpha   118.18600000
_cell_angle_beta   90.00000000
_cell_angle_gamma   90.00000000
_symmetry_Int_Tables_number   1
_chemical_formula_structural   Rb2Ga9P9H37C12N4O36F7
_chemical_formula_sum   'Rb4 Ga18 P18 H74 C24 N8 O72 F14'
_cell_volume   2828.36338007
_cell_formula_units_Z   2
loop_
 _symmetry_equiv_pos_site_id
 _symmetry_equiv_pos_as_xyz
  1  'x, y, z'
loop_
 _atom_site_type_symbol
 _atom_site_label
 _atom_site_symmetry_multiplicity
 _atom_site_fract_x
 _atom_site_fract_y
 _atom_site_fract_z
 _atom_site_occupancy
 _atom_site_charge
  Rb  Rb1  1  0.039510  0.092410  0.330320  1.0  0.929
  Rb  Rb2  1  0.539510  0.907590  0.669680  1.0  0.9294
  Rb  Rb3  1  0.539510  0.237910  0.330320  1.0  0.9288
  Rb  Rb4  1  0.039510  0.762090  0.669680  1.0  0.9292
  Ga  Ga5  1  0.211060  0.992980  0.838800  1.0  1.6461
  Ga  Ga6  1  0.200830  0.845080  0.513740  1.0  1.6707
  Ga  Ga7  1  0.892700  0.008700  0.663120  1.0  1.6199
  Ga  Ga8  1  0.867700  0.962140  0.450460  1.0  1.4908
  Ga  Ga9  1  0.787340  0.050930  0.000000  1.0  1.6255
  Ga  Ga10  1  0.711060  0.007020  0.161200  1.0  1.646
  Ga  Ga11  1  0.700830  0.154920  0.486260  1.0  1.6706
  Ga  Ga12  1  0.392700  0.991300  0.336880  1.0  1.6225
  Ga  Ga13  1  0.367700  0.037860  0.549540  1.0  1.4915
  Ga  Ga14  1  0.287340  0.949070  0.000000  1.0  1.625
  Ga  Ga15  1  0.711060  0.845820  0.838800  1.0  1.6457
  Ga  Ga16  1  0.700830  0.668660  0.513740  1.0  1.6719
  Ga  Ga17  1  0.392700  0.654420  0.663120  1.0  1.6251
  Ga  Ga18  1  0.367700  0.488320  0.450460  1.0  1.4916
  Ga  Ga19  1  0.211060  0.154180  0.161200  1.0  1.6459
  Ga  Ga20  1  0.200830  0.331340  0.486260  1.0  1.6693
  Ga  Ga21  1  0.892700  0.345580  0.336880  1.0  1.6258
  Ga  Ga22  1  0.867700  0.511680  0.549540  1.0  1.4902
  P  P23  1  0.895400  0.817560  0.509880  1.0  1.7849
  P  P24  1  0.683790  0.973760  0.316680  1.0  1.7496
  P  P25  1  0.904320  0.976810  0.817980  1.0  1.8583
  P  P26  1  0.665330  0.067280  0.593840  1.0  1.7897
  P  P27  1  0.337450  0.127420  0.000000  1.0  1.8235
  P  P28  1  0.395400  0.182440  0.490120  1.0  1.7848
  P  P29  1  0.183790  0.026240  0.683320  1.0  1.7502
  P  P30  1  0.404320  0.023190  0.182020  1.0  1.8581
  P  P31  1  0.165330  0.932720  0.406160  1.0  1.7904
  P  P32  1  0.837450  0.872580  0.000000  1.0  1.8234
  P  P33  1  0.395400  0.692320  0.509880  1.0  1.7874
  P  P34  1  0.183790  0.342920  0.316680  1.0  1.7515
  P  P35  1  0.404320  0.841170  0.817980  1.0  1.8587
  P  P36  1  0.165330  0.526560  0.593840  1.0  1.79
  P  P37  1  0.895400  0.307680  0.490120  1.0  1.7845
  P  P38  1  0.683790  0.657080  0.683320  1.0  1.7512
  P  P39  1  0.904320  0.158830  0.182020  1.0  1.8581
  P  P40  1  0.665330  0.473440  0.406160  1.0  1.7886
  H  H41  1  0.535530  0.158880  0.999220  1.0  0.419
  H  H42  1  0.035530  0.841120  0.000780  1.0  0.4187
  H  H43  1  0.930200  0.265700  0.657600  1.0  0.0873
  H  H44  1  0.994900  0.222200  0.707200  1.0  0.093
  H  H45  1  0.166000  0.313900  0.745800  1.0  0.0961
  H  H46  1  0.139300  0.342000  0.677400  1.0  0.099
  H  H47  1  0.017800  0.403500  0.830000  1.0  0.1047
  H  H48  1  0.948100  0.414100  0.760000  1.0  0.0717
  H  H49  1  0.149800  0.520800  0.860400  1.0  0.0913
  H  H50  1  0.103400  0.525500  0.778800  1.0  0.1159
  H  H51  1  0.892700  0.483200  0.836800  1.0  0.0817
  H  H52  1  0.955400  0.558600  0.916600  1.0  0.0921
  H  H53  1  0.841600  0.648600  0.896200  1.0  0.0885
  H  H54  1  0.795300  0.574300  0.809400  1.0  0.0892
  H  H55  1  0.052660  0.117300  0.585680  1.0  0.1473
  H  H56  1  0.036340  0.187100  0.543100  1.0  0.1024
  H  H57  1  0.175300  0.190500  0.596760  1.0  0.1108
  H  H58  1  0.986260  0.592900  0.744360  1.0  0.1179
  H  H59  1  0.890340  0.685830  0.790870  1.0  0.1749
  H  H60  1  0.027980  0.677790  0.840170  1.0  0.1078
  H  H61  1  0.430200  0.734300  0.342400  1.0  0.0876
  H  H62  1  0.494900  0.777800  0.292800  1.0  0.0914
  H  H63  1  0.666000  0.686100  0.254200  1.0  0.0967
  H  H64  1  0.639300  0.658000  0.322600  1.0  0.0983
  H  H65  1  0.517800  0.596500  0.170000  1.0  0.1063
  H  H66  1  0.448100  0.585900  0.240000  1.0  0.0732
  H  H67  1  0.649800  0.479200  0.139600  1.0  0.0912
  H  H68  1  0.603400  0.474500  0.221200  1.0  0.1164
  H  H69  1  0.392700  0.516800  0.163200  1.0  0.0827
  H  H70  1  0.455400  0.441400  0.083400  1.0  0.089
  H  H71  1  0.341600  0.351400  0.103800  1.0  0.0889
  H  H72  1  0.295300  0.425700  0.190600  1.0  0.0887
  H  H73  1  0.552660  0.882700  0.414320  1.0  0.1459
  H  H74  1  0.536340  0.812900  0.456900  1.0  0.1038
  H  H75  1  0.675300  0.809500  0.403240  1.0  0.1103
  H  H76  1  0.486260  0.407100  0.255640  1.0  0.1164
  H  H77  1  0.390340  0.314170  0.209130  1.0  0.1759
  H  H78  1  0.527980  0.322210  0.159830  1.0  0.1072
  H  H79  1  0.430200  0.391900  0.657600  1.0  0.0877
  H  H80  1  0.494900  0.485000  0.707200  1.0  0.0917
  H  H81  1  0.666000  0.431900  0.745800  1.0  0.0952
  H  H82  1  0.639300  0.335400  0.677400  1.0  0.0985
  H  H83  1  0.517800  0.426500  0.830000  1.0  0.1064
  H  H84  1  0.448100  0.345900  0.760000  1.0  0.0752
  H  H85  1  0.649800  0.339600  0.860400  1.0  0.0895
  H  H86  1  0.603400  0.253300  0.778800  1.0  0.1177
  H  H87  1  0.392700  0.353600  0.836800  1.0  0.0823
  H  H88  1  0.455400  0.358000  0.916600  1.0  0.0941
  H  H89  1  0.341600  0.247600  0.896200  1.0  0.0845
  H  H90  1  0.295300  0.235100  0.809400  1.0  0.0897
  H  H91  1  0.552660  0.468380  0.585680  1.0  0.1448
  H  H92  1  0.536340  0.356000  0.543100  1.0  0.1028
  H  H93  1  0.675300  0.406260  0.596760  1.0  0.1113
  H  H94  1  0.486260  0.151460  0.744360  1.0  0.1166
  H  H95  1  0.390340  0.105040  0.790870  1.0  0.1758
  H  H96  1  0.527980  0.162380  0.840170  1.0  0.1035
  H  H97  1  0.930200  0.608100  0.342400  1.0  0.0882
  H  H98  1  0.994900  0.515000  0.292800  1.0  0.089
  H  H99  1  0.166000  0.568100  0.254200  1.0  0.096
  H  H100  1  0.139300  0.664600  0.322600  1.0  0.0973
  H  H101  1  0.017800  0.573500  0.170000  1.0  0.1081
  H  H102  1  0.948100  0.654100  0.240000  1.0  0.0738
  H  H103  1  0.149800  0.660400  0.139600  1.0  0.0894
  H  H104  1  0.103400  0.746700  0.221200  1.0  0.1188
  H  H105  1  0.892700  0.646400  0.163200  1.0  0.0811
  H  H106  1  0.955400  0.642000  0.083400  1.0  0.0939
  H  H107  1  0.841600  0.752400  0.103800  1.0  0.0843
  H  H108  1  0.795300  0.764900  0.190600  1.0  0.087
  H  H109  1  0.052660  0.531620  0.414320  1.0  0.1457
  H  H110  1  0.036340  0.644000  0.456900  1.0  0.105
  H  H111  1  0.175300  0.593740  0.403240  1.0  0.1108
  H  H112  1  0.986260  0.848540  0.255640  1.0  0.1149
  H  H113  1  0.890340  0.894960  0.209130  1.0  0.1767
  H  H114  1  0.027980  0.837620  0.159830  1.0  0.1047
  C  C115  1  0.013100  0.248070  0.671170  1.0  0.0204
  C  C116  1  0.097200  0.329060  0.718160  1.0  -0.1253
  C  C117  1  0.033700  0.413400  0.782600  1.0  -0.0894
  C  C118  1  0.080600  0.506700  0.819600  1.0  -0.1107
  C  C119  1  0.946700  0.535600  0.857000  1.0  -0.1252
  C  C120  1  0.871800  0.602400  0.843000  1.0  -0.0045
  C  C121  1  0.513100  0.751930  0.328830  1.0  0.0212
  C  C122  1  0.597200  0.670940  0.281840  1.0  -0.1261
  C  C123  1  0.533700  0.586600  0.217400  1.0  -0.0879
  C  C124  1  0.580600  0.493300  0.180400  1.0  -0.1117
  C  C125  1  0.446700  0.464400  0.143000  1.0  -0.1251
  C  C126  1  0.371800  0.397600  0.157000  1.0  -0.0051
  C  C127  1  0.513100  0.423100  0.671170  1.0  0.0195
  C  C128  1  0.597200  0.389100  0.718160  1.0  -0.1259
  C  C129  1  0.533700  0.369200  0.782600  1.0  -0.0877
  C  C130  1  0.580600  0.312900  0.819600  1.0  -0.1128
  C  C131  1  0.446700  0.321400  0.857000  1.0  -0.1275
  C  C132  1  0.371800  0.240600  0.843000  1.0  -0.0042
  C  C133  1  0.013100  0.576900  0.328830  1.0  0.0201
  C  C134  1  0.097200  0.610900  0.281840  1.0  -0.1248
  C  C135  1  0.033700  0.630800  0.217400  1.0  -0.0879
  C  C136  1  0.080600  0.687100  0.180400  1.0  -0.1116
  C  C137  1  0.946700  0.678600  0.143000  1.0  -0.1249
  C  C138  1  0.871800  0.759400  0.157000  1.0  -0.0038
  N  N139  1  0.073600  0.180430  0.593500  1.0  -0.3532
  N  N140  1  0.950000  0.642300  0.801200  1.0  -0.3315
  N  N141  1  0.573600  0.819570  0.406500  1.0  -0.3551
  N  N142  1  0.450000  0.357700  0.198800  1.0  -0.3299
  N  N143  1  0.573600  0.413070  0.593500  1.0  -0.3528
  N  N144  1  0.450000  0.158900  0.801200  1.0  -0.3286
  N  N145  1  0.073600  0.586930  0.406500  1.0  -0.3538
  N  N146  1  0.950000  0.841100  0.198800  1.0  -0.3302
  O  O147  1  0.707200  0.987020  0.515120  1.0  -0.8283
  O  O148  1  0.873600  0.848340  0.444280  1.0  -0.824
  O  O149  1  0.300900  0.746570  0.489180  1.0  -0.8935
  O  O150  1  0.024500  0.944150  0.384800  1.0  -0.8472
  O  O151  1  0.764200  0.923690  0.351800  1.0  -0.845
  O  O152  1  0.034700  0.784420  0.506760  1.0  -0.8772
  O  O153  1  0.180000  0.848270  0.415140  1.0  -0.8896
  O  O154  1  0.663200  0.072070  0.379000  1.0  -0.9195
  O  O155  1  0.048300  0.957320  0.789980  1.0  -0.9506
  O  O156  1  0.752600  0.078890  0.668300  1.0  -0.8755
  O  O157  1  0.835200  0.011320  0.766000  1.0  -0.8159
  O  O158  1  0.895200  0.044310  0.909940  1.0  -0.7812
  O  O159  1  0.256900  0.034110  0.759480  1.0  -0.8236
  O  O160  1  0.346200  0.912450  0.798840  1.0  -0.9439
  O  O161  1  0.047100  0.069340  0.708340  1.0  -0.8518
  O  O162  1  0.861000  0.888370  0.598940  1.0  -0.877
  O  O163  1  0.893800  0.954720  0.000000  1.0  -0.7942
  O  O164  1  0.253200  0.105210  0.922800  1.0  -0.8187
  O  O165  1  0.452500  0.186600  0.000000  1.0  -0.5363
  O  O166  1  0.207200  0.012980  0.484880  1.0  -0.8299
  O  O167  1  0.373600  0.151660  0.555720  1.0  -0.8233
  O  O168  1  0.800900  0.253430  0.510820  1.0  -0.8933
  O  O169  1  0.524500  0.055850  0.615200  1.0  -0.8476
  O  O170  1  0.264200  0.076310  0.648200  1.0  -0.845
  O  O171  1  0.534700  0.215580  0.493240  1.0  -0.8765
  O  O172  1  0.680000  0.151730  0.584860  1.0  -0.8887
  O  O173  1  0.163200  0.927930  0.621000  1.0  -0.919
  O  O174  1  0.548300  0.042680  0.210020  1.0  -0.9507
  O  O175  1  0.252600  0.921110  0.331700  1.0  -0.8766
  O  O176  1  0.335200  0.988680  0.234000  1.0  -0.8162
  O  O177  1  0.395200  0.955690  0.090060  1.0  -0.7821
  O  O178  1  0.756900  0.965890  0.240520  1.0  -0.825
  O  O179  1  0.846200  0.087550  0.201160  1.0  -0.9452
  O  O180  1  0.547100  0.930660  0.291660  1.0  -0.8507
  O  O181  1  0.361000  0.111630  0.401060  1.0  -0.8747
  O  O182  1  0.393800  0.045280  0.000000  1.0  -0.7942
  O  O183  1  0.753200  0.894790  0.077200  1.0  -0.8191
  O  O184  1  0.952500  0.813400  0.000000  1.0  -0.5348
  O  O185  1  0.207200  0.528100  0.515120  1.0  -0.8308
  O  O186  1  0.373600  0.595940  0.444280  1.0  -0.8238
  O  O187  1  0.800900  0.742610  0.489180  1.0  -0.892
  O  O188  1  0.524500  0.440650  0.384800  1.0  -0.8486
  O  O189  1  0.264200  0.428110  0.351800  1.0  -0.845
  O  O190  1  0.534700  0.722340  0.506760  1.0  -0.8769
  O  O191  1  0.680000  0.566870  0.415140  1.0  -0.8914
  O  O192  1  0.163200  0.306930  0.379000  1.0  -0.9234
  O  O193  1  0.548300  0.832660  0.789980  1.0  -0.9519
  O  O194  1  0.252600  0.589410  0.668300  1.0  -0.8769
  O  O195  1  0.335200  0.754680  0.766000  1.0  -0.8156
  O  O196  1  0.395200  0.865630  0.909940  1.0  -0.7881
  O  O197  1  0.756900  0.725370  0.759480  1.0  -0.8262
  O  O198  1  0.846200  0.886390  0.798840  1.0  -0.9436
  O  O199  1  0.547100  0.639000  0.708340  1.0  -0.853
  O  O200  1  0.361000  0.710570  0.598940  1.0  -0.8775
  O  O201  1  0.753200  0.817590  0.922800  1.0  -0.8188
  O  O202  1  0.707200  0.471900  0.484880  1.0  -0.8292
  O  O203  1  0.873600  0.404060  0.555720  1.0  -0.8229
  O  O204  1  0.300900  0.257390  0.510820  1.0  -0.8929
  O  O205  1  0.024500  0.559350  0.615200  1.0  -0.8478
  O  O206  1  0.764200  0.571890  0.648200  1.0  -0.8447
  O  O207  1  0.034700  0.277660  0.493240  1.0  -0.8758
  O  O208  1  0.180000  0.433130  0.584860  1.0  -0.89
  O  O209  1  0.663200  0.693070  0.621000  1.0  -0.9275
  O  O210  1  0.048300  0.167340  0.210020  1.0  -0.9506
  O  O211  1  0.752600  0.410590  0.331700  1.0  -0.8764
  O  O212  1  0.835200  0.245320  0.234000  1.0  -0.8144
  O  O213  1  0.895200  0.134370  0.090060  1.0  -0.7881
  O  O214  1  0.256900  0.274630  0.240520  1.0  -0.8252
  O  O215  1  0.346200  0.113610  0.201160  1.0  -0.9434
  O  O216  1  0.047100  0.361000  0.291660  1.0  -0.8519
  O  O217  1  0.861000  0.289430  0.401060  1.0  -0.8751
  O  O218  1  0.253200  0.182410  0.077200  1.0  -0.8188
  F  F219  1  0.371200  0.915520  0.532140  1.0  -0.5441
  F  F220  1  0.168400  0.951590  0.917860  1.0  -0.5172
  F  F221  1  0.957800  0.010270  0.557360  1.0  -0.6028
  F  F222  1  0.691500  0.146860  0.000000  1.0  -0.4477
  F  F223  1  0.871200  0.084480  0.467860  1.0  -0.5442
  F  F224  1  0.668400  0.048410  0.082140  1.0  -0.5172
  F  F225  1  0.457800  0.989730  0.442640  1.0  -0.6031
  F  F226  1  0.191500  0.853140  0.000000  1.0  -0.4476
  F  F227  1  0.871200  0.616620  0.532140  1.0  -0.5451
  F  F228  1  0.668400  0.966270  0.917860  1.0  -0.5238
  F  F229  1  0.457800  0.547090  0.557360  1.0  -0.6032
  F  F230  1  0.371200  0.383380  0.467860  1.0  -0.5435
  F  F231  1  0.168400  0.033730  0.082140  1.0  -0.5234
  F  F232  1  0.957800  0.452910  0.442640  1.0  -0.602
