# generated using pymatgen
data_Zn3H32C52(NO6)2
_symmetry_space_group_name_H-M   'P 1'
_cell_length_a   14.53200000
_cell_length_b   18.18400000
_cell_length_c   25.03700000
_cell_angle_alpha   90.00000000
_cell_angle_beta   90.00000000
_cell_angle_gamma   90.00000000
_symmetry_Int_Tables_number   1
_chemical_formula_structural   Zn3H32C52(NO6)2
_chemical_formula_sum   'Zn12 H128 C208 N8 O48'
_cell_volume   6616.02444586
_cell_formula_units_Z   4
loop_
 _symmetry_equiv_pos_site_id
 _symmetry_equiv_pos_as_xyz
  1  'x, y, z'
loop_
 _atom_site_type_symbol
 _atom_site_label
 _atom_site_symmetry_multiplicity
 _atom_site_fract_x
 _atom_site_fract_y
 _atom_site_fract_z
 _atom_site_occupancy
 _atom_site_charge
  Zn  Zn1  1  0.535360  0.943150  0.648080  1.0  0.9689
  Zn  Zn2  1  0.464640  0.556850  0.648080  1.0  0.9686
  Zn  Zn3  1  0.035360  0.556850  0.148080  1.0  0.9689
  Zn  Zn4  1  0.964640  0.943150  0.148080  1.0  0.9681
  Zn  Zn5  1  0.500000  0.750000  0.648370  1.0  1.2115
  Zn  Zn6  1  0.000000  0.750000  0.148370  1.0  1.2115
  Zn  Zn7  1  0.964640  0.443150  0.851920  1.0  0.9684
  Zn  Zn8  1  0.035360  0.056850  0.851920  1.0  0.9687
  Zn  Zn9  1  0.464640  0.056850  0.351920  1.0  0.9684
  Zn  Zn10  1  0.535360  0.443150  0.351920  1.0  0.9682
  Zn  Zn11  1  0.000000  0.250000  0.851630  1.0  1.2116
  Zn  Zn12  1  0.500000  0.250000  0.351630  1.0  1.2116
  H  H13  1  0.478800  0.066000  0.574600  1.0  0.084
  H  H14  1  0.462800  0.191500  0.573500  1.0  0.1161
  H  H15  1  0.554000  0.198400  0.723600  1.0  0.123
  H  H16  1  0.569500  0.072200  0.721100  1.0  0.0872
  H  H17  1  0.630900  0.521500  0.508700  1.0  0.1092
  H  H18  1  0.715400  0.524600  0.430600  1.0  0.114
  H  H19  1  0.731000  0.744200  0.439700  1.0  0.1086
  H  H20  1  0.646600  0.742300  0.518100  1.0  0.1079
  H  H21  1  0.821800  0.531500  0.375900  1.0  0.0976
  H  H22  1  0.765400  0.737900  0.356400  1.0  0.0967
  H  H23  1  0.839400  0.917400  0.671600  1.0  0.0995
  H  H24  1  0.984200  0.870100  0.674900  1.0  0.1028
  H  H25  1  0.886500  0.669700  0.651100  1.0  0.1092
  H  H26  1  0.739400  0.717600  0.643400  1.0  0.0993
  H  H27  1  0.900900  0.531100  0.297400  1.0  0.0851
  H  H28  1  0.859500  0.738800  0.282700  1.0  0.0859
  H  H29  1  0.521200  0.434000  0.574600  1.0  0.0844
  H  H30  1  0.537200  0.308500  0.573500  1.0  0.1166
  H  H31  1  0.446000  0.301600  0.723600  1.0  0.1234
  H  H32  1  0.430500  0.427800  0.721100  1.0  0.0871
  H  H33  1  0.369100  0.978500  0.508700  1.0  0.1095
  H  H34  1  0.284600  0.975400  0.430600  1.0  0.1143
  H  H35  1  0.269000  0.755800  0.439700  1.0  0.1078
  H  H36  1  0.353400  0.757700  0.518100  1.0  0.1076
  H  H37  1  0.178200  0.968500  0.375900  1.0  0.099
  H  H38  1  0.234600  0.762100  0.356400  1.0  0.0962
  H  H39  1  0.160600  0.582600  0.671600  1.0  0.0993
  H  H40  1  0.015800  0.629900  0.674900  1.0  0.1026
  H  H41  1  0.113500  0.830300  0.651100  1.0  0.1092
  H  H42  1  0.260600  0.782400  0.643400  1.0  0.0994
  H  H43  1  0.099100  0.968900  0.297400  1.0  0.0854
  H  H44  1  0.140500  0.761200  0.282700  1.0  0.085
  H  H45  1  0.978800  0.434000  0.074600  1.0  0.0843
  H  H46  1  0.962800  0.308500  0.073500  1.0  0.1165
  H  H47  1  0.054000  0.301600  0.223600  1.0  0.1233
  H  H48  1  0.069500  0.427800  0.221100  1.0  0.0872
  H  H49  1  0.130900  0.978500  0.008700  1.0  0.1094
  H  H50  1  0.215400  0.975400  0.930600  1.0  0.1142
  H  H51  1  0.231000  0.755800  0.939700  1.0  0.1085
  H  H52  1  0.146600  0.757700  0.018100  1.0  0.1079
  H  H53  1  0.321800  0.968500  0.875900  1.0  0.0982
  H  H54  1  0.265400  0.762100  0.856400  1.0  0.0965
  H  H55  1  0.339400  0.582600  0.171600  1.0  0.0992
  H  H56  1  0.484200  0.629900  0.174900  1.0  0.1027
  H  H57  1  0.386500  0.830300  0.151100  1.0  0.1091
  H  H58  1  0.239400  0.782400  0.143400  1.0  0.0999
  H  H59  1  0.400900  0.968900  0.797400  1.0  0.0856
  H  H60  1  0.359500  0.761200  0.782700  1.0  0.0851
  H  H61  1  0.021200  0.066000  0.074600  1.0  0.0843
  H  H62  1  0.037200  0.191500  0.073500  1.0  0.1163
  H  H63  1  0.946000  0.198400  0.223600  1.0  0.1231
  H  H64  1  0.930500  0.072200  0.221100  1.0  0.0873
  H  H65  1  0.869100  0.521500  0.008700  1.0  0.1095
  H  H66  1  0.784600  0.524600  0.930600  1.0  0.1142
  H  H67  1  0.769000  0.744200  0.939700  1.0  0.1087
  H  H68  1  0.853400  0.742300  0.018100  1.0  0.1077
  H  H69  1  0.678200  0.531500  0.875900  1.0  0.0988
  H  H70  1  0.734600  0.737900  0.856400  1.0  0.0968
  H  H71  1  0.660600  0.917400  0.171600  1.0  0.0996
  H  H72  1  0.515800  0.870100  0.174900  1.0  0.1033
  H  H73  1  0.613500  0.669700  0.151100  1.0  0.1091
  H  H74  1  0.760600  0.717600  0.143400  1.0  0.0993
  H  H75  1  0.599100  0.531100  0.797400  1.0  0.0849
  H  H76  1  0.640500  0.738800  0.782700  1.0  0.0859
  H  H77  1  0.021200  0.566000  0.925400  1.0  0.0848
  H  H78  1  0.037200  0.691500  0.926500  1.0  0.1162
  H  H79  1  0.946000  0.698400  0.776400  1.0  0.1228
  H  H80  1  0.930500  0.572200  0.778900  1.0  0.087
  H  H81  1  0.869100  0.021500  0.991300  1.0  0.1092
  H  H82  1  0.784600  0.024600  0.069400  1.0  0.1139
  H  H83  1  0.769000  0.244200  0.060300  1.0  0.1086
  H  H84  1  0.853400  0.242300  0.981900  1.0  0.1077
  H  H85  1  0.678200  0.031500  0.124100  1.0  0.0976
  H  H86  1  0.734600  0.237900  0.143600  1.0  0.0966
  H  H87  1  0.660600  0.417400  0.828400  1.0  0.0998
  H  H88  1  0.515800  0.370100  0.825100  1.0  0.1035
  H  H89  1  0.613500  0.169700  0.848900  1.0  0.1089
  H  H90  1  0.760600  0.217600  0.856600  1.0  0.0998
  H  H91  1  0.599100  0.031100  0.202600  1.0  0.0849
  H  H92  1  0.640500  0.238800  0.217300  1.0  0.0854
  H  H93  1  0.978800  0.934000  0.925400  1.0  0.0845
  H  H94  1  0.962800  0.808500  0.926500  1.0  0.1161
  H  H95  1  0.054000  0.801600  0.776400  1.0  0.1231
  H  H96  1  0.069500  0.927800  0.778900  1.0  0.0871
  H  H97  1  0.130900  0.478500  0.991300  1.0  0.1096
  H  H98  1  0.215400  0.475400  0.069400  1.0  0.1145
  H  H99  1  0.231000  0.255800  0.060300  1.0  0.1083
  H  H100  1  0.146600  0.257700  0.981900  1.0  0.1077
  H  H101  1  0.321800  0.468500  0.124100  1.0  0.098
  H  H102  1  0.265400  0.262100  0.143600  1.0  0.0965
  H  H103  1  0.339400  0.082600  0.828400  1.0  0.0989
  H  H104  1  0.484200  0.129900  0.825100  1.0  0.1031
  H  H105  1  0.386500  0.330300  0.848900  1.0  0.1089
  H  H106  1  0.239400  0.282400  0.856600  1.0  0.1002
  H  H107  1  0.400900  0.468900  0.202600  1.0  0.0851
  H  H108  1  0.359500  0.261200  0.217300  1.0  0.0847
  H  H109  1  0.521200  0.934000  0.425400  1.0  0.0846
  H  H110  1  0.537200  0.808500  0.426500  1.0  0.116
  H  H111  1  0.446000  0.801600  0.276400  1.0  0.123
  H  H112  1  0.430500  0.927800  0.278900  1.0  0.0869
  H  H113  1  0.369100  0.478500  0.491300  1.0  0.1095
  H  H114  1  0.284600  0.475400  0.569400  1.0  0.1142
  H  H115  1  0.269000  0.255800  0.560300  1.0  0.1078
  H  H116  1  0.353400  0.257700  0.481900  1.0  0.1073
  H  H117  1  0.178200  0.468500  0.624100  1.0  0.0983
  H  H118  1  0.234600  0.262100  0.643600  1.0  0.0962
  H  H119  1  0.160600  0.082600  0.328400  1.0  0.0993
  H  H120  1  0.015800  0.129900  0.325100  1.0  0.1028
  H  H121  1  0.113500  0.330300  0.348900  1.0  0.1089
  H  H122  1  0.260600  0.282400  0.356600  1.0  0.0995
  H  H123  1  0.099100  0.468900  0.702600  1.0  0.0848
  H  H124  1  0.140500  0.261200  0.717300  1.0  0.0846
  H  H125  1  0.478800  0.566000  0.425400  1.0  0.0849
  H  H126  1  0.462800  0.691500  0.426500  1.0  0.1161
  H  H127  1  0.554000  0.698400  0.276400  1.0  0.1228
  H  H128  1  0.569500  0.572200  0.278900  1.0  0.0872
  H  H129  1  0.630900  0.021500  0.491300  1.0  0.1093
  H  H130  1  0.715400  0.024600  0.569400  1.0  0.1141
  H  H131  1  0.731000  0.244200  0.560300  1.0  0.1086
  H  H132  1  0.646600  0.242300  0.481900  1.0  0.108
  H  H133  1  0.821800  0.031500  0.624100  1.0  0.0969
  H  H134  1  0.765400  0.237900  0.643600  1.0  0.0965
  H  H135  1  0.839400  0.417400  0.328400  1.0  0.0996
  H  H136  1  0.984200  0.370100  0.325100  1.0  0.1031
  H  H137  1  0.886500  0.169700  0.348900  1.0  0.1091
  H  H138  1  0.739400  0.217600  0.356600  1.0  0.0997
  H  H139  1  0.900900  0.031100  0.702600  1.0  0.085
  H  H140  1  0.859500  0.238800  0.717300  1.0  0.0856
  C  C141  1  0.494100  0.092900  0.604900  1.0  0.175
  C  C142  1  0.484000  0.168300  0.604300  1.0  -0.1846
  C  C143  1  0.504900  0.209500  0.648600  1.0  0.1049
  C  C144  1  0.538000  0.172600  0.692900  1.0  -0.1945
  C  C145  1  0.547200  0.096600  0.691100  1.0  0.177
  C  C146  1  0.626800  0.632400  0.520100  1.0  -0.1655
  C  C147  1  0.650000  0.566300  0.494600  1.0  -0.0394
  C  C148  1  0.701700  0.568300  0.448200  1.0  -0.1319
  C  C149  1  0.733500  0.634800  0.427200  1.0  0.0461
  C  C150  1  0.711000  0.699500  0.453600  1.0  -0.142
  C  C151  1  0.659300  0.698600  0.500300  1.0  -0.0383
  C  C152  1  0.788000  0.635500  0.377100  1.0  0.0726
  C  C153  1  0.827200  0.575400  0.357100  1.0  -0.1334
  C  C154  1  0.796100  0.695100  0.346700  1.0  -0.1513
  C  C155  1  0.678200  0.853400  0.651200  1.0  0.7378
  C  C156  1  0.773800  0.822800  0.655700  1.0  -0.1553
  C  C157  1  0.848300  0.867300  0.666100  1.0  -0.0458
  C  C158  1  0.935000  0.838700  0.668300  1.0  -0.1416
  C  C159  1  0.952000  0.765100  0.661100  1.0  0.0389
  C  C160  1  0.877700  0.720300  0.653700  1.0  -0.1442
  C  C161  1  0.788800  0.748900  0.649900  1.0  -0.0373
  C  C162  1  0.936900  0.632400  0.229200  1.0  0.7635
  C  C163  1  0.887600  0.634300  0.280600  1.0  -0.15
  C  C164  1  0.875800  0.575200  0.309400  1.0  -0.0337
  C  C165  1  0.849800  0.694600  0.300400  1.0  -0.0293
  C  C166  1  0.567500  0.631700  0.569000  1.0  0.7279
  C  C167  1  0.505900  0.407100  0.604900  1.0  0.1763
  C  C168  1  0.516000  0.331700  0.604300  1.0  -0.1845
  C  C169  1  0.495100  0.290500  0.648600  1.0  0.1058
  C  C170  1  0.462000  0.327400  0.692900  1.0  -0.1958
  C  C171  1  0.452800  0.403400  0.691100  1.0  0.1765
  C  C172  1  0.373200  0.867600  0.520100  1.0  -0.1653
  C  C173  1  0.350000  0.933700  0.494600  1.0  -0.0408
  C  C174  1  0.298300  0.931700  0.448200  1.0  -0.1322
  C  C175  1  0.266500  0.865200  0.427200  1.0  0.0458
  C  C176  1  0.289000  0.800500  0.453600  1.0  -0.141
  C  C177  1  0.340700  0.801400  0.500300  1.0  -0.0385
  C  C178  1  0.212000  0.864500  0.377100  1.0  0.0723
  C  C179  1  0.172800  0.924600  0.357100  1.0  -0.1348
  C  C180  1  0.203900  0.804900  0.346700  1.0  -0.1524
  C  C181  1  0.321800  0.646600  0.651200  1.0  0.7355
  C  C182  1  0.226200  0.677200  0.655700  1.0  -0.1552
  C  C183  1  0.151700  0.632700  0.666100  1.0  -0.0436
  C  C184  1  0.065000  0.661300  0.668300  1.0  -0.1403
  C  C185  1  0.048000  0.734900  0.661100  1.0  0.0393
  C  C186  1  0.122300  0.779700  0.653700  1.0  -0.1396
  C  C187  1  0.211200  0.751100  0.649900  1.0  -0.037
  C  C188  1  0.063100  0.867600  0.229200  1.0  0.764
  C  C189  1  0.112400  0.865700  0.280600  1.0  -0.1497
  C  C190  1  0.124200  0.924800  0.309400  1.0  -0.0325
  C  C191  1  0.150200  0.805400  0.300400  1.0  -0.0303
  C  C192  1  0.432500  0.868300  0.569000  1.0  0.7268
  C  C193  1  0.994100  0.407100  0.104900  1.0  0.1757
  C  C194  1  0.984000  0.331700  0.104300  1.0  -0.1851
  C  C195  1  0.004900  0.290500  0.148600  1.0  0.1052
  C  C196  1  0.038000  0.327400  0.192900  1.0  -0.1949
  C  C197  1  0.047200  0.403400  0.191100  1.0  0.1769
  C  C198  1  0.126800  0.867600  0.020100  1.0  -0.1656
  C  C199  1  0.150000  0.933700  0.994600  1.0  -0.04
  C  C200  1  0.201700  0.931700  0.948200  1.0  -0.1325
  C  C201  1  0.233500  0.865200  0.927200  1.0  0.0462
  C  C202  1  0.211000  0.800500  0.953600  1.0  -0.1409
  C  C203  1  0.159300  0.801400  0.000300  1.0  -0.0375
  C  C204  1  0.288000  0.864500  0.877100  1.0  0.0729
  C  C205  1  0.327200  0.924600  0.857100  1.0  -0.1333
  C  C206  1  0.296100  0.804900  0.846700  1.0  -0.1512
  C  C207  1  0.178200  0.646600  0.151200  1.0  0.7383
  C  C208  1  0.273800  0.677200  0.155700  1.0  -0.1558
  C  C209  1  0.348300  0.632700  0.166100  1.0  -0.0444
  C  C210  1  0.435000  0.661300  0.168300  1.0  -0.1405
  C  C211  1  0.452000  0.734900  0.161100  1.0  0.0391
  C  C212  1  0.377700  0.779700  0.153700  1.0  -0.1436
  C  C213  1  0.288800  0.751100  0.149900  1.0  -0.0368
  C  C214  1  0.436900  0.867600  0.729200  1.0  0.7633
  C  C215  1  0.387600  0.865700  0.780600  1.0  -0.1499
  C  C216  1  0.375800  0.924800  0.809400  1.0  -0.034
  C  C217  1  0.349800  0.805400  0.800400  1.0  -0.031
  C  C218  1  0.067500  0.868300  0.069000  1.0  0.7277
  C  C219  1  0.005900  0.092900  0.104900  1.0  0.1758
  C  C220  1  0.016000  0.168300  0.104300  1.0  -0.1837
  C  C221  1  0.995100  0.209500  0.148600  1.0  0.1055
  C  C222  1  0.962000  0.172600  0.192900  1.0  -0.1954
  C  C223  1  0.952800  0.096600  0.191100  1.0  0.1764
  C  C224  1  0.873200  0.632400  0.020100  1.0  -0.165
  C  C225  1  0.850000  0.566300  0.994600  1.0  -0.04
  C  C226  1  0.798300  0.568300  0.948200  1.0  -0.1307
  C  C227  1  0.766500  0.634800  0.927200  1.0  0.0458
  C  C228  1  0.789000  0.699500  0.953600  1.0  -0.1427
  C  C229  1  0.840700  0.698600  0.000300  1.0  -0.039
  C  C230  1  0.712000  0.635500  0.877100  1.0  0.0719
  C  C231  1  0.672800  0.575400  0.857100  1.0  -0.134
  C  C232  1  0.703900  0.695100  0.846700  1.0  -0.1524
  C  C233  1  0.821800  0.853400  0.151200  1.0  0.7353
  C  C234  1  0.726200  0.822800  0.155700  1.0  -0.1547
  C  C235  1  0.651700  0.867300  0.166100  1.0  -0.0453
  C  C236  1  0.565000  0.838700  0.168300  1.0  -0.1419
  C  C237  1  0.548000  0.765100  0.161100  1.0  0.0391
  C  C238  1  0.622300  0.720300  0.153700  1.0  -0.1396
  C  C239  1  0.711200  0.748900  0.149900  1.0  -0.0377
  C  C240  1  0.563100  0.632400  0.729200  1.0  0.7641
  C  C241  1  0.612400  0.634300  0.780600  1.0  -0.15
  C  C242  1  0.624200  0.575200  0.809400  1.0  -0.0329
  C  C243  1  0.650200  0.694600  0.800400  1.0  -0.0291
  C  C244  1  0.932500  0.631700  0.069000  1.0  0.7271
  C  C245  1  0.005900  0.592900  0.895100  1.0  0.1767
  C  C246  1  0.016000  0.668300  0.895700  1.0  -0.1857
  C  C247  1  0.995100  0.709500  0.851400  1.0  0.1057
  C  C248  1  0.962000  0.672600  0.807100  1.0  -0.1955
  C  C249  1  0.952800  0.596600  0.808900  1.0  0.1751
  C  C250  1  0.873200  0.132400  0.979900  1.0  -0.1643
  C  C251  1  0.850000  0.066300  0.005400  1.0  -0.0403
  C  C252  1  0.798300  0.068300  0.051800  1.0  -0.1289
  C  C253  1  0.766500  0.134800  0.072800  1.0  0.0462
  C  C254  1  0.789000  0.199500  0.046400  1.0  -0.1417
  C  C255  1  0.840700  0.198600  0.999700  1.0  -0.039
  C  C256  1  0.712000  0.135500  0.122900  1.0  0.0726
  C  C257  1  0.672800  0.075400  0.142900  1.0  -0.1343
  C  C258  1  0.703900  0.195100  0.153300  1.0  -0.1527
  C  C259  1  0.821800  0.353400  0.848800  1.0  0.7362
  C  C260  1  0.726200  0.322800  0.844300  1.0  -0.1546
  C  C261  1  0.651700  0.367300  0.833900  1.0  -0.0433
  C  C262  1  0.565000  0.338700  0.831700  1.0  -0.1418
  C  C263  1  0.548000  0.265100  0.838900  1.0  0.0408
  C  C264  1  0.622300  0.220300  0.846300  1.0  -0.1423
  C  C265  1  0.711200  0.248900  0.850100  1.0  -0.0368
  C  C266  1  0.563100  0.132400  0.270800  1.0  0.7651
  C  C267  1  0.612400  0.134300  0.219400  1.0  -0.1489
  C  C268  1  0.624200  0.075200  0.190600  1.0  -0.0327
  C  C269  1  0.650200  0.194600  0.199600  1.0  -0.0295
  C  C270  1  0.932500  0.131700  0.931000  1.0  0.7273
  C  C271  1  0.994100  0.907100  0.895100  1.0  0.1758
  C  C272  1  0.984000  0.831700  0.895700  1.0  -0.1841
  C  C273  1  0.004900  0.790500  0.851400  1.0  0.105
  C  C274  1  0.038000  0.827400  0.807100  1.0  -0.1956
  C  C275  1  0.047200  0.903400  0.808900  1.0  0.1766
  C  C276  1  0.126800  0.367600  0.979900  1.0  -0.1637
  C  C277  1  0.150000  0.433700  0.005400  1.0  -0.04
  C  C278  1  0.201700  0.431700  0.051800  1.0  -0.1307
  C  C279  1  0.233500  0.365200  0.072800  1.0  0.046
  C  C280  1  0.211000  0.300500  0.046400  1.0  -0.1393
  C  C281  1  0.159300  0.301400  0.999700  1.0  -0.0382
  C  C282  1  0.288000  0.364500  0.122900  1.0  0.0731
  C  C283  1  0.327200  0.424600  0.142900  1.0  -0.1335
  C  C284  1  0.296100  0.304900  0.153300  1.0  -0.1513
  C  C285  1  0.178200  0.146600  0.848800  1.0  0.7392
  C  C286  1  0.273800  0.177200  0.844300  1.0  -0.1553
  C  C287  1  0.348300  0.132700  0.833900  1.0  -0.0433
  C  C288  1  0.435000  0.161300  0.831700  1.0  -0.141
  C  C289  1  0.452000  0.234900  0.838900  1.0  0.0397
  C  C290  1  0.377700  0.279700  0.846300  1.0  -0.1399
  C  C291  1  0.288800  0.251100  0.850100  1.0  -0.037
  C  C292  1  0.436900  0.367600  0.270800  1.0  0.7641
  C  C293  1  0.387600  0.365700  0.219400  1.0  -0.1495
  C  C294  1  0.375800  0.424800  0.190600  1.0  -0.0338
  C  C295  1  0.349800  0.305400  0.199600  1.0  -0.0303
  C  C296  1  0.067500  0.368300  0.931000  1.0  0.7278
  C  C297  1  0.505900  0.907100  0.395100  1.0  0.1769
  C  C298  1  0.516000  0.831700  0.395700  1.0  -0.1859
  C  C299  1  0.495100  0.790500  0.351400  1.0  0.1059
  C  C300  1  0.462000  0.827400  0.307100  1.0  -0.196
  C  C301  1  0.452800  0.903400  0.308900  1.0  0.1765
  C  C302  1  0.373200  0.367600  0.479900  1.0  -0.1643
  C  C303  1  0.350000  0.433700  0.505400  1.0  -0.0405
  C  C304  1  0.298300  0.431700  0.551800  1.0  -0.1305
  C  C305  1  0.266500  0.365200  0.572800  1.0  0.0462
  C  C306  1  0.289000  0.300500  0.546400  1.0  -0.1394
  C  C307  1  0.340700  0.301400  0.499700  1.0  -0.0391
  C  C308  1  0.212000  0.364500  0.622900  1.0  0.0725
  C  C309  1  0.172800  0.424600  0.642900  1.0  -0.1349
  C  C310  1  0.203900  0.304900  0.653300  1.0  -0.1526
  C  C311  1  0.321800  0.146600  0.348800  1.0  0.7364
  C  C312  1  0.226200  0.177200  0.344300  1.0  -0.1551
  C  C313  1  0.151700  0.132700  0.333900  1.0  -0.0424
  C  C314  1  0.065000  0.161300  0.331700  1.0  -0.1407
  C  C315  1  0.048000  0.234900  0.338900  1.0  0.0403
  C  C316  1  0.122300  0.279700  0.346300  1.0  -0.1431
  C  C317  1  0.211200  0.251100  0.350100  1.0  -0.0365
  C  C318  1  0.063100  0.367600  0.770800  1.0  0.7648
  C  C319  1  0.112400  0.365700  0.719400  1.0  -0.1487
  C  C320  1  0.124200  0.424800  0.690600  1.0  -0.0326
  C  C321  1  0.150200  0.305400  0.699600  1.0  -0.0294
  C  C322  1  0.432500  0.368300  0.431000  1.0  0.7271
  C  C323  1  0.494100  0.592900  0.395100  1.0  0.1755
  C  C324  1  0.484000  0.668300  0.395700  1.0  -0.184
  C  C325  1  0.504900  0.709500  0.351400  1.0  0.1049
  C  C326  1  0.538000  0.672600  0.307100  1.0  -0.1951
  C  C327  1  0.547200  0.596600  0.308900  1.0  0.1755
  C  C328  1  0.626800  0.132400  0.479900  1.0  -0.1639
  C  C329  1  0.650000  0.066300  0.505400  1.0  -0.0395
  C  C330  1  0.701700  0.068300  0.551800  1.0  -0.13
  C  C331  1  0.733500  0.134800  0.572800  1.0  0.046
  C  C332  1  0.711000  0.199500  0.546400  1.0  -0.141
  C  C333  1  0.659300  0.198600  0.499700  1.0  -0.0383
  C  C334  1  0.788000  0.135500  0.622900  1.0  0.0731
  C  C335  1  0.827200  0.075400  0.642900  1.0  -0.1336
  C  C336  1  0.796100  0.195100  0.653300  1.0  -0.1516
  C  C337  1  0.678200  0.353400  0.348800  1.0  0.7386
  C  C338  1  0.773800  0.322800  0.344300  1.0  -0.155
  C  C339  1  0.848300  0.367300  0.333900  1.0  -0.0438
  C  C340  1  0.935000  0.338700  0.331700  1.0  -0.1418
  C  C341  1  0.952000  0.265100  0.338900  1.0  0.0401
  C  C342  1  0.877700  0.220300  0.346300  1.0  -0.1391
  C  C343  1  0.788800  0.248900  0.350100  1.0  -0.037
  C  C344  1  0.936900  0.132400  0.770800  1.0  0.7644
  C  C345  1  0.887600  0.134300  0.719400  1.0  -0.1496
  C  C346  1  0.875800  0.075200  0.690600  1.0  -0.0334
  C  C347  1  0.849800  0.194600  0.699600  1.0  -0.0297
  C  C348  1  0.567500  0.131700  0.431000  1.0  0.7281
  N  N349  1  0.525200  0.057200  0.648190  1.0  -0.3418
  N  N350  1  0.474800  0.442800  0.648190  1.0  -0.3408
  N  N351  1  0.025200  0.442800  0.148190  1.0  -0.3414
  N  N352  1  0.974800  0.057200  0.148190  1.0  -0.341
  N  N353  1  0.974800  0.557200  0.851810  1.0  -0.3403
  N  N354  1  0.025200  0.942800  0.851810  1.0  -0.3407
  N  N355  1  0.474800  0.942800  0.351810  1.0  -0.3402
  N  N356  1  0.525200  0.557200  0.351810  1.0  -0.341
  O  O357  1  0.666400  0.920600  0.652900  1.0  -0.6384
  O  O358  1  0.970000  0.574000  0.214370  1.0  -0.6448
  O  O359  1  0.532700  0.572200  0.582610  1.0  -0.6315
  O  O360  1  0.556000  0.688800  0.592200  1.0  -0.6149
  O  O361  1  0.615200  0.814600  0.645300  1.0  -0.6285
  O  O362  1  0.944600  0.687600  0.204200  1.0  -0.6326
  O  O363  1  0.333600  0.579400  0.652900  1.0  -0.6398
  O  O364  1  0.030000  0.926000  0.214370  1.0  -0.6453
  O  O365  1  0.467300  0.927800  0.582610  1.0  -0.6323
  O  O366  1  0.444000  0.811200  0.592200  1.0  -0.6153
  O  O367  1  0.384800  0.685400  0.645300  1.0  -0.6286
  O  O368  1  0.055400  0.812400  0.204200  1.0  -0.6325
  O  O369  1  0.166400  0.579400  0.152900  1.0  -0.6397
  O  O370  1  0.470000  0.926000  0.714370  1.0  -0.6457
  O  O371  1  0.032700  0.927800  0.082610  1.0  -0.6307
  O  O372  1  0.056000  0.811200  0.092200  1.0  -0.6151
  O  O373  1  0.115200  0.685400  0.145300  1.0  -0.6286
  O  O374  1  0.444600  0.812400  0.704200  1.0  -0.6325
  O  O375  1  0.833600  0.920600  0.152900  1.0  -0.6393
  O  O376  1  0.530000  0.574000  0.714370  1.0  -0.6441
  O  O377  1  0.967300  0.572200  0.082610  1.0  -0.6333
  O  O378  1  0.944000  0.688800  0.092200  1.0  -0.6151
  O  O379  1  0.884800  0.814600  0.145300  1.0  -0.6282
  O  O380  1  0.555400  0.687600  0.704200  1.0  -0.6326
  O  O381  1  0.833600  0.420600  0.847100  1.0  -0.6387
  O  O382  1  0.530000  0.074000  0.285630  1.0  -0.6446
  O  O383  1  0.967300  0.072200  0.917390  1.0  -0.6342
  O  O384  1  0.944000  0.188800  0.907800  1.0  -0.6151
  O  O385  1  0.884800  0.314600  0.854700  1.0  -0.6281
  O  O386  1  0.555400  0.187600  0.295800  1.0  -0.6324
  O  O387  1  0.166400  0.079400  0.847100  1.0  -0.6393
  O  O388  1  0.470000  0.426000  0.285630  1.0  -0.6456
  O  O389  1  0.032700  0.427800  0.917390  1.0  -0.6312
  O  O390  1  0.056000  0.311200  0.907800  1.0  -0.615
  O  O391  1  0.115200  0.185400  0.854700  1.0  -0.6285
  O  O392  1  0.444600  0.312400  0.295800  1.0  -0.6323
  O  O393  1  0.333600  0.079400  0.347100  1.0  -0.6395
  O  O394  1  0.030000  0.426000  0.785630  1.0  -0.6447
  O  O395  1  0.467300  0.427800  0.417390  1.0  -0.6333
  O  O396  1  0.444000  0.311200  0.407800  1.0  -0.6152
  O  O397  1  0.384800  0.185400  0.354700  1.0  -0.6284
  O  O398  1  0.055400  0.312400  0.795800  1.0  -0.6322
  O  O399  1  0.666400  0.420600  0.347100  1.0  -0.6379
  O  O400  1  0.970000  0.074000  0.785630  1.0  -0.6443
  O  O401  1  0.532700  0.072200  0.417390  1.0  -0.6319
  O  O402  1  0.556000  0.188800  0.407800  1.0  -0.6146
  O  O403  1  0.615200  0.314600  0.354700  1.0  -0.6285
  O  O404  1  0.944600  0.187600  0.795800  1.0  -0.6324
