# generated using pymatgen
data_Cd2H9(C2O)12
_symmetry_space_group_name_H-M   'P 1'
_cell_length_a   18.63300000
_cell_length_b   20.39900000
_cell_length_c   20.85200000
_cell_angle_alpha   90.00000000
_cell_angle_beta   90.00000000
_cell_angle_gamma   90.00000000
_symmetry_Int_Tables_number   1
_chemical_formula_structural   Cd2H9(C2O)12
_chemical_formula_sum   'Cd16 H72 C192 O96'
_cell_volume   7925.73191108
_cell_formula_units_Z   8
loop_
 _symmetry_equiv_pos_site_id
 _symmetry_equiv_pos_as_xyz
  1  'x, y, z'
loop_
 _atom_site_type_symbol
 _atom_site_label
 _atom_site_symmetry_multiplicity
 _atom_site_fract_x
 _atom_site_fract_y
 _atom_site_fract_z
 _atom_site_occupancy
 _atom_site_charge
  Cd  Cd1  1  0.827750  0.871960  0.386540  1.0  1.1051
  Cd  Cd2  1  0.688510  0.163290  0.364630  1.0  1.0815
  Cd  Cd3  1  0.755380  0.036620  0.461700  1.0  1.0812
  Cd  Cd4  1  0.195790  0.085930  0.118560  1.0  0.9431
  Cd  Cd5  1  0.672250  0.128040  0.886540  1.0  1.1044
  Cd  Cd6  1  0.811490  0.836710  0.864630  1.0  1.0821
  Cd  Cd7  1  0.744620  0.963380  0.961700  1.0  1.082
  Cd  Cd8  1  0.304210  0.914070  0.618560  1.0  0.9435
  Cd  Cd9  1  0.172250  0.371960  0.113460  1.0  1.1049
  Cd  Cd10  1  0.311490  0.663290  0.135370  1.0  1.0808
  Cd  Cd11  1  0.244620  0.536620  0.038300  1.0  1.0844
  Cd  Cd12  1  0.804210  0.585930  0.381440  1.0  0.9444
  Cd  Cd13  1  0.327750  0.628040  0.613460  1.0  1.1042
  Cd  Cd14  1  0.188510  0.336710  0.635370  1.0  1.0826
  Cd  Cd15  1  0.255380  0.463380  0.538300  1.0  1.0819
  Cd  Cd16  1  0.695790  0.414070  0.881440  1.0  0.9427
  H  H17  1  0.097000  0.873900  0.410700  1.0  0.3824
  H  H18  1  0.586000  0.660400  0.167700  1.0  0.3913
  H  H19  1  0.574800  0.828300  0.407600  1.0  0.1334
  H  H20  1  0.472700  0.026400  0.355900  1.0  0.1215
  H  H21  1  0.431600  0.803100  0.284600  1.0  0.1383
  H  H22  1  0.344200  0.647400  0.375700  1.0  0.1407
  H  H23  1  0.436500  0.791800  0.477300  1.0  0.1327
  H  H24  1  0.816400  0.876100  0.142200  1.0  0.1356
  H  H25  1  0.925700  0.729600  0.226800  1.0  0.1373
  H  H26  1  0.906900  0.735200  0.035400  1.0  0.1356
  H  H27  1  0.959100  0.504600  0.099700  1.0  0.1219
  H  H28  1  0.818200  0.647600  0.166500  1.0  0.1238
  H  H29  1  0.663800  0.567800  0.057700  1.0  0.1294
  H  H30  1  0.870300  0.530700  0.019100  1.0  0.1331
  H  H31  1  0.331800  0.881800  0.420600  1.0  0.136
  H  H32  1  0.181600  0.955400  0.301800  1.0  0.129
  H  H33  1  0.389000  0.996400  0.273700  1.0  0.1338
  H  H34  1  0.058900  0.705100  0.146100  1.0  0.1409
  H  H35  1  0.403000  0.126100  0.910700  1.0  0.3809
  H  H36  1  0.914000  0.339600  0.667700  1.0  0.3917
  H  H37  1  0.925200  0.171700  0.907600  1.0  0.1334
  H  H38  1  0.027300  0.973600  0.855900  1.0  0.1211
  H  H39  1  0.068400  0.196900  0.784600  1.0  0.1386
  H  H40  1  0.155800  0.352600  0.875700  1.0  0.1401
  H  H41  1  0.063500  0.208200  0.977300  1.0  0.1336
  H  H42  1  0.683600  0.123900  0.642200  1.0  0.135
  H  H43  1  0.574300  0.270400  0.726800  1.0  0.1378
  H  H44  1  0.593100  0.264800  0.535400  1.0  0.1357
  H  H45  1  0.540900  0.495400  0.599700  1.0  0.121
  H  H46  1  0.681800  0.352400  0.666500  1.0  0.1241
  H  H47  1  0.836200  0.432200  0.557700  1.0  0.1298
  H  H48  1  0.629700  0.469300  0.519100  1.0  0.1327
  H  H49  1  0.168200  0.118200  0.920600  1.0  0.1358
  H  H50  1  0.318400  0.044600  0.801800  1.0  0.1287
  H  H51  1  0.111000  0.003600  0.773700  1.0  0.1337
  H  H52  1  0.441100  0.294900  0.646100  1.0  0.1411
  H  H53  1  0.903000  0.373900  0.089300  1.0  0.3817
  H  H54  1  0.414000  0.160400  0.332300  1.0  0.3919
  H  H55  1  0.425200  0.328300  0.092400  1.0  0.1332
  H  H56  1  0.527300  0.526400  0.144100  1.0  0.1209
  H  H57  1  0.568400  0.303100  0.215400  1.0  0.1386
  H  H58  1  0.655800  0.147400  0.124300  1.0  0.1406
  H  H59  1  0.563500  0.291800  0.022700  1.0  0.1328
  H  H60  1  0.183600  0.376100  0.357800  1.0  0.1349
  H  H61  1  0.074300  0.229600  0.273200  1.0  0.1375
  H  H62  1  0.093100  0.235200  0.464600  1.0  0.1364
  H  H63  1  0.040900  0.004600  0.400300  1.0  0.1218
  H  H64  1  0.181800  0.147600  0.333500  1.0  0.1244
  H  H65  1  0.336200  0.067800  0.442300  1.0  0.129
  H  H66  1  0.129700  0.030700  0.480900  1.0  0.1337
  H  H67  1  0.668200  0.381800  0.079400  1.0  0.1369
  H  H68  1  0.818400  0.455400  0.198200  1.0  0.1277
  H  H69  1  0.611000  0.496400  0.226300  1.0  0.1339
  H  H70  1  0.941100  0.205100  0.353900  1.0  0.1414
  H  H71  1  0.597000  0.626100  0.589300  1.0  0.382
  H  H72  1  0.086000  0.839600  0.832300  1.0  0.3925
  H  H73  1  0.074800  0.671700  0.592400  1.0  0.1325
  H  H74  1  0.972700  0.473600  0.644100  1.0  0.1214
  H  H75  1  0.931600  0.696900  0.715400  1.0  0.1382
  H  H76  1  0.844200  0.852600  0.624300  1.0  0.1408
  H  H77  1  0.936500  0.708200  0.522700  1.0  0.1331
  H  H78  1  0.316400  0.623900  0.857800  1.0  0.1353
  H  H79  1  0.425700  0.770400  0.773200  1.0  0.1376
  H  H80  1  0.406900  0.764800  0.964600  1.0  0.1351
  H  H81  1  0.459100  0.995400  0.900300  1.0  0.1212
  H  H82  1  0.318200  0.852400  0.833500  1.0  0.1243
  H  H83  1  0.163800  0.932200  0.942300  1.0  0.1283
  H  H84  1  0.370300  0.969300  0.980900  1.0  0.133
  H  H85  1  0.831800  0.618200  0.579400  1.0  0.1367
  H  H86  1  0.681600  0.544600  0.698200  1.0  0.1284
  H  H87  1  0.889000  0.503600  0.726300  1.0  0.1339
  H  H88  1  0.558900  0.794900  0.853900  1.0  0.1418
  C  C89  1  0.554200  0.868300  0.396800  1.0  -0.0303
  C  C90  1  0.567000  0.983900  0.381100  1.0  -0.0893
  C  C91  1  0.493300  0.986300  0.366100  1.0  -0.0385
  C  C92  1  0.450200  0.930000  0.366200  1.0  0.0307
  C  C93  1  0.481200  0.870400  0.382100  1.0  -0.0037
  C  C94  1  0.607900  0.046500  0.375500  1.0  0.7171
  C  C95  1  0.441300  0.807000  0.381100  1.0  0.0427
  C  C96  1  0.420900  0.781000  0.322400  1.0  -0.0238
  C  C97  1  0.383600  0.720200  0.320400  1.0  -0.1213
  C  C98  1  0.367700  0.687600  0.376900  1.0  0.05
  C  C99  1  0.423600  0.774100  0.437900  1.0  -0.0247
  C  C100  1  0.097300  0.487700  0.114300  1.0  0.7183
  C  C101  1  0.850100  0.834500  0.258600  1.0  0.7212
  C  C102  1  0.866800  0.806700  0.195700  1.0  -0.1505
  C  C103  1  0.843100  0.837700  0.139300  1.0  0.0422
  C  C104  1  0.907800  0.749700  0.190000  1.0  -0.0563
  C  C105  1  0.922200  0.722200  0.129700  1.0  0.0792
  C  C106  1  0.897500  0.753500  0.075400  1.0  -0.0101
  C  C107  1  0.965700  0.660100  0.125000  1.0  0.0324
  C  C108  1  0.935500  0.599100  0.109000  1.0  -0.0115
  C  C109  1  0.979400  0.545500  0.107600  1.0  -0.0633
  C  C110  1  0.859000  0.811400  0.079000  1.0  -0.13
  C  C111  1  0.834600  0.847300  0.020100  1.0  0.7267
  C  C112  1  0.804700  0.620700  0.132500  1.0  -0.0253
  C  C113  1  0.732400  0.611800  0.119400  1.0  -0.1592
  C  C114  1  0.712100  0.572500  0.067600  1.0  0.0319
  C  C115  1  0.763400  0.540400  0.030700  1.0  -0.1316
  C  C116  1  0.835700  0.550700  0.044600  1.0  -0.0412
  C  C117  1  0.372700  0.937200  0.348400  1.0  0.0381
  C  C118  1  0.319700  0.906300  0.384600  1.0  -0.0543
  C  C119  1  0.247300  0.912800  0.365600  1.0  -0.1508
  C  C120  1  0.229500  0.950600  0.313500  1.0  0.009
  C  C121  1  0.282200  0.981400  0.278500  1.0  -0.1174
  C  C122  1  0.676400  0.914000  0.411800  1.0  0.7338
  C  C123  1  0.353600  0.974800  0.296900  1.0  -0.0464
  C  C124  1  0.039100  0.664800  0.135000  1.0  -0.0814
  C  C125  1  0.083800  0.610700  0.128600  1.0  -0.0341
  C  C126  1  0.054300  0.549700  0.117400  1.0  -0.1024
  C  C127  1  0.857700  0.590400  0.095900  1.0  0.0587
  C  C128  1  0.742700  0.496200  0.976400  1.0  0.728
  C  C129  1  0.190900  0.878800  0.404000  1.0  0.672
  C  C130  1  0.596700  0.923600  0.395900  1.0  -0.0501
  C  C131  1  0.386700  0.714900  0.435400  1.0  -0.1109
  C  C132  1  0.261500  0.023000  0.221400  1.0  0.7525
  C  C133  1  0.362400  0.692600  0.256900  1.0  0.6748
  C  C134  1  0.365000  0.681200  0.495700  1.0  0.7236
  C  C135  1  0.678400  0.647300  0.159600  1.0  0.7116
  C  C136  1  0.163200  0.622800  0.135300  1.0  0.7113
  C  C137  1  0.945800  0.131700  0.896800  1.0  -0.0316
  C  C138  1  0.933000  0.016100  0.881100  1.0  -0.0879
  C  C139  1  0.006700  0.013700  0.866100  1.0  -0.0382
  C  C140  1  0.049800  0.070000  0.866200  1.0  0.0305
  C  C141  1  0.018800  0.129600  0.882100  1.0  -0.0054
  C  C142  1  0.892100  0.953500  0.875500  1.0  0.7172
  C  C143  1  0.058700  0.193000  0.881100  1.0  0.042
  C  C144  1  0.079100  0.219000  0.822400  1.0  -0.0244
  C  C145  1  0.116400  0.279800  0.820400  1.0  -0.1209
  C  C146  1  0.132300  0.312400  0.876900  1.0  0.0488
  C  C147  1  0.076400  0.225900  0.937900  1.0  -0.0262
  C  C148  1  0.402700  0.512300  0.614300  1.0  0.718
  C  C149  1  0.649900  0.165500  0.758600  1.0  0.7214
  C  C150  1  0.633200  0.193300  0.695700  1.0  -0.1508
  C  C151  1  0.656900  0.162300  0.639300  1.0  0.0433
  C  C152  1  0.592200  0.250300  0.690000  1.0  -0.0572
  C  C153  1  0.577800  0.277800  0.629700  1.0  0.0782
  C  C154  1  0.602500  0.246500  0.575400  1.0  -0.01
  C  C155  1  0.534300  0.339900  0.625000  1.0  0.0313
  C  C156  1  0.564500  0.400900  0.609000  1.0  -0.0123
  C  C157  1  0.520600  0.454500  0.607600  1.0  -0.0638
  C  C158  1  0.641000  0.188600  0.579000  1.0  -0.131
  C  C159  1  0.665400  0.152700  0.520100  1.0  0.7259
  C  C160  1  0.695300  0.379300  0.632500  1.0  -0.0267
  C  C161  1  0.767600  0.388200  0.619400  1.0  -0.1598
  C  C162  1  0.787900  0.427500  0.567600  1.0  0.0318
  C  C163  1  0.736600  0.459600  0.530700  1.0  -0.1319
  C  C164  1  0.664300  0.449300  0.544600  1.0  -0.0398
  C  C165  1  0.127300  0.062800  0.848400  1.0  0.0375
  C  C166  1  0.180300  0.093700  0.884600  1.0  -0.0547
  C  C167  1  0.252700  0.087200  0.865600  1.0  -0.153
  C  C168  1  0.270500  0.049400  0.813500  1.0  0.0081
  C  C169  1  0.217800  0.018600  0.778500  1.0  -0.1193
  C  C170  1  0.823600  0.086000  0.911800  1.0  0.7341
  C  C171  1  0.146400  0.025200  0.796900  1.0  -0.0462
  C  C172  1  0.460900  0.335200  0.635000  1.0  -0.08
  C  C173  1  0.416200  0.389300  0.628600  1.0  -0.0351
  C  C174  1  0.445700  0.450300  0.617400  1.0  -0.1018
  C  C175  1  0.642300  0.409600  0.595900  1.0  0.0564
  C  C176  1  0.757300  0.503800  0.476400  1.0  0.7259
  C  C177  1  0.309100  0.121200  0.904000  1.0  0.6699
  C  C178  1  0.903300  0.076400  0.895900  1.0  -0.0504
  C  C179  1  0.113300  0.285100  0.935400  1.0  -0.1117
  C  C180  1  0.238500  0.977000  0.721400  1.0  0.7495
  C  C181  1  0.137600  0.307400  0.756900  1.0  0.6745
  C  C182  1  0.135000  0.318800  0.995700  1.0  0.7227
  C  C183  1  0.821600  0.352700  0.659600  1.0  0.7123
  C  C184  1  0.336800  0.377200  0.635300  1.0  0.7097
  C  C185  1  0.445800  0.368300  0.103200  1.0  -0.0309
  C  C186  1  0.433000  0.483900  0.118900  1.0  -0.0882
  C  C187  1  0.506700  0.486300  0.133900  1.0  -0.039
  C  C188  1  0.549800  0.430000  0.133800  1.0  0.0308
  C  C189  1  0.518800  0.370400  0.117900  1.0  -0.0054
  C  C190  1  0.392100  0.546500  0.124500  1.0  0.7176
  C  C191  1  0.558700  0.307000  0.118900  1.0  0.0416
  C  C192  1  0.579100  0.281000  0.177600  1.0  -0.0252
  C  C193  1  0.616400  0.220200  0.179600  1.0  -0.1218
  C  C194  1  0.632300  0.187600  0.123100  1.0  0.0496
  C  C195  1  0.576400  0.274100  0.062100  1.0  -0.0236
  C  C196  1  0.902700  0.987700  0.385700  1.0  0.7181
  C  C197  1  0.149900  0.334500  0.241400  1.0  0.7217
  C  C198  1  0.133200  0.306700  0.304300  1.0  -0.1508
  C  C199  1  0.156900  0.337700  0.360700  1.0  0.0422
  C  C200  1  0.092200  0.249700  0.310000  1.0  -0.0565
  C  C201  1  0.077800  0.222200  0.370300  1.0  0.0788
  C  C202  1  0.102500  0.253500  0.424600  1.0  -0.0116
  C  C203  1  0.034300  0.160100  0.375000  1.0  0.0313
  C  C204  1  0.064500  0.099100  0.391000  1.0  -0.0117
  C  C205  1  0.020600  0.045500  0.392400  1.0  -0.0627
  C  C206  1  0.141000  0.311400  0.421000  1.0  -0.1307
  C  C207  1  0.165400  0.347300  0.479900  1.0  0.7277
  C  C208  1  0.195300  0.120700  0.367500  1.0  -0.0263
  C  C209  1  0.267600  0.111800  0.380600  1.0  -0.1588
  C  C210  1  0.287900  0.072500  0.432400  1.0  0.0317
  C  C211  1  0.236600  0.040400  0.469300  1.0  -0.1299
  C  C212  1  0.164300  0.050700  0.455400  1.0  -0.0412
  C  C213  1  0.627300  0.437200  0.151600  1.0  0.0379
  C  C214  1  0.680300  0.406300  0.115400  1.0  -0.0564
  C  C215  1  0.752700  0.412800  0.134400  1.0  -0.1513
  C  C216  1  0.770500  0.450600  0.186500  1.0  0.0082
  C  C217  1  0.717800  0.481400  0.221500  1.0  -0.1171
  C  C218  1  0.323600  0.414000  0.088200  1.0  0.7339
  C  C219  1  0.646400  0.474800  0.203100  1.0  -0.0478
  C  C220  1  0.960900  0.164800  0.365000  1.0  -0.0802
  C  C221  1  0.916200  0.110700  0.371400  1.0  -0.0344
  C  C222  1  0.945700  0.049700  0.382600  1.0  -0.1016
  C  C223  1  0.142300  0.090400  0.404100  1.0  0.0575
  C  C224  1  0.257300  0.996200  0.523600  1.0  0.7267
  C  C225  1  0.809100  0.378800  0.096000  1.0  0.671
  C  C226  1  0.403300  0.423600  0.104100  1.0  -0.0511
  C  C227  1  0.613300  0.214900  0.064600  1.0  -0.1129
  C  C228  1  0.738500  0.523000  0.278600  1.0  0.752
  C  C229  1  0.637600  0.192600  0.243100  1.0  0.6751
  C  C230  1  0.635000  0.181200  0.004300  1.0  0.7238
  C  C231  1  0.321600  0.147300  0.340400  1.0  0.712
  C  C232  1  0.836800  0.122800  0.364700  1.0  0.7086
  C  C233  1  0.054200  0.631700  0.603200  1.0  -0.0334
  C  C234  1  0.067000  0.516100  0.618900  1.0  -0.0887
  C  C235  1  0.993300  0.513700  0.633900  1.0  -0.0377
  C  C236  1  0.950200  0.570000  0.633800  1.0  0.0304
  C  C237  1  0.981200  0.629600  0.617900  1.0  -0.0034
  C  C238  1  0.107900  0.453500  0.624500  1.0  0.7177
  C  C239  1  0.941300  0.693000  0.618900  1.0  0.0428
  C  C240  1  0.920900  0.719000  0.677600  1.0  -0.0231
  C  C241  1  0.883600  0.779800  0.679600  1.0  -0.1214
  C  C242  1  0.867700  0.812400  0.623100  1.0  0.048
  C  C243  1  0.923600  0.725900  0.562100  1.0  -0.0247
  C  C244  1  0.597300  0.012300  0.885700  1.0  0.7179
  C  C245  1  0.350100  0.665500  0.741400  1.0  0.7222
  C  C246  1  0.366800  0.693300  0.804300  1.0  -0.152
  C  C247  1  0.343100  0.662300  0.860700  1.0  0.0442
  C  C248  1  0.407800  0.750300  0.810000  1.0  -0.0559
  C  C249  1  0.422200  0.777800  0.870300  1.0  0.0783
  C  C250  1  0.397500  0.746500  0.924600  1.0  -0.0101
  C  C251  1  0.465700  0.839900  0.875000  1.0  0.0324
  C  C252  1  0.435500  0.900900  0.891000  1.0  -0.0116
  C  C253  1  0.479400  0.954500  0.892400  1.0  -0.0642
  C  C254  1  0.359000  0.688600  0.921000  1.0  -0.1312
  C  C255  1  0.334600  0.652700  0.979900  1.0  0.7271
  C  C256  1  0.304700  0.879300  0.867500  1.0  -0.0264
  C  C257  1  0.232400  0.888200  0.880600  1.0  -0.1605
  C  C258  1  0.212100  0.927500  0.932400  1.0  0.0306
  C  C259  1  0.263400  0.959600  0.969300  1.0  -0.1304
  C  C260  1  0.335700  0.949300  0.955400  1.0  -0.0399
  C  C261  1  0.872700  0.562800  0.651600  1.0  0.0389
  C  C262  1  0.819700  0.593700  0.615400  1.0  -0.0554
  C  C263  1  0.747300  0.587200  0.634400  1.0  -0.1518
  C  C264  1  0.729500  0.549400  0.686500  1.0  0.0079
  C  C265  1  0.782200  0.518600  0.721500  1.0  -0.1152
  C  C266  1  0.176400  0.586000  0.588200  1.0  0.7333
  C  C267  1  0.853600  0.525200  0.703100  1.0  -0.0459
  C  C268  1  0.539100  0.835200  0.865000  1.0  -0.0792
  C  C269  1  0.583800  0.889300  0.871400  1.0  -0.0339
  C  C270  1  0.554300  0.950300  0.882600  1.0  -0.1031
  C  C271  1  0.357700  0.909600  0.904100  1.0  0.0592
  C  C272  1  0.242700  0.003800  0.023600  1.0  0.7271
  C  C273  1  0.690900  0.621200  0.596000  1.0  0.6714
  C  C274  1  0.096700  0.576400  0.604100  1.0  -0.0502
  C  C275  1  0.886700  0.785100  0.564600  1.0  -0.1119
  C  C276  1  0.761500  0.477000  0.778600  1.0  0.7512
  C  C277  1  0.862400  0.807400  0.743100  1.0  0.6745
  C  C278  1  0.865000  0.818800  0.504300  1.0  0.7243
  C  C279  1  0.178400  0.852700  0.840400  1.0  0.7117
  C  C280  1  0.663200  0.877200  0.864700  1.0  0.7089
  O  O281  1  0.676770  0.043460  0.372900  1.0  -0.706
  O  O282  1  0.576600  0.098960  0.370700  1.0  -0.6319
  O  O283  1  0.164960  0.491080  0.114680  1.0  -0.7156
  O  O284  1  0.066200  0.434270  0.116000  1.0  -0.5796
  O  O285  1  0.829400  0.893270  0.263500  1.0  -0.6064
  O  O286  1  0.855000  0.798700  0.306930  1.0  -0.533
  O  O287  1  0.709150  0.877000  0.373400  1.0  -0.5745
  O  O288  1  0.700700  0.938350  0.461290  1.0  -0.6165
  O  O289  1  0.805100  0.902100  0.027800  1.0  -0.6244
  O  O290  1  0.845300  0.818600  0.967300  1.0  -0.689
  O  O291  1  0.679000  0.493900  0.960800  1.0  -0.6027
  O  O292  1  0.789500  0.463400  0.950900  1.0  -0.6075
  O  O293  1  0.205300  0.842900  0.447600  1.0  -0.468
  O  O294  1  0.126200  0.894500  0.386700  1.0  -0.4894
  O  O295  1  0.306900  0.058600  0.196000  1.0  -0.5694
  O  O296  1  0.325700  0.642400  0.255700  1.0  -0.593
  O  O297  1  0.697900  0.683600  0.204700  1.0  -0.5286
  O  O298  1  0.613500  0.638900  0.142900  1.0  -0.4868
  O  O299  1  0.190500  0.633200  0.187200  1.0  -0.5732
  O  O300  1  0.359600  0.713090  0.546720  1.0  -0.5779
  O  O301  1  0.352700  0.621200  0.496000  1.0  -0.5905
  O  O302  1  0.380400  0.722500  0.207400  1.0  -0.6151
  O  O303  1  0.200000  0.627600  0.084300  1.0  -0.7029
  O  O304  1  0.200000  0.018500  0.200300  1.0  -0.5616
  O  O305  1  0.823230  0.956540  0.872900  1.0  -0.7056
  O  O306  1  0.923400  0.901040  0.870700  1.0  -0.6324
  O  O307  1  0.335040  0.508920  0.614680  1.0  -0.7163
  O  O308  1  0.433800  0.565730  0.616000  1.0  -0.581
  O  O309  1  0.670600  0.106730  0.763500  1.0  -0.6064
  O  O310  1  0.645000  0.201300  0.806930  1.0  -0.5317
  O  O311  1  0.790850  0.123000  0.873400  1.0  -0.5729
  O  O312  1  0.799300  0.061650  0.961290  1.0  -0.6172
  O  O313  1  0.694900  0.097900  0.527800  1.0  -0.6249
  O  O314  1  0.654700  0.181400  0.467300  1.0  -0.6884
  O  O315  1  0.821000  0.506100  0.460800  1.0  -0.6024
  O  O316  1  0.710500  0.536600  0.450900  1.0  -0.6067
  O  O317  1  0.294700  0.157100  0.947600  1.0  -0.4673
  O  O318  1  0.373800  0.105500  0.886700  1.0  -0.4884
  O  O319  1  0.193100  0.941400  0.696000  1.0  -0.5693
  O  O320  1  0.174300  0.357600  0.755700  1.0  -0.5931
  O  O321  1  0.802100  0.316400  0.704700  1.0  -0.5298
  O  O322  1  0.886500  0.361100  0.642900  1.0  -0.4884
  O  O323  1  0.309500  0.366800  0.687200  1.0  -0.5721
  O  O324  1  0.140400  0.286910  0.046720  1.0  -0.5766
  O  O325  1  0.147300  0.378800  0.996000  1.0  -0.5895
  O  O326  1  0.119600  0.277500  0.707400  1.0  -0.6141
  O  O327  1  0.300000  0.372400  0.584300  1.0  -0.7047
  O  O328  1  0.300000  0.981500  0.700300  1.0  -0.5615
  O  O329  1  0.323230  0.543460  0.127100  1.0  -0.7049
  O  O330  1  0.423400  0.598960  0.129300  1.0  -0.6329
  O  O331  1  0.835040  0.991080  0.385320  1.0  -0.7166
  O  O332  1  0.933800  0.934270  0.384000  1.0  -0.582
  O  O333  1  0.170600  0.393270  0.236500  1.0  -0.6055
  O  O334  1  0.145000  0.298700  0.193070  1.0  -0.5332
  O  O335  1  0.290850  0.377000  0.126600  1.0  -0.5733
  O  O336  1  0.299300  0.438350  0.038710  1.0  -0.6161
  O  O337  1  0.194900  0.402100  0.472200  1.0  -0.625
  O  O338  1  0.154700  0.318600  0.532700  1.0  -0.6901
  O  O339  1  0.321000  0.993900  0.539200  1.0  -0.6029
  O  O340  1  0.210500  0.963400  0.549100  1.0  -0.6067
  O  O341  1  0.794700  0.342900  0.052400  1.0  -0.4665
  O  O342  1  0.873800  0.394500  0.113300  1.0  -0.4869
  O  O343  1  0.693100  0.558600  0.304000  1.0  -0.5713
  O  O344  1  0.674300  0.142400  0.244300  1.0  -0.5945
  O  O345  1  0.302100  0.183600  0.295300  1.0  -0.5283
  O  O346  1  0.386500  0.138900  0.357100  1.0  -0.4881
  O  O347  1  0.809500  0.133200  0.312800  1.0  -0.572
  O  O348  1  0.640400  0.213090  0.953280  1.0  -0.578
  O  O349  1  0.647300  0.121200  0.004000  1.0  -0.5893
  O  O350  1  0.619600  0.222500  0.292600  1.0  -0.6169
  O  O351  1  0.800000  0.127600  0.415700  1.0  -0.7033
  O  O352  1  0.800000  0.518500  0.299700  1.0  -0.5619
  O  O353  1  0.176770  0.456540  0.627100  1.0  -0.7052
  O  O354  1  0.076600  0.401040  0.629300  1.0  -0.6317
  O  O355  1  0.664960  0.008920  0.885320  1.0  -0.7152
  O  O356  1  0.566200  0.065730  0.884000  1.0  -0.581
  O  O357  1  0.329400  0.606730  0.736500  1.0  -0.6059
  O  O358  1  0.355000  0.701300  0.693070  1.0  -0.5308
  O  O359  1  0.209150  0.623000  0.626600  1.0  -0.5724
  O  O360  1  0.200700  0.561650  0.538710  1.0  -0.6156
  O  O361  1  0.305100  0.597900  0.972200  1.0  -0.6265
  O  O362  1  0.345300  0.681400  0.032700  1.0  -0.6896
  O  O363  1  0.179000  0.006100  0.039200  1.0  -0.6052
  O  O364  1  0.289500  0.036600  0.049100  1.0  -0.6056
  O  O365  1  0.705300  0.657100  0.552400  1.0  -0.4672
  O  O366  1  0.626200  0.605500  0.613300  1.0  -0.4881
  O  O367  1  0.806900  0.441400  0.804000  1.0  -0.5691
  O  O368  1  0.825700  0.857600  0.744300  1.0  -0.5927
  O  O369  1  0.197900  0.816400  0.795300  1.0  -0.5301
  O  O370  1  0.113500  0.861100  0.857100  1.0  -0.4863
  O  O371  1  0.690500  0.866800  0.812800  1.0  -0.572
  O  O372  1  0.859600  0.786910  0.453280  1.0  -0.5766
  O  O373  1  0.852700  0.878800  0.504000  1.0  -0.5887
  O  O374  1  0.880400  0.777500  0.792600  1.0  -0.6157
  O  O375  1  0.700000  0.872400  0.915700  1.0  -0.7036
  O  O376  1  0.700000  0.481500  0.799700  1.0  -0.5641
