# generated using pymatgen
data_K2Mn3Mo2(CN)14
_symmetry_space_group_name_H-M   'P 1'
_cell_length_a   31.01900000
_cell_length_b   7.18570000
_cell_length_c   8.10300000
_cell_angle_alpha   90.00000000
_cell_angle_beta   96.03800000
_cell_angle_gamma   90.00000000
_symmetry_Int_Tables_number   1
_chemical_formula_structural   K2Mn3Mo2(CN)14
_chemical_formula_sum   'K4 Mn6 Mo4 C28 N28'
_cell_volume   1796.08419835
_cell_formula_units_Z   2
loop_
 _symmetry_equiv_pos_site_id
 _symmetry_equiv_pos_as_xyz
  1  'x, y, z'
loop_
 _atom_site_type_symbol
 _atom_site_label
 _atom_site_symmetry_multiplicity
 _atom_site_fract_x
 _atom_site_fract_y
 _atom_site_fract_z
 _atom_site_occupancy
 _atom_site_charge
  K  K1  1  0.194720  0.482600  0.091300  1.0  0.8524
  K  K2  1  0.694720  0.982600  0.091300  1.0  0.8524
  K  K3  1  0.805280  0.482600  0.908700  1.0  0.8522
  K  K4  1  0.305280  0.982600  0.908700  1.0  0.8522
  Mn  Mn5  1  0.147780  0.479700  0.558800  1.0  1.1448
  Mn  Mn6  1  0.647780  0.979700  0.558800  1.0  1.1448
  Mn  Mn7  1  0.852220  0.479700  0.441200  1.0  1.1448
  Mn  Mn8  1  0.352220  0.979700  0.441200  1.0  1.1448
  Mn  Mn9  1  0.000000  0.486600  0.000000  1.0  1.0962
  Mn  Mn10  1  0.500000  0.986600  0.000000  1.0  1.0962
  Mo  Mo11  1  0.130350  0.982000  0.051510  1.0  0.4267
  Mo  Mo12  1  0.630350  0.482000  0.051510  1.0  0.4267
  Mo  Mo13  1  0.869650  0.982000  0.948490  1.0  0.427
  Mo  Mo14  1  0.369650  0.482000  0.948490  1.0  0.427
  C  C15  1  0.075300  0.813000  0.067000  1.0  0.0716
  C  C16  1  0.076700  0.164000  0.994000  1.0  0.0775
  C  C17  1  0.139300  0.182000  0.861000  1.0  0.163
  C  C18  1  0.136600  0.179000  0.256000  1.0  -0.0011
  C  C19  1  0.147700  0.795000  0.258000  1.0  -0.0157
  C  C20  1  0.146500  0.803000  0.856000  1.0  0.1444
  C  C21  1  0.200700  0.013000  0.083000  1.0  -0.0099
  C  C22  1  0.575300  0.313000  0.067000  1.0  0.0716
  C  C23  1  0.576700  0.664000  0.994000  1.0  0.0775
  C  C24  1  0.639300  0.682000  0.861000  1.0  0.1622
  C  C25  1  0.636600  0.679000  0.256000  1.0  -0.0011
  C  C26  1  0.647700  0.295000  0.258000  1.0  -0.0157
  C  C27  1  0.646500  0.303000  0.856000  1.0  0.1444
  C  C28  1  0.700700  0.513000  0.083000  1.0  -0.0099
  C  C29  1  0.924700  0.813000  0.933000  1.0  0.0721
  C  C30  1  0.923300  0.164000  0.006000  1.0  0.0751
  C  C31  1  0.860700  0.182000  0.139000  1.0  0.1639
  C  C32  1  0.863400  0.179000  0.744000  1.0  -0.004
  C  C33  1  0.852300  0.795000  0.742000  1.0  -0.019
  C  C34  1  0.853500  0.803000  0.144000  1.0  0.1442
  C  C35  1  0.799300  0.013000  0.917000  1.0  -0.0077
  C  C36  1  0.424700  0.313000  0.933000  1.0  0.0721
  C  C37  1  0.423300  0.664000  0.006000  1.0  0.0751
  C  C38  1  0.360700  0.682000  0.139000  1.0  0.1639
  C  C39  1  0.363400  0.679000  0.744000  1.0  -0.004
  C  C40  1  0.352300  0.295000  0.742000  1.0  -0.019
  C  C41  1  0.353500  0.303000  0.144000  1.0  0.1442
  C  C42  1  0.299300  0.513000  0.917000  1.0  -0.0077
  N  N43  1  0.046900  0.705000  0.065300  1.0  -0.4754
  N  N44  1  0.048900  0.268000  0.976000  1.0  -0.4742
  N  N45  1  0.142000  0.286000  0.755000  1.0  -0.5005
  N  N46  1  0.156200  0.275000  0.366500  1.0  -0.4502
  N  N47  1  0.139200  0.691000  0.364000  1.0  -0.4844
  N  N48  1  0.157200  0.704000  0.755700  1.0  -0.4919
  N  N49  1  0.237000  0.951000  0.100600  1.0  -0.5267
  N  N50  1  0.546900  0.205000  0.065300  1.0  -0.4755
  N  N51  1  0.548900  0.768000  0.976000  1.0  -0.4711
  N  N52  1  0.642000  0.786000  0.755000  1.0  -0.5005
  N  N53  1  0.656200  0.775000  0.366500  1.0  -0.451
  N  N54  1  0.639200  0.191000  0.364000  1.0  -0.4844
  N  N55  1  0.657200  0.204000  0.755700  1.0  -0.4917
  N  N56  1  0.737000  0.451000  0.100600  1.0  -0.5267
  N  N57  1  0.953100  0.705000  0.934700  1.0  -0.4765
  N  N58  1  0.951100  0.268000  0.024000  1.0  -0.4726
  N  N59  1  0.858000  0.286000  0.245000  1.0  -0.497
  N  N60  1  0.843800  0.275000  0.633500  1.0  -0.4512
  N  N61  1  0.860800  0.691000  0.636000  1.0  -0.4811
  N  N62  1  0.842800  0.704000  0.244300  1.0  -0.4929
  N  N63  1  0.763000  0.951000  0.899400  1.0  -0.5244
  N  N64  1  0.453100  0.205000  0.934700  1.0  -0.4765
  N  N65  1  0.451100  0.768000  0.024000  1.0  -0.4725
  N  N66  1  0.358000  0.786000  0.245000  1.0  -0.497
  N  N67  1  0.343800  0.775000  0.633500  1.0  -0.4513
  N  N68  1  0.360800  0.191000  0.636000  1.0  -0.4811
  N  N69  1  0.342800  0.204000  0.244300  1.0  -0.4931
  N  N70  1  0.263000  0.451000  0.899400  1.0  -0.5244
