# generated using pymatgen
data_MnGa(PO4)2
_symmetry_space_group_name_H-M   'P 1'
_cell_length_a   10.03900000
_cell_length_b   17.38850000
_cell_length_c   16.73560000
_cell_angle_alpha   90.00000000
_cell_angle_beta   90.00000000
_cell_angle_gamma   90.00000000
_symmetry_Int_Tables_number   1
_chemical_formula_structural   MnGa(PO4)2
_chemical_formula_sum   'Mn12 Ga12 P24 O96'
_cell_volume   2921.41907824
_cell_formula_units_Z   12
loop_
 _symmetry_equiv_pos_site_id
 _symmetry_equiv_pos_as_xyz
  1  'x, y, z'
loop_
 _atom_site_type_symbol
 _atom_site_label
 _atom_site_symmetry_multiplicity
 _atom_site_fract_x
 _atom_site_fract_y
 _atom_site_fract_z
 _atom_site_occupancy
 _atom_site_charge
  Mn  Mn1  1  0.811300  0.729700  0.916700  1.0  1.1102
  Mn  Mn2  1  0.311300  0.229700  0.916700  1.0  1.1102
  Mn  Mn3  1  0.188700  0.270300  0.416700  1.0  1.1107
  Mn  Mn4  1  0.688700  0.770300  0.416700  1.0  1.1107
  Mn  Mn5  1  0.188700  0.729700  0.583300  1.0  1.1099
  Mn  Mn6  1  0.688700  0.229700  0.583300  1.0  1.1099
  Mn  Mn7  1  0.811300  0.270300  0.083300  1.0  1.1105
  Mn  Mn8  1  0.311300  0.770300  0.083300  1.0  1.1105
  Mn  Mn9  1  0.000000  0.459200  0.750000  1.0  1.1271
  Mn  Mn10  1  0.500000  0.959200  0.750000  1.0  1.1271
  Mn  Mn11  1  0.000000  0.540800  0.250000  1.0  1.127
  Mn  Mn12  1  0.500000  0.040800  0.250000  1.0  1.127
  Ga  Ga13  1  0.264700  0.578500  0.916700  1.0  1.7166
  Ga  Ga14  1  0.764700  0.078500  0.916700  1.0  1.7166
  Ga  Ga15  1  0.735300  0.421500  0.416700  1.0  1.7162
  Ga  Ga16  1  0.235300  0.921500  0.416700  1.0  1.7162
  Ga  Ga17  1  0.735300  0.578500  0.583300  1.0  1.7166
  Ga  Ga18  1  0.235300  0.078500  0.583300  1.0  1.7166
  Ga  Ga19  1  0.264700  0.421500  0.083300  1.0  1.717
  Ga  Ga20  1  0.764700  0.921500  0.083300  1.0  1.717
  Ga  Ga21  1  0.500000  0.657100  0.750000  1.0  1.7001
  Ga  Ga22  1  0.000000  0.157100  0.750000  1.0  1.7001
  Ga  Ga23  1  0.500000  0.342900  0.250000  1.0  1.7001
  Ga  Ga24  1  0.000000  0.842900  0.250000  1.0  1.7001
  P  P25  1  0.479900  0.699400  0.924200  1.0  1.7956
  P  P26  1  0.190800  0.410400  0.909300  1.0  1.8175
  P  P27  1  0.789000  0.609800  0.757700  1.0  1.801
  P  P28  1  0.979900  0.199400  0.924200  1.0  1.7956
  P  P29  1  0.690800  0.910400  0.909300  1.0  1.8175
  P  P30  1  0.289000  0.109800  0.757700  1.0  1.801
  P  P31  1  0.520100  0.300600  0.424200  1.0  1.7964
  P  P32  1  0.809200  0.589600  0.409300  1.0  1.8184
  P  P33  1  0.211000  0.390200  0.257700  1.0  1.8008
  P  P34  1  0.020100  0.800600  0.424200  1.0  1.7964
  P  P35  1  0.309200  0.089600  0.409300  1.0  1.8184
  P  P36  1  0.711000  0.890200  0.257700  1.0  1.8008
  P  P37  1  0.520100  0.699400  0.575800  1.0  1.7966
  P  P38  1  0.809200  0.410400  0.590700  1.0  1.818
  P  P39  1  0.211000  0.609800  0.742300  1.0  1.8011
  P  P40  1  0.020100  0.199400  0.575800  1.0  1.7966
  P  P41  1  0.309200  0.910400  0.590700  1.0  1.818
  P  P42  1  0.711000  0.109800  0.742300  1.0  1.8011
  P  P43  1  0.479900  0.300600  0.075800  1.0  1.7946
  P  P44  1  0.190800  0.589600  0.090700  1.0  1.8174
  P  P45  1  0.789000  0.390200  0.242300  1.0  1.8017
  P  P46  1  0.979900  0.800600  0.075800  1.0  1.7946
  P  P47  1  0.690800  0.089600  0.090700  1.0  1.8174
  P  P48  1  0.289000  0.890200  0.242300  1.0  1.8017
  O  O49  1  0.434500  0.613100  0.925200  1.0  -0.8105
  O  O50  1  0.483700  0.723400  0.834300  1.0  -0.8268
  O  O51  1  0.618800  0.702300  0.959800  1.0  -0.789
  O  O52  1  0.379100  0.749700  0.965600  1.0  -0.7913
  O  O53  1  0.297000  0.475900  0.908200  1.0  -0.8186
  O  O54  1  0.156900  0.396700  0.998900  1.0  -0.8349
  O  O55  1  0.256100  0.340000  0.873200  1.0  -0.7891
  O  O56  1  0.065900  0.436000  0.868000  1.0  -0.7808
  O  O57  1  0.637500  0.589300  0.759300  1.0  -0.8184
  O  O58  1  0.827100  0.619700  0.667600  1.0  -0.8236
  O  O59  1  0.862000  0.541500  0.792700  1.0  -0.7868
  O  O60  1  0.813600  0.685500  0.798200  1.0  -0.787
  O  O61  1  0.934500  0.113100  0.925200  1.0  -0.8105
  O  O62  1  0.983700  0.223400  0.834300  1.0  -0.8268
  O  O63  1  0.118800  0.202300  0.959800  1.0  -0.789
  O  O64  1  0.879100  0.249700  0.965600  1.0  -0.7915
  O  O65  1  0.797000  0.975900  0.908200  1.0  -0.8186
  O  O66  1  0.656900  0.896700  0.998900  1.0  -0.8349
  O  O67  1  0.756100  0.840000  0.873200  1.0  -0.7891
  O  O68  1  0.565900  0.936000  0.868000  1.0  -0.7808
  O  O69  1  0.137500  0.089300  0.759300  1.0  -0.8184
  O  O70  1  0.327100  0.119700  0.667600  1.0  -0.8236
  O  O71  1  0.362000  0.041500  0.792700  1.0  -0.7868
  O  O72  1  0.313600  0.185500  0.798200  1.0  -0.7876
  O  O73  1  0.565500  0.386900  0.425200  1.0  -0.8096
  O  O74  1  0.516300  0.276600  0.334300  1.0  -0.8254
  O  O75  1  0.381200  0.297700  0.459800  1.0  -0.79
  O  O76  1  0.620900  0.250300  0.465600  1.0  -0.7911
  O  O77  1  0.703000  0.524100  0.408200  1.0  -0.8181
  O  O78  1  0.843100  0.603300  0.498900  1.0  -0.8351
  O  O79  1  0.743900  0.660000  0.373200  1.0  -0.7899
  O  O80  1  0.934100  0.564000  0.368000  1.0  -0.782
  O  O81  1  0.362500  0.410700  0.259300  1.0  -0.8175
  O  O82  1  0.172900  0.380300  0.167600  1.0  -0.8237
  O  O83  1  0.138000  0.458500  0.292700  1.0  -0.7873
  O  O84  1  0.186400  0.314500  0.298200  1.0  -0.787
  O  O85  1  0.065500  0.886900  0.425200  1.0  -0.8096
  O  O86  1  0.016300  0.776600  0.334300  1.0  -0.8254
  O  O87  1  0.881200  0.797700  0.459800  1.0  -0.79
  O  O88  1  0.120900  0.750300  0.465600  1.0  -0.7916
  O  O89  1  0.203000  0.024100  0.408200  1.0  -0.8181
  O  O90  1  0.343100  0.103300  0.498900  1.0  -0.8351
  O  O91  1  0.243900  0.160000  0.373200  1.0  -0.7899
  O  O92  1  0.434100  0.064000  0.368000  1.0  -0.782
  O  O93  1  0.862500  0.910700  0.259300  1.0  -0.8175
  O  O94  1  0.672900  0.880300  0.167600  1.0  -0.8237
  O  O95  1  0.638000  0.958500  0.292700  1.0  -0.7873
  O  O96  1  0.686400  0.814500  0.298200  1.0  -0.7876
  O  O97  1  0.565500  0.613100  0.574800  1.0  -0.8113
  O  O98  1  0.516300  0.723400  0.665700  1.0  -0.8255
  O  O99  1  0.381200  0.702300  0.540200  1.0  -0.789
  O  O100  1  0.620900  0.749700  0.534400  1.0  -0.79
  O  O101  1  0.703000  0.475900  0.591800  1.0  -0.8178
  O  O102  1  0.843100  0.396700  0.501100  1.0  -0.8357
  O  O103  1  0.743900  0.340000  0.626800  1.0  -0.7892
  O  O104  1  0.934100  0.436000  0.632000  1.0  -0.7819
  O  O105  1  0.362500  0.589300  0.740700  1.0  -0.8186
  O  O106  1  0.172900  0.619700  0.832400  1.0  -0.8231
  O  O107  1  0.138000  0.541500  0.707300  1.0  -0.7865
  O  O108  1  0.186400  0.685500  0.701800  1.0  -0.7866
  O  O109  1  0.065500  0.113100  0.574800  1.0  -0.8113
  O  O110  1  0.016300  0.223400  0.665700  1.0  -0.8255
  O  O111  1  0.881200  0.202300  0.540200  1.0  -0.789
  O  O112  1  0.120900  0.249700  0.534400  1.0  -0.7905
  O  O113  1  0.203000  0.975900  0.591800  1.0  -0.8178
  O  O114  1  0.343100  0.896700  0.501100  1.0  -0.8357
  O  O115  1  0.243900  0.840000  0.626800  1.0  -0.7892
  O  O116  1  0.434100  0.936000  0.632000  1.0  -0.7819
  O  O117  1  0.862500  0.089300  0.740700  1.0  -0.8186
  O  O118  1  0.672900  0.119700  0.832400  1.0  -0.8231
  O  O119  1  0.638000  0.041500  0.707300  1.0  -0.7865
  O  O120  1  0.686400  0.185500  0.701800  1.0  -0.787
  O  O121  1  0.434500  0.386900  0.074800  1.0  -0.8101
  O  O122  1  0.483700  0.276600  0.165700  1.0  -0.8249
  O  O123  1  0.618800  0.297700  0.040200  1.0  -0.7889
  O  O124  1  0.379100  0.250300  0.034400  1.0  -0.7898
  O  O125  1  0.297000  0.524100  0.091800  1.0  -0.8184
  O  O126  1  0.156900  0.603300  0.001100  1.0  -0.8358
  O  O127  1  0.256100  0.660000  0.126800  1.0  -0.7872
  O  O128  1  0.065900  0.564000  0.132000  1.0  -0.7803
  O  O129  1  0.637500  0.410700  0.240700  1.0  -0.8184
  O  O130  1  0.827100  0.380300  0.332400  1.0  -0.8227
  O  O131  1  0.862000  0.458500  0.207300  1.0  -0.7868
  O  O132  1  0.813600  0.314500  0.201800  1.0  -0.7866
  O  O133  1  0.934500  0.886900  0.074800  1.0  -0.8101
  O  O134  1  0.983700  0.776600  0.165700  1.0  -0.8249
  O  O135  1  0.118800  0.797700  0.040200  1.0  -0.7889
  O  O136  1  0.879100  0.750300  0.034400  1.0  -0.7903
  O  O137  1  0.797000  0.024100  0.091800  1.0  -0.8184
  O  O138  1  0.656900  0.103300  0.001100  1.0  -0.8358
  O  O139  1  0.756100  0.160000  0.126800  1.0  -0.7872
  O  O140  1  0.565900  0.064000  0.132000  1.0  -0.7803
  O  O141  1  0.137500  0.910700  0.240700  1.0  -0.8184
  O  O142  1  0.327100  0.880300  0.332400  1.0  -0.8227
  O  O143  1  0.362000  0.958500  0.207300  1.0  -0.7868
  O  O144  1  0.313600  0.814500  0.201800  1.0  -0.7871
