# generated using pymatgen
data_MnGa(PO4)2
_symmetry_space_group_name_H-M   'P 1'
_cell_length_a   10.03900000
_cell_length_b   17.40100000
_cell_length_c   16.50300000
_cell_angle_alpha   90.00000000
_cell_angle_beta   90.00000000
_cell_angle_gamma   90.00000000
_symmetry_Int_Tables_number   1
_chemical_formula_structural   MnGa(PO4)2
_chemical_formula_sum   'Mn12 Ga12 P24 O96'
_cell_volume   2882.88660942
_cell_formula_units_Z   12
loop_
 _symmetry_equiv_pos_site_id
 _symmetry_equiv_pos_as_xyz
  1  'x, y, z'
loop_
 _atom_site_type_symbol
 _atom_site_label
 _atom_site_symmetry_multiplicity
 _atom_site_fract_x
 _atom_site_fract_y
 _atom_site_fract_z
 _atom_site_occupancy
 _atom_site_charge
  Mn  Mn1  1  0.803400  0.732700  0.916500  1.0  1.09
  Mn  Mn2  1  0.303400  0.232700  0.916500  1.0  1.0899
  Mn  Mn3  1  0.196600  0.267300  0.416500  1.0  1.0905
  Mn  Mn4  1  0.696600  0.767300  0.416500  1.0  1.0905
  Mn  Mn5  1  0.196600  0.732700  0.583500  1.0  1.0911
  Mn  Mn6  1  0.696600  0.232700  0.583500  1.0  1.091
  Mn  Mn7  1  0.803400  0.267300  0.083500  1.0  1.0909
  Mn  Mn8  1  0.303400  0.767300  0.083500  1.0  1.0909
  Mn  Mn9  1  0.000000  0.464900  0.750000  1.0  1.0946
  Mn  Mn10  1  0.500000  0.964900  0.750000  1.0  1.0946
  Mn  Mn11  1  0.000000  0.535100  0.250000  1.0  1.0937
  Mn  Mn12  1  0.500000  0.035100  0.250000  1.0  1.0937
  Ga  Ga13  1  0.260700  0.579900  0.916700  1.0  1.692
  Ga  Ga14  1  0.760700  0.079900  0.916700  1.0  1.692
  Ga  Ga15  1  0.739300  0.420100  0.416700  1.0  1.6917
  Ga  Ga16  1  0.239300  0.920100  0.416700  1.0  1.6917
  Ga  Ga17  1  0.739300  0.579900  0.583300  1.0  1.6918
  Ga  Ga18  1  0.239300  0.079900  0.583300  1.0  1.6918
  Ga  Ga19  1  0.260700  0.420100  0.083300  1.0  1.6922
  Ga  Ga20  1  0.760700  0.920100  0.083300  1.0  1.6922
  Ga  Ga21  1  0.500000  0.659800  0.750000  1.0  1.7035
  Ga  Ga22  1  0.000000  0.159800  0.750000  1.0  1.7035
  Ga  Ga23  1  0.500000  0.340200  0.250000  1.0  1.7035
  Ga  Ga24  1  0.000000  0.840200  0.250000  1.0  1.7035
  P  P25  1  0.478600  0.700200  0.926500  1.0  1.8021
  P  P26  1  0.188600  0.410700  0.906700  1.0  1.7291
  P  P27  1  0.789900  0.611000  0.760000  1.0  1.8169
  P  P28  1  0.978600  0.200200  0.926500  1.0  1.8021
  P  P29  1  0.688600  0.910700  0.906700  1.0  1.7291
  P  P30  1  0.289900  0.111000  0.760000  1.0  1.8169
  P  P31  1  0.521400  0.299800  0.426500  1.0  1.8028
  P  P32  1  0.811400  0.589300  0.406700  1.0  1.7301
  P  P33  1  0.210100  0.389000  0.260000  1.0  1.8172
  P  P34  1  0.021400  0.799800  0.426500  1.0  1.8028
  P  P35  1  0.311400  0.089300  0.406700  1.0  1.7301
  P  P36  1  0.710100  0.889000  0.260000  1.0  1.8172
  P  P37  1  0.521400  0.700200  0.573500  1.0  1.8031
  P  P38  1  0.811400  0.410700  0.593300  1.0  1.7312
  P  P39  1  0.210100  0.611000  0.740000  1.0  1.8169
  P  P40  1  0.021400  0.200200  0.573500  1.0  1.8031
  P  P41  1  0.311400  0.910700  0.593300  1.0  1.7312
  P  P42  1  0.710100  0.111000  0.740000  1.0  1.8169
  P  P43  1  0.478600  0.299800  0.073500  1.0  1.8016
  P  P44  1  0.188600  0.589300  0.093300  1.0  1.7309
  P  P45  1  0.789900  0.389000  0.240000  1.0  1.8165
  P  P46  1  0.978600  0.799800  0.073500  1.0  1.8016
  P  P47  1  0.688600  0.089300  0.093300  1.0  1.7309
  P  P48  1  0.289900  0.889000  0.240000  1.0  1.8165
  O  O49  1  0.429500  0.614900  0.927200  1.0  -0.8209
  O  O50  1  0.480200  0.725600  0.836400  1.0  -0.8455
  O  O51  1  0.619500  0.701100  0.960200  1.0  -0.7537
  O  O52  1  0.381900  0.752700  0.967900  1.0  -0.7609
  O  O53  1  0.292900  0.478700  0.904800  1.0  -0.8105
  O  O54  1  0.152700  0.397400  0.997200  1.0  -0.8272
  O  O55  1  0.256300  0.340900  0.870900  1.0  -0.7431
  O  O56  1  0.063600  0.432100  0.862700  1.0  -0.7685
  O  O57  1  0.635800  0.594200  0.760400  1.0  -0.8434
  O  O58  1  0.829200  0.622500  0.669600  1.0  -0.8351
  O  O59  1  0.860200  0.542600  0.794300  1.0  -0.7504
  O  O60  1  0.820200  0.684500  0.802300  1.0  -0.7717
  O  O61  1  0.929500  0.114900  0.927200  1.0  -0.8209
  O  O62  1  0.980200  0.225600  0.836400  1.0  -0.8455
  O  O63  1  0.119500  0.201100  0.960200  1.0  -0.7537
  O  O64  1  0.881900  0.252700  0.967900  1.0  -0.7614
  O  O65  1  0.792900  0.978700  0.904800  1.0  -0.8105
  O  O66  1  0.652700  0.897400  0.997200  1.0  -0.8272
  O  O67  1  0.756300  0.840900  0.870900  1.0  -0.7431
  O  O68  1  0.563600  0.932100  0.862700  1.0  -0.7685
  O  O69  1  0.135800  0.094200  0.760400  1.0  -0.8434
  O  O70  1  0.329200  0.122500  0.669600  1.0  -0.8351
  O  O71  1  0.360200  0.042600  0.794300  1.0  -0.7504
  O  O72  1  0.320200  0.184500  0.802300  1.0  -0.7721
  O  O73  1  0.570500  0.385100  0.427200  1.0  -0.8205
  O  O74  1  0.519800  0.274400  0.336400  1.0  -0.8459
  O  O75  1  0.380500  0.298900  0.460200  1.0  -0.7546
  O  O76  1  0.618100  0.247300  0.467900  1.0  -0.7597
  O  O77  1  0.707100  0.521300  0.404800  1.0  -0.8094
  O  O78  1  0.847300  0.602600  0.497200  1.0  -0.8265
  O  O79  1  0.743700  0.659100  0.370900  1.0  -0.7422
  O  O80  1  0.936400  0.567900  0.362700  1.0  -0.7704
  O  O81  1  0.364200  0.405800  0.260400  1.0  -0.8429
  O  O82  1  0.170800  0.377500  0.169600  1.0  -0.8356
  O  O83  1  0.139800  0.457400  0.294300  1.0  -0.7503
  O  O84  1  0.179800  0.315500  0.302300  1.0  -0.7712
  O  O85  1  0.070500  0.885100  0.427200  1.0  -0.8205
  O  O86  1  0.019800  0.774400  0.336400  1.0  -0.8459
  O  O87  1  0.880500  0.798900  0.460200  1.0  -0.7546
  O  O88  1  0.118100  0.747300  0.467900  1.0  -0.7605
  O  O89  1  0.207100  0.021300  0.404800  1.0  -0.8094
  O  O90  1  0.347300  0.102600  0.497200  1.0  -0.8265
  O  O91  1  0.243700  0.159100  0.370900  1.0  -0.7422
  O  O92  1  0.436400  0.067900  0.362700  1.0  -0.7704
  O  O93  1  0.864200  0.905800  0.260400  1.0  -0.8429
  O  O94  1  0.670800  0.877500  0.169600  1.0  -0.8356
  O  O95  1  0.639800  0.957400  0.294300  1.0  -0.7503
  O  O96  1  0.679800  0.815500  0.302300  1.0  -0.7716
  O  O97  1  0.570500  0.614900  0.572800  1.0  -0.8215
  O  O98  1  0.519800  0.725600  0.663600  1.0  -0.8448
  O  O99  1  0.380500  0.701100  0.539800  1.0  -0.7546
  O  O100  1  0.618100  0.752700  0.532100  1.0  -0.76
  O  O101  1  0.707100  0.478700  0.595200  1.0  -0.809
  O  O102  1  0.847300  0.397400  0.502800  1.0  -0.8274
  O  O103  1  0.743700  0.340900  0.629100  1.0  -0.742
  O  O104  1  0.936400  0.432100  0.637300  1.0  -0.7708
  O  O105  1  0.364200  0.594200  0.739600  1.0  -0.8437
  O  O106  1  0.170800  0.622500  0.830400  1.0  -0.8355
  O  O107  1  0.139800  0.542600  0.705700  1.0  -0.7509
  O  O108  1  0.179800  0.684500  0.697700  1.0  -0.7716
  O  O109  1  0.070500  0.114900  0.572800  1.0  -0.8215
  O  O110  1  0.019800  0.225600  0.663600  1.0  -0.8448
  O  O111  1  0.880500  0.201100  0.539800  1.0  -0.7546
  O  O112  1  0.118100  0.252700  0.532100  1.0  -0.7606
  O  O113  1  0.207100  0.978700  0.595200  1.0  -0.809
  O  O114  1  0.347300  0.897400  0.502800  1.0  -0.8274
  O  O115  1  0.243700  0.840900  0.629100  1.0  -0.742
  O  O116  1  0.436400  0.932100  0.637300  1.0  -0.7708
  O  O117  1  0.864200  0.094200  0.739600  1.0  -0.8437
  O  O118  1  0.670800  0.122500  0.830400  1.0  -0.8355
  O  O119  1  0.639800  0.042600  0.705700  1.0  -0.7509
  O  O120  1  0.679800  0.184500  0.697700  1.0  -0.7719
  O  O121  1  0.429500  0.385100  0.072800  1.0  -0.8208
  O  O122  1  0.480200  0.274400  0.163600  1.0  -0.8448
  O  O123  1  0.619500  0.298900  0.039800  1.0  -0.7548
  O  O124  1  0.381900  0.247300  0.032100  1.0  -0.7592
  O  O125  1  0.292900  0.521300  0.095200  1.0  -0.8109
  O  O126  1  0.152700  0.602600  0.002800  1.0  -0.8275
  O  O127  1  0.256300  0.659100  0.129100  1.0  -0.7414
  O  O128  1  0.063600  0.567900  0.137300  1.0  -0.7687
  O  O129  1  0.635800  0.405800  0.239600  1.0  -0.844
  O  O130  1  0.829200  0.377500  0.330400  1.0  -0.8351
  O  O131  1  0.860200  0.457400  0.205700  1.0  -0.7519
  O  O132  1  0.820200  0.315500  0.197700  1.0  -0.7708
  O  O133  1  0.929500  0.885100  0.072800  1.0  -0.8208
  O  O134  1  0.980200  0.774400  0.163600  1.0  -0.8448
  O  O135  1  0.119500  0.798900  0.039800  1.0  -0.7548
  O  O136  1  0.881900  0.747300  0.032100  1.0  -0.7597
  O  O137  1  0.792900  0.021300  0.095200  1.0  -0.8109
  O  O138  1  0.652700  0.102600  0.002800  1.0  -0.8275
  O  O139  1  0.756300  0.159100  0.129100  1.0  -0.7414
  O  O140  1  0.563600  0.067900  0.137300  1.0  -0.7687
  O  O141  1  0.135800  0.905800  0.239600  1.0  -0.844
  O  O142  1  0.329200  0.877500  0.330400  1.0  -0.8351
  O  O143  1  0.360200  0.957400  0.205700  1.0  -0.7519
  O  O144  1  0.320200  0.815500  0.197700  1.0  -0.7712
