# generated using pymatgen
data_Eu3H3C9O13
_symmetry_space_group_name_H-M   'P 1'
_cell_length_a   3.68900000
_cell_length_b   17.64000000
_cell_length_c   12.38500000
_cell_angle_alpha   91.24700000
_cell_angle_beta   90.00000000
_cell_angle_gamma   90.00000000
_symmetry_Int_Tables_number   1
_chemical_formula_structural   Eu3H3C9O13
_chemical_formula_sum   'Eu6 H6 C18 O26'
_cell_volume   805.75012193
_cell_formula_units_Z   2
loop_
 _symmetry_equiv_pos_site_id
 _symmetry_equiv_pos_as_xyz
  1  'x, y, z'
loop_
 _atom_site_type_symbol
 _atom_site_label
 _atom_site_symmetry_multiplicity
 _atom_site_fract_x
 _atom_site_fract_y
 _atom_site_fract_z
 _atom_site_occupancy
 _atom_site_charge
  Eu  Eu1  1  0.750000  0.905100  0.448500  1.0  2.0632
  Eu  Eu2  1  0.250000  0.732700  0.290500  1.0  2.1195
  Eu  Eu3  1  0.750000  0.540800  0.368800  1.0  2.117
  Eu  Eu4  1  0.250000  0.094900  0.551500  1.0  2.0645
  Eu  Eu5  1  0.750000  0.267300  0.709500  1.0  2.1201
  Eu  Eu6  1  0.250000  0.459200  0.631200  1.0  2.1179
  H  H7  1  0.516560  0.728950  0.633810  1.0  0.143
  H  H8  1  0.761070  0.605160  0.924250  1.0  0.1318
  H  H9  1  0.913370  0.853580  0.908530  1.0  0.139
  H  H10  1  0.016560  0.271050  0.366190  1.0  0.1429
  H  H11  1  0.261070  0.394840  0.075750  1.0  0.1315
  H  H12  1  0.413370  0.146420  0.091470  1.0  0.1356
  C  C13  1  0.640000  0.726000  0.718000  1.0  -0.1052
  C  C14  1  0.545000  0.588000  0.733000  1.0  0.5095
  C  C15  1  0.770000  0.862000  0.697000  1.0  0.5698
  C  C16  1  0.830000  0.726000  0.941000  1.0  0.048
  C  C17  1  0.730000  0.663000  0.886000  1.0  0.0041
  C  C18  1  0.870000  0.795000  0.870000  1.0  -0.0309
  C  C19  1  0.854000  0.787000  0.759000  1.0  -0.0003
  C  C20  1  0.585000  0.664000  0.781000  1.0  -0.024
  C  C21  1  0.980000  0.738000  0.041000  1.0  0.5828
  C  C22  1  0.140000  0.274000  0.282000  1.0  -0.1066
  C  C23  1  0.045000  0.412000  0.267000  1.0  0.5096
  C  C24  1  0.270000  0.138000  0.303000  1.0  0.5686
  C  C25  1  0.330000  0.274000  0.059000  1.0  0.0502
  C  C26  1  0.230000  0.337000  0.114000  1.0  0.0021
  C  C27  1  0.370000  0.205000  0.130000  1.0  -0.0303
  C  C28  1  0.354000  0.213000  0.241000  1.0  0.0022
  C  C29  1  0.085000  0.336000  0.219000  1.0  -0.0223
  C  C30  1  0.480000  0.262000  0.959000  1.0  0.5815
  O  O31  1  0.735000  0.048000  0.446000  1.0  -0.7551
  O  O32  1  0.250000  0.596000  0.281000  1.0  -0.7329
  O  O33  1  0.755000  0.829000  0.284000  1.0  -0.6189
  O  O34  1  0.235000  0.813000  0.456000  1.0  -0.7654
  O  O35  1  0.755000  0.685000  0.394000  1.0  -0.6625
  O  O36  1  0.805000  0.543000  0.701000  1.0  -0.6861
  O  O37  1  0.240000  0.949000  0.322000  1.0  -0.4131
  O  O38  1  0.190000  0.794000  0.075000  1.0  -0.539
  O  O39  1  0.660000  0.849000  0.609000  1.0  -0.5633
  O  O40  1  0.280000  0.553000  0.779000  1.0  -0.6406
  O  O41  1  0.250000  0.561000  0.496000  1.0  -0.6639
  O  O42  1  0.795000  0.714000  0.130000  1.0  -0.7165
  O  O43  1  0.605000  0.912000  0.760000  1.0  -0.5062
  O  O44  1  0.235000  0.952000  0.554000  1.0  -0.756
  O  O45  1  0.750000  0.404000  0.719000  1.0  -0.7319
  O  O46  1  0.255000  0.171000  0.716000  1.0  -0.6184
  O  O47  1  0.735000  0.187000  0.544000  1.0  -0.7664
  O  O48  1  0.255000  0.315000  0.606000  1.0  -0.6652
  O  O49  1  0.305000  0.457000  0.299000  1.0  -0.6878
  O  O50  1  0.740000  0.051000  0.678000  1.0  -0.4132
  O  O51  1  0.690000  0.206000  0.925000  1.0  -0.538
  O  O52  1  0.160000  0.151000  0.391000  1.0  -0.563
  O  O53  1  0.780000  0.447000  0.221000  1.0  -0.6398
  O  O54  1  0.750000  0.439000  0.504000  1.0  -0.6649
  O  O55  1  0.295000  0.286000  0.870000  1.0  -0.7201
  O  O56  1  0.105000  0.088000  0.240000  1.0  -0.5067
