# generated using pymatgen
data_Cd2H12C17N18
_symmetry_space_group_name_H-M   'P 1'
_cell_length_a   9.59900000
_cell_length_b   11.02500000
_cell_length_c   12.57100000
_cell_angle_alpha   86.32800000
_cell_angle_beta   81.70500000
_cell_angle_gamma   79.83400000
_symmetry_Int_Tables_number   1
_chemical_formula_structural   Cd2H12C17N18
_chemical_formula_sum   'Cd4 H24 C34 N36'
_cell_volume   1294.77350054
_cell_formula_units_Z   2
loop_
 _symmetry_equiv_pos_site_id
 _symmetry_equiv_pos_as_xyz
  1  'x, y, z'
loop_
 _atom_site_type_symbol
 _atom_site_label
 _atom_site_symmetry_multiplicity
 _atom_site_fract_x
 _atom_site_fract_y
 _atom_site_fract_z
 _atom_site_occupancy
 _atom_site_charge
  Cd  Cd1  1  0.825710  0.487140  0.976050  1.0  0.9958
  Cd  Cd2  1  0.675440  0.649510  0.714790  1.0  0.9108
  Cd  Cd3  1  0.174290  0.512860  0.023950  1.0  0.995
  Cd  Cd4  1  0.324560  0.350490  0.285210  1.0  0.9096
  H  H5  1  0.938200  0.260000  0.148800  1.0  0.0785
  H  H6  1  0.914100  0.060300  0.204100  1.0  0.1169
  H  H7  1  0.815700  0.945800  0.100400  1.0  0.1039
  H  H8  1  0.723400  0.036700  0.949100  1.0  0.0989
  H  H9  1  0.376500  0.419100  0.686400  1.0  0.1219
  H  H10  1  0.268900  0.417100  0.534900  1.0  0.079
  H  H11  1  0.625200  0.268300  0.374400  1.0  0.0733
  H  H12  1  0.738400  0.251200  0.525600  1.0  0.1271
  H  H13  1  0.868600  0.065200  0.696600  1.0  0.1411
  H  H14  1  0.852100  0.867600  0.651000  1.0  0.0811
  H  H15  1  0.455600  0.909200  0.773300  1.0  0.0655
  H  H16  1  0.452900  0.111400  0.816400  1.0  0.1301
  H  H17  1  0.061800  0.740000  0.851200  1.0  0.0786
  H  H18  1  0.085900  0.939700  0.795900  1.0  0.1163
  H  H19  1  0.184300  0.054200  0.899600  1.0  0.1047
  H  H20  1  0.276600  0.963300  0.050900  1.0  0.0998
  H  H21  1  0.623500  0.580900  0.313600  1.0  0.1226
  H  H22  1  0.731100  0.582900  0.465100  1.0  0.0799
  H  H23  1  0.374800  0.731700  0.625600  1.0  0.0717
  H  H24  1  0.261600  0.748800  0.474400  1.0  0.1272
  H  H25  1  0.131400  0.934800  0.303400  1.0  0.1403
  H  H26  1  0.147900  0.132400  0.349000  1.0  0.0816
  H  H27  1  0.544400  0.090800  0.226700  1.0  0.0655
  H  H28  1  0.547100  0.888600  0.183600  1.0  0.1298
  C  C29  1  0.894700  0.214700  0.107300  1.0  0.1866
  C  C30  1  0.881600  0.094200  0.140700  1.0  -0.1405
  C  C31  1  0.821600  0.027700  0.080800  1.0  -0.0984
  C  C32  1  0.768700  0.081100  0.990000  1.0  -0.1469
  C  C33  1  0.783200  0.199300  0.960400  1.0  0.1638
  C  C34  1  0.734300  0.271300  0.864200  1.0  0.2266
  C  C35  1  0.640500  0.334100  0.719900  1.0  0.2884
  C  C36  1  0.568900  0.334800  0.622600  1.0  0.02
  C  C37  1  0.429100  0.385000  0.624100  1.0  -0.1506
  C  C38  1  0.365600  0.385000  0.532200  1.0  0.1896
  C  C39  1  0.573100  0.296100  0.439100  1.0  0.1751
  C  C40  1  0.643000  0.287900  0.529000  1.0  -0.1826
  C  C41  1  0.662300  0.108000  0.759100  1.0  0.1921
  C  C42  1  0.782600  0.035800  0.711700  1.0  -0.2439
  C  C43  1  0.772400  0.916700  0.686600  1.0  0.1789
  C  C44  1  0.539500  0.941800  0.757400  1.0  0.2033
  C  C45  1  0.535700  0.063400  0.783900  1.0  -0.2381
  C  C46  1  0.105300  0.785300  0.892700  1.0  0.1855
  C  C47  1  0.118400  0.905800  0.859300  1.0  -0.1475
  C  C48  1  0.178400  0.972300  0.919200  1.0  -0.0985
  C  C49  1  0.231300  0.918900  0.010000  1.0  -0.146
  C  C50  1  0.216800  0.800700  0.039600  1.0  0.1645
  C  C51  1  0.265700  0.728700  0.135800  1.0  0.2274
  C  C52  1  0.359500  0.665900  0.280100  1.0  0.2879
  C  C53  1  0.431100  0.665200  0.377400  1.0  0.0185
  C  C54  1  0.570900  0.615000  0.375900  1.0  -0.1511
  C  C55  1  0.634400  0.615000  0.467800  1.0  0.1904
  C  C56  1  0.426900  0.703900  0.560900  1.0  0.174
  C  C57  1  0.357000  0.712100  0.471000  1.0  -0.181
  C  C58  1  0.337700  0.892000  0.240900  1.0  0.1934
  C  C59  1  0.217400  0.964200  0.288300  1.0  -0.2411
  C  C60  1  0.227600  0.083300  0.313400  1.0  0.1759
  C  C61  1  0.460500  0.058200  0.242600  1.0  0.2043
  C  C62  1  0.464300  0.936600  0.216100  1.0  -0.2421
  N  N63  1  0.847600  0.267600  0.018400  1.0  -0.358
  N  N64  1  0.735800  0.387400  0.849900  1.0  -0.1808
  N  N65  1  0.678000  0.428500  0.757200  1.0  -0.2456
  N  N66  1  0.672000  0.232100  0.784200  1.0  -0.074
  N  N67  1  0.436200  0.341500  0.441000  1.0  -0.3434
  N  N68  1  0.652500  0.871200  0.712000  1.0  -0.3472
  N  N69  1  0.059200  0.439600  0.900300  1.0  -0.5964
  N  N70  1  0.102200  0.358000  0.845600  1.0  0.5981
  N  N71  1  0.142800  0.273400  0.791400  1.0  -0.5379
  N  N72  1  0.758800  0.663100  0.881200  1.0  -0.6445
  N  N73  1  0.692100  0.744800  0.935700  1.0  0.5517
  N  N74  1  0.628200  0.822200  0.985700  1.0  -0.4411
  N  N75  1  0.888200  0.619900  0.613500  1.0  -0.6268
  N  N76  1  0.994900  0.611500  0.639900  1.0  0.61
  N  N77  1  0.107500  0.608000  0.663900  1.0  -0.5548
  N  N78  1  0.550300  0.332900  0.190000  1.0  -0.5266
  N  N79  1  0.587500  0.418000  0.143900  1.0  0.5646
  N  N80  1  0.624000  0.506400  0.099000  1.0  -0.5691
  N  N81  1  0.152400  0.732400  0.981600  1.0  -0.3574
  N  N82  1  0.264200  0.612600  0.150100  1.0  -0.1809
  N  N83  1  0.322000  0.571500  0.242800  1.0  -0.2461
  N  N84  1  0.328000  0.767900  0.215800  1.0  -0.0746
  N  N85  1  0.563800  0.658500  0.559000  1.0  -0.3429
  N  N86  1  0.347500  0.128800  0.288000  1.0  -0.3487
  N  N87  1  0.940800  0.560400  0.099700  1.0  -0.6151
  N  N88  1  0.897800  0.642000  0.154400  1.0  0.599
  N  N89  1  0.857200  0.726600  0.208600  1.0  -0.5386
  N  N90  1  0.241200  0.336900  0.118800  1.0  -0.6579
  N  N91  1  0.307900  0.255200  0.064300  1.0  0.5497
  N  N92  1  0.371800  0.177800  0.014300  1.0  -0.4413
  N  N93  1  0.111800  0.380100  0.386500  1.0  -0.6269
  N  N94  1  0.005100  0.388500  0.360100  1.0  0.6088
  N  N95  1  0.892500  0.392000  0.336100  1.0  -0.5518
  N  N96  1  0.449700  0.667100  0.810000  1.0  -0.5356
  N  N97  1  0.412500  0.582000  0.856100  1.0  0.5646
  N  N98  1  0.376000  0.493600  0.901000  1.0  -0.5667
