# generated using pymatgen
data_ZnH7C13NO4
_symmetry_space_group_name_H-M   'P 1'
_cell_length_a   8.20870000
_cell_length_b   14.99120000
_cell_length_c   21.97890000
_cell_angle_alpha   90.00000000
_cell_angle_beta   94.70200000
_cell_angle_gamma   90.00000000
_symmetry_Int_Tables_number   1
_chemical_formula_structural   ZnH7C13NO4
_chemical_formula_sum   'Zn8 H56 C104 N8 O32'
_cell_volume   2695.58271843
_cell_formula_units_Z   8
loop_
 _symmetry_equiv_pos_site_id
 _symmetry_equiv_pos_as_xyz
  1  'x, y, z'
loop_
 _atom_site_type_symbol
 _atom_site_label
 _atom_site_symmetry_multiplicity
 _atom_site_fract_x
 _atom_site_fract_y
 _atom_site_fract_z
 _atom_site_occupancy
 _atom_site_charge
  Zn  Zn1  1  0.325640  0.080910  0.135060  1.0  1.0434
  Zn  Zn2  1  0.533620  0.232760  0.242830  1.0  0.9211
  Zn  Zn3  1  0.174360  0.580910  0.364940  1.0  1.0436
  Zn  Zn4  1  0.966380  0.732760  0.257170  1.0  0.9214
  Zn  Zn5  1  0.674360  0.919090  0.864940  1.0  1.0436
  Zn  Zn6  1  0.466380  0.767240  0.757170  1.0  0.9213
  Zn  Zn7  1  0.825640  0.419090  0.635060  1.0  1.0435
  Zn  Zn8  1  0.033620  0.267240  0.742830  1.0  0.9212
  H  H9  1  0.354300  0.876600  0.253900  1.0  0.1067
  H  H10  1  0.748000  0.881300  0.414900  1.0  0.1095
  H  H11  1  0.704700  0.006000  0.355100  1.0  0.0999
  H  H12  1  0.875600  0.584000  0.467200  1.0  0.1004
  H  H13  1  0.464400  0.649700  0.542300  1.0  0.0798
  H  H14  1  0.404600  0.752300  0.466100  1.0  0.1128
  H  H15  1  0.405000  0.382800  0.149000  1.0  0.0901
  H  H16  1  0.387300  0.536700  0.145400  1.0  0.1243
  H  H17  1  0.496300  0.619600  0.227900  1.0  0.1065
  H  H18  1  0.626900  0.547900  0.310200  1.0  0.1221
  H  H19  1  0.784800  0.471600  0.376600  1.0  0.1169
  H  H20  1  0.913800  0.384200  0.450300  1.0  0.1115
  H  H21  1  0.893600  0.232500  0.442100  1.0  0.1209
  H  H22  1  0.739100  0.170400  0.361300  1.0  0.0764
  H  H23  1  0.145700  0.376600  0.246100  1.0  0.1066
  H  H24  1  0.752000  0.381300  0.085100  1.0  0.1094
  H  H25  1  0.795300  0.506000  0.144900  1.0  0.1004
  H  H26  1  0.624400  0.084000  0.032800  1.0  0.1004
  H  H27  1  0.035600  0.149700  0.957700  1.0  0.0798
  H  H28  1  0.095400  0.252300  0.033900  1.0  0.1129
  H  H29  1  0.095000  0.882800  0.351000  1.0  0.0901
  H  H30  1  0.112700  0.036700  0.354600  1.0  0.1244
  H  H31  1  0.003700  0.119600  0.272100  1.0  0.1066
  H  H32  1  0.873100  0.047900  0.189800  1.0  0.1228
  H  H33  1  0.715200  0.971600  0.123400  1.0  0.1174
  H  H34  1  0.586200  0.884200  0.049700  1.0  0.111
  H  H35  1  0.606400  0.732500  0.057900  1.0  0.1204
  H  H36  1  0.760900  0.670400  0.138700  1.0  0.0752
  H  H37  1  0.645700  0.123400  0.746100  1.0  0.1067
  H  H38  1  0.252000  0.118700  0.585100  1.0  0.1093
  H  H39  1  0.295300  0.994000  0.644900  1.0  0.1002
  H  H40  1  0.124400  0.416000  0.532800  1.0  0.1003
  H  H41  1  0.535600  0.350300  0.457700  1.0  0.08
  H  H42  1  0.595400  0.247700  0.533900  1.0  0.1127
  H  H43  1  0.595000  0.617200  0.851000  1.0  0.0902
  H  H44  1  0.612700  0.463300  0.854600  1.0  0.1244
  H  H45  1  0.503700  0.380400  0.772100  1.0  0.1063
  H  H46  1  0.373100  0.452100  0.689800  1.0  0.1224
  H  H47  1  0.215200  0.528400  0.623400  1.0  0.1176
  H  H48  1  0.086200  0.615800  0.549700  1.0  0.1116
  H  H49  1  0.106400  0.767500  0.557900  1.0  0.121
  H  H50  1  0.260900  0.829600  0.638700  1.0  0.0755
  H  H51  1  0.854300  0.623400  0.753900  1.0  0.107
  H  H52  1  0.248000  0.618700  0.914900  1.0  0.1099
  H  H53  1  0.204700  0.494000  0.855100  1.0  0.1003
  H  H54  1  0.375600  0.916000  0.967200  1.0  0.1004
  H  H55  1  0.964400  0.850300  0.042300  1.0  0.0799
  H  H56  1  0.904600  0.747700  0.966100  1.0  0.113
  H  H57  1  0.905000  0.117200  0.649000  1.0  0.0898
  H  H58  1  0.887300  0.963300  0.645400  1.0  0.124
  H  H59  1  0.996300  0.880400  0.727900  1.0  0.1059
  H  H60  1  0.126900  0.952100  0.810200  1.0  0.1221
  H  H61  1  0.284800  0.028400  0.876600  1.0  0.1175
  H  H62  1  0.413800  0.115800  0.950300  1.0  0.1117
  H  H63  1  0.393600  0.267500  0.942100  1.0  0.1207
  H  H64  1  0.239100  0.329600  0.861300  1.0  0.0766
  C  C65  1  0.497000  0.034200  0.257150  1.0  0.7014
  C  C66  1  0.526000  0.953900  0.297650  1.0  -0.1795
  C  C67  1  0.431300  0.878200  0.287380  1.0  0.002
  C  C68  1  0.447800  0.804400  0.325580  1.0  -0.1826
  C  C69  1  0.569400  0.804700  0.374430  1.0  0.0924
  C  C70  1  0.665400  0.880700  0.383280  1.0  -0.1598
  C  C71  1  0.642100  0.955100  0.346680  1.0  -0.0175
  C  C72  1  0.328500  0.728800  0.314570  1.0  0.6984
  C  C73  1  0.603000  0.730900  0.419450  1.0  0.0933
  C  C74  1  0.745700  0.680200  0.420580  1.0  -0.1812
  C  C75  1  0.864300  0.688400  0.372520  1.0  0.6892
  C  C76  1  0.780600  0.617900  0.466890  1.0  -0.0239
  C  C77  1  0.676000  0.605700  0.512400  1.0  -0.1486
  C  C78  1  0.535200  0.656900  0.511680  1.0  -0.0088
  C  C79  1  0.499500  0.718400  0.465950  1.0  -0.1267
  C  C80  1  0.715900  0.539600  0.562920  1.0  0.6427
  C  C81  1  0.451600  0.416300  0.181500  1.0  0.1585
  C  C82  1  0.439200  0.508500  0.179300  1.0  -0.1702
  C  C83  1  0.505000  0.557700  0.228200  1.0  0.0152
  C  C84  1  0.582600  0.515400  0.276800  1.0  -0.1231
  C  C85  1  0.595400  0.422500  0.276200  1.0  0.1905
  C  C86  1  0.682400  0.371300  0.325400  1.0  0.1889
  C  C87  1  0.775600  0.409800  0.374000  1.0  -0.1253
  C  C88  1  0.852500  0.358400  0.417400  1.0  0.0065
  C  C89  1  0.839900  0.269000  0.412700  1.0  -0.1647
  C  C90  1  0.746900  0.232200  0.364100  1.0  0.1644
  C  C91  1  0.003000  0.534200  0.242850  1.0  0.7012
  C  C92  1  0.974000  0.453900  0.202350  1.0  -0.1806
  C  C93  1  0.068700  0.378200  0.212620  1.0  0.0006
  C  C94  1  0.052200  0.304400  0.174420  1.0  -0.1821
  C  C95  1  0.930600  0.304700  0.125570  1.0  0.0915
  C  C96  1  0.834600  0.380700  0.116720  1.0  -0.1603
  C  C97  1  0.857900  0.455100  0.153320  1.0  -0.0123
  C  C98  1  0.171500  0.228800  0.185430  1.0  0.6981
  C  C99  1  0.897000  0.230900  0.080550  1.0  0.094
  C  C100  1  0.754300  0.180200  0.079420  1.0  -0.1817
  C  C101  1  0.635700  0.188400  0.127480  1.0  0.6901
  C  C102  1  0.719400  0.117900  0.033110  1.0  -0.0227
  C  C103  1  0.824000  0.105700  0.987600  1.0  -0.1495
  C  C104  1  0.964800  0.156900  0.988320  1.0  -0.0095
  C  C105  1  0.000500  0.218400  0.034050  1.0  -0.1272
  C  C106  1  0.784100  0.039600  0.937080  1.0  0.6416
  C  C107  1  0.048400  0.916300  0.318500  1.0  0.1577
  C  C108  1  0.060800  0.008500  0.320700  1.0  -0.1704
  C  C109  1  0.995000  0.057700  0.271800  1.0  0.0144
  C  C110  1  0.917400  0.015400  0.223200  1.0  -0.1235
  C  C111  1  0.904600  0.922500  0.223800  1.0  0.1904
  C  C112  1  0.817600  0.871300  0.174600  1.0  0.1893
  C  C113  1  0.724400  0.909800  0.126000  1.0  -0.1263
  C  C114  1  0.647500  0.858400  0.082600  1.0  0.0102
  C  C115  1  0.660100  0.769000  0.087300  1.0  -0.1682
  C  C116  1  0.753100  0.732200  0.135900  1.0  0.1651
  C  C117  1  0.503000  0.965800  0.742850  1.0  0.7015
  C  C118  1  0.474000  0.046100  0.702350  1.0  -0.1805
  C  C119  1  0.568700  0.121800  0.712620  1.0  0.0004
  C  C120  1  0.552200  0.195600  0.674420  1.0  -0.1836
  C  C121  1  0.430600  0.195300  0.625570  1.0  0.0923
  C  C122  1  0.334600  0.119300  0.616720  1.0  -0.1609
  C  C123  1  0.357900  0.044900  0.653320  1.0  -0.0152
  C  C124  1  0.671500  0.271200  0.685430  1.0  0.6984
  C  C125  1  0.397000  0.269100  0.580550  1.0  0.0939
  C  C126  1  0.254300  0.319800  0.579420  1.0  -0.1816
  C  C127  1  0.135700  0.311600  0.627480  1.0  0.6904
  C  C128  1  0.219400  0.382100  0.533110  1.0  -0.0233
  C  C129  1  0.324000  0.394300  0.487600  1.0  -0.1489
  C  C130  1  0.464800  0.343100  0.488320  1.0  -0.0089
  C  C131  1  0.500500  0.281600  0.534050  1.0  -0.1266
  C  C132  1  0.284100  0.460400  0.437080  1.0  0.6413
  C  C133  1  0.548400  0.583700  0.818500  1.0  0.1581
  C  C134  1  0.560800  0.491500  0.820700  1.0  -0.1701
  C  C135  1  0.495000  0.442300  0.771800  1.0  0.0145
  C  C136  1  0.417400  0.484600  0.723200  1.0  -0.1227
  C  C137  1  0.404600  0.577500  0.723800  1.0  0.1905
  C  C138  1  0.317600  0.628700  0.674600  1.0  0.1896
  C  C139  1  0.224400  0.590200  0.626000  1.0  -0.127
  C  C140  1  0.147500  0.641600  0.582600  1.0  0.014
  C  C141  1  0.160100  0.731000  0.587300  1.0  -0.1703
  C  C142  1  0.253100  0.767800  0.635900  1.0  0.1655
  C  C143  1  0.997000  0.465800  0.757150  1.0  0.7013
  C  C144  1  0.026000  0.546100  0.797650  1.0  -0.1797
  C  C145  1  0.931300  0.621800  0.787380  1.0  0.0019
  C  C146  1  0.947800  0.695600  0.825580  1.0  -0.184
  C  C147  1  0.069400  0.695300  0.874430  1.0  0.0931
  C  C148  1  0.165400  0.619300  0.883280  1.0  -0.1604
  C  C149  1  0.142100  0.544900  0.846680  1.0  -0.0202
  C  C150  1  0.828500  0.771200  0.814570  1.0  0.6988
  C  C151  1  0.103000  0.769100  0.919450  1.0  0.0927
  C  C152  1  0.245700  0.819800  0.920580  1.0  -0.1805
  C  C153  1  0.364300  0.811600  0.872520  1.0  0.6894
  C  C154  1  0.280600  0.882100  0.966890  1.0  -0.025
  C  C155  1  0.176000  0.894300  0.012400  1.0  -0.1491
  C  C156  1  0.035200  0.843100  0.011680  1.0  -0.0083
  C  C157  1  0.999500  0.781600  0.965950  1.0  -0.1252
  C  C158  1  0.215900  0.960400  0.062920  1.0  0.6425
  C  C159  1  0.951600  0.083700  0.681500  1.0  0.159
  C  C160  1  0.939200  0.991500  0.679300  1.0  -0.1707
  C  C161  1  0.005000  0.942300  0.728200  1.0  0.015
  C  C162  1  0.082600  0.984600  0.776800  1.0  -0.1228
  C  C163  1  0.095400  0.077500  0.776200  1.0  0.1904
  C  C164  1  0.182400  0.128700  0.825400  1.0  0.1892
  C  C165  1  0.275600  0.090200  0.874000  1.0  -0.1255
  C  C166  1  0.352500  0.141600  0.917400  1.0  0.0112
  C  C167  1  0.339900  0.231000  0.912700  1.0  -0.1675
  C  C168  1  0.246900  0.267800  0.864100  1.0  0.1647
  N  N169  1  0.528200  0.374500  0.228970  1.0  -0.3311
  N  N170  1  0.667900  0.282000  0.321040  1.0  -0.3208
  N  N171  1  0.971800  0.874500  0.271030  1.0  -0.3312
  N  N172  1  0.832100  0.782000  0.178960  1.0  -0.3188
  N  N173  1  0.471800  0.625500  0.771030  1.0  -0.3306
  N  N174  1  0.332100  0.718000  0.678960  1.0  -0.319
  N  N175  1  0.028200  0.125500  0.728970  1.0  -0.3307
  N  N176  1  0.167900  0.218000  0.821040  1.0  -0.3218
  O  O177  1  0.537400  0.108070  0.279250  1.0  -0.5991
  O  O178  1  0.434100  0.018460  0.204070  1.0  -0.6266
  O  O179  1  0.350100  0.660860  0.347150  1.0  -0.5769
  O  O180  1  0.214700  0.738780  0.273250  1.0  -0.6218
  O  O181  1  0.808100  0.707830  0.319160  1.0  -0.5731
  O  O182  1  0.013600  0.675710  0.387960  1.0  -0.6358
  O  O183  1  0.831800  0.485220  0.557370  1.0  -0.6032
  O  O184  1  0.639700  0.540400  0.609090  1.0  -0.5872
  O  O185  1  0.962600  0.608070  0.220750  1.0  -0.5978
  O  O186  1  0.065900  0.518460  0.295930  1.0  -0.6259
  O  O187  1  0.149900  0.160860  0.152850  1.0  -0.5765
  O  O188  1  0.285300  0.238780  0.226750  1.0  -0.6223
  O  O189  1  0.691900  0.207830  0.180840  1.0  -0.572
  O  O190  1  0.486400  0.175710  0.112040  1.0  -0.6352
  O  O191  1  0.668200  0.985220  0.942630  1.0  -0.6021
  O  O192  1  0.860300  0.040400  0.890910  1.0  -0.5883
  O  O193  1  0.462600  0.891930  0.720750  1.0  -0.5982
  O  O194  1  0.565900  0.981540  0.795930  1.0  -0.6261
  O  O195  1  0.649900  0.339140  0.652850  1.0  -0.5767
  O  O196  1  0.785300  0.261220  0.726750  1.0  -0.6222
  O  O197  1  0.191900  0.292170  0.680840  1.0  -0.5721
  O  O198  1  0.986400  0.324290  0.612040  1.0  -0.6357
  O  O199  1  0.168200  0.514780  0.442630  1.0  -0.6022
  O  O200  1  0.360300  0.459600  0.390910  1.0  -0.5889
  O  O201  1  0.037400  0.391930  0.779250  1.0  -0.5992
  O  O202  1  0.934100  0.481540  0.704070  1.0  -0.626
  O  O203  1  0.850100  0.839140  0.847150  1.0  -0.5768
  O  O204  1  0.714700  0.761220  0.773250  1.0  -0.6218
  O  O205  1  0.308100  0.792170  0.819160  1.0  -0.5735
  O  O206  1  0.513600  0.824290  0.887960  1.0  -0.6357
  O  O207  1  0.331800  0.014780  0.057370  1.0  -0.6035
  O  O208  1  0.139700  0.959600  0.109090  1.0  -0.5871
