# generated using pymatgen
data_Ag3H28C19SN8O5
_symmetry_space_group_name_H-M   'P 1'
_cell_length_a   11.10030000
_cell_length_b   12.30010000
_cell_length_c   43.00300000
_cell_angle_alpha   90.00000000
_cell_angle_beta   90.00000000
_cell_angle_gamma   90.00000000
_symmetry_Int_Tables_number   1
_chemical_formula_structural   Ag3H28C19SN8O5
_chemical_formula_sum   'Ag24 H224 C152 S8 N64 O40'
_cell_volume   5871.40600569
_cell_formula_units_Z   8
loop_
 _symmetry_equiv_pos_site_id
 _symmetry_equiv_pos_as_xyz
  1  'x, y, z'
loop_
 _atom_site_type_symbol
 _atom_site_label
 _atom_site_symmetry_multiplicity
 _atom_site_fract_x
 _atom_site_fract_y
 _atom_site_fract_z
 _atom_site_occupancy
 _atom_site_charge
  Ag  Ag1  1  0.496600  0.884680  0.981900  1.0  0.3943
  Ag  Ag2  1  0.657080  0.596660  0.867940  1.0  -0.0194
  Ag  Ag3  1  0.683020  0.869230  0.254200  1.0  0.3214
  Ag  Ag4  1  0.503400  0.615320  0.481900  1.0  0.3939
  Ag  Ag5  1  0.342920  0.903340  0.367940  1.0  -0.0184
  Ag  Ag6  1  0.316980  0.630770  0.754200  1.0  0.3208
  Ag  Ag7  1  0.996600  0.115320  0.518100  1.0  0.3936
  Ag  Ag8  1  0.157080  0.403340  0.632060  1.0  -0.0191
  Ag  Ag9  1  0.183020  0.130770  0.245800  1.0  0.321
  Ag  Ag10  1  0.003400  0.384680  0.018100  1.0  0.3945
  Ag  Ag11  1  0.842920  0.096660  0.132060  1.0  -0.019
  Ag  Ag12  1  0.816980  0.369230  0.745800  1.0  0.3209
  Ag  Ag13  1  0.503400  0.115320  0.018100  1.0  0.3938
  Ag  Ag14  1  0.342920  0.403340  0.132060  1.0  -0.0185
  Ag  Ag15  1  0.316980  0.130770  0.745800  1.0  0.3206
  Ag  Ag16  1  0.496600  0.384680  0.518100  1.0  0.3944
  Ag  Ag17  1  0.657080  0.096660  0.632060  1.0  -0.0196
  Ag  Ag18  1  0.683020  0.369230  0.245800  1.0  0.3212
  Ag  Ag19  1  0.003400  0.884680  0.481900  1.0  0.3944
  Ag  Ag20  1  0.842920  0.596660  0.367940  1.0  -0.0188
  Ag  Ag21  1  0.816980  0.869230  0.754200  1.0  0.3211
  Ag  Ag22  1  0.996600  0.615320  0.981900  1.0  0.3936
  Ag  Ag23  1  0.157080  0.903340  0.867940  1.0  -0.019
  Ag  Ag24  1  0.183020  0.630770  0.254200  1.0  0.3212
  H  H25  1  0.431300  0.960500  0.106400  1.0  0.0816
  H  H26  1  0.473500  0.906300  0.156400  1.0  0.0961
  H  H27  1  0.668100  0.658100  0.123600  1.0  0.1025
  H  H28  1  0.624600  0.713300  0.073300  1.0  0.0937
  H  H29  1  0.640500  0.770600  0.921100  1.0  0.0505
  H  H30  1  0.517600  0.707900  0.922500  1.0  0.0249
  H  H31  1  0.726000  0.725300  0.997600  1.0  0.0903
  H  H32  1  0.766200  0.782300  0.966600  1.0  0.0669
  H  H33  1  0.539900  0.627400  0.000100  1.0  0.0708
  H  H34  1  0.456300  0.619600  0.970700  1.0  0.0648
  H  H35  1  0.828800  0.544400  0.925300  1.0  0.0795
  H  H36  1  0.829000  0.671500  0.922400  1.0  0.0371
  H  H37  1  0.765100  0.457700  0.973500  1.0  0.0755
  H  H38  1  0.724900  0.529800  0.001800  1.0  0.0791
  H  H39  1  0.518500  0.507600  0.927000  1.0  0.0588
  H  H40  1  0.642000  0.445900  0.928500  1.0  0.0862
  H  H41  1  0.795000  0.503200  0.809000  1.0  0.0762
  H  H42  1  0.670500  0.442600  0.808300  1.0  0.1071
  H  H43  1  0.680500  0.768000  0.814100  1.0  0.0198
  H  H44  1  0.800600  0.701200  0.812000  1.0  0.0282
  H  H45  1  0.483700  0.545400  0.810900  1.0  0.0893
  H  H46  1  0.486400  0.672700  0.813500  1.0  0.0224
  H  H47  1  0.773600  0.620600  0.735300  1.0  0.0794
  H  H48  1  0.856500  0.612400  0.764800  1.0  0.0682
  H  H49  1  0.580200  0.526000  0.734400  1.0  0.0825
  H  H50  1  0.540400  0.456700  0.763300  1.0  0.0784
  H  H51  1  0.548600  0.781400  0.769100  1.0  0.0623
  H  H52  1  0.585000  0.723800  0.737900  1.0  0.1022
  H  H53  1  0.568700  0.539500  0.606400  1.0  0.0823
  H  H54  1  0.526500  0.593700  0.656400  1.0  0.0964
  H  H55  1  0.331900  0.841900  0.623600  1.0  0.1028
  H  H56  1  0.375400  0.786700  0.573300  1.0  0.0935
  H  H57  1  0.359500  0.729400  0.421100  1.0  0.0479
  H  H58  1  0.482400  0.792100  0.422500  1.0  0.0252
  H  H59  1  0.274000  0.774700  0.497600  1.0  0.0906
  H  H60  1  0.233800  0.717700  0.466600  1.0  0.0688
  H  H61  1  0.460100  0.872600  0.500100  1.0  0.0708
  H  H62  1  0.543700  0.880400  0.470700  1.0  0.064
  H  H63  1  0.171200  0.955600  0.425300  1.0  0.0809
  H  H64  1  0.171000  0.828500  0.422400  1.0  0.0365
  H  H65  1  0.234900  0.042300  0.473500  1.0  0.0744
  H  H66  1  0.275100  0.970200  0.501800  1.0  0.0789
  H  H67  1  0.481500  0.992400  0.427000  1.0  0.0606
  H  H68  1  0.358000  0.054100  0.428500  1.0  0.0881
  H  H69  1  0.205000  0.996800  0.309000  1.0  0.0756
  H  H70  1  0.329500  0.057400  0.308300  1.0  0.1062
  H  H71  1  0.319500  0.732000  0.314100  1.0  0.0172
  H  H72  1  0.199400  0.798800  0.312000  1.0  0.0288
  H  H73  1  0.516300  0.954600  0.310900  1.0  0.0879
  H  H74  1  0.513600  0.827300  0.313500  1.0  0.0212
  H  H75  1  0.226400  0.879400  0.235300  1.0  0.0791
  H  H76  1  0.143500  0.887600  0.264800  1.0  0.0681
  H  H77  1  0.419800  0.974000  0.234400  1.0  0.0829
  H  H78  1  0.459600  0.043300  0.263300  1.0  0.0777
  H  H79  1  0.451400  0.718600  0.269100  1.0  0.0624
  H  H80  1  0.415000  0.776200  0.237900  1.0  0.1019
  H  H81  1  0.931300  0.039500  0.393600  1.0  0.0815
  H  H82  1  0.973500  0.093700  0.343600  1.0  0.097
  H  H83  1  0.168100  0.341900  0.376400  1.0  0.1028
  H  H84  1  0.124600  0.286700  0.426700  1.0  0.0936
  H  H85  1  0.140500  0.229400  0.578900  1.0  0.0466
  H  H86  1  0.017600  0.292100  0.577500  1.0  0.0287
  H  H87  1  0.226000  0.274700  0.502400  1.0  0.0906
  H  H88  1  0.266200  0.217700  0.533400  1.0  0.0691
  H  H89  1  0.039900  0.372600  0.499900  1.0  0.0713
  H  H90  1  0.956300  0.380400  0.529300  1.0  0.0642
  H  H91  1  0.328800  0.455600  0.574700  1.0  0.0793
  H  H92  1  0.329000  0.328500  0.577600  1.0  0.0382
  H  H93  1  0.265100  0.542300  0.526500  1.0  0.0751
  H  H94  1  0.224900  0.470200  0.498200  1.0  0.0783
  H  H95  1  0.018500  0.492400  0.573000  1.0  0.0597
  H  H96  1  0.142000  0.554100  0.571500  1.0  0.0881
  H  H97  1  0.295000  0.496800  0.691000  1.0  0.0773
  H  H98  1  0.170500  0.557400  0.691700  1.0  0.1078
  H  H99  1  0.180500  0.232000  0.685900  1.0  0.0175
  H  H100  1  0.300600  0.298800  0.688000  1.0  0.0249
  H  H101  1  0.983700  0.454600  0.689100  1.0  0.0894
  H  H102  1  0.986400  0.327300  0.686500  1.0  0.0215
  H  H103  1  0.273600  0.379400  0.764700  1.0  0.0789
  H  H104  1  0.356500  0.387600  0.735200  1.0  0.0682
  H  H105  1  0.080200  0.474000  0.765600  1.0  0.0828
  H  H106  1  0.040400  0.543300  0.736700  1.0  0.0786
  H  H107  1  0.048600  0.218600  0.730900  1.0  0.0627
  H  H108  1  0.085000  0.276200  0.762100  1.0  0.1026
  H  H109  1  0.068700  0.460500  0.893600  1.0  0.0817
  H  H110  1  0.026500  0.406300  0.843600  1.0  0.0969
  H  H111  1  0.831900  0.158100  0.876400  1.0  0.1028
  H  H112  1  0.875400  0.213300  0.926700  1.0  0.0937
  H  H113  1  0.859500  0.270600  0.078900  1.0  0.0491
  H  H114  1  0.982400  0.207900  0.077500  1.0  0.0266
  H  H115  1  0.774000  0.225300  0.002400  1.0  0.0911
  H  H116  1  0.733800  0.282300  0.033400  1.0  0.0673
  H  H117  1  0.960100  0.127400  0.999900  1.0  0.0706
  H  H118  1  0.043700  0.119600  0.029300  1.0  0.0642
  H  H119  1  0.671200  0.044400  0.074700  1.0  0.0805
  H  H120  1  0.671000  0.171500  0.077600  1.0  0.0374
  H  H121  1  0.734900  0.957700  0.026500  1.0  0.0759
  H  H122  1  0.775100  0.029800  0.998200  1.0  0.0786
  H  H123  1  0.981500  0.007600  0.073000  1.0  0.0586
  H  H124  1  0.858000  0.945900  0.071500  1.0  0.0884
  H  H125  1  0.705000  0.003200  0.191000  1.0  0.0743
  H  H126  1  0.829500  0.942600  0.191700  1.0  0.1064
  H  H127  1  0.819500  0.268000  0.185900  1.0  0.021
  H  H128  1  0.699400  0.201200  0.188000  1.0  0.0223
  H  H129  1  0.016300  0.045400  0.189100  1.0  0.0883
  H  H130  1  0.013600  0.172700  0.186500  1.0  0.0226
  H  H131  1  0.726400  0.120600  0.264700  1.0  0.0791
  H  H132  1  0.643500  0.112400  0.235200  1.0  0.0676
  H  H133  1  0.919800  0.026000  0.265600  1.0  0.0835
  H  H134  1  0.959600  0.956700  0.236700  1.0  0.0781
  H  H135  1  0.951400  0.281400  0.230900  1.0  0.0623
  H  H136  1  0.915000  0.223800  0.262100  1.0  0.1024
  H  H137  1  0.568700  0.039500  0.893600  1.0  0.0821
  H  H138  1  0.526500  0.093700  0.843600  1.0  0.0971
  H  H139  1  0.331900  0.341900  0.876400  1.0  0.1029
  H  H140  1  0.375400  0.286700  0.926700  1.0  0.0933
  H  H141  1  0.359500  0.229400  0.078900  1.0  0.0486
  H  H142  1  0.482400  0.292100  0.077500  1.0  0.0267
  H  H143  1  0.274000  0.274700  0.002400  1.0  0.0908
  H  H144  1  0.233800  0.217700  0.033400  1.0  0.0693
  H  H145  1  0.460100  0.372600  0.999900  1.0  0.0705
  H  H146  1  0.543700  0.380400  0.029300  1.0  0.0642
  H  H147  1  0.171200  0.455600  0.074700  1.0  0.0801
  H  H148  1  0.171000  0.328500  0.077600  1.0  0.0386
  H  H149  1  0.234900  0.542300  0.026500  1.0  0.0749
  H  H150  1  0.275100  0.470200  0.998200  1.0  0.0783
  H  H151  1  0.481500  0.492400  0.073000  1.0  0.0586
  H  H152  1  0.358000  0.554100  0.071500  1.0  0.088
  H  H153  1  0.205000  0.496800  0.191000  1.0  0.0749
  H  H154  1  0.329500  0.557400  0.191700  1.0  0.1074
  H  H155  1  0.319500  0.232000  0.185900  1.0  0.0159
  H  H156  1  0.199400  0.298800  0.188000  1.0  0.0223
  H  H157  1  0.516300  0.454600  0.189100  1.0  0.0884
  H  H158  1  0.513600  0.327300  0.186500  1.0  0.0213
  H  H159  1  0.226400  0.379400  0.264700  1.0  0.0791
  H  H160  1  0.143500  0.387600  0.235200  1.0  0.0679
  H  H161  1  0.419800  0.474000  0.265600  1.0  0.0833
  H  H162  1  0.459600  0.543300  0.236700  1.0  0.0777
  H  H163  1  0.451400  0.218600  0.230900  1.0  0.062
  H  H164  1  0.415000  0.276200  0.262100  1.0  0.1029
  H  H165  1  0.431300  0.460500  0.393600  1.0  0.0818
  H  H166  1  0.473500  0.406300  0.343600  1.0  0.0971
  H  H167  1  0.668100  0.158100  0.376400  1.0  0.1028
  H  H168  1  0.624600  0.213300  0.426700  1.0  0.0938
  H  H169  1  0.640500  0.270600  0.578900  1.0  0.0494
  H  H170  1  0.517600  0.207900  0.577500  1.0  0.0285
  H  H171  1  0.726000  0.225300  0.502400  1.0  0.0911
  H  H172  1  0.766200  0.282300  0.533400  1.0  0.0671
  H  H173  1  0.539900  0.127400  0.499900  1.0  0.0715
  H  H174  1  0.456300  0.119600  0.529300  1.0  0.0644
  H  H175  1  0.828800  0.044400  0.574700  1.0  0.0801
  H  H176  1  0.829000  0.171500  0.577600  1.0  0.0365
  H  H177  1  0.765100  0.957700  0.526500  1.0  0.0761
  H  H178  1  0.724900  0.029800  0.498200  1.0  0.0787
  H  H179  1  0.518500  0.007600  0.573000  1.0  0.0606
  H  H180  1  0.642000  0.945900  0.571500  1.0  0.0881
  H  H181  1  0.795000  0.003200  0.691000  1.0  0.077
  H  H182  1  0.670500  0.942600  0.691700  1.0  0.1065
  H  H183  1  0.680500  0.268000  0.685900  1.0  0.0206
  H  H184  1  0.800600  0.201200  0.688000  1.0  0.0259
  H  H185  1  0.483700  0.045400  0.689100  1.0  0.0889
  H  H186  1  0.486400  0.172700  0.686500  1.0  0.0239
  H  H187  1  0.773600  0.120600  0.764700  1.0  0.0791
  H  H188  1  0.856500  0.112400  0.735200  1.0  0.068
  H  H189  1  0.580200  0.026000  0.765600  1.0  0.0829
  H  H190  1  0.540400  0.956700  0.736700  1.0  0.0788
  H  H191  1  0.548600  0.281400  0.730900  1.0  0.0632
  H  H192  1  0.585000  0.223800  0.762100  1.0  0.1022
  H  H193  1  0.068700  0.960500  0.606400  1.0  0.0817
  H  H194  1  0.026500  0.906300  0.656400  1.0  0.0962
  H  H195  1  0.831900  0.658100  0.623600  1.0  0.1025
  H  H196  1  0.875400  0.713300  0.573300  1.0  0.0935
  H  H197  1  0.859500  0.770600  0.421100  1.0  0.0501
  H  H198  1  0.982400  0.707900  0.422500  1.0  0.0255
  H  H199  1  0.774000  0.725300  0.497600  1.0  0.0903
  H  H200  1  0.733800  0.782300  0.466600  1.0  0.0675
  H  H201  1  0.960100  0.627400  0.500100  1.0  0.0704
  H  H202  1  0.043700  0.619600  0.470700  1.0  0.0641
  H  H203  1  0.671200  0.544400  0.425300  1.0  0.0794
  H  H204  1  0.671000  0.671500  0.422400  1.0  0.0377
  H  H205  1  0.734900  0.457700  0.473500  1.0  0.0754
  H  H206  1  0.775100  0.529800  0.501800  1.0  0.0794
  H  H207  1  0.981500  0.507600  0.427000  1.0  0.0598
  H  H208  1  0.858000  0.445900  0.428500  1.0  0.0869
  H  H209  1  0.705000  0.503200  0.309000  1.0  0.0755
  H  H210  1  0.829500  0.442600  0.308300  1.0  0.1073
  H  H211  1  0.819500  0.768000  0.314100  1.0  0.0202
  H  H212  1  0.699400  0.701200  0.312000  1.0  0.0282
  H  H213  1  0.016300  0.545400  0.310900  1.0  0.0883
  H  H214  1  0.013600  0.672700  0.313500  1.0  0.0207
  H  H215  1  0.726400  0.620600  0.235300  1.0  0.0792
  H  H216  1  0.643500  0.612400  0.264800  1.0  0.0678
  H  H217  1  0.919800  0.526000  0.234400  1.0  0.0827
  H  H218  1  0.959600  0.456700  0.263300  1.0  0.078
  H  H219  1  0.951400  0.781400  0.269100  1.0  0.0616
  H  H220  1  0.915000  0.723800  0.237900  1.0  0.1018
  H  H221  1  0.931300  0.539500  0.106400  1.0  0.0815
  H  H222  1  0.973500  0.593700  0.156400  1.0  0.0962
  H  H223  1  0.168100  0.841900  0.123600  1.0  0.1026
  H  H224  1  0.124600  0.786700  0.073300  1.0  0.0937
  H  H225  1  0.140500  0.729400  0.921100  1.0  0.0458
  H  H226  1  0.017600  0.792100  0.922500  1.0  0.0246
  H  H227  1  0.226000  0.774700  0.997600  1.0  0.0903
  H  H228  1  0.266200  0.717700  0.966600  1.0  0.0684
  H  H229  1  0.039900  0.872600  0.000100  1.0  0.0714
  H  H230  1  0.956300  0.880400  0.970700  1.0  0.0647
  H  H231  1  0.328800  0.955600  0.925300  1.0  0.0802
  H  H232  1  0.329000  0.828500  0.922400  1.0  0.0366
  H  H233  1  0.265100  0.042300  0.973500  1.0  0.0744
  H  H234  1  0.224900  0.970200  0.001800  1.0  0.0783
  H  H235  1  0.018500  0.992400  0.927000  1.0  0.0584
  H  H236  1  0.142000  0.054100  0.928500  1.0  0.0879
  H  H237  1  0.295000  0.996800  0.809000  1.0  0.076
  H  H238  1  0.170500  0.057400  0.808300  1.0  0.106
  H  H239  1  0.180500  0.732000  0.814100  1.0  0.0187
  H  H240  1  0.300600  0.798800  0.812000  1.0  0.0279
  H  H241  1  0.983700  0.954600  0.810900  1.0  0.0887
  H  H242  1  0.986400  0.827300  0.813500  1.0  0.0221
  H  H243  1  0.273600  0.879400  0.735300  1.0  0.0792
  H  H244  1  0.356500  0.887600  0.764800  1.0  0.0684
  H  H245  1  0.080200  0.974000  0.734400  1.0  0.0828
  H  H246  1  0.040400  0.043300  0.763300  1.0  0.0783
  H  H247  1  0.048600  0.718600  0.769100  1.0  0.063
  H  H248  1  0.085000  0.776200  0.737900  1.0  0.1022
  C  C249  1  0.502800  0.882500  0.051640  1.0  0.6522
  C  C250  1  0.524900  0.845000  0.084470  1.0  -0.1483
  C  C251  1  0.480100  0.900100  0.109650  1.0  -0.0456
  C  C252  1  0.505300  0.868200  0.139580  1.0  -0.0537
  C  C253  1  0.578000  0.779700  0.144470  1.0  -0.1815
  C  C254  1  0.621600  0.719800  0.120040  1.0  -0.0582
  C  C255  1  0.595100  0.753000  0.090030  1.0  -0.0672
  C  C256  1  0.600000  0.708100  0.930020  1.0  0.1088
  C  C257  1  0.725300  0.719200  0.975070  1.0  0.1068
  C  C258  1  0.539500  0.621700  0.977560  1.0  0.1254
  C  C259  1  0.787200  0.610100  0.931550  1.0  0.0977
  C  C260  1  0.724400  0.524500  0.979300  1.0  0.115
  C  C261  1  0.600800  0.512200  0.934480  1.0  0.11
  C  C262  1  0.712300  0.508000  0.801790  1.0  0.0733
  C  C263  1  0.717600  0.704100  0.804980  1.0  0.1006
  C  C264  1  0.526600  0.610300  0.804370  1.0  0.0869
  C  C265  1  0.773400  0.615600  0.757830  1.0  0.0828
  C  C266  1  0.582900  0.522000  0.756900  1.0  0.075
  C  C267  1  0.587600  0.717700  0.760410  1.0  0.0858
  C  C268  1  0.497200  0.617500  0.551640  1.0  0.6532
  C  C269  1  0.475100  0.655000  0.584470  1.0  -0.1495
  C  C270  1  0.519900  0.599900  0.609650  1.0  -0.0462
  C  C271  1  0.494700  0.631800  0.639580  1.0  -0.0538
  C  C272  1  0.422000  0.720300  0.644470  1.0  -0.1817
  C  C273  1  0.378400  0.780200  0.620040  1.0  -0.0593
  C  C274  1  0.404900  0.747000  0.590030  1.0  -0.0673
  C  C275  1  0.400000  0.791900  0.430020  1.0  0.1078
  C  C276  1  0.274700  0.780800  0.475070  1.0  0.1076
  C  C277  1  0.460500  0.878300  0.477560  1.0  0.1244
  C  C278  1  0.212800  0.889900  0.431550  1.0  0.0982
  C  C279  1  0.275600  0.975500  0.479300  1.0  0.1159
  C  C280  1  0.399200  0.987800  0.434480  1.0  0.109
  C  C281  1  0.287700  0.992000  0.301790  1.0  0.0739
  C  C282  1  0.282400  0.795900  0.304980  1.0  0.1014
  C  C283  1  0.473400  0.889700  0.304370  1.0  0.0866
  C  C284  1  0.226600  0.884400  0.257830  1.0  0.0838
  C  C285  1  0.417100  0.978000  0.256900  1.0  0.0745
  C  C286  1  0.412400  0.782300  0.260410  1.0  0.0843
  C  C287  1  0.002800  0.117500  0.448360  1.0  0.6541
  C  C288  1  0.024900  0.155000  0.415530  1.0  -0.1491
  C  C289  1  0.980100  0.099900  0.390350  1.0  -0.0453
  C  C290  1  0.005300  0.131800  0.360420  1.0  -0.0546
  C  C291  1  0.078000  0.220300  0.355530  1.0  -0.1827
  C  C292  1  0.121600  0.280200  0.379960  1.0  -0.0591
  C  C293  1  0.095100  0.247000  0.409970  1.0  -0.0676
  C  C294  1  0.100000  0.291900  0.569980  1.0  0.1093
  C  C295  1  0.225300  0.280800  0.524930  1.0  0.1064
  C  C296  1  0.039500  0.378300  0.522440  1.0  0.1255
  C  C297  1  0.287200  0.389900  0.568450  1.0  0.0977
  C  C298  1  0.224400  0.475500  0.520700  1.0  0.1162
  C  C299  1  0.100800  0.487800  0.565520  1.0  0.1089
  C  C300  1  0.212300  0.492000  0.698210  1.0  0.0736
  C  C301  1  0.217600  0.295900  0.695020  1.0  0.099
  C  C302  1  0.026600  0.389700  0.695630  1.0  0.0862
  C  C303  1  0.273400  0.384400  0.742170  1.0  0.0818
  C  C304  1  0.082900  0.478000  0.743100  1.0  0.0744
  C  C305  1  0.087600  0.282300  0.739590  1.0  0.0854
  C  C306  1  0.997200  0.382500  0.948360  1.0  0.6543
  C  C307  1  0.975100  0.345000  0.915530  1.0  -0.1521
  C  C308  1  0.019900  0.400100  0.890350  1.0  -0.0469
  C  C309  1  0.994700  0.368200  0.860420  1.0  -0.0555
  C  C310  1  0.922000  0.279700  0.855530  1.0  -0.1829
  C  C311  1  0.878400  0.219800  0.879960  1.0  -0.0572
  C  C312  1  0.904900  0.253000  0.909970  1.0  -0.0674
  C  C313  1  0.900000  0.208100  0.069980  1.0  0.1085
  C  C314  1  0.774700  0.219200  0.024930  1.0  0.1081
  C  C315  1  0.960500  0.121700  0.022440  1.0  0.1245
  C  C316  1  0.712800  0.110100  0.068450  1.0  0.0978
  C  C317  1  0.775600  0.024500  0.020700  1.0  0.1157
  C  C318  1  0.899200  0.012200  0.065520  1.0  0.1096
  C  C319  1  0.787700  0.008000  0.198210  1.0  0.0731
  C  C320  1  0.782400  0.204100  0.195020  1.0  0.1006
  C  C321  1  0.973400  0.110300  0.195630  1.0  0.0861
  C  C322  1  0.726600  0.115600  0.242170  1.0  0.0826
  C  C323  1  0.917100  0.022000  0.243100  1.0  0.0738
  C  C324  1  0.912400  0.217700  0.239590  1.0  0.0855
  C  C325  1  0.497200  0.117500  0.948360  1.0  0.6547
  C  C326  1  0.475100  0.155000  0.915530  1.0  -0.1521
  C  C327  1  0.519900  0.099900  0.890350  1.0  -0.0461
  C  C328  1  0.494700  0.131800  0.860420  1.0  -0.0555
  C  C329  1  0.422000  0.220300  0.855530  1.0  -0.1826
  C  C330  1  0.378400  0.280200  0.879960  1.0  -0.0586
  C  C331  1  0.404900  0.247000  0.909970  1.0  -0.0681
  C  C332  1  0.400000  0.291900  0.069980  1.0  0.1087
  C  C333  1  0.274700  0.280800  0.024930  1.0  0.1079
  C  C334  1  0.460500  0.378300  0.022440  1.0  0.1244
  C  C335  1  0.212800  0.389900  0.068450  1.0  0.0981
  C  C336  1  0.275600  0.475500  0.020700  1.0  0.117
  C  C337  1  0.399200  0.487800  0.065520  1.0  0.1087
  C  C338  1  0.287700  0.492000  0.198210  1.0  0.0739
  C  C339  1  0.282400  0.295900  0.195020  1.0  0.1
  C  C340  1  0.473400  0.389700  0.195630  1.0  0.0861
  C  C341  1  0.226600  0.384400  0.242170  1.0  0.0826
  C  C342  1  0.417100  0.478000  0.243100  1.0  0.0741
  C  C343  1  0.412400  0.282300  0.239590  1.0  0.0845
  C  C344  1  0.502800  0.382500  0.448360  1.0  0.6538
  C  C345  1  0.524900  0.345000  0.415530  1.0  -0.1493
  C  C346  1  0.480100  0.400100  0.390350  1.0  -0.0456
  C  C347  1  0.505300  0.368200  0.360420  1.0  -0.0541
  C  C348  1  0.578000  0.279700  0.355530  1.0  -0.183
  C  C349  1  0.621600  0.219800  0.379960  1.0  -0.0577
  C  C350  1  0.595100  0.253000  0.409970  1.0  -0.0668
  C  C351  1  0.600000  0.208100  0.569980  1.0  0.1082
  C  C352  1  0.725300  0.219200  0.524930  1.0  0.1075
  C  C353  1  0.539500  0.121700  0.522440  1.0  0.1256
  C  C354  1  0.787200  0.110100  0.568450  1.0  0.0973
  C  C355  1  0.724400  0.024500  0.520700  1.0  0.1144
  C  C356  1  0.600800  0.012200  0.565520  1.0  0.1104
  C  C357  1  0.712300  0.008000  0.698210  1.0  0.072
  C  C358  1  0.717600  0.204100  0.695020  1.0  0.1004
  C  C359  1  0.526600  0.110300  0.695630  1.0  0.0862
  C  C360  1  0.773400  0.115600  0.742170  1.0  0.0819
  C  C361  1  0.582900  0.022000  0.743100  1.0  0.0748
  C  C362  1  0.587600  0.217700  0.739590  1.0  0.0858
  C  C363  1  0.997200  0.882500  0.551640  1.0  0.6526
  C  C364  1  0.975100  0.845000  0.584470  1.0  -0.1496
  C  C365  1  0.019900  0.900100  0.609650  1.0  -0.0471
  C  C366  1  0.994700  0.868200  0.639580  1.0  -0.0546
  C  C367  1  0.922000  0.779700  0.644470  1.0  -0.1814
  C  C368  1  0.878400  0.719800  0.620040  1.0  -0.0577
  C  C369  1  0.904900  0.753000  0.590030  1.0  -0.0678
  C  C370  1  0.900000  0.708100  0.430020  1.0  0.1088
  C  C371  1  0.774700  0.719200  0.475070  1.0  0.107
  C  C372  1  0.960500  0.621700  0.477560  1.0  0.1242
  C  C373  1  0.712800  0.610100  0.431550  1.0  0.0981
  C  C374  1  0.775600  0.524500  0.479300  1.0  0.1161
  C  C375  1  0.899200  0.512200  0.434480  1.0  0.1089
  C  C376  1  0.787700  0.508000  0.301790  1.0  0.0742
  C  C377  1  0.782400  0.704100  0.304980  1.0  0.1004
  C  C378  1  0.973400  0.610300  0.304370  1.0  0.0865
  C  C379  1  0.726600  0.615600  0.257830  1.0  0.0837
  C  C380  1  0.917100  0.522000  0.256900  1.0  0.0738
  C  C381  1  0.912400  0.717700  0.260410  1.0  0.0854
  C  C382  1  0.002800  0.617500  0.051640  1.0  0.6526
  C  C383  1  0.024900  0.655000  0.084470  1.0  -0.1482
  C  C384  1  0.980100  0.599900  0.109650  1.0  -0.0453
  C  C385  1  0.005300  0.631800  0.139580  1.0  -0.0532
  C  C386  1  0.078000  0.720300  0.144470  1.0  -0.1817
  C  C387  1  0.121600  0.780200  0.120040  1.0  -0.0597
  C  C388  1  0.095100  0.747000  0.090030  1.0  -0.0669
  C  C389  1  0.100000  0.791900  0.930020  1.0  0.1087
  C  C390  1  0.225300  0.780800  0.975070  1.0  0.1063
  C  C391  1  0.039500  0.878300  0.977560  1.0  0.1256
  C  C392  1  0.287200  0.889900  0.931550  1.0  0.0978
  C  C393  1  0.224400  0.975500  0.979300  1.0  0.1156
  C  C394  1  0.100800  0.987800  0.934480  1.0  0.1094
  C  C395  1  0.212300  0.992000  0.801790  1.0  0.0739
  C  C396  1  0.217600  0.795900  0.804980  1.0  0.1007
  C  C397  1  0.026600  0.889700  0.804370  1.0  0.087
  C  C398  1  0.273400  0.884400  0.757830  1.0  0.0829
  C  C399  1  0.082900  0.978000  0.756900  1.0  0.0749
  C  C400  1  0.087600  0.782300  0.760410  1.0  0.0853
  S  S401  1  0.612710  0.738500  0.183130  1.0  1.334
  S  S402  1  0.387290  0.761500  0.683130  1.0  1.3335
  S  S403  1  0.112710  0.261500  0.316870  1.0  1.3348
  S  S404  1  0.887290  0.238500  0.816870  1.0  1.3346
  S  S405  1  0.387290  0.261500  0.816870  1.0  1.3346
  S  S406  1  0.612710  0.238500  0.316870  1.0  1.3346
  S  S407  1  0.887290  0.738500  0.683130  1.0  1.3339
  S  S408  1  0.112710  0.761500  0.183130  1.0  1.3338
  N  N409  1  0.599700  0.717900  0.964030  1.0  -0.2844
  N  N410  1  0.661600  0.606900  0.919580  1.0  -0.1916
  N  N411  1  0.791200  0.619700  0.965780  1.0  -0.2963
  N  N412  1  0.600200  0.521100  0.968250  1.0  -0.3494
  N  N413  1  0.653000  0.605300  0.815980  1.0  -0.1547
  N  N414  1  0.715400  0.713700  0.770930  1.0  -0.2561
  N  N415  1  0.710600  0.515400  0.767340  1.0  -0.243
  N  N416  1  0.522100  0.618700  0.770290  1.0  -0.2424
  N  N417  1  0.400300  0.782100  0.464030  1.0  -0.2854
  N  N418  1  0.338400  0.893100  0.419580  1.0  -0.1917
  N  N419  1  0.208800  0.880300  0.465780  1.0  -0.2944
  N  N420  1  0.399800  0.978900  0.468250  1.0  -0.3492
  N  N421  1  0.347000  0.894700  0.315980  1.0  -0.1542
  N  N422  1  0.284600  0.786300  0.270930  1.0  -0.2551
  N  N423  1  0.289400  0.984600  0.267340  1.0  -0.2425
  N  N424  1  0.477900  0.881300  0.270290  1.0  -0.2412
  N  N425  1  0.099700  0.282100  0.535970  1.0  -0.2846
  N  N426  1  0.161600  0.393100  0.580420  1.0  -0.1926
  N  N427  1  0.291200  0.380300  0.534220  1.0  -0.2968
  N  N428  1  0.100200  0.478900  0.531750  1.0  -0.3481
  N  N429  1  0.153000  0.394700  0.684020  1.0  -0.1551
  N  N430  1  0.215400  0.286300  0.729070  1.0  -0.2551
  N  N431  1  0.210600  0.484600  0.732660  1.0  -0.2425
  N  N432  1  0.022100  0.381300  0.729710  1.0  -0.242
  N  N433  1  0.900300  0.217900  0.035970  1.0  -0.2848
  N  N434  1  0.838400  0.106900  0.080420  1.0  -0.1918
  N  N435  1  0.708800  0.119700  0.034220  1.0  -0.2957
  N  N436  1  0.899800  0.021100  0.031750  1.0  -0.3498
  N  N437  1  0.847000  0.105300  0.184020  1.0  -0.1549
  N  N438  1  0.784600  0.213700  0.229070  1.0  -0.2555
  N  N439  1  0.789400  0.015400  0.232660  1.0  -0.2413
  N  N440  1  0.977900  0.118700  0.229710  1.0  -0.2409
  N  N441  1  0.400300  0.282100  0.035970  1.0  -0.2851
  N  N442  1  0.338400  0.393100  0.080420  1.0  -0.1923
  N  N443  1  0.208800  0.380300  0.034220  1.0  -0.2958
  N  N444  1  0.399800  0.478900  0.031750  1.0  -0.3489
  N  N445  1  0.347000  0.394700  0.184020  1.0  -0.1548
  N  N446  1  0.284600  0.286300  0.229070  1.0  -0.2544
  N  N447  1  0.289400  0.484600  0.232660  1.0  -0.2422
  N  N448  1  0.477900  0.381300  0.229710  1.0  -0.2411
  N  N449  1  0.599700  0.217900  0.535970  1.0  -0.2847
  N  N450  1  0.661600  0.106900  0.580420  1.0  -0.192
  N  N451  1  0.791200  0.119700  0.534220  1.0  -0.2968
  N  N452  1  0.600200  0.021100  0.531750  1.0  -0.3496
  N  N453  1  0.653000  0.105300  0.684020  1.0  -0.1551
  N  N454  1  0.715400  0.213700  0.729070  1.0  -0.2555
  N  N455  1  0.710600  0.015400  0.732660  1.0  -0.2427
  N  N456  1  0.522100  0.118700  0.729710  1.0  -0.2417
  N  N457  1  0.900300  0.717900  0.464030  1.0  -0.2849
  N  N458  1  0.838400  0.606900  0.419580  1.0  -0.1916
  N  N459  1  0.708800  0.619700  0.465780  1.0  -0.2944
  N  N460  1  0.899800  0.521100  0.468250  1.0  -0.3501
  N  N461  1  0.847000  0.605300  0.315980  1.0  -0.1541
  N  N462  1  0.784600  0.713700  0.270930  1.0  -0.2559
  N  N463  1  0.789400  0.515400  0.267340  1.0  -0.2424
  N  N464  1  0.977900  0.618700  0.270290  1.0  -0.241
  N  N465  1  0.099700  0.782100  0.964030  1.0  -0.2841
  N  N466  1  0.161600  0.893100  0.919580  1.0  -0.1917
  N  N467  1  0.291200  0.880300  0.965780  1.0  -0.2963
  N  N468  1  0.100200  0.978900  0.968250  1.0  -0.3484
  N  N469  1  0.153000  0.894700  0.815980  1.0  -0.1547
  N  N470  1  0.215400  0.786300  0.770930  1.0  -0.2556
  N  N471  1  0.210600  0.984600  0.767340  1.0  -0.2428
  N  N472  1  0.022100  0.881300  0.770290  1.0  -0.2427
  O  O473  1  0.553100  0.831000  0.030140  1.0  -0.5945
  O  O474  1  0.438300  0.965900  0.048210  1.0  -0.6332
  O  O475  1  0.585800  0.831100  0.202820  1.0  -0.6713
  O  O476  1  0.739500  0.709800  0.183100  1.0  -0.6669
  O  O477  1  0.536900  0.645800  0.189690  1.0  -0.6834
  O  O478  1  0.446900  0.669000  0.530140  1.0  -0.594
  O  O479  1  0.561700  0.534100  0.548210  1.0  -0.6348
  O  O480  1  0.414200  0.668900  0.702820  1.0  -0.6715
  O  O481  1  0.260500  0.790200  0.683100  1.0  -0.6661
  O  O482  1  0.463100  0.854200  0.689690  1.0  -0.6832
  O  O483  1  0.053100  0.169000  0.469860  1.0  -0.5936
  O  O484  1  0.938300  0.034100  0.451790  1.0  -0.6346
  O  O485  1  0.085800  0.168900  0.297180  1.0  -0.6716
  O  O486  1  0.239500  0.290200  0.316900  1.0  -0.6662
  O  O487  1  0.036900  0.354200  0.310310  1.0  -0.6833
  O  O488  1  0.946900  0.331000  0.969860  1.0  -0.5943
  O  O489  1  0.061700  0.465900  0.951790  1.0  -0.6345
  O  O490  1  0.914200  0.331100  0.797180  1.0  -0.6712
  O  O491  1  0.760500  0.209800  0.816900  1.0  -0.6652
  O  O492  1  0.963100  0.145800  0.810310  1.0  -0.6838
  O  O493  1  0.446900  0.169000  0.969860  1.0  -0.5937
  O  O494  1  0.561700  0.034100  0.951790  1.0  -0.6352
  O  O495  1  0.414200  0.168900  0.797180  1.0  -0.6715
  O  O496  1  0.260500  0.290200  0.816900  1.0  -0.6658
  O  O497  1  0.463100  0.354200  0.810310  1.0  -0.6838
  O  O498  1  0.553100  0.331000  0.469860  1.0  -0.5941
  O  O499  1  0.438300  0.465900  0.451790  1.0  -0.634
  O  O500  1  0.585800  0.331100  0.297180  1.0  -0.6715
  O  O501  1  0.739500  0.209800  0.316900  1.0  -0.6657
  O  O502  1  0.536900  0.145800  0.310310  1.0  -0.6831
  O  O503  1  0.946900  0.831000  0.530140  1.0  -0.5947
  O  O504  1  0.061700  0.965900  0.548210  1.0  -0.6335
  O  O505  1  0.914200  0.831100  0.702820  1.0  -0.6712
  O  O506  1  0.760500  0.709800  0.683100  1.0  -0.6661
  O  O507  1  0.963100  0.645800  0.689690  1.0  -0.6833
  O  O508  1  0.053100  0.669000  0.030140  1.0  -0.5939
  O  O509  1  0.938300  0.534100  0.048210  1.0  -0.6344
  O  O510  1  0.085800  0.668900  0.202820  1.0  -0.6714
  O  O511  1  0.239500  0.790200  0.183100  1.0  -0.6668
  O  O512  1  0.036900  0.854200  0.189690  1.0  -0.6834
