# generated using pymatgen
data_Na5HoH4C12O13
_symmetry_space_group_name_H-M   'P 1'
_cell_length_a   16.69950000
_cell_length_b   16.71060000
_cell_length_c   9.79070000
_cell_angle_alpha   90.00000000
_cell_angle_beta   90.00000000
_cell_angle_gamma   90.00000000
_symmetry_Int_Tables_number   1
_chemical_formula_structural   Na5HoH4C12O13
_chemical_formula_sum   'Na20 Ho4 H16 C48 O52'
_cell_volume   2732.17966848
_cell_formula_units_Z   4
loop_
 _symmetry_equiv_pos_site_id
 _symmetry_equiv_pos_as_xyz
  1  'x, y, z'
loop_
 _atom_site_type_symbol
 _atom_site_label
 _atom_site_symmetry_multiplicity
 _atom_site_fract_x
 _atom_site_fract_y
 _atom_site_fract_z
 _atom_site_occupancy
 _atom_site_charge
  Na  Na1  1  0.861900  0.686500  0.828300  1.0  0.9271
  Na  Na2  1  0.361900  0.186500  0.328300  1.0  0.9271
  Na  Na3  1  0.138100  0.813500  0.828300  1.0  0.8846
  Na  Na4  1  0.638100  0.313500  0.328300  1.0  0.8846
  Na  Na5  1  0.138100  0.186500  0.171700  1.0  0.8886
  Na  Na6  1  0.638100  0.686500  0.671700  1.0  0.8886
  Na  Na7  1  0.861900  0.313500  0.171700  1.0  0.9274
  Na  Na8  1  0.361900  0.813500  0.671700  1.0  0.9274
  Na  Na9  1  0.138100  0.313500  0.171700  1.0  0.8868
  Na  Na10  1  0.638100  0.813500  0.671700  1.0  0.8868
  Na  Na11  1  0.861900  0.186500  0.171700  1.0  0.9297
  Na  Na12  1  0.361900  0.686500  0.671700  1.0  0.9297
  Na  Na13  1  0.861900  0.813500  0.828300  1.0  0.9253
  Na  Na14  1  0.361900  0.313500  0.328300  1.0  0.9253
  Na  Na15  1  0.138100  0.686500  0.828300  1.0  0.8862
  Na  Na16  1  0.638100  0.186500  0.328300  1.0  0.8862
  Na  Na17  1  0.000000  0.750000  0.507100  1.0  0.9771
  Na  Na18  1  0.500000  0.250000  0.007100  1.0  0.9771
  Na  Na19  1  0.000000  0.250000  0.492900  1.0  0.9766
  Na  Na20  1  0.500000  0.750000  0.992900  1.0  0.9766
  Ho  Ho21  1  0.000000  0.750000  0.119870  1.0  2.2024
  Ho  Ho22  1  0.500000  0.250000  0.619870  1.0  2.2024
  Ho  Ho23  1  0.000000  0.250000  0.880130  1.0  2.2025
  Ho  Ho24  1  0.500000  0.750000  0.380130  1.0  2.2025
  H  H25  1  0.209100  0.750000  0.483000  1.0  0.1357
  H  H26  1  0.709100  0.250000  0.983000  1.0  0.1357
  H  H27  1  0.790900  0.750000  0.483000  1.0  0.1356
  H  H28  1  0.290900  0.250000  0.983000  1.0  0.1356
  H  H29  1  0.790900  0.250000  0.517000  1.0  0.135
  H  H30  1  0.290900  0.750000  0.017000  1.0  0.135
  H  H31  1  0.209100  0.250000  0.517000  1.0  0.1349
  H  H32  1  0.709100  0.750000  0.017000  1.0  0.1349
  H  H33  1  0.000000  0.463400  0.232200  1.0  0.1405
  H  H34  1  0.500000  0.963400  0.732200  1.0  0.1405
  H  H35  1  0.000000  0.036600  0.232200  1.0  0.1403
  H  H36  1  0.500000  0.536600  0.732200  1.0  0.1403
  H  H37  1  0.000000  0.963400  0.767800  1.0  0.1407
  H  H38  1  0.500000  0.463400  0.267800  1.0  0.1407
  H  H39  1  0.000000  0.536600  0.767800  1.0  0.1406
  H  H40  1  0.500000  0.036600  0.267800  1.0  0.1406
  C  C41  1  0.167600  0.750000  0.287800  1.0  0.3376
  C  C42  1  0.192800  0.750000  0.142200  1.0  0.3027
  C  C43  1  0.225300  0.750000  0.390000  1.0  -0.1216
  C  C44  1  0.667600  0.250000  0.787800  1.0  0.3376
  C  C45  1  0.692800  0.250000  0.642200  1.0  0.3027
  C  C46  1  0.725300  0.250000  0.890000  1.0  -0.1216
  C  C47  1  0.832400  0.750000  0.287800  1.0  0.3381
  C  C48  1  0.807200  0.750000  0.142200  1.0  0.3035
  C  C49  1  0.774700  0.750000  0.390000  1.0  -0.1216
  C  C50  1  0.332400  0.250000  0.787800  1.0  0.3381
  C  C51  1  0.307200  0.250000  0.642200  1.0  0.3035
  C  C52  1  0.274700  0.250000  0.890000  1.0  -0.1216
  C  C53  1  0.832400  0.250000  0.712200  1.0  0.3374
  C  C54  1  0.807200  0.250000  0.857800  1.0  0.3038
  C  C55  1  0.774700  0.250000  0.610000  1.0  -0.1224
  C  C56  1  0.332400  0.750000  0.212200  1.0  0.3374
  C  C57  1  0.307200  0.750000  0.357800  1.0  0.3038
  C  C58  1  0.274700  0.750000  0.110000  1.0  -0.1224
  C  C59  1  0.167600  0.250000  0.712200  1.0  0.3369
  C  C60  1  0.192800  0.250000  0.857800  1.0  0.3027
  C  C61  1  0.225300  0.250000  0.610000  1.0  -0.1216
  C  C62  1  0.667600  0.750000  0.212200  1.0  0.3369
  C  C63  1  0.692800  0.750000  0.357800  1.0  0.3027
  C  C64  1  0.725300  0.750000  0.110000  1.0  -0.1216
  C  C65  1  0.000000  0.478000  0.138400  1.0  -0.1377
  C  C66  1  0.000000  0.583100  0.961100  1.0  0.3187
  C  C67  1  0.000000  0.558500  0.104600  1.0  0.2983
  C  C68  1  0.500000  0.978000  0.638400  1.0  -0.1377
  C  C69  1  0.500000  0.083100  0.461100  1.0  0.3187
  C  C70  1  0.500000  0.058500  0.604600  1.0  0.2983
  C  C71  1  0.000000  0.022000  0.138400  1.0  -0.1375
  C  C72  1  0.000000  0.916900  0.961100  1.0  0.3174
  C  C73  1  0.000000  0.941500  0.104600  1.0  0.2975
  C  C74  1  0.500000  0.522000  0.638400  1.0  -0.1375
  C  C75  1  0.500000  0.416900  0.461100  1.0  0.3174
  C  C76  1  0.500000  0.441500  0.604600  1.0  0.2975
  C  C77  1  0.000000  0.978000  0.861600  1.0  -0.1371
  C  C78  1  0.000000  0.083100  0.038900  1.0  0.3192
  C  C79  1  0.000000  0.058500  0.895400  1.0  0.3011
  C  C80  1  0.500000  0.478000  0.361600  1.0  -0.1371
  C  C81  1  0.500000  0.583100  0.538900  1.0  0.3192
  C  C82  1  0.500000  0.558500  0.395400  1.0  0.3011
  C  C83  1  0.000000  0.522000  0.861600  1.0  -0.1373
  C  C84  1  0.000000  0.416900  0.038900  1.0  0.318
  C  C85  1  0.000000  0.441500  0.895400  1.0  0.3006
  C  C86  1  0.500000  0.022000  0.361600  1.0  -0.1373
  C  C87  1  0.500000  0.916900  0.538900  1.0  0.318
  C  C88  1  0.500000  0.941500  0.395400  1.0  0.3006
  O  O89  1  0.925800  0.796000  0.701600  1.0  -0.8441
  O  O90  1  0.425800  0.296000  0.201600  1.0  -0.8441
  O  O91  1  0.074200  0.704000  0.701600  1.0  -0.8431
  O  O92  1  0.574200  0.204000  0.201600  1.0  -0.8431
  O  O93  1  0.074200  0.296000  0.298400  1.0  -0.8437
  O  O94  1  0.574200  0.796000  0.798400  1.0  -0.8437
  O  O95  1  0.925800  0.204000  0.298400  1.0  -0.8435
  O  O96  1  0.425800  0.704000  0.798400  1.0  -0.8435
  O  O97  1  0.074200  0.204000  0.298400  1.0  -0.8432
  O  O98  1  0.574200  0.704000  0.798400  1.0  -0.8432
  O  O99  1  0.925800  0.296000  0.298400  1.0  -0.844
  O  O100  1  0.425800  0.796000  0.798400  1.0  -0.844
  O  O101  1  0.925800  0.704000  0.701600  1.0  -0.8429
  O  O102  1  0.425800  0.204000  0.201600  1.0  -0.8429
  O  O103  1  0.074200  0.796000  0.701600  1.0  -0.8446
  O  O104  1  0.574200  0.296000  0.201600  1.0  -0.8446
  O  O105  1  0.090200  0.750000  0.310000  1.0  -0.6133
  O  O106  1  0.136000  0.750000  0.051300  1.0  -0.7191
  O  O107  1  0.590200  0.250000  0.810000  1.0  -0.6133
  O  O108  1  0.636000  0.250000  0.551300  1.0  -0.7191
  O  O109  1  0.909800  0.750000  0.310000  1.0  -0.6136
  O  O110  1  0.864000  0.750000  0.051300  1.0  -0.7195
  O  O111  1  0.409800  0.250000  0.810000  1.0  -0.6136
  O  O112  1  0.364000  0.250000  0.551300  1.0  -0.7195
  O  O113  1  0.909800  0.250000  0.690000  1.0  -0.6139
  O  O114  1  0.864000  0.250000  0.948700  1.0  -0.7199
  O  O115  1  0.409800  0.750000  0.190000  1.0  -0.6139
  O  O116  1  0.364000  0.750000  0.448700  1.0  -0.7199
  O  O117  1  0.090200  0.250000  0.690000  1.0  -0.6136
  O  O118  1  0.136000  0.250000  0.948700  1.0  -0.7196
  O  O119  1  0.590200  0.750000  0.190000  1.0  -0.6136
  O  O120  1  0.636000  0.750000  0.448700  1.0  -0.7196
  O  O121  1  0.000000  0.617000  0.195600  1.0  -0.5747
  O  O122  1  0.000000  0.660300  0.933600  1.0  -0.709
  O  O123  1  0.500000  0.117000  0.695600  1.0  -0.5747
  O  O124  1  0.500000  0.160300  0.433600  1.0  -0.709
  O  O125  1  0.000000  0.883000  0.195600  1.0  -0.5756
  O  O126  1  0.000000  0.839700  0.933600  1.0  -0.7121
  O  O127  1  0.500000  0.383000  0.695600  1.0  -0.5756
  O  O128  1  0.500000  0.339700  0.433600  1.0  -0.7121
  O  O129  1  0.000000  0.117000  0.804400  1.0  -0.5731
  O  O130  1  0.000000  0.160300  0.066400  1.0  -0.7093
  O  O131  1  0.500000  0.617000  0.304400  1.0  -0.5731
  O  O132  1  0.500000  0.660300  0.566400  1.0  -0.7093
  O  O133  1  0.000000  0.383000  0.804400  1.0  -0.5748
  O  O134  1  0.000000  0.339700  0.066400  1.0  -0.7122
  O  O135  1  0.500000  0.883000  0.304400  1.0  -0.5748
  O  O136  1  0.500000  0.839700  0.566400  1.0  -0.7122
  O  O137  1  0.750000  0.750000  0.750000  1.0  -0.746
  O  O138  1  0.250000  0.250000  0.250000  1.0  -0.746
  O  O139  1  0.250000  0.750000  0.750000  1.0  -0.746
  O  O140  1  0.750000  0.250000  0.250000  1.0  -0.746
