# generated using pymatgen
data_NpH4C8O5
_symmetry_space_group_name_H-M   'P 1'
_cell_length_a   12.15840000
_cell_length_b   12.15840000
_cell_length_c   17.80820000
_cell_angle_alpha   90.00000000
_cell_angle_beta   90.00000000
_cell_angle_gamma   90.00000000
_symmetry_Int_Tables_number   1
_chemical_formula_structural   NpH4C8O5
_chemical_formula_sum   'Np8 H32 C64 O40'
_cell_volume   2632.52727083
_cell_formula_units_Z   8
loop_
 _symmetry_equiv_pos_site_id
 _symmetry_equiv_pos_as_xyz
  1  'x, y, z'
loop_
 _atom_site_type_symbol
 _atom_site_label
 _atom_site_symmetry_multiplicity
 _atom_site_fract_x
 _atom_site_fract_y
 _atom_site_fract_z
 _atom_site_occupancy
 _atom_site_charge
  Np  Np1  1  0.396850  0.421420  0.221300  1.0  2.2048
  Np  Np2  1  0.103150  0.078580  0.221300  1.0  2.2038
  Np  Np3  1  0.578580  0.896850  0.721300  1.0  2.1844
  Np  Np4  1  0.921420  0.603150  0.721300  1.0  2.1907
  Np  Np5  1  0.603150  0.578580  0.778700  1.0  2.2018
  Np  Np6  1  0.896850  0.921420  0.778700  1.0  2.2027
  Np  Np7  1  0.421420  0.103150  0.278700  1.0  2.1902
  Np  Np8  1  0.078580  0.396850  0.278700  1.0  2.1839
  H  H9  1  0.470700  0.640800  0.988900  1.0  0.1044
  H  H10  1  0.408600  0.964300  0.958300  1.0  0.0995
  H  H11  1  0.348800  0.979000  0.082500  1.0  0.1062
  H  H12  1  0.347800  0.822800  0.159700  1.0  0.1007
  H  H13  1  0.029300  0.859200  0.988900  1.0  0.1049
  H  H14  1  0.091400  0.535700  0.958300  1.0  0.0988
  H  H15  1  0.151200  0.521000  0.082500  1.0  0.1064
  H  H16  1  0.152200  0.677200  0.159700  1.0  0.1008
  H  H17  1  0.359200  0.970700  0.488900  1.0  0.1046
  H  H18  1  0.035700  0.908600  0.458300  1.0  0.0987
  H  H19  1  0.021000  0.848800  0.582500  1.0  0.1054
  H  H20  1  0.177200  0.847800  0.659700  1.0  0.1001
  H  H21  1  0.140800  0.529300  0.488900  1.0  0.1037
  H  H22  1  0.464300  0.591400  0.458300  1.0  0.0984
  H  H23  1  0.479000  0.651200  0.582500  1.0  0.1053
  H  H24  1  0.322800  0.652200  0.659700  1.0  0.1003
  H  H25  1  0.529300  0.359200  0.011100  1.0  0.1042
  H  H26  1  0.591400  0.035700  0.041700  1.0  0.0992
  H  H27  1  0.651200  0.021000  0.917500  1.0  0.1046
  H  H28  1  0.652200  0.177200  0.840300  1.0  0.1002
  H  H29  1  0.970700  0.140800  0.011100  1.0  0.1043
  H  H30  1  0.908600  0.464300  0.041700  1.0  0.0996
  H  H31  1  0.848800  0.479000  0.917500  1.0  0.1046
  H  H32  1  0.847800  0.322800  0.840300  1.0  0.1005
  H  H33  1  0.640800  0.029300  0.511100  1.0  0.1036
  H  H34  1  0.964300  0.091400  0.541700  1.0  0.0986
  H  H35  1  0.979000  0.151200  0.417500  1.0  0.1038
  H  H36  1  0.822800  0.152200  0.340300  1.0  0.0997
  H  H37  1  0.859200  0.470700  0.511100  1.0  0.1041
  H  H38  1  0.535700  0.408600  0.541700  1.0  0.099
  H  H39  1  0.521000  0.348800  0.417500  1.0  0.1032
  H  H40  1  0.677200  0.347800  0.340300  1.0  0.0998
  C  C41  1  0.399000  0.615200  0.128400  1.0  0.6806
  C  C42  1  0.405200  0.716400  0.081100  1.0  -0.1513
  C  C43  1  0.445900  0.709500  0.007800  1.0  -0.0116
  C  C44  1  0.450300  0.801800  0.962900  1.0  -0.1423
  C  C45  1  0.410300  0.901700  0.990200  1.0  -0.0552
  C  C46  1  0.373100  0.910200  0.063400  1.0  -0.1086
  C  C47  1  0.371800  0.817100  0.109100  1.0  -0.0505
  C  C48  1  0.502100  0.795100  0.886400  1.0  0.7215
  C  C49  1  0.101000  0.884800  0.128400  1.0  0.6798
  C  C50  1  0.094800  0.783600  0.081100  1.0  -0.153
  C  C51  1  0.054100  0.790500  0.007800  1.0  -0.011
  C  C52  1  0.049700  0.698200  0.962900  1.0  -0.142
  C  C53  1  0.089700  0.598300  0.990200  1.0  -0.055
  C  C54  1  0.126900  0.589800  0.063400  1.0  -0.1103
  C  C55  1  0.128200  0.682900  0.109100  1.0  -0.05
  C  C56  1  0.997900  0.704900  0.886400  1.0  0.723
  C  C57  1  0.384800  0.899000  0.628400  1.0  0.6769
  C  C58  1  0.283600  0.905200  0.581100  1.0  -0.1521
  C  C59  1  0.290500  0.945900  0.507800  1.0  -0.0108
  C  C60  1  0.198200  0.950300  0.462900  1.0  -0.1416
  C  C61  1  0.098300  0.910300  0.490200  1.0  -0.0557
  C  C62  1  0.089800  0.873100  0.563400  1.0  -0.1119
  C  C63  1  0.182900  0.871800  0.609100  1.0  -0.0502
  C  C64  1  0.204900  0.002100  0.386400  1.0  0.7221
  C  C65  1  0.115200  0.601000  0.628400  1.0  0.6759
  C  C66  1  0.216400  0.594800  0.581100  1.0  -0.1532
  C  C67  1  0.209500  0.554100  0.507800  1.0  -0.0113
  C  C68  1  0.301800  0.549700  0.462900  1.0  -0.1416
  C  C69  1  0.401700  0.589700  0.490200  1.0  -0.0571
  C  C70  1  0.410200  0.626900  0.563400  1.0  -0.1106
  C  C71  1  0.317100  0.628200  0.609100  1.0  -0.0497
  C  C72  1  0.295100  0.497900  0.386400  1.0  0.7215
  C  C73  1  0.601000  0.384800  0.871600  1.0  0.6806
  C  C74  1  0.594800  0.283600  0.918900  1.0  -0.1535
  C  C75  1  0.554100  0.290500  0.992200  1.0  -0.0114
  C  C76  1  0.549700  0.198200  0.037100  1.0  -0.1416
  C  C77  1  0.589700  0.098300  0.009800  1.0  -0.0558
  C  C78  1  0.626900  0.089800  0.936600  1.0  -0.1102
  C  C79  1  0.628200  0.182900  0.890900  1.0  -0.0495
  C  C80  1  0.497900  0.204900  0.113600  1.0  0.72
  C  C81  1  0.899000  0.115200  0.871600  1.0  0.6797
  C  C82  1  0.905200  0.216400  0.918900  1.0  -0.1518
  C  C83  1  0.945900  0.209500  0.992200  1.0  -0.0124
  C  C84  1  0.950300  0.301800  0.037100  1.0  -0.142
  C  C85  1  0.910300  0.401700  0.009800  1.0  -0.0548
  C  C86  1  0.873100  0.410200  0.936600  1.0  -0.1089
  C  C87  1  0.871800  0.317100  0.890900  1.0  -0.0495
  C  C88  1  0.002100  0.295100  0.113600  1.0  0.7196
  C  C89  1  0.615200  0.101000  0.371600  1.0  0.677
  C  C90  1  0.716400  0.094800  0.418900  1.0  -0.154
  C  C91  1  0.709500  0.054100  0.492200  1.0  -0.0119
  C  C92  1  0.801800  0.049700  0.537100  1.0  -0.1409
  C  C93  1  0.901700  0.089700  0.509800  1.0  -0.0566
  C  C94  1  0.910200  0.126900  0.436600  1.0  -0.1106
  C  C95  1  0.817100  0.128200  0.390900  1.0  -0.0497
  C  C96  1  0.795100  0.997900  0.613600  1.0  0.7186
  C  C97  1  0.884800  0.399000  0.371600  1.0  0.6762
  C  C98  1  0.783600  0.405200  0.418900  1.0  -0.1522
  C  C99  1  0.790500  0.445900  0.492200  1.0  -0.0114
  C  C100  1  0.698200  0.450300  0.537100  1.0  -0.1413
  C  C101  1  0.598300  0.410300  0.509800  1.0  -0.0556
  C  C102  1  0.589800  0.373100  0.436600  1.0  -0.1119
  C  C103  1  0.682900  0.371800  0.390900  1.0  -0.0488
  C  C104  1  0.704900  0.502100  0.613600  1.0  0.7201
  O  O105  1  0.246300  0.402800  0.204800  1.0  -0.7278
  O  O106  1  0.414000  0.521800  0.098700  1.0  -0.6888
  O  O107  1  0.378800  0.623600  0.197300  1.0  -0.6853
  O  O108  1  0.488500  0.873800  0.841800  1.0  -0.6523
  O  O109  1  0.558700  0.711200  0.872100  1.0  -0.7304
  O  O110  1  0.253700  0.097200  0.204800  1.0  -0.7279
  O  O111  1  0.086000  0.978200  0.098700  1.0  -0.6902
  O  O112  1  0.121200  0.876400  0.197300  1.0  -0.6836
  O  O113  1  0.011500  0.626200  0.841800  1.0  -0.6522
  O  O114  1  0.941300  0.788800  0.872100  1.0  -0.7309
  O  O115  1  0.597200  0.746300  0.704800  1.0  -0.7278
  O  O116  1  0.478200  0.914000  0.598700  1.0  -0.69
  O  O117  1  0.376400  0.878800  0.697300  1.0  -0.6808
  O  O118  1  0.126200  0.988500  0.341800  1.0  -0.6511
  O  O119  1  0.288800  0.058700  0.372100  1.0  -0.7328
  O  O120  1  0.902800  0.753700  0.704800  1.0  -0.7278
  O  O121  1  0.021800  0.586000  0.598700  1.0  -0.6887
  O  O122  1  0.123600  0.621200  0.697300  1.0  -0.6802
  O  O123  1  0.373800  0.511500  0.341800  1.0  -0.6508
  O  O124  1  0.211200  0.441300  0.372100  1.0  -0.7319
  O  O125  1  0.753700  0.597200  0.795200  1.0  -0.7282
  O  O126  1  0.586000  0.478200  0.901300  1.0  -0.6892
  O  O127  1  0.621200  0.376400  0.802700  1.0  -0.6832
  O  O128  1  0.511500  0.126200  0.158200  1.0  -0.6514
  O  O129  1  0.441300  0.288800  0.127900  1.0  -0.7309
  O  O130  1  0.746300  0.902800  0.795200  1.0  -0.7281
  O  O131  1  0.914000  0.021800  0.901300  1.0  -0.6875
  O  O132  1  0.878800  0.123600  0.802700  1.0  -0.6826
  O  O133  1  0.988500  0.373800  0.158200  1.0  -0.6518
  O  O134  1  0.058700  0.211200  0.127900  1.0  -0.7307
  O  O135  1  0.402800  0.253700  0.295200  1.0  -0.728
  O  O136  1  0.521800  0.086000  0.401300  1.0  -0.6876
  O  O137  1  0.623600  0.121200  0.302700  1.0  -0.6788
  O  O138  1  0.873800  0.011500  0.658200  1.0  -0.6501
  O  O139  1  0.711200  0.941300  0.627900  1.0  -0.7319
  O  O140  1  0.097200  0.246300  0.295200  1.0  -0.7279
  O  O141  1  0.978200  0.414000  0.401300  1.0  -0.6891
  O  O142  1  0.876400  0.378800  0.302700  1.0  -0.6786
  O  O143  1  0.626200  0.488500  0.658200  1.0  -0.6501
  O  O144  1  0.788800  0.558700  0.627900  1.0  -0.7329
