# generated using pymatgen
data_CuH11(C4O)4
_symmetry_space_group_name_H-M   'P 1'
_cell_length_a   18.75700000
_cell_length_b   18.75700000
_cell_length_c   36.09200000
_cell_angle_alpha   90.00000000
_cell_angle_beta   90.00000000
_cell_angle_gamma   90.00000000
_symmetry_Int_Tables_number   1
_chemical_formula_structural   CuH11(C4O)4
_chemical_formula_sum   'Cu16 H176 C256 O64'
_cell_volume   12698.06966851
_cell_formula_units_Z   16
loop_
 _symmetry_equiv_pos_site_id
 _symmetry_equiv_pos_as_xyz
  1  'x, y, z'
loop_
 _atom_site_type_symbol
 _atom_site_label
 _atom_site_symmetry_multiplicity
 _atom_site_fract_x
 _atom_site_fract_y
 _atom_site_fract_z
 _atom_site_occupancy
 _atom_site_charge
  Cu  Cu1  1  0.201370  0.798630  0.226370  1.0  0.9136
  Cu  Cu2  1  0.265780  0.734220  0.282790  1.0  0.8929
  Cu  Cu3  1  0.798630  0.201370  0.226370  1.0  0.9118
  Cu  Cu4  1  0.734220  0.265780  0.282790  1.0  0.8935
  Cu  Cu5  1  0.701370  0.701370  0.726370  1.0  0.913
  Cu  Cu6  1  0.765780  0.765780  0.782790  1.0  0.8932
  Cu  Cu7  1  0.298630  0.298630  0.726370  1.0  0.9123
  Cu  Cu8  1  0.234220  0.234220  0.782790  1.0  0.8931
  Cu  Cu9  1  0.298630  0.298630  0.273630  1.0  0.9135
  Cu  Cu10  1  0.234220  0.234220  0.217210  1.0  0.8934
  Cu  Cu11  1  0.701370  0.701370  0.273630  1.0  0.9125
  Cu  Cu12  1  0.765780  0.765780  0.217210  1.0  0.8922
  Cu  Cu13  1  0.798630  0.201370  0.773630  1.0  0.9132
  Cu  Cu14  1  0.734220  0.265780  0.717210  1.0  0.8936
  Cu  Cu15  1  0.201370  0.798630  0.773630  1.0  0.9126
  Cu  Cu16  1  0.265780  0.734220  0.717210  1.0  0.8919
  H  H17  1  0.484900  0.758000  0.242600  1.0  0.1222
  H  H18  1  0.369600  0.793000  0.149400  1.0  0.1216
  H  H19  1  0.584000  0.769300  0.142900  1.0  0.1218
  H  H20  1  0.456900  0.891200  0.028300  1.0  0.1109
  H  H21  1  0.478200  0.676200  0.026500  1.0  0.1143
  H  H22  1  0.448900  0.910900  0.127300  1.0  0.1115
  H  H23  1  0.396700  0.932600  0.094100  1.0  0.1308
  H  H24  1  0.478700  0.955800  0.092900  1.0  0.0951
  H  H25  1  0.501000  0.611100  0.081200  1.0  0.1352
  H  H26  1  0.463800  0.640100  0.118200  1.0  0.1431
  H  H27  1  0.545900  0.657600  0.110200  1.0  0.1294
  H  H28  1  0.515100  0.242000  0.242600  1.0  0.1217
  H  H29  1  0.630400  0.207000  0.149400  1.0  0.1215
  H  H30  1  0.416000  0.230700  0.142900  1.0  0.1223
  H  H31  1  0.543100  0.108800  0.028300  1.0  0.1102
  H  H32  1  0.521800  0.323800  0.026500  1.0  0.1149
  H  H33  1  0.551100  0.089100  0.127300  1.0  0.1123
  H  H34  1  0.603300  0.067400  0.094100  1.0  0.1293
  H  H35  1  0.521300  0.044200  0.092900  1.0  0.0955
  H  H36  1  0.499000  0.388900  0.081200  1.0  0.1369
  H  H37  1  0.536200  0.359900  0.118200  1.0  0.1426
  H  H38  1  0.454100  0.342400  0.110200  1.0  0.1293
  H  H39  1  0.742000  0.984900  0.742600  1.0  0.1218
  H  H40  1  0.707000  0.869600  0.649400  1.0  0.1222
  H  H41  1  0.730700  0.084000  0.642900  1.0  0.1232
  H  H42  1  0.608800  0.956900  0.528300  1.0  0.1101
  H  H43  1  0.823800  0.978200  0.526500  1.0  0.1126
  H  H44  1  0.589100  0.948900  0.627300  1.0  0.1129
  H  H45  1  0.567400  0.896700  0.594100  1.0  0.1309
  H  H46  1  0.544200  0.978700  0.592900  1.0  0.0961
  H  H47  1  0.888900  0.001000  0.581200  1.0  0.1354
  H  H48  1  0.859900  0.963800  0.618200  1.0  0.1432
  H  H49  1  0.842400  0.045900  0.610200  1.0  0.1272
  H  H50  1  0.258000  0.015100  0.742600  1.0  0.1219
  H  H51  1  0.293000  0.130400  0.649400  1.0  0.1219
  H  H52  1  0.269300  0.916000  0.642900  1.0  0.1226
  H  H53  1  0.391200  0.043100  0.528300  1.0  0.1104
  H  H54  1  0.176200  0.021800  0.526500  1.0  0.112
  H  H55  1  0.410900  0.051100  0.627300  1.0  0.1129
  H  H56  1  0.432600  0.103300  0.594100  1.0  0.1312
  H  H57  1  0.455800  0.021300  0.592900  1.0  0.0954
  H  H58  1  0.111100  0.999000  0.581200  1.0  0.1345
  H  H59  1  0.140100  0.036200  0.618200  1.0  0.1424
  H  H60  1  0.157600  0.954100  0.610200  1.0  0.1273
  H  H61  1  0.015100  0.258000  0.257400  1.0  0.1212
  H  H62  1  0.130400  0.293000  0.350600  1.0  0.1214
  H  H63  1  0.916000  0.269300  0.357100  1.0  0.1214
  H  H64  1  0.043100  0.391200  0.471700  1.0  0.1107
  H  H65  1  0.021800  0.176200  0.473500  1.0  0.1151
  H  H66  1  0.051100  0.410900  0.372700  1.0  0.1124
  H  H67  1  0.103300  0.432600  0.405900  1.0  0.1287
  H  H68  1  0.021300  0.455800  0.407100  1.0  0.0963
  H  H69  1  0.999000  0.111100  0.418800  1.0  0.1377
  H  H70  1  0.036200  0.140100  0.381800  1.0  0.1424
  H  H71  1  0.954100  0.157600  0.389800  1.0  0.1286
  H  H72  1  0.984900  0.742000  0.257400  1.0  0.1213
  H  H73  1  0.869600  0.707000  0.350600  1.0  0.1214
  H  H74  1  0.084000  0.730700  0.357100  1.0  0.1216
  H  H75  1  0.956900  0.608800  0.471700  1.0  0.1114
  H  H76  1  0.978200  0.823800  0.473500  1.0  0.1146
  H  H77  1  0.948900  0.589100  0.372700  1.0  0.113
  H  H78  1  0.896700  0.567400  0.405900  1.0  0.1275
  H  H79  1  0.978700  0.544200  0.407100  1.0  0.0947
  H  H80  1  0.001000  0.888900  0.418800  1.0  0.1367
  H  H81  1  0.963800  0.859900  0.381800  1.0  0.1424
  H  H82  1  0.045900  0.842400  0.389800  1.0  0.13
  H  H83  1  0.758000  0.484900  0.757400  1.0  0.1212
  H  H84  1  0.793000  0.369600  0.850600  1.0  0.1223
  H  H85  1  0.769300  0.584000  0.857100  1.0  0.1227
  H  H86  1  0.891200  0.456900  0.971700  1.0  0.1106
  H  H87  1  0.676200  0.478200  0.973500  1.0  0.1126
  H  H88  1  0.910900  0.448900  0.872700  1.0  0.115
  H  H89  1  0.932600  0.396700  0.905900  1.0  0.1328
  H  H90  1  0.955800  0.478700  0.907100  1.0  0.0958
  H  H91  1  0.611100  0.501000  0.918800  1.0  0.1355
  H  H92  1  0.640100  0.463800  0.881800  1.0  0.1425
  H  H93  1  0.657600  0.545900  0.889800  1.0  0.1277
  H  H94  1  0.242000  0.515100  0.757400  1.0  0.121
  H  H95  1  0.207000  0.630400  0.850600  1.0  0.1217
  H  H96  1  0.230700  0.416000  0.857100  1.0  0.1217
  H  H97  1  0.108800  0.543100  0.971700  1.0  0.1107
  H  H98  1  0.323800  0.521800  0.973500  1.0  0.1131
  H  H99  1  0.089100  0.551100  0.872700  1.0  0.1135
  H  H100  1  0.067400  0.603300  0.905900  1.0  0.1328
  H  H101  1  0.044200  0.521300  0.907100  1.0  0.0947
  H  H102  1  0.388900  0.499000  0.918800  1.0  0.1366
  H  H103  1  0.359900  0.536200  0.881800  1.0  0.142
  H  H104  1  0.342400  0.454100  0.889800  1.0  0.127
  H  H105  1  0.515100  0.242000  0.757400  1.0  0.1213
  H  H106  1  0.630400  0.207000  0.850600  1.0  0.1214
  H  H107  1  0.416000  0.230700  0.857100  1.0  0.1217
  H  H108  1  0.543100  0.108800  0.971700  1.0  0.1109
  H  H109  1  0.521800  0.323800  0.973500  1.0  0.1159
  H  H110  1  0.551100  0.089100  0.872700  1.0  0.1132
  H  H111  1  0.603300  0.067400  0.905900  1.0  0.1292
  H  H112  1  0.521300  0.044200  0.907100  1.0  0.0953
  H  H113  1  0.499000  0.388900  0.918800  1.0  0.1372
  H  H114  1  0.536200  0.359900  0.881800  1.0  0.1423
  H  H115  1  0.454100  0.342400  0.889800  1.0  0.1294
  H  H116  1  0.484900  0.758000  0.757400  1.0  0.1211
  H  H117  1  0.369600  0.793000  0.850600  1.0  0.1213
  H  H118  1  0.584000  0.769300  0.857100  1.0  0.121
  H  H119  1  0.456900  0.891200  0.971700  1.0  0.111
  H  H120  1  0.478200  0.676200  0.973500  1.0  0.1153
  H  H121  1  0.448900  0.910900  0.872700  1.0  0.1122
  H  H122  1  0.396700  0.932600  0.905900  1.0  0.1294
  H  H123  1  0.478700  0.955800  0.907100  1.0  0.0956
  H  H124  1  0.501000  0.611100  0.918800  1.0  0.1373
  H  H125  1  0.463800  0.640100  0.881800  1.0  0.1425
  H  H126  1  0.545900  0.657600  0.889800  1.0  0.1295
  H  H127  1  0.258000  0.015100  0.257400  1.0  0.1211
  H  H128  1  0.293000  0.130400  0.350600  1.0  0.1219
  H  H129  1  0.269300  0.916000  0.357100  1.0  0.1222
  H  H130  1  0.391200  0.043100  0.471700  1.0  0.1107
  H  H131  1  0.176200  0.021800  0.473500  1.0  0.1133
  H  H132  1  0.410900  0.051100  0.372700  1.0  0.1151
  H  H133  1  0.432600  0.103300  0.405900  1.0  0.1316
  H  H134  1  0.455800  0.021300  0.407100  1.0  0.0956
  H  H135  1  0.111100  0.999000  0.418800  1.0  0.1358
  H  H136  1  0.140100  0.036200  0.381800  1.0  0.1423
  H  H137  1  0.157600  0.954100  0.389800  1.0  0.1272
  H  H138  1  0.742000  0.984900  0.257400  1.0  0.1211
  H  H139  1  0.707000  0.869600  0.350600  1.0  0.122
  H  H140  1  0.730700  0.084000  0.357100  1.0  0.1225
  H  H141  1  0.608800  0.956900  0.471700  1.0  0.1107
  H  H142  1  0.823800  0.978200  0.473500  1.0  0.1137
  H  H143  1  0.589100  0.948900  0.372700  1.0  0.1132
  H  H144  1  0.567400  0.896700  0.405900  1.0  0.1296
  H  H145  1  0.544200  0.978700  0.407100  1.0  0.096
  H  H146  1  0.888900  0.001000  0.418800  1.0  0.1363
  H  H147  1  0.859900  0.963800  0.381800  1.0  0.1426
  H  H148  1  0.842400  0.045900  0.389800  1.0  0.1276
  H  H149  1  0.984900  0.742000  0.742600  1.0  0.122
  H  H150  1  0.869600  0.707000  0.649400  1.0  0.1213
  H  H151  1  0.084000  0.730700  0.642900  1.0  0.122
  H  H152  1  0.956900  0.608800  0.528300  1.0  0.1109
  H  H153  1  0.978200  0.823800  0.526500  1.0  0.1153
  H  H154  1  0.948900  0.589100  0.627300  1.0  0.1122
  H  H155  1  0.896700  0.567400  0.594100  1.0  0.129
  H  H156  1  0.978700  0.544200  0.592900  1.0  0.0946
  H  H157  1  0.001000  0.888900  0.581200  1.0  0.1362
  H  H158  1  0.963800  0.859900  0.618200  1.0  0.1428
  H  H159  1  0.045900  0.842400  0.610200  1.0  0.1298
  H  H160  1  0.015100  0.258000  0.742600  1.0  0.1218
  H  H161  1  0.130400  0.293000  0.649400  1.0  0.1217
  H  H162  1  0.916000  0.269300  0.642900  1.0  0.1224
  H  H163  1  0.043100  0.391200  0.528300  1.0  0.1103
  H  H164  1  0.021800  0.176200  0.526500  1.0  0.1154
  H  H165  1  0.051100  0.410900  0.627300  1.0  0.1114
  H  H166  1  0.103300  0.432600  0.594100  1.0  0.1288
  H  H167  1  0.021300  0.455800  0.592900  1.0  0.0965
  H  H168  1  0.999000  0.111100  0.581200  1.0  0.1359
  H  H169  1  0.036200  0.140100  0.618200  1.0  0.1431
  H  H170  1  0.954100  0.157600  0.610200  1.0  0.129
  H  H171  1  0.242000  0.515100  0.242600  1.0  0.1221
  H  H172  1  0.207000  0.630400  0.149400  1.0  0.122
  H  H173  1  0.230700  0.416000  0.142900  1.0  0.1217
  H  H174  1  0.108800  0.543100  0.028300  1.0  0.1107
  H  H175  1  0.323800  0.521800  0.026500  1.0  0.1133
  H  H176  1  0.089100  0.551100  0.127300  1.0  0.113
  H  H177  1  0.067400  0.603300  0.094100  1.0  0.134
  H  H178  1  0.044200  0.521300  0.092900  1.0  0.0946
  H  H179  1  0.388900  0.499000  0.081200  1.0  0.1349
  H  H180  1  0.359900  0.536200  0.118200  1.0  0.1421
  H  H181  1  0.342400  0.454100  0.110200  1.0  0.1271
  H  H182  1  0.758000  0.484900  0.242600  1.0  0.1216
  H  H183  1  0.793000  0.369600  0.149400  1.0  0.1225
  H  H184  1  0.769300  0.584000  0.142900  1.0  0.1235
  H  H185  1  0.891200  0.456900  0.028300  1.0  0.1099
  H  H186  1  0.676200  0.478200  0.026500  1.0  0.1132
  H  H187  1  0.910900  0.448900  0.127300  1.0  0.113
  H  H188  1  0.932600  0.396700  0.094100  1.0  0.1325
  H  H189  1  0.955800  0.478700  0.092900  1.0  0.0958
  H  H190  1  0.611100  0.501000  0.081200  1.0  0.1351
  H  H191  1  0.640100  0.463800  0.118200  1.0  0.1432
  H  H192  1  0.657600  0.545900  0.110200  1.0  0.1273
  C  C193  1  0.482730  0.764270  0.216480  1.0  0.0048
  C  C194  1  0.417420  0.775880  0.199310  1.0  -0.1481
  C  C195  1  0.414190  0.785020  0.161130  1.0  -0.0742
  C  C196  1  0.476250  0.782550  0.140120  1.0  0.0747
  C  C197  1  0.541550  0.770940  0.157300  1.0  -0.0721
  C  C198  1  0.544790  0.761800  0.195480  1.0  -0.1353
  C  C199  1  0.350350  0.778480  0.221160  1.0  0.6784
  C  C200  1  0.615170  0.752150  0.213570  1.0  0.6905
  C  C201  1  0.472100  0.782010  0.098290  1.0  -0.0141
  C  C202  1  0.464600  0.846330  0.079570  1.0  0.0361
  C  C203  1  0.462100  0.847240  0.041080  1.0  -0.1161
  C  C204  1  0.467100  0.783800  0.021320  1.0  -0.0357
  C  C205  1  0.474700  0.719530  0.040040  1.0  -0.1486
  C  C206  1  0.477200  0.718610  0.078530  1.0  0.0744
  C  C207  1  0.445400  0.918300  0.100450  1.0  -0.3511
  C  C208  1  0.498900  0.650800  0.098840  1.0  -0.4038
  C  C209  1  0.517270  0.235730  0.216480  1.0  0.0046
  C  C210  1  0.582580  0.224120  0.199310  1.0  -0.1486
  C  C211  1  0.585810  0.214980  0.161130  1.0  -0.0744
  C  C212  1  0.523750  0.217450  0.140120  1.0  0.0744
  C  C213  1  0.458450  0.229060  0.157300  1.0  -0.0726
  C  C214  1  0.455210  0.238200  0.195480  1.0  -0.1342
  C  C215  1  0.649650  0.221520  0.221160  1.0  0.6789
  C  C216  1  0.384830  0.247850  0.213570  1.0  0.6906
  C  C217  1  0.527900  0.217990  0.098290  1.0  -0.0144
  C  C218  1  0.535400  0.153670  0.079570  1.0  0.0354
  C  C219  1  0.537900  0.152760  0.041080  1.0  -0.1167
  C  C220  1  0.532900  0.216200  0.021320  1.0  -0.0354
  C  C221  1  0.525300  0.280470  0.040040  1.0  -0.148
  C  C222  1  0.522800  0.281390  0.078530  1.0  0.0738
  C  C223  1  0.554600  0.081700  0.100450  1.0  -0.3538
  C  C224  1  0.501100  0.349200  0.098840  1.0  -0.4035
  C  C225  1  0.735730  0.982730  0.716480  1.0  0.0046
  C  C226  1  0.724120  0.917420  0.699310  1.0  -0.1491
  C  C227  1  0.714980  0.914190  0.661130  1.0  -0.0769
  C  C228  1  0.717450  0.976250  0.640120  1.0  0.0737
  C  C229  1  0.729060  0.041550  0.657300  1.0  -0.0728
  C  C230  1  0.738200  0.044790  0.695480  1.0  -0.1335
  C  C231  1  0.721520  0.850350  0.721160  1.0  0.6787
  C  C232  1  0.747850  0.115170  0.713570  1.0  0.6906
  C  C233  1  0.717990  0.972100  0.598290  1.0  -0.0164
  C  C234  1  0.653670  0.964600  0.579570  1.0  0.0357
  C  C235  1  0.652760  0.962100  0.541080  1.0  -0.1189
  C  C236  1  0.716200  0.967100  0.521320  1.0  -0.0359
  C  C237  1  0.780470  0.974700  0.540040  1.0  -0.1517
  C  C238  1  0.781390  0.977200  0.578530  1.0  0.0704
  C  C239  1  0.581700  0.945400  0.600450  1.0  -0.352
  C  C240  1  0.849200  0.998900  0.598840  1.0  -0.4037
  C  C241  1  0.264270  0.017270  0.716480  1.0  0.0043
  C  C242  1  0.275880  0.082580  0.699310  1.0  -0.15
  C  C243  1  0.285020  0.085810  0.661130  1.0  -0.0763
  C  C244  1  0.282550  0.023750  0.640120  1.0  0.0742
  C  C245  1  0.270940  0.958450  0.657300  1.0  -0.0738
  C  C246  1  0.261800  0.955210  0.695480  1.0  -0.1338
  C  C247  1  0.278480  0.149650  0.721160  1.0  0.6793
  C  C248  1  0.252150  0.884830  0.713570  1.0  0.6907
  C  C249  1  0.282010  0.027900  0.598290  1.0  -0.0159
  C  C250  1  0.346330  0.035400  0.579570  1.0  0.0343
  C  C251  1  0.347240  0.037900  0.541080  1.0  -0.1178
  C  C252  1  0.283800  0.032900  0.521320  1.0  -0.036
  C  C253  1  0.219530  0.025300  0.540040  1.0  -0.1532
  C  C254  1  0.218610  0.022800  0.578530  1.0  0.0705
  C  C255  1  0.418300  0.054600  0.600450  1.0  -0.3539
  C  C256  1  0.150800  0.001100  0.598840  1.0  -0.4019
  C  C257  1  0.017270  0.264270  0.283520  1.0  0.0058
  C  C258  1  0.082580  0.275880  0.300690  1.0  -0.1479
  C  C259  1  0.085810  0.285020  0.338870  1.0  -0.0746
  C  C260  1  0.023750  0.282550  0.359880  1.0  0.0756
  C  C261  1  0.958450  0.270940  0.342700  1.0  -0.0724
  C  C262  1  0.955210  0.261800  0.304520  1.0  -0.1342
  C  C263  1  0.149650  0.278480  0.278840  1.0  0.6791
  C  C264  1  0.884830  0.252150  0.286430  1.0  0.69
  C  C265  1  0.027900  0.282010  0.401710  1.0  -0.0146
  C  C266  1  0.035400  0.346330  0.420430  1.0  0.0355
  C  C267  1  0.037900  0.347240  0.458920  1.0  -0.1171
  C  C268  1  0.032900  0.283800  0.478680  1.0  -0.0356
  C  C269  1  0.025300  0.219530  0.459960  1.0  -0.1481
  C  C270  1  0.022800  0.218610  0.421470  1.0  0.0756
  C  C271  1  0.054600  0.418300  0.399550  1.0  -0.3532
  C  C272  1  0.001100  0.150800  0.401160  1.0  -0.4041
  C  C273  1  0.982730  0.735730  0.283520  1.0  0.0058
  C  C274  1  0.917420  0.724120  0.300690  1.0  -0.1482
  C  C275  1  0.914190  0.714980  0.338870  1.0  -0.0742
  C  C276  1  0.976250  0.717450  0.359880  1.0  0.0758
  C  C277  1  0.041550  0.729060  0.342700  1.0  -0.072
  C  C278  1  0.044790  0.738200  0.304520  1.0  -0.1351
  C  C279  1  0.850350  0.721520  0.278840  1.0  0.6782
  C  C280  1  0.115170  0.747850  0.286430  1.0  0.6899
  C  C281  1  0.972100  0.717990  0.401710  1.0  -0.0145
  C  C282  1  0.964600  0.653670  0.420430  1.0  0.0368
  C  C283  1  0.962100  0.652760  0.458920  1.0  -0.1171
  C  C284  1  0.967100  0.716200  0.478680  1.0  -0.0359
  C  C285  1  0.974700  0.780470  0.459960  1.0  -0.1471
  C  C286  1  0.977200  0.781390  0.421470  1.0  0.0746
  C  C287  1  0.945400  0.581700  0.399550  1.0  -0.3523
  C  C288  1  0.998900  0.849200  0.401160  1.0  -0.4037
  C  C289  1  0.764270  0.482730  0.783520  1.0  0.0058
  C  C290  1  0.775880  0.417420  0.800690  1.0  -0.1504
  C  C291  1  0.785020  0.414190  0.838870  1.0  -0.077
  C  C292  1  0.782550  0.476250  0.859880  1.0  0.0755
  C  C293  1  0.770940  0.541550  0.842700  1.0  -0.0742
  C  C294  1  0.761800  0.544790  0.804520  1.0  -0.1336
  C  C295  1  0.778480  0.350350  0.778840  1.0  0.6789
  C  C296  1  0.752150  0.615170  0.786430  1.0  0.6904
  C  C297  1  0.782010  0.472100  0.901710  1.0  -0.0161
  C  C298  1  0.846330  0.464600  0.920430  1.0  0.0353
  C  C299  1  0.847240  0.462100  0.958920  1.0  -0.1185
  C  C300  1  0.783800  0.467100  0.978680  1.0  -0.0364
  C  C301  1  0.719530  0.474700  0.959960  1.0  -0.1527
  C  C302  1  0.718610  0.477200  0.921470  1.0  0.0708
  C  C303  1  0.918300  0.445400  0.899550  1.0  -0.3546
  C  C304  1  0.650800  0.498900  0.901160  1.0  -0.4021
  C  C305  1  0.235730  0.517270  0.783520  1.0  0.0055
  C  C306  1  0.224120  0.582580  0.800690  1.0  -0.1485
  C  C307  1  0.214980  0.585810  0.838870  1.0  -0.0764
  C  C308  1  0.217450  0.523750  0.859880  1.0  0.0751
  C  C309  1  0.229060  0.458450  0.842700  1.0  -0.0734
  C  C310  1  0.238200  0.455210  0.804520  1.0  -0.1338
  C  C311  1  0.221520  0.649650  0.778840  1.0  0.6786
  C  C312  1  0.247850  0.384830  0.786430  1.0  0.6897
  C  C313  1  0.217990  0.527900  0.901710  1.0  -0.0167
  C  C314  1  0.153670  0.535400  0.920430  1.0  0.0358
  C  C315  1  0.152760  0.537900  0.958920  1.0  -0.1193
  C  C316  1  0.216200  0.532900  0.978680  1.0  -0.0358
  C  C317  1  0.280470  0.525300  0.959960  1.0  -0.1513
  C  C318  1  0.281390  0.522800  0.921470  1.0  0.0717
  C  C319  1  0.081700  0.554600  0.899550  1.0  -0.3525
  C  C320  1  0.349200  0.501100  0.901160  1.0  -0.4039
  C  C321  1  0.517270  0.235730  0.783520  1.0  0.0057
  C  C322  1  0.582580  0.224120  0.800690  1.0  -0.1483
  C  C323  1  0.585810  0.214980  0.838870  1.0  -0.0741
  C  C324  1  0.523750  0.217450  0.859880  1.0  0.0757
  C  C325  1  0.458450  0.229060  0.842700  1.0  -0.0724
  C  C326  1  0.455210  0.238200  0.804520  1.0  -0.1341
  C  C327  1  0.649650  0.221520  0.778840  1.0  0.6787
  C  C328  1  0.384830  0.247850  0.786430  1.0  0.69
  C  C329  1  0.527900  0.217990  0.901710  1.0  -0.0147
  C  C330  1  0.535400  0.153670  0.920430  1.0  0.0355
  C  C331  1  0.537900  0.152760  0.958920  1.0  -0.1179
  C  C332  1  0.532900  0.216200  0.978680  1.0  -0.0357
  C  C333  1  0.525300  0.280470  0.959960  1.0  -0.1472
  C  C334  1  0.522800  0.281390  0.921470  1.0  0.0747
  C  C335  1  0.554600  0.081700  0.899550  1.0  -0.3544
  C  C336  1  0.501100  0.349200  0.901160  1.0  -0.4033
  C  C337  1  0.482730  0.764270  0.783520  1.0  0.0059
  C  C338  1  0.417420  0.775880  0.800690  1.0  -0.1478
  C  C339  1  0.414190  0.785020  0.838870  1.0  -0.0743
  C  C340  1  0.476250  0.782550  0.859880  1.0  0.0755
  C  C341  1  0.541550  0.770940  0.842700  1.0  -0.0722
  C  C342  1  0.544790  0.761800  0.804520  1.0  -0.1353
  C  C343  1  0.350350  0.778480  0.778840  1.0  0.6785
  C  C344  1  0.615170  0.752150  0.786430  1.0  0.6899
  C  C345  1  0.472100  0.782010  0.901710  1.0  -0.0143
  C  C346  1  0.464600  0.846330  0.920430  1.0  0.0366
  C  C347  1  0.462100  0.847240  0.958920  1.0  -0.1176
  C  C348  1  0.467100  0.783800  0.978680  1.0  -0.0358
  C  C349  1  0.474700  0.719530  0.959960  1.0  -0.1482
  C  C350  1  0.477200  0.718610  0.921470  1.0  0.0754
  C  C351  1  0.445400  0.918300  0.899550  1.0  -0.3512
  C  C352  1  0.498900  0.650800  0.901160  1.0  -0.4043
  C  C353  1  0.264270  0.017270  0.283520  1.0  0.006
  C  C354  1  0.275880  0.082580  0.300690  1.0  -0.1494
  C  C355  1  0.285020  0.085810  0.338870  1.0  -0.0765
  C  C356  1  0.282550  0.023750  0.359880  1.0  0.0755
  C  C357  1  0.270940  0.958450  0.342700  1.0  -0.0739
  C  C358  1  0.261800  0.955210  0.304520  1.0  -0.1347
  C  C359  1  0.278480  0.149650  0.278840  1.0  0.679
  C  C360  1  0.252150  0.884830  0.286430  1.0  0.6901
  C  C361  1  0.282010  0.027900  0.401710  1.0  -0.016
  C  C362  1  0.346330  0.035400  0.420430  1.0  0.0347
  C  C363  1  0.347240  0.037900  0.458920  1.0  -0.1191
  C  C364  1  0.283800  0.032900  0.478680  1.0  -0.0362
  C  C365  1  0.219530  0.025300  0.459960  1.0  -0.1528
  C  C366  1  0.218610  0.022800  0.421470  1.0  0.0709
  C  C367  1  0.418300  0.054600  0.399550  1.0  -0.3545
  C  C368  1  0.150800  0.001100  0.401160  1.0  -0.402
  C  C369  1  0.735730  0.982730  0.283520  1.0  0.0053
  C  C370  1  0.724120  0.917420  0.300690  1.0  -0.1497
  C  C371  1  0.714980  0.914190  0.338870  1.0  -0.0766
  C  C372  1  0.717450  0.976250  0.359880  1.0  0.0751
  C  C373  1  0.729060  0.041550  0.342700  1.0  -0.0734
  C  C374  1  0.738200  0.044790  0.304520  1.0  -0.1329
  C  C375  1  0.721520  0.850350  0.278840  1.0  0.6785
  C  C376  1  0.747850  0.115170  0.286430  1.0  0.6901
  C  C377  1  0.717990  0.972100  0.401710  1.0  -0.0167
  C  C378  1  0.653670  0.964600  0.420430  1.0  0.0361
  C  C379  1  0.652760  0.962100  0.458920  1.0  -0.1197
  C  C380  1  0.716200  0.967100  0.478680  1.0  -0.036
  C  C381  1  0.780470  0.974700  0.459960  1.0  -0.1512
  C  C382  1  0.781390  0.977200  0.421470  1.0  0.0715
  C  C383  1  0.581700  0.945400  0.399550  1.0  -0.3523
  C  C384  1  0.849200  0.998900  0.401160  1.0  -0.4043
  C  C385  1  0.982730  0.735730  0.716480  1.0  0.0049
  C  C386  1  0.917420  0.724120  0.699310  1.0  -0.1484
  C  C387  1  0.914190  0.714980  0.661130  1.0  -0.0741
  C  C388  1  0.976250  0.717450  0.640120  1.0  0.0745
  C  C389  1  0.041550  0.729060  0.657300  1.0  -0.0719
  C  C390  1  0.044790  0.738200  0.695480  1.0  -0.1352
  C  C391  1  0.850350  0.721520  0.721160  1.0  0.6783
  C  C392  1  0.115170  0.747850  0.713570  1.0  0.6905
  C  C393  1  0.972100  0.717990  0.598290  1.0  -0.0142
  C  C394  1  0.964600  0.653670  0.579570  1.0  0.0365
  C  C395  1  0.962100  0.652760  0.541080  1.0  -0.1167
  C  C396  1  0.967100  0.716200  0.521320  1.0  -0.0357
  C  C397  1  0.974700  0.780470  0.540040  1.0  -0.148
  C  C398  1  0.977200  0.781390  0.578530  1.0  0.0739
  C  C399  1  0.945400  0.581700  0.600450  1.0  -0.3519
  C  C400  1  0.998900  0.849200  0.598840  1.0  -0.4035
  C  C401  1  0.017270  0.264270  0.716480  1.0  0.0045
  C  C402  1  0.082580  0.275880  0.699310  1.0  -0.1485
  C  C403  1  0.085810  0.285020  0.661130  1.0  -0.0746
  C  C404  1  0.023750  0.282550  0.640120  1.0  0.0746
  C  C405  1  0.958450  0.270940  0.657300  1.0  -0.0725
  C  C406  1  0.955210  0.261800  0.695480  1.0  -0.1343
  C  C407  1  0.149650  0.278480  0.721160  1.0  0.6792
  C  C408  1  0.884830  0.252150  0.713570  1.0  0.6906
  C  C409  1  0.027900  0.282010  0.598290  1.0  -0.0143
  C  C410  1  0.035400  0.346330  0.579570  1.0  0.0353
  C  C411  1  0.037900  0.347240  0.541080  1.0  -0.1168
  C  C412  1  0.032900  0.283800  0.521320  1.0  -0.0354
  C  C413  1  0.025300  0.219530  0.540040  1.0  -0.1484
  C  C414  1  0.022800  0.218610  0.578530  1.0  0.0745
  C  C415  1  0.054600  0.418300  0.600450  1.0  -0.3531
  C  C416  1  0.001100  0.150800  0.598840  1.0  -0.404
  C  C417  1  0.235730  0.517270  0.216480  1.0  0.0045
  C  C418  1  0.224120  0.582580  0.199310  1.0  -0.1493
  C  C419  1  0.214980  0.585810  0.161130  1.0  -0.0761
  C  C420  1  0.217450  0.523750  0.140120  1.0  0.0737
  C  C421  1  0.229060  0.458450  0.157300  1.0  -0.0734
  C  C422  1  0.238200  0.455210  0.195480  1.0  -0.133
  C  C423  1  0.221520  0.649650  0.221160  1.0  0.6787
  C  C424  1  0.247850  0.384830  0.213570  1.0  0.6903
  C  C425  1  0.217990  0.527900  0.098290  1.0  -0.0165
  C  C426  1  0.153670  0.535400  0.079570  1.0  0.0352
  C  C427  1  0.152760  0.537900  0.041080  1.0  -0.1189
  C  C428  1  0.216200  0.532900  0.021320  1.0  -0.0357
  C  C429  1  0.280470  0.525300  0.040040  1.0  -0.1518
  C  C430  1  0.281390  0.522800  0.078530  1.0  0.0711
  C  C431  1  0.081700  0.554600  0.100450  1.0  -0.3524
  C  C432  1  0.349200  0.501100  0.098840  1.0  -0.4033
  C  C433  1  0.764270  0.482730  0.216480  1.0  0.0043
  C  C434  1  0.775880  0.417420  0.199310  1.0  -0.1498
  C  C435  1  0.785020  0.414190  0.161130  1.0  -0.0774
  C  C436  1  0.782550  0.476250  0.140120  1.0  0.0743
  C  C437  1  0.770940  0.541550  0.157300  1.0  -0.0734
  C  C438  1  0.761800  0.544790  0.195480  1.0  -0.1343
  C  C439  1  0.778480  0.350350  0.221160  1.0  0.6792
  C  C440  1  0.752150  0.615170  0.213570  1.0  0.691
  C  C441  1  0.782010  0.472100  0.098290  1.0  -0.0157
  C  C442  1  0.846330  0.464600  0.079570  1.0  0.0351
  C  C443  1  0.847240  0.462100  0.041080  1.0  -0.1185
  C  C444  1  0.783800  0.467100  0.021320  1.0  -0.0362
  C  C445  1  0.719530  0.474700  0.040040  1.0  -0.153
  C  C446  1  0.718610  0.477200  0.078530  1.0  0.07
  C  C447  1  0.918300  0.445400  0.100450  1.0  -0.3537
  C  C448  1  0.650800  0.498900  0.098840  1.0  -0.402
  O  O449  1  0.296160  0.803050  0.205310  1.0  -0.5684
  O  O450  1  0.353050  0.750310  0.253390  1.0  -0.5717
  O  O451  1  0.615300  0.719820  0.244860  1.0  -0.591
  O  O452  1  0.669780  0.772530  0.196380  1.0  -0.559
  O  O453  1  0.703840  0.196950  0.205310  1.0  -0.567
  O  O454  1  0.646950  0.249690  0.253390  1.0  -0.5727
  O  O455  1  0.384700  0.280180  0.244860  1.0  -0.5914
  O  O456  1  0.330220  0.227470  0.196380  1.0  -0.5584
  O  O457  1  0.696950  0.796160  0.705310  1.0  -0.5662
  O  O458  1  0.749690  0.853050  0.753390  1.0  -0.572
  O  O459  1  0.780180  0.115300  0.744860  1.0  -0.5902
  O  O460  1  0.727470  0.169780  0.696380  1.0  -0.5592
  O  O461  1  0.303050  0.203840  0.705310  1.0  -0.5671
  O  O462  1  0.250310  0.146950  0.753390  1.0  -0.5729
  O  O463  1  0.219820  0.884700  0.744860  1.0  -0.5917
  O  O464  1  0.272530  0.830220  0.696380  1.0  -0.559
  O  O465  1  0.203840  0.303050  0.294690  1.0  -0.5671
  O  O466  1  0.146950  0.250310  0.246610  1.0  -0.5718
  O  O467  1  0.884700  0.219820  0.255140  1.0  -0.5923
  O  O468  1  0.830220  0.272530  0.303620  1.0  -0.5589
  O  O469  1  0.796160  0.696950  0.294690  1.0  -0.5666
  O  O470  1  0.853050  0.749690  0.246610  1.0  -0.5713
  O  O471  1  0.115300  0.780180  0.255140  1.0  -0.5918
  O  O472  1  0.169780  0.727470  0.303620  1.0  -0.5587
  O  O473  1  0.803050  0.296160  0.794690  1.0  -0.5662
  O  O474  1  0.750310  0.353050  0.746610  1.0  -0.5723
  O  O475  1  0.719820  0.615300  0.755140  1.0  -0.592
  O  O476  1  0.772530  0.669780  0.803620  1.0  -0.5591
  O  O477  1  0.196950  0.703840  0.794690  1.0  -0.5665
  O  O478  1  0.249690  0.646950  0.746610  1.0  -0.5719
  O  O479  1  0.280180  0.384700  0.755140  1.0  -0.5912
  O  O480  1  0.227470  0.330220  0.803620  1.0  -0.559
  O  O481  1  0.703840  0.196950  0.794690  1.0  -0.5666
  O  O482  1  0.646950  0.249690  0.746610  1.0  -0.5713
  O  O483  1  0.384700  0.280180  0.755140  1.0  -0.5917
  O  O484  1  0.330220  0.227470  0.803620  1.0  -0.5585
  O  O485  1  0.296160  0.803050  0.794690  1.0  -0.5677
  O  O486  1  0.353050  0.750310  0.746610  1.0  -0.5716
  O  O487  1  0.615300  0.719820  0.755140  1.0  -0.5919
  O  O488  1  0.669780  0.772530  0.803620  1.0  -0.5589
  O  O489  1  0.303050  0.203840  0.294690  1.0  -0.5668
  O  O490  1  0.250310  0.146950  0.246610  1.0  -0.5725
  O  O491  1  0.219820  0.884700  0.255140  1.0  -0.5912
  O  O492  1  0.272530  0.830220  0.303620  1.0  -0.5594
  O  O493  1  0.696950  0.796160  0.294690  1.0  -0.5655
  O  O494  1  0.749690  0.853050  0.246610  1.0  -0.5717
  O  O495  1  0.780180  0.115300  0.255140  1.0  -0.5913
  O  O496  1  0.727470  0.169780  0.303620  1.0  -0.5595
  O  O497  1  0.796160  0.696950  0.705310  1.0  -0.567
  O  O498  1  0.853050  0.749690  0.753390  1.0  -0.5721
  O  O499  1  0.115300  0.780180  0.744860  1.0  -0.5928
  O  O500  1  0.169780  0.727470  0.696380  1.0  -0.5588
  O  O501  1  0.203840  0.303050  0.705310  1.0  -0.5681
  O  O502  1  0.146950  0.250310  0.753390  1.0  -0.5719
  O  O503  1  0.884700  0.219820  0.744860  1.0  -0.5914
  O  O504  1  0.830220  0.272530  0.696380  1.0  -0.559
  O  O505  1  0.196950  0.703840  0.205310  1.0  -0.567
  O  O506  1  0.249690  0.646950  0.253390  1.0  -0.572
  O  O507  1  0.280180  0.384700  0.244860  1.0  -0.5913
  O  O508  1  0.227470  0.330220  0.196380  1.0  -0.5592
  O  O509  1  0.803050  0.296160  0.205310  1.0  -0.5664
  O  O510  1  0.750310  0.353050  0.253390  1.0  -0.5732
  O  O511  1  0.719820  0.615300  0.244860  1.0  -0.5917
  O  O512  1  0.772530  0.669780  0.196380  1.0  -0.5593
