# generated using pymatgen
data_MgH2C6SO4
_symmetry_space_group_name_H-M   'P 1'
_cell_length_a   9.80500000
_cell_length_b   17.74700000
_cell_length_c   21.35900000
_cell_angle_alpha   103.13000000
_cell_angle_beta   90.00000000
_cell_angle_gamma   90.00000000
_symmetry_Int_Tables_number   1
_chemical_formula_structural   MgH2C6SO4
_chemical_formula_sum   'Mg12 H24 C72 S12 O48'
_cell_volume   3619.50119561
_cell_formula_units_Z   12
loop_
 _symmetry_equiv_pos_site_id
 _symmetry_equiv_pos_as_xyz
  1  'x, y, z'
loop_
 _atom_site_type_symbol
 _atom_site_label
 _atom_site_symmetry_multiplicity
 _atom_site_fract_x
 _atom_site_fract_y
 _atom_site_fract_z
 _atom_site_occupancy
 _atom_site_charge
  Mg  Mg1  1  0.098390  0.221810  0.708880  1.0  1.5107
  Mg  Mg2  1  0.769110  0.784680  0.938390  1.0  1.5375
  Mg  Mg3  1  0.112290  0.302210  0.878330  1.0  1.3918
  Mg  Mg4  1  0.598390  0.778190  0.791120  1.0  1.5093
  Mg  Mg5  1  0.269110  0.215320  0.561610  1.0  1.5392
  Mg  Mg6  1  0.612290  0.697790  0.621670  1.0  1.3909
  Mg  Mg7  1  0.901610  0.778190  0.291120  1.0  1.5087
  Mg  Mg8  1  0.230890  0.215320  0.061610  1.0  1.54
  Mg  Mg9  1  0.887710  0.697790  0.121670  1.0  1.3943
  Mg  Mg10  1  0.401610  0.221810  0.208880  1.0  1.5101
  Mg  Mg11  1  0.730890  0.784680  0.438390  1.0  1.5385
  Mg  Mg12  1  0.387710  0.302210  0.378330  1.0  1.3942
  H  H13  1  0.008600  0.992600  0.929500  1.0  0.0965
  H  H14  1  0.088600  0.111400  0.901600  1.0  0.0922
  H  H15  1  0.766600  0.559400  0.693200  1.0  0.0936
  H  H16  1  0.840600  0.424300  0.676100  1.0  0.0927
  H  H17  1  0.558000  0.226500  0.606700  1.0  0.0946
  H  H18  1  0.788600  0.221100  0.648200  1.0  0.09
  H  H19  1  0.508600  0.007400  0.570500  1.0  0.0976
  H  H20  1  0.588600  0.888600  0.598400  1.0  0.0927
  H  H21  1  0.266600  0.440600  0.806800  1.0  0.0942
  H  H22  1  0.340600  0.575700  0.823900  1.0  0.0922
  H  H23  1  0.058000  0.773500  0.893300  1.0  0.0944
  H  H24  1  0.288600  0.778900  0.851800  1.0  0.0902
  H  H25  1  0.991400  0.007400  0.070500  1.0  0.0972
  H  H26  1  0.911400  0.888600  0.098400  1.0  0.0925
  H  H27  1  0.233400  0.440600  0.306800  1.0  0.095
  H  H28  1  0.159400  0.575700  0.323900  1.0  0.092
  H  H29  1  0.442000  0.773500  0.393300  1.0  0.0943
  H  H30  1  0.211400  0.778900  0.351800  1.0  0.09
  H  H31  1  0.491400  0.992600  0.429500  1.0  0.0964
  H  H32  1  0.411400  0.111400  0.401600  1.0  0.0923
  H  H33  1  0.733400  0.559400  0.193200  1.0  0.0941
  H  H34  1  0.659400  0.424300  0.176100  1.0  0.0925
  H  H35  1  0.942000  0.226500  0.106700  1.0  0.0949
  H  H36  1  0.711400  0.221100  0.148200  1.0  0.0898
  C  C37  1  0.015600  0.242800  0.572420  1.0  0.6671
  C  C38  1  0.517500  0.255780  0.481920  1.0  0.6856
  C  C39  1  0.980300  0.008600  0.893010  1.0  -0.0808
  C  C40  1  0.819600  0.893770  0.850880  1.0  0.7315
  C  C41  1  0.001200  0.147770  0.785160  1.0  0.6418
  C  C42  1  0.803700  0.663010  0.813700  1.0  0.7079
  C  C43  1  0.865900  0.245380  0.567110  1.0  -0.2221
  C  C44  1  0.842500  0.581460  0.784060  1.0  -0.2173
  C  C45  1  0.974800  0.370950  0.775200  1.0  0.6962
  C  C46  1  0.889600  0.968250  0.849650  1.0  -0.2203
  C  C47  1  0.917400  0.445460  0.766770  1.0  -0.2336
  C  C48  1  0.970200  0.087520  0.820940  1.0  -0.2101
  C  C49  1  0.634400  0.249180  0.524330  1.0  -0.2207
  C  C50  1  0.026800  0.077250  0.876970  1.0  -0.0882
  C  C51  1  0.811200  0.539200  0.724150  1.0  -0.0685
  C  C52  1  0.854200  0.460990  0.714270  1.0  -0.0683
  C  C53  1  0.636200  0.234110  0.584250  1.0  -0.0673
  C  C54  1  0.769200  0.231370  0.608350  1.0  -0.0845
  C  C55  1  0.515600  0.757200  0.927580  1.0  0.6668
  C  C56  1  0.017500  0.744220  0.018080  1.0  0.6862
  C  C57  1  0.480300  0.991400  0.606990  1.0  -0.0813
  C  C58  1  0.319600  0.106230  0.649120  1.0  0.7318
  C  C59  1  0.501200  0.852230  0.714840  1.0  0.6416
  C  C60  1  0.303700  0.336990  0.686300  1.0  0.708
  C  C61  1  0.365900  0.754620  0.932890  1.0  -0.2219
  C  C62  1  0.342500  0.418540  0.715940  1.0  -0.2167
  C  C63  1  0.474800  0.629050  0.724800  1.0  0.6977
  C  C64  1  0.389600  0.031750  0.650350  1.0  -0.22
  C  C65  1  0.417400  0.554540  0.733230  1.0  -0.2337
  C  C66  1  0.470200  0.912480  0.679060  1.0  -0.2113
  C  C67  1  0.134400  0.750820  0.975670  1.0  -0.2201
  C  C68  1  0.526800  0.922750  0.623030  1.0  -0.0891
  C  C69  1  0.311200  0.460800  0.775850  1.0  -0.068
  C  C70  1  0.354200  0.539010  0.785730  1.0  -0.0673
  C  C71  1  0.136200  0.765890  0.915750  1.0  -0.0678
  C  C72  1  0.269200  0.768630  0.891650  1.0  -0.0845
  C  C73  1  0.984400  0.757200  0.427580  1.0  0.6652
  C  C74  1  0.482500  0.744220  0.518080  1.0  0.686
  C  C75  1  0.019700  0.991400  0.106990  1.0  -0.0814
  C  C76  1  0.180400  0.106230  0.149120  1.0  0.7321
  C  C77  1  0.998800  0.852230  0.214840  1.0  0.642
  C  C78  1  0.196300  0.336990  0.186300  1.0  0.7076
  C  C79  1  0.134100  0.754620  0.432890  1.0  -0.2216
  C  C80  1  0.157500  0.418540  0.215940  1.0  -0.2166
  C  C81  1  0.025200  0.629050  0.224800  1.0  0.6975
  C  C82  1  0.110400  0.031750  0.150350  1.0  -0.2184
  C  C83  1  0.082600  0.554540  0.233230  1.0  -0.2344
  C  C84  1  0.029800  0.912480  0.179060  1.0  -0.2112
  C  C85  1  0.365600  0.750820  0.475670  1.0  -0.2203
  C  C86  1  0.973200  0.922750  0.123030  1.0  -0.0888
  C  C87  1  0.188800  0.460800  0.275850  1.0  -0.0672
  C  C88  1  0.145800  0.539010  0.285730  1.0  -0.0672
  C  C89  1  0.363800  0.765890  0.415750  1.0  -0.0668
  C  C90  1  0.230800  0.768630  0.391650  1.0  -0.0851
  C  C91  1  0.484400  0.242800  0.072420  1.0  0.667
  C  C92  1  0.982500  0.255780  0.981920  1.0  0.6862
  C  C93  1  0.519700  0.008600  0.393010  1.0  -0.0813
  C  C94  1  0.680400  0.893770  0.350880  1.0  0.7319
  C  C95  1  0.498800  0.147770  0.285160  1.0  0.6417
  C  C96  1  0.696300  0.663010  0.313700  1.0  0.7073
  C  C97  1  0.634100  0.245380  0.067110  1.0  -0.222
  C  C98  1  0.657500  0.581460  0.284060  1.0  -0.2173
  C  C99  1  0.525200  0.370950  0.275200  1.0  0.6967
  C  C100  1  0.610400  0.968250  0.349650  1.0  -0.219
  C  C101  1  0.582600  0.445460  0.266770  1.0  -0.2339
  C  C102  1  0.529800  0.087520  0.320940  1.0  -0.2097
  C  C103  1  0.865600  0.249180  0.024330  1.0  -0.2202
  C  C104  1  0.473200  0.077250  0.376970  1.0  -0.088
  C  C105  1  0.688800  0.539200  0.224150  1.0  -0.0676
  C  C106  1  0.645800  0.460990  0.214270  1.0  -0.0684
  C  C107  1  0.863800  0.234110  0.084250  1.0  -0.0663
  C  C108  1  0.730800  0.231370  0.108350  1.0  -0.0854
  S  S109  1  0.859700  0.013730  0.788010  1.0  0.1453
  S  S110  1  0.926000  0.526670  0.828950  1.0  0.1507
  S  S111  1  0.795570  0.261700  0.497900  1.0  0.1557
  S  S112  1  0.359700  0.986270  0.711990  1.0  0.144
  S  S113  1  0.426000  0.473330  0.671050  1.0  0.1494
  S  S114  1  0.295570  0.738300  0.002100  1.0  0.158
  S  S115  1  0.140300  0.986270  0.211990  1.0  0.142
  S  S116  1  0.074000  0.473330  0.171050  1.0  0.1492
  S  S117  1  0.204430  0.738300  0.502100  1.0  0.1579
  S  S118  1  0.640300  0.013730  0.288010  1.0  0.1435
  S  S119  1  0.574000  0.526670  0.328950  1.0  0.1501
  S  S120  1  0.704430  0.261700  0.997900  1.0  0.1575
  O  O121  1  0.087210  0.200850  0.808230  1.0  -0.7401
  O  O122  1  0.856780  0.860360  0.893850  1.0  -0.627
  O  O123  1  0.968100  0.314090  0.728110  1.0  -0.6097
  O  O124  1  0.753610  0.701630  0.776570  1.0  -0.6296
  O  O125  1  0.025900  0.371060  0.829260  1.0  -0.6701
  O  O126  1  0.949470  0.142860  0.730770  1.0  -0.5783
  O  O127  1  0.729740  0.871660  0.808980  1.0  -0.6241
  O  O128  1  0.821000  0.686130  0.873350  1.0  -0.6258
  O  O129  1  0.399110  0.240460  0.497760  1.0  -0.7467
  O  O130  1  0.543880  0.276430  0.430600  1.0  -0.6067
  O  O131  1  0.069440  0.209850  0.613440  1.0  -0.768
  O  O132  1  0.087460  0.267170  0.533060  1.0  -0.582
  O  O133  1  0.587210  0.799150  0.691770  1.0  -0.7398
  O  O134  1  0.356780  0.139640  0.606150  1.0  -0.6267
  O  O135  1  0.468100  0.685910  0.771890  1.0  -0.6096
  O  O136  1  0.253610  0.298370  0.723430  1.0  -0.6309
  O  O137  1  0.525900  0.628940  0.670740  1.0  -0.6663
  O  O138  1  0.449470  0.857140  0.769230  1.0  -0.5776
  O  O139  1  0.229740  0.128340  0.691020  1.0  -0.6227
  O  O140  1  0.321000  0.313870  0.626650  1.0  -0.6243
  O  O141  1  0.899110  0.759540  0.002240  1.0  -0.7465
  O  O142  1  0.043880  0.723570  0.069400  1.0  -0.6023
  O  O143  1  0.569440  0.790150  0.886560  1.0  -0.7688
  O  O144  1  0.587460  0.732830  0.966940  1.0  -0.5798
  O  O145  1  0.912790  0.799150  0.191770  1.0  -0.7401
  O  O146  1  0.143220  0.139640  0.106150  1.0  -0.6269
  O  O147  1  0.031900  0.685910  0.271890  1.0  -0.6101
  O  O148  1  0.246390  0.298370  0.223430  1.0  -0.6312
  O  O149  1  0.974100  0.628940  0.170740  1.0  -0.6673
  O  O150  1  0.050530  0.857140  0.269230  1.0  -0.5777
  O  O151  1  0.270260  0.128340  0.191020  1.0  -0.6229
  O  O152  1  0.179000  0.313870  0.126650  1.0  -0.6243
  O  O153  1  0.600890  0.759540  0.502240  1.0  -0.7473
  O  O154  1  0.456120  0.723570  0.569400  1.0  -0.5998
  O  O155  1  0.930560  0.790150  0.386560  1.0  -0.7691
  O  O156  1  0.912540  0.732830  0.466940  1.0  -0.5824
  O  O157  1  0.412790  0.200850  0.308230  1.0  -0.7403
  O  O158  1  0.643220  0.860360  0.393850  1.0  -0.6271
  O  O159  1  0.531900  0.314090  0.228110  1.0  -0.6099
  O  O160  1  0.746390  0.701630  0.276570  1.0  -0.6298
  O  O161  1  0.474100  0.371060  0.329260  1.0  -0.6694
  O  O162  1  0.550530  0.142860  0.230770  1.0  -0.5785
  O  O163  1  0.770260  0.871660  0.308980  1.0  -0.6243
  O  O164  1  0.679000  0.686130  0.373350  1.0  -0.6259
  O  O165  1  0.100890  0.240460  0.997760  1.0  -0.7476
  O  O166  1  0.956120  0.276430  0.930600  1.0  -0.6047
  O  O167  1  0.430560  0.209850  0.113440  1.0  -0.769
  O  O168  1  0.412540  0.267170  0.033060  1.0  -0.5835
