# generated using pymatgen
data_V5P4H4C2O15F2
_symmetry_space_group_name_H-M   'P 1'
_cell_length_a   11.06440000
_cell_length_b   13.98900000
_cell_length_c   18.38660000
_cell_angle_alpha   90.00000000
_cell_angle_beta   103.38100000
_cell_angle_gamma   90.00000000
_symmetry_Int_Tables_number   1
_chemical_formula_structural   V5P4H4C2O15F2
_chemical_formula_sum   'V20 P16 H16 C8 O60 F8'
_cell_volume   2768.61803611
_cell_formula_units_Z   4
loop_
 _symmetry_equiv_pos_site_id
 _symmetry_equiv_pos_as_xyz
  1  'x, y, z'
loop_
 _atom_site_type_symbol
 _atom_site_label
 _atom_site_symmetry_multiplicity
 _atom_site_fract_x
 _atom_site_fract_y
 _atom_site_fract_z
 _atom_site_occupancy
 _atom_site_charge
  V  V1  1  0.979100  0.220700  0.275050  1.0  1.6311
  V  V2  1  0.219770  0.463720  0.226930  1.0  1.6687
  V  V3  1  0.015500  0.257000  0.227300  1.0  1.6773
  V  V4  1  0.273800  0.514400  0.273500  1.0  1.612
  V  V5  1  0.479100  0.720700  0.275050  1.0  1.6311
  V  V6  1  0.719770  0.963720  0.226930  1.0  1.6681
  V  V7  1  0.515500  0.757000  0.227300  1.0  1.6787
  V  V8  1  0.773800  0.014400  0.273500  1.0  1.612
  V  V9  1  0.020900  0.220700  0.724950  1.0  1.6357
  V  V10  1  0.780230  0.463720  0.773070  1.0  1.665
  V  V11  1  0.984500  0.257000  0.772700  1.0  1.6768
  V  V12  1  0.726200  0.514400  0.726500  1.0  1.6099
  V  V13  1  0.520900  0.720700  0.724950  1.0  1.6357
  V  V14  1  0.280230  0.963720  0.773070  1.0  1.6645
  V  V15  1  0.484500  0.757000  0.772700  1.0  1.6784
  V  V16  1  0.226200  0.014400  0.726500  1.0  1.6099
  V  V17  1  0.500000  0.274600  0.500000  1.0  1.2697
  V  V18  1  0.000000  0.774600  0.500000  1.0  1.2697
  V  V19  1  0.500000  0.204290  0.000000  1.0  1.2801
  V  V20  1  0.000000  0.704290  0.000000  1.0  1.2801
  P  P21  1  0.250300  0.310430  0.359980  1.0  1.5789
  P  P22  1  0.740950  0.167290  0.142190  1.0  1.5498
  P  P23  1  0.034910  0.439010  0.337470  1.0  1.5606
  P  P24  1  0.956810  0.039780  0.164140  1.0  1.5362
  P  P25  1  0.750300  0.810430  0.359980  1.0  1.5789
  P  P26  1  0.240950  0.667290  0.142190  1.0  1.55
  P  P27  1  0.534910  0.939010  0.337470  1.0  1.5606
  P  P28  1  0.456810  0.539780  0.164140  1.0  1.5366
  P  P29  1  0.749700  0.310430  0.640020  1.0  1.5762
  P  P30  1  0.259050  0.167290  0.857810  1.0  1.55
  P  P31  1  0.965090  0.439010  0.662530  1.0  1.5578
  P  P32  1  0.043190  0.039780  0.835860  1.0  1.5351
  P  P33  1  0.249700  0.810430  0.640020  1.0  1.5762
  P  P34  1  0.759050  0.667290  0.857810  1.0  1.5501
  P  P35  1  0.465090  0.939010  0.662530  1.0  1.5578
  P  P36  1  0.543190  0.539780  0.835860  1.0  1.535
  H  H37  1  0.210600  0.431600  0.436100  1.0  0.207
  H  H38  1  0.123700  0.343800  0.440200  1.0  0.2157
  H  H39  1  0.875700  0.141300  0.064600  1.0  0.1964
  H  H40  1  0.788000  0.052300  0.062200  1.0  0.2036
  H  H41  1  0.710600  0.931600  0.436100  1.0  0.207
  H  H42  1  0.623700  0.843800  0.440200  1.0  0.2157
  H  H43  1  0.375700  0.641300  0.064600  1.0  0.1964
  H  H44  1  0.288000  0.552300  0.062200  1.0  0.2036
  H  H45  1  0.789400  0.431600  0.563900  1.0  0.2052
  H  H46  1  0.876300  0.343800  0.559800  1.0  0.2139
  H  H47  1  0.124300  0.141300  0.935400  1.0  0.1976
  H  H48  1  0.212000  0.052300  0.937800  1.0  0.2053
  H  H49  1  0.289400  0.931600  0.563900  1.0  0.2052
  H  H50  1  0.376300  0.843800  0.559800  1.0  0.2139
  H  H51  1  0.624300  0.641300  0.935400  1.0  0.1976
  H  H52  1  0.712000  0.552300  0.937800  1.0  0.2053
  C  C53  1  0.158800  0.382900  0.406700  1.0  -0.8546
  C  C54  1  0.837800  0.099200  0.094900  1.0  -0.9683
  C  C55  1  0.658800  0.882900  0.406700  1.0  -0.8546
  C  C56  1  0.337800  0.599200  0.094900  1.0  -0.9683
  C  C57  1  0.841200  0.382900  0.593300  1.0  -0.8474
  C  C58  1  0.162200  0.099200  0.905100  1.0  -0.9842
  C  C59  1  0.341200  0.882900  0.593300  1.0  -0.8474
  C  C60  1  0.662200  0.599200  0.905100  1.0  -0.9842
  O  O61  1  0.352900  0.256100  0.412430  1.0  -0.8041
  O  O62  1  0.303300  0.379620  0.310070  1.0  -0.9232
  O  O63  1  0.099400  0.497880  0.286220  1.0  -0.9303
  O  O64  1  0.957600  0.501300  0.375740  1.0  -0.6018
  O  O65  1  0.957900  0.358380  0.291080  1.0  -0.937
  O  O66  1  0.162200  0.237770  0.312030  1.0  -0.9134
  O  O67  1  0.031500  0.118500  0.213390  1.0  -0.8938
  O  O68  1  0.827100  0.237230  0.194860  1.0  -0.9372
  O  O69  1  0.037000  0.980190  0.126100  1.0  -0.6045
  O  O70  1  0.889600  0.977600  0.211870  1.0  -0.8418
  O  O71  1  0.683000  0.095220  0.187370  1.0  -0.9012
  O  O72  1  0.642200  0.225100  0.089900  1.0  -0.799
  O  O73  1  0.147400  0.394200  0.162810  1.0  -0.6287
  O  O74  1  0.396000  0.578600  0.280200  1.0  -0.8908
  O  O75  1  0.067000  0.311000  0.160300  1.0  -0.6105
  O  O76  1  0.852900  0.756100  0.412430  1.0  -0.8041
  O  O77  1  0.803300  0.879620  0.310070  1.0  -0.9232
  O  O78  1  0.599400  0.997880  0.286220  1.0  -0.9303
  O  O79  1  0.457600  0.001300  0.375740  1.0  -0.6018
  O  O80  1  0.457900  0.858380  0.291080  1.0  -0.937
  O  O81  1  0.662200  0.737770  0.312030  1.0  -0.9134
  O  O82  1  0.531500  0.618500  0.213390  1.0  -0.8937
  O  O83  1  0.327100  0.737230  0.194860  1.0  -0.9372
  O  O84  1  0.537000  0.480190  0.126100  1.0  -0.6045
  O  O85  1  0.389600  0.477600  0.211870  1.0  -0.8408
  O  O86  1  0.183000  0.595220  0.187370  1.0  -0.9038
  O  O87  1  0.142200  0.725100  0.089900  1.0  -0.799
  O  O88  1  0.647400  0.894200  0.162810  1.0  -0.6287
  O  O89  1  0.896000  0.078600  0.280200  1.0  -0.8908
  O  O90  1  0.567000  0.811000  0.160300  1.0  -0.6105
  O  O91  1  0.647100  0.256100  0.587570  1.0  -0.8053
  O  O92  1  0.696700  0.379620  0.689930  1.0  -0.922
  O  O93  1  0.900600  0.497880  0.713780  1.0  -0.9301
  O  O94  1  0.042400  0.501300  0.624260  1.0  -0.6007
  O  O95  1  0.042100  0.358380  0.708920  1.0  -0.9395
  O  O96  1  0.837800  0.237770  0.687970  1.0  -0.9134
  O  O97  1  0.968500  0.118500  0.786610  1.0  -0.8958
  O  O98  1  0.172900  0.237230  0.805140  1.0  -0.9369
  O  O99  1  0.963000  0.980190  0.873900  1.0  -0.6057
  O  O100  1  0.110400  0.977600  0.788130  1.0  -0.8412
  O  O101  1  0.317000  0.095220  0.812630  1.0  -0.8989
  O  O102  1  0.357800  0.225100  0.910100  1.0  -0.7975
  O  O103  1  0.852600  0.394200  0.837190  1.0  -0.6301
  O  O104  1  0.604000  0.578600  0.719800  1.0  -0.889
  O  O105  1  0.933000  0.311000  0.839700  1.0  -0.6094
  O  O106  1  0.147100  0.756100  0.587570  1.0  -0.8053
  O  O107  1  0.196700  0.879620  0.689930  1.0  -0.922
  O  O108  1  0.400600  0.997880  0.713780  1.0  -0.9301
  O  O109  1  0.542400  0.001300  0.624260  1.0  -0.6007
  O  O110  1  0.542100  0.858380  0.708920  1.0  -0.9395
  O  O111  1  0.337800  0.737770  0.687970  1.0  -0.9134
  O  O112  1  0.468500  0.618500  0.786610  1.0  -0.8956
  O  O113  1  0.672900  0.737230  0.805140  1.0  -0.9369
  O  O114  1  0.463000  0.480190  0.873900  1.0  -0.6057
  O  O115  1  0.610400  0.477600  0.788130  1.0  -0.8405
  O  O116  1  0.817000  0.595220  0.812630  1.0  -0.9017
  O  O117  1  0.857800  0.725100  0.910100  1.0  -0.7975
  O  O118  1  0.352600  0.894200  0.837190  1.0  -0.6301
  O  O119  1  0.104000  0.078600  0.719800  1.0  -0.889
  O  O120  1  0.433000  0.811000  0.839700  1.0  -0.6094
  F  F121  1  0.609900  0.252600  0.433050  1.0  -0.4323
  F  F122  1  0.386000  0.226410  0.064010  1.0  -0.4325
  F  F123  1  0.109900  0.752600  0.433050  1.0  -0.4323
  F  F124  1  0.886000  0.726410  0.064010  1.0  -0.4325
  F  F125  1  0.390100  0.252600  0.566950  1.0  -0.4308
  F  F126  1  0.614000  0.226410  0.935990  1.0  -0.4324
  F  F127  1  0.890100  0.752600  0.566950  1.0  -0.4308
  F  F128  1  0.114000  0.726410  0.935990  1.0  -0.4324
