# generated using pymatgen
data_Yb2CoH32C56(N2O5)4
_symmetry_space_group_name_H-M   'P 1'
_cell_length_a   10.06810000
_cell_length_b   10.74540000
_cell_length_c   13.70730000
_cell_angle_alpha   79.16100000
_cell_angle_beta   78.81200000
_cell_angle_gamma   86.56800000
_symmetry_Int_Tables_number   1
_chemical_formula_structural   Yb2CoH32C56(N2O5)4
_chemical_formula_sum   'Yb2 Co1 H32 C56 N8 O20'
_cell_volume   1428.37856921
_cell_formula_units_Z   1
loop_
 _symmetry_equiv_pos_site_id
 _symmetry_equiv_pos_as_xyz
  1  'x, y, z'
loop_
 _atom_site_type_symbol
 _atom_site_label
 _atom_site_symmetry_multiplicity
 _atom_site_fract_x
 _atom_site_fract_y
 _atom_site_fract_z
 _atom_site_occupancy
 _atom_site_charge
  Yb  Yb1  1  0.319430  0.922170  0.795670  1.0  1.4372
  Yb  Yb2  1  0.680570  0.077830  0.204330  1.0  1.4375
  Co  Co3  1  0.000000  0.500000  0.000000  1.0  0.7966
  H  H4  1  0.280900  0.359600  0.868700  1.0  0.1174
  H  H5  1  0.347300  0.326800  0.575400  1.0  0.1222
  H  H6  1  0.328800  0.670500  0.651500  1.0  0.1251
  H  H7  1  0.356100  0.450400  0.240400  1.0  0.1286
  H  H8  1  0.365200  0.568300  0.082600  1.0  0.0868
  H  H9  1  0.354300  0.880300  0.185200  1.0  0.0794
  H  H10  1  0.346600  0.773200  0.348200  1.0  0.1304
  H  H11  1  0.822400  0.914100  0.784200  1.0  0.1143
  H  H12  1  0.693400  0.857000  0.537300  1.0  0.1286
  H  H13  1  0.090900  0.840700  0.543100  1.0  0.1265
  H  H14  1  0.007200  0.476300  0.370700  1.0  0.134
  H  H15  1  0.015100  0.407200  0.221700  1.0  0.0801
  H  H16  1  0.033700  0.751800  0.070600  1.0  0.1019
  H  H17  1  0.017500  0.832200  0.215200  1.0  0.1314
  H  H18  1  0.380800  0.646000  0.480300  1.0  0.3297
  H  H19  1  0.880700  0.846200  0.381800  1.0  0.2954
  H  H20  1  0.719100  0.640400  0.131300  1.0  0.1186
  H  H21  1  0.652700  0.673200  0.424600  1.0  0.1214
  H  H22  1  0.671200  0.329500  0.348500  1.0  0.1258
  H  H23  1  0.643900  0.549600  0.759600  1.0  0.1284
  H  H24  1  0.634800  0.431700  0.917400  1.0  0.0871
  H  H25  1  0.645700  0.119700  0.814800  1.0  0.0801
  H  H26  1  0.653400  0.226800  0.651800  1.0  0.1304
  H  H27  1  0.177600  0.085900  0.215800  1.0  0.114
  H  H28  1  0.306600  0.143000  0.462700  1.0  0.129
  H  H29  1  0.909100  0.159300  0.456900  1.0  0.1261
  H  H30  1  0.992800  0.523700  0.629300  1.0  0.1345
  H  H31  1  0.984900  0.592800  0.778300  1.0  0.0796
  H  H32  1  0.966300  0.248200  0.929400  1.0  0.1017
  H  H33  1  0.982500  0.167800  0.784800  1.0  0.1312
  H  H34  1  0.619200  0.354000  0.519700  1.0  0.33
  H  H35  1  0.119300  0.153800  0.618200  1.0  0.2962
  C  C36  1  0.300300  0.527700  0.772100  1.0  -0.1513
  C  C37  1  0.296400  0.397200  0.800800  1.0  -0.0284
  C  C38  1  0.316400  0.323100  0.725300  1.0  -0.1162
  C  C39  1  0.335200  0.377800  0.624400  1.0  -0.1468
  C  C40  1  0.336100  0.508700  0.595900  1.0  0.218
  C  C41  1  0.322700  0.582900  0.670100  1.0  -0.1106
  C  C42  1  0.312100  0.182200  0.752300  1.0  0.633
  C  C43  1  0.269000  0.609100  0.852000  1.0  0.7421
  C  C44  1  0.331800  0.516000  0.416800  1.0  0.523
  C  C45  1  0.348500  0.598800  0.314500  1.0  -0.0302
  C  C46  1  0.355500  0.538400  0.231400  1.0  -0.1563
  C  C47  1  0.361300  0.610100  0.136700  1.0  0.1897
  C  C48  1  0.355200  0.792200  0.196900  1.0  0.2011
  C  C49  1  0.349600  0.728600  0.295900  1.0  -0.1848
  C  C50  1  0.093700  0.891500  0.719100  1.0  0.6375
  C  C51  1  0.973700  0.880900  0.670600  1.0  -0.132
  C  C52  1  0.840600  0.896900  0.718800  1.0  -0.0216
  C  C53  1  0.736900  0.887500  0.670200  1.0  -0.1217
  C  C54  1  0.764100  0.860500  0.571300  1.0  -0.0819
  C  C55  1  0.894800  0.839400  0.525700  1.0  0.1955
  C  C56  1  0.001700  0.851900  0.574800  1.0  -0.1155
  C  C57  1  0.590800  0.903100  0.716700  1.0  0.6544
  C  C58  1  0.005700  0.706800  0.408900  1.0  0.5145
  C  C59  1  0.008600  0.664500  0.310200  1.0  0.0032
  C  C60  1  0.009900  0.534300  0.310800  1.0  -0.1188
  C  C61  1  0.015300  0.494000  0.220700  1.0  0.1718
  C  C62  1  0.025000  0.696200  0.132100  1.0  0.174
  C  C63  1  0.017100  0.745000  0.218500  1.0  -0.1574
  C  C64  1  0.699700  0.472300  0.227900  1.0  -0.1472
  C  C65  1  0.703600  0.602800  0.199200  1.0  -0.0291
  C  C66  1  0.683600  0.676900  0.274700  1.0  -0.1171
  C  C67  1  0.664800  0.622200  0.375600  1.0  -0.1471
  C  C68  1  0.663900  0.491300  0.404100  1.0  0.2177
  C  C69  1  0.677300  0.417100  0.329900  1.0  -0.1109
  C  C70  1  0.687900  0.817800  0.247700  1.0  0.636
  C  C71  1  0.731000  0.390900  0.148000  1.0  0.7431
  C  C72  1  0.668200  0.484000  0.583200  1.0  0.5233
  C  C73  1  0.651500  0.401200  0.685500  1.0  -0.0294
  C  C74  1  0.644500  0.461600  0.768600  1.0  -0.1559
  C  C75  1  0.638700  0.389900  0.863300  1.0  0.1897
  C  C76  1  0.644800  0.207800  0.803100  1.0  0.2038
  C  C77  1  0.650400  0.271400  0.704100  1.0  -0.1808
  C  C78  1  0.906300  0.108500  0.280900  1.0  0.6366
  C  C79  1  0.026300  0.119100  0.329400  1.0  -0.1318
  C  C80  1  0.159400  0.103100  0.281200  1.0  -0.0224
  C  C81  1  0.263100  0.112500  0.329800  1.0  -0.1222
  C  C82  1  0.235900  0.139500  0.428700  1.0  -0.0808
  C  C83  1  0.105200  0.160600  0.474300  1.0  0.1954
  C  C84  1  0.998300  0.148100  0.425200  1.0  -0.1151
  C  C85  1  0.409200  0.096900  0.283300  1.0  0.6601
  C  C86  1  0.994300  0.293200  0.591100  1.0  0.5141
  C  C87  1  0.991400  0.335500  0.689800  1.0  0.0047
  C  C88  1  0.990100  0.465700  0.689200  1.0  -0.1195
  C  C89  1  0.984700  0.506000  0.779300  1.0  0.1708
  C  C90  1  0.975000  0.303800  0.867900  1.0  0.1749
  C  C91  1  0.982900  0.255000  0.781500  1.0  -0.1555
  N  N92  1  0.353800  0.569100  0.494500  1.0  -0.3838
  N  N93  1  0.361700  0.735500  0.118300  1.0  -0.372
  N  N94  1  0.920300  0.804500  0.428600  1.0  -0.3895
  N  N95  1  0.020700  0.570800  0.132700  1.0  -0.3412
  N  N96  1  0.646200  0.430900  0.505500  1.0  -0.3837
  N  N97  1  0.638300  0.264500  0.881700  1.0  -0.3712
  N  N98  1  0.079700  0.195500  0.571400  1.0  -0.3893
  N  N99  1  0.979300  0.429200  0.867300  1.0  -0.3418
  O  O100  1  0.193600  0.568400  0.933200  1.0  -0.5785
  O  O101  1  0.324500  0.716600  0.830400  1.0  -0.6884
  O  O102  1  0.293500  0.117900  0.689400  1.0  -0.604
  O  O103  1  0.329200  0.125400  0.838400  1.0  -0.6085
  O  O104  1  0.305700  0.405700  0.425200  1.0  -0.4471
  O  O105  1  0.209600  0.883700  0.669400  1.0  -0.5748
  O  O106  1  0.076400  0.908000  0.810700  1.0  -0.6449
  O  O107  1  0.556200  0.903300  0.811000  1.0  -0.5831
  O  O108  1  0.501100  0.916700  0.664700  1.0  -0.5663
  O  O109  1  0.077300  0.651500  0.467200  1.0  -0.4738
  O  O110  1  0.806400  0.431600  0.066800  1.0  -0.5806
  O  O111  1  0.675500  0.283400  0.169600  1.0  -0.6923
  O  O112  1  0.706500  0.882100  0.310600  1.0  -0.606
  O  O113  1  0.670800  0.874600  0.161600  1.0  -0.6119
  O  O114  1  0.694300  0.594300  0.574800  1.0  -0.4452
  O  O115  1  0.790400  0.116300  0.330600  1.0  -0.5767
  O  O116  1  0.923600  0.092000  0.189300  1.0  -0.6468
  O  O117  1  0.443800  0.096700  0.189000  1.0  -0.5819
  O  O118  1  0.498900  0.083300  0.335300  1.0  -0.5693
  O  O119  1  0.922700  0.348500  0.532800  1.0  -0.4746
