# generated using pymatgen
data_Tb2CoH32C56(N2O5)4
_symmetry_space_group_name_H-M   'P 1'
_cell_length_a   10.11600000
_cell_length_b   10.81800000
_cell_length_c   13.73100000
_cell_angle_alpha   79.14300000
_cell_angle_beta   78.79300000
_cell_angle_gamma   86.29600000
_symmetry_Int_Tables_number   1
_chemical_formula_structural   Tb2CoH32C56(N2O5)4
_chemical_formula_sum   'Tb2 Co1 H32 C56 N8 O20'
_cell_volume   1447.00171474
_cell_formula_units_Z   1
loop_
 _symmetry_equiv_pos_site_id
 _symmetry_equiv_pos_as_xyz
  1  'x, y, z'
loop_
 _atom_site_type_symbol
 _atom_site_label
 _atom_site_symmetry_multiplicity
 _atom_site_fract_x
 _atom_site_fract_y
 _atom_site_fract_z
 _atom_site_occupancy
 _atom_site_charge
  Tb  Tb1  1  0.318990  0.922520  0.296870  1.0  2.1648
  Tb  Tb2  1  0.681010  0.077480  0.703130  1.0  2.1632
  Co  Co3  1  0.000000  0.500000  0.500000  1.0  0.8335
  H  H4  1  0.327400  0.669600  0.153000  1.0  0.1172
  H  H5  1  0.346500  0.328800  0.076600  1.0  0.1196
  H  H6  1  0.281500  0.360400  0.368100  1.0  0.1132
  H  H7  1  0.345700  0.773700  0.850900  1.0  0.1251
  H  H8  1  0.353400  0.881200  0.689900  1.0  0.0748
  H  H9  1  0.365300  0.571800  0.585100  1.0  0.0818
  H  H10  1  0.356900  0.454400  0.742700  1.0  0.1233
  H  H11  1  0.823300  0.913800  0.281400  1.0  0.109
  H  H12  1  0.089500  0.838800  0.040800  1.0  0.1145
  H  H13  1  0.695200  0.853400  0.036400  1.0  0.1203
  H  H14  1  0.017100  0.829200  0.715900  1.0  0.1314
  H  H15  1  0.032800  0.749100  0.571300  1.0  0.0869
  H  H16  1  0.014000  0.407200  0.723000  1.0  0.0757
  H  H17  1  0.008400  0.477300  0.870800  1.0  0.1284
  H  H18  1  0.379400  0.645800  0.982200  1.0  0.3195
  H  H19  1  0.881300  0.842800  0.880700  1.0  0.2988
  H  H20  1  0.672600  0.330400  0.847000  1.0  0.1184
  H  H21  1  0.653500  0.671200  0.923400  1.0  0.1192
  H  H22  1  0.718500  0.639600  0.631900  1.0  0.1143
  H  H23  1  0.654300  0.226300  0.149100  1.0  0.1248
  H  H24  1  0.646600  0.118800  0.310100  1.0  0.0743
  H  H25  1  0.634700  0.428200  0.414900  1.0  0.0821
  H  H26  1  0.643100  0.545600  0.257300  1.0  0.1227
  H  H27  1  0.176700  0.086200  0.718600  1.0  0.1085
  H  H28  1  0.910500  0.161200  0.959200  1.0  0.1136
  H  H29  1  0.304800  0.146600  0.963600  1.0  0.1214
  H  H30  1  0.982900  0.170800  0.284100  1.0  0.131
  H  H31  1  0.967200  0.250900  0.428700  1.0  0.0865
  H  H32  1  0.986000  0.592800  0.277000  1.0  0.0752
  H  H33  1  0.991600  0.522700  0.129200  1.0  0.1286
  H  H34  1  0.620600  0.354200  0.017800  1.0  0.3204
  H  H35  1  0.118700  0.157200  0.119300  1.0  0.2992
  C  C36  1  0.298400  0.527700  0.273200  1.0  -0.1684
  C  C37  1  0.321700  0.582600  0.171400  1.0  -0.122
  C  C38  1  0.336400  0.509600  0.097500  1.0  0.1946
  C  C39  1  0.334800  0.379200  0.125700  1.0  -0.1414
  C  C40  1  0.315900  0.324900  0.226300  1.0  -0.1166
  C  C41  1  0.296200  0.398100  0.300400  1.0  -0.0238
  C  C42  1  0.312700  0.184900  0.252800  1.0  0.6622
  C  C43  1  0.267300  0.606000  0.353800  1.0  0.7733
  C  C44  1  0.333900  0.517800  0.918100  1.0  0.5095
  C  C45  1  0.347900  0.599700  0.816100  1.0  -0.0356
  C  C46  1  0.348600  0.730100  0.798200  1.0  -0.1801
  C  C47  1  0.353800  0.793700  0.700900  1.0  0.1997
  C  C48  1  0.360600  0.613000  0.639400  1.0  0.1822
  C  C49  1  0.355400  0.541800  0.734100  1.0  -0.1596
  C  C50  1  0.737500  0.885800  0.168100  1.0  -0.1221
  C  C51  1  0.841400  0.896100  0.216400  1.0  -0.008
  C  C52  1  0.974100  0.880000  0.168300  1.0  -0.1463
  C  C53  1  0.000800  0.850400  0.072700  1.0  -0.1217
  C  C54  1  0.895800  0.837800  0.024200  1.0  0.197
  C  C55  1  0.765400  0.858100  0.070200  1.0  -0.0862
  C  C56  1  0.592900  0.901900  0.215000  1.0  0.6614
  C  C57  1  0.091100  0.890600  0.217600  1.0  0.6593
  C  C58  1  0.005900  0.705000  0.907800  1.0  0.4995
  C  C59  1  0.009500  0.661700  0.809700  1.0  0.0079
  C  C60  1  0.017000  0.742600  0.718900  1.0  -0.17
  C  C61  1  0.024600  0.693600  0.632700  1.0  0.1752
  C  C62  1  0.015000  0.493400  0.721400  1.0  0.1668
  C  C63  1  0.010600  0.534400  0.810800  1.0  -0.123
  C  C64  1  0.701600  0.472300  0.726800  1.0  -0.1663
  C  C65  1  0.678300  0.417400  0.828600  1.0  -0.122
  C  C66  1  0.663600  0.490400  0.902500  1.0  0.1948
  C  C67  1  0.665200  0.620800  0.874300  1.0  -0.1422
  C  C68  1  0.684100  0.675100  0.773700  1.0  -0.117
  C  C69  1  0.703800  0.601900  0.699600  1.0  -0.0227
  C  C70  1  0.687300  0.815100  0.747200  1.0  0.6638
  C  C71  1  0.732700  0.394000  0.646200  1.0  0.7741
  C  C72  1  0.666100  0.482200  0.081900  1.0  0.5088
  C  C73  1  0.652100  0.400300  0.183900  1.0  -0.0347
  C  C74  1  0.651400  0.269900  0.201800  1.0  -0.1774
  C  C75  1  0.646200  0.206300  0.299100  1.0  0.2007
  C  C76  1  0.639400  0.387000  0.360600  1.0  0.1823
  C  C77  1  0.644600  0.458200  0.265900  1.0  -0.1596
  C  C78  1  0.262500  0.114200  0.831900  1.0  -0.1203
  C  C79  1  0.158600  0.103900  0.783600  1.0  -0.0064
  C  C80  1  0.025900  0.120000  0.831700  1.0  -0.1468
  C  C81  1  0.999200  0.149600  0.927300  1.0  -0.1202
  C  C82  1  0.104200  0.162200  0.975800  1.0  0.1968
  C  C83  1  0.234600  0.141900  0.929800  1.0  -0.0861
  C  C84  1  0.407100  0.098100  0.785000  1.0  0.6624
  C  C85  1  0.908900  0.109400  0.782400  1.0  0.6573
  C  C86  1  0.994100  0.295000  0.092200  1.0  0.499
  C  C87  1  0.990500  0.338300  0.190300  1.0  0.0093
  C  C88  1  0.983000  0.257400  0.281100  1.0  -0.1674
  C  C89  1  0.975400  0.306400  0.367300  1.0  0.1764
  C  C90  1  0.985000  0.506600  0.278600  1.0  0.166
  C  C91  1  0.989400  0.465600  0.189200  1.0  -0.1252
  N  N92  1  0.353700  0.569200  0.996000  1.0  -0.4058
  N  N93  1  0.359300  0.738400  0.621800  1.0  -0.4293
  N  N94  1  0.921100  0.801800  0.927400  1.0  -0.3964
  N  N95  1  0.020700  0.570400  0.632100  1.0  -0.3775
  N  N96  1  0.646300  0.430800  0.004000  1.0  -0.4056
  N  N97  1  0.640700  0.261600  0.378200  1.0  -0.4236
  N  N98  1  0.078900  0.198200  0.072600  1.0  -0.396
  N  N99  1  0.979300  0.429600  0.367900  1.0  -0.3805
  O  O100  1  0.192900  0.564400  0.435100  1.0  -0.5982
  O  O101  1  0.320100  0.712600  0.335600  1.0  -0.7523
  O  O102  1  0.329300  0.129000  0.338800  1.0  -0.6939
  O  O103  1  0.293900  0.122800  0.189500  1.0  -0.6422
  O  O104  1  0.307900  0.408300  0.926000  1.0  -0.4682
  O  O105  1  0.559000  0.901100  0.309300  1.0  -0.6431
  O  O106  1  0.503700  0.915900  0.162500  1.0  -0.6429
  O  O107  1  0.073200  0.905200  0.309200  1.0  -0.7296
  O  O108  1  0.208200  0.885400  0.167400  1.0  -0.6322
  O  O109  1  0.075400  0.648700  0.966900  1.0  -0.4839
  O  O110  1  0.807100  0.435600  0.564900  1.0  -0.6002
  O  O111  1  0.679900  0.287400  0.664400  1.0  -0.753
  O  O112  1  0.670700  0.871000  0.661200  1.0  -0.691
  O  O113  1  0.706100  0.877200  0.810500  1.0  -0.6414
  O  O114  1  0.692100  0.591700  0.074000  1.0  -0.4687
  O  O115  1  0.441000  0.098900  0.690700  1.0  -0.6402
  O  O116  1  0.496300  0.084100  0.837500  1.0  -0.6442
  O  O117  1  0.926800  0.094800  0.690800  1.0  -0.7275
  O  O118  1  0.791800  0.114600  0.832600  1.0  -0.6302
  O  O119  1  0.924600  0.351300  0.033100  1.0  -0.485
