# generated using pymatgen
data_Dy2CoH32C56(N2O5)4
_symmetry_space_group_name_H-M   'P 1'
_cell_length_a   10.11080000
_cell_length_b   10.81100000
_cell_length_c   13.74090000
_cell_angle_alpha   79.13900000
_cell_angle_beta   78.74500000
_cell_angle_gamma   86.21900000
_symmetry_Int_Tables_number   1
_chemical_formula_structural   Dy2CoH32C56(N2O5)4
_chemical_formula_sum   'Dy2 Co1 H32 C56 N8 O20'
_cell_volume   1446.05167810
_cell_formula_units_Z   1
loop_
 _symmetry_equiv_pos_site_id
 _symmetry_equiv_pos_as_xyz
  1  'x, y, z'
loop_
 _atom_site_type_symbol
 _atom_site_label
 _atom_site_symmetry_multiplicity
 _atom_site_fract_x
 _atom_site_fract_y
 _atom_site_fract_z
 _atom_site_occupancy
 _atom_site_charge
  Dy  Dy1  1  0.181890  0.077450  0.203230  1.0  2.1971
  Dy  Dy2  1  0.818110  0.922550  0.796770  1.0  2.1981
  Co  Co3  1  0.500000  0.500000  0.000000  1.0  0.8072
  H  H4  1  0.172500  0.329700  0.346600  1.0  0.1196
  H  H5  1  0.153400  0.671700  0.424000  1.0  0.1215
  H  H6  1  0.217900  0.640600  0.131800  1.0  0.1154
  H  H7  1  0.144300  0.545500  0.758000  1.0  0.121
  H  H8  1  0.134500  0.427700  0.915700  1.0  0.0812
  H  H9  1  0.145000  0.118300  0.811200  1.0  0.0744
  H  H10  1  0.154800  0.225200  0.649800  1.0  0.1253
  H  H11  1  0.806100  0.146900  0.462500  1.0  0.1227
  H  H12  1  0.410900  0.160000  0.459700  1.0  0.1166
  H  H13  1  0.676300  0.086500  0.217700  1.0  0.1119
  H  H14  1  0.491200  0.522700  0.629900  1.0  0.1254
  H  H15  1  0.487700  0.592900  0.777500  1.0  0.0769
  H  H16  1  0.466600  0.250900  0.929300  1.0  0.0877
  H  H17  1  0.480800  0.169600  0.784500  1.0  0.1331
  H  H18  1  0.120900  0.353600  0.518400  1.0  0.3203
  H  H19  1  0.618800  0.157100  0.618400  1.0  0.2973
  H  H20  1  0.827500  0.670300  0.653400  1.0  0.1191
  H  H21  1  0.846600  0.328300  0.576000  1.0  0.1218
  H  H22  1  0.782100  0.359400  0.868200  1.0  0.1149
  H  H23  1  0.855700  0.454500  0.242000  1.0  0.1217
  H  H24  1  0.865500  0.572300  0.084300  1.0  0.0809
  H  H25  1  0.855000  0.881700  0.188800  1.0  0.0751
  H  H26  1  0.845200  0.774800  0.350200  1.0  0.1255
  H  H27  1  0.193900  0.853100  0.537500  1.0  0.1219
  H  H28  1  0.589100  0.840000  0.540300  1.0  0.1167
  H  H29  1  0.323700  0.913500  0.782300  1.0  0.1119
  H  H30  1  0.508800  0.477300  0.370100  1.0  0.1252
  H  H31  1  0.512300  0.407100  0.222500  1.0  0.0772
  H  H32  1  0.533400  0.749100  0.070700  1.0  0.0879
  H  H33  1  0.519200  0.830400  0.215500  1.0  0.1327
  H  H34  1  0.879100  0.646400  0.481600  1.0  0.3193
  H  H35  1  0.381200  0.842900  0.381600  1.0  0.2969
  C  C36  1  0.200800  0.472700  0.227000  1.0  -0.1519
  C  C37  1  0.178000  0.416800  0.328500  1.0  -0.1097
  C  C38  1  0.163500  0.490100  0.403000  1.0  0.2062
  C  C39  1  0.165000  0.621300  0.374900  1.0  -0.157
  C  C40  1  0.183700  0.675300  0.274500  1.0  -0.1191
  C  C41  1  0.203300  0.602700  0.199500  1.0  -0.02
  C  C42  1  0.187200  0.814600  0.247200  1.0  0.6546
  C  C43  1  0.232400  0.392900  0.146600  1.0  0.7776
  C  C44  1  0.165200  0.482700  0.581900  1.0  0.5098
  C  C45  1  0.151700  0.399700  0.684400  1.0  -0.0366
  C  C46  1  0.145000  0.458100  0.766700  1.0  -0.1532
  C  C47  1  0.139200  0.386500  0.861500  1.0  0.1837
  C  C48  1  0.145300  0.205900  0.799900  1.0  0.2013
  C  C49  1  0.151200  0.269100  0.702400  1.0  -0.1884
  C  C50  1  0.763400  0.113600  0.331600  1.0  -0.1284
  C  C51  1  0.735600  0.141600  0.429000  1.0  -0.0776
  C  C52  1  0.604700  0.161300  0.475500  1.0  0.1913
  C  C53  1  0.499600  0.148900  0.427600  1.0  -0.1186
  C  C54  1  0.526600  0.119700  0.331000  1.0  -0.1464
  C  C55  1  0.658400  0.103800  0.282800  1.0  -0.0149
  C  C56  1  0.908600  0.098300  0.283500  1.0  0.6681
  C  C57  1  0.408800  0.108700  0.282700  1.0  0.6521
  C  C58  1  0.495800  0.294500  0.591300  1.0  0.5058
  C  C59  1  0.490200  0.338200  0.690400  1.0  -0.0027
  C  C60  1  0.489300  0.465300  0.689800  1.0  -0.116
  C  C61  1  0.485600  0.506700  0.779100  1.0  0.1604
  C  C62  1  0.474700  0.306100  0.867900  1.0  0.1727
  C  C63  1  0.481700  0.256200  0.781400  1.0  -0.1674
  C  C64  1  0.799200  0.527300  0.773000  1.0  -0.1576
  C  C65  1  0.822000  0.583200  0.671500  1.0  -0.11
  C  C66  1  0.836500  0.509900  0.597000  1.0  0.2068
  C  C67  1  0.835000  0.378700  0.625100  1.0  -0.1568
  C  C68  1  0.816300  0.324700  0.725500  1.0  -0.1186
  C  C69  1  0.796700  0.397300  0.800500  1.0  -0.02
  C  C70  1  0.812800  0.185400  0.752800  1.0  0.6528
  C  C71  1  0.767600  0.607100  0.853400  1.0  0.7751
  C  C72  1  0.834800  0.517300  0.418100  1.0  0.5106
  C  C73  1  0.848300  0.600300  0.315600  1.0  -0.0367
  C  C74  1  0.855000  0.541900  0.233300  1.0  -0.1537
  C  C75  1  0.860800  0.613500  0.138500  1.0  0.1838
  C  C76  1  0.854700  0.794100  0.200100  1.0  0.1991
  C  C77  1  0.848800  0.730900  0.297600  1.0  -0.1908
  C  C78  1  0.236600  0.886400  0.668400  1.0  -0.1277
  C  C79  1  0.264400  0.858400  0.571000  1.0  -0.0767
  C  C80  1  0.395300  0.838700  0.524500  1.0  0.1916
  C  C81  1  0.500400  0.851100  0.572400  1.0  -0.1185
  C  C82  1  0.473400  0.880300  0.669000  1.0  -0.1454
  C  C83  1  0.341600  0.896200  0.717200  1.0  -0.0159
  C  C84  1  0.091400  0.901700  0.716500  1.0  0.667
  C  C85  1  0.591200  0.891300  0.717300  1.0  0.6552
  C  C86  1  0.504200  0.705500  0.408700  1.0  0.5061
  C  C87  1  0.509800  0.661800  0.309600  1.0  -0.0027
  C  C88  1  0.510700  0.534700  0.310200  1.0  -0.1164
  C  C89  1  0.514400  0.493300  0.220900  1.0  0.1615
  C  C90  1  0.525300  0.693900  0.132100  1.0  0.1721
  C  C91  1  0.518300  0.743800  0.218600  1.0  -0.1691
  N  N92  1  0.146100  0.430400  0.504500  1.0  -0.4081
  N  N93  1  0.140000  0.261700  0.879100  1.0  -0.4216
  N  N94  1  0.579200  0.198200  0.571600  1.0  -0.3919
  N  N95  1  0.479000  0.429100  0.867900  1.0  -0.3566
  N  N96  1  0.853900  0.569600  0.495500  1.0  -0.4084
  N  N97  1  0.860000  0.738300  0.120900  1.0  -0.4295
  N  N98  1  0.420800  0.801800  0.428400  1.0  -0.3921
  N  N99  1  0.521000  0.570900  0.132100  1.0  -0.3552
  O  O100  1  0.306900  0.435100  0.065100  1.0  -0.594
  O  O101  1  0.180100  0.286500  0.165400  1.0  -0.7576
  O  O102  1  0.170800  0.871700  0.161800  1.0  -0.6842
  O  O103  1  0.207200  0.878200  0.310700  1.0  -0.644
  O  O104  1  0.192100  0.591800  0.574400  1.0  -0.4669
  O  O105  1  0.942700  0.098800  0.190600  1.0  -0.6811
  O  O106  1  0.997600  0.084200  0.336400  1.0  -0.6559
  O  O107  1  0.426500  0.093300  0.190800  1.0  -0.7205
  O  O108  1  0.291700  0.115100  0.332200  1.0  -0.6318
  O  O109  1  0.424000  0.351100  0.533100  1.0  -0.4956
  O  O110  1  0.693100  0.564900  0.934900  1.0  -0.5918
  O  O111  1  0.819900  0.713500  0.834600  1.0  -0.7564
  O  O112  1  0.829200  0.128300  0.838200  1.0  -0.6906
  O  O113  1  0.792800  0.121800  0.689300  1.0  -0.6534
  O  O114  1  0.807900  0.408200  0.425600  1.0  -0.4668
  O  O115  1  0.057300  0.901200  0.809400  1.0  -0.6808
  O  O116  1  0.002400  0.915800  0.663600  1.0  -0.6551
  O  O117  1  0.573500  0.906700  0.809200  1.0  -0.7234
  O  O118  1  0.708300  0.884900  0.667800  1.0  -0.6341
  O  O119  1  0.576000  0.648900  0.466900  1.0  -0.4951
