# generated using pymatgen
data_Er2CoH32C56(N2O5)4
_symmetry_space_group_name_H-M   'P 1'
_cell_length_a   10.08160000
_cell_length_b   10.78440000
_cell_length_c   13.73160000
_cell_angle_alpha   79.17400000
_cell_angle_beta   78.77100000
_cell_angle_gamma   86.35500000
_symmetry_Int_Tables_number   1
_chemical_formula_structural   Er2CoH32C56(N2O5)4
_chemical_formula_sum   'Er2 Co1 H32 C56 N8 O20'
_cell_volume   1437.74685223
_cell_formula_units_Z   1
loop_
 _symmetry_equiv_pos_site_id
 _symmetry_equiv_pos_as_xyz
  1  'x, y, z'
loop_
 _atom_site_type_symbol
 _atom_site_label
 _atom_site_symmetry_multiplicity
 _atom_site_fract_x
 _atom_site_fract_y
 _atom_site_fract_z
 _atom_site_occupancy
 _atom_site_charge
  Er  Er1  1  0.181760  0.077760  0.203740  1.0  1.4381
  Er  Er2  1  0.818240  0.922240  0.796260  1.0  1.4371
  Co  Co3  1  0.500000  0.500000  0.000000  1.0  0.8079
  H  H4  1  0.171200  0.329300  0.347200  1.0  0.1266
  H  H5  1  0.154300  0.673400  0.423800  1.0  0.1199
  H  H6  1  0.219700  0.640600  0.131800  1.0  0.1191
  H  H7  1  0.141600  0.547400  0.759400  1.0  0.1295
  H  H8  1  0.133800  0.430200  0.915700  1.0  0.0872
  H  H9  1  0.144200  0.118400  0.811200  1.0  0.0854
  H  H10  1  0.154300  0.227000  0.650900  1.0  0.1299
  H  H11  1  0.805400  0.147300  0.462500  1.0  0.1236
  H  H12  1  0.410400  0.158000  0.458700  1.0  0.1217
  H  H13  1  0.676300  0.085300  0.216500  1.0  0.1179
  H  H14  1  0.492300  0.521700  0.629100  1.0  0.13
  H  H15  1  0.485000  0.593200  0.777500  1.0  0.0812
  H  H16  1  0.464600  0.250300  0.929700  1.0  0.094
  H  H17  1  0.483300  0.167000  0.784900  1.0  0.1347
  H  H18  1  0.119900  0.353700  0.518100  1.0  0.3254
  H  H19  1  0.616900  0.154000  0.619400  1.0  0.3029
  H  H20  1  0.828800  0.670700  0.652800  1.0  0.1262
  H  H21  1  0.845700  0.326600  0.576200  1.0  0.1199
  H  H22  1  0.780300  0.359400  0.868200  1.0  0.1183
  H  H23  1  0.858400  0.452600  0.240600  1.0  0.1297
  H  H24  1  0.866200  0.569800  0.084300  1.0  0.0873
  H  H25  1  0.855800  0.881600  0.188800  1.0  0.0855
  H  H26  1  0.845700  0.773000  0.349100  1.0  0.129
  H  H27  1  0.194600  0.852700  0.537500  1.0  0.1226
  H  H28  1  0.589600  0.842000  0.541300  1.0  0.1223
  H  H29  1  0.323700  0.914700  0.783500  1.0  0.1178
  H  H30  1  0.507700  0.478300  0.370900  1.0  0.1296
  H  H31  1  0.515000  0.406800  0.222500  1.0  0.082
  H  H32  1  0.535400  0.749700  0.070300  1.0  0.0939
  H  H33  1  0.516700  0.833000  0.215100  1.0  0.1345
  H  H34  1  0.880100  0.646300  0.481900  1.0  0.3246
  H  H35  1  0.383100  0.846000  0.380600  1.0  0.3035
  C  C36  1  0.201000  0.472600  0.227700  1.0  -0.1299
  C  C37  1  0.177700  0.416500  0.329100  1.0  -0.1089
  C  C38  1  0.164000  0.490900  0.404100  1.0  0.2168
  C  C39  1  0.165500  0.622300  0.375100  1.0  -0.141
  C  C40  1  0.183300  0.675700  0.275000  1.0  -0.1127
  C  C41  1  0.204100  0.602800  0.199600  1.0  -0.0173
  C  C42  1  0.186900  0.816300  0.248200  1.0  0.6395
  C  C43  1  0.231800  0.392600  0.147400  1.0  0.7551
  C  C44  1  0.165100  0.483100  0.583000  1.0  0.4986
  C  C45  1  0.150600  0.400000  0.685800  1.0  -0.031
  C  C46  1  0.143200  0.459700  0.768200  1.0  -0.1535
  C  C47  1  0.138500  0.388400  0.861700  1.0  0.1863
  C  C48  1  0.144800  0.206100  0.800400  1.0  0.1948
  C  C49  1  0.150500  0.270600  0.703700  1.0  -0.1739
  C  C50  1  0.764000  0.112900  0.331000  1.0  -0.1177
  C  C51  1  0.735100  0.141400  0.428900  1.0  -0.0709
  C  C52  1  0.605700  0.160300  0.474300  1.0  0.1793
  C  C53  1  0.499400  0.147900  0.426200  1.0  -0.1149
  C  C54  1  0.526200  0.120400  0.330200  1.0  -0.1294
  C  C55  1  0.658600  0.103200  0.281500  1.0  -0.0178
  C  C56  1  0.909200  0.098100  0.283000  1.0  0.648
  C  C57  1  0.407300  0.108400  0.282300  1.0  0.6405
  C  C58  1  0.494200  0.293500  0.590200  1.0  0.5267
  C  C59  1  0.490600  0.336400  0.690000  1.0  0.0036
  C  C60  1  0.489600  0.464500  0.689200  1.0  -0.1124
  C  C61  1  0.484500  0.506700  0.778900  1.0  0.1719
  C  C62  1  0.474200  0.305100  0.867900  1.0  0.1825
  C  C63  1  0.482800  0.254000  0.781600  1.0  -0.1529
  C  C64  1  0.799000  0.527400  0.772300  1.0  -0.1347
  C  C65  1  0.822300  0.583500  0.670900  1.0  -0.1083
  C  C66  1  0.836000  0.509100  0.595900  1.0  0.2168
  C  C67  1  0.834500  0.377700  0.624900  1.0  -0.14
  C  C68  1  0.816700  0.324300  0.725000  1.0  -0.1113
  C  C69  1  0.795900  0.397200  0.800400  1.0  -0.0178
  C  C70  1  0.813100  0.183700  0.751800  1.0  0.637
  C  C71  1  0.768200  0.607400  0.852600  1.0  0.7538
  C  C72  1  0.834900  0.516900  0.417000  1.0  0.4994
  C  C73  1  0.849400  0.600000  0.314200  1.0  -0.032
  C  C74  1  0.856800  0.540300  0.231800  1.0  -0.1541
  C  C75  1  0.861500  0.611600  0.138300  1.0  0.1857
  C  C76  1  0.855200  0.793900  0.199600  1.0  0.193
  C  C77  1  0.849500  0.729400  0.296300  1.0  -0.1774
  C  C78  1  0.236000  0.887100  0.669000  1.0  -0.117
  C  C79  1  0.264900  0.858600  0.571100  1.0  -0.0706
  C  C80  1  0.394300  0.839700  0.525700  1.0  0.1807
  C  C81  1  0.500600  0.852100  0.573800  1.0  -0.1153
  C  C82  1  0.473800  0.879600  0.669800  1.0  -0.1289
  C  C83  1  0.341400  0.896800  0.718500  1.0  -0.019
  C  C84  1  0.090800  0.901900  0.717000  1.0  0.6466
  C  C85  1  0.592700  0.891600  0.717700  1.0  0.6433
  C  C86  1  0.505800  0.706500  0.409800  1.0  0.5275
  C  C87  1  0.509400  0.663600  0.310000  1.0  0.0024
  C  C88  1  0.510400  0.535500  0.310800  1.0  -0.1116
  C  C89  1  0.515500  0.493300  0.221100  1.0  0.1717
  C  C90  1  0.525800  0.694900  0.132100  1.0  0.183
  C  C91  1  0.517200  0.746000  0.218400  1.0  -0.1538
  N  N92  1  0.145700  0.430600  0.504600  1.0  -0.3693
  N  N93  1  0.140000  0.262400  0.880900  1.0  -0.3806
  N  N94  1  0.578700  0.195700  0.572000  1.0  -0.3945
  N  N95  1  0.478800  0.429000  0.867700  1.0  -0.3491
  N  N96  1  0.854300  0.569400  0.495400  1.0  -0.3706
  N  N97  1  0.860000  0.737600  0.119100  1.0  -0.3814
  N  N98  1  0.421300  0.804300  0.428000  1.0  -0.3959
  N  N99  1  0.521200  0.571000  0.132300  1.0  -0.3478
  O  O100  1  0.305900  0.434400  0.065400  1.0  -0.5852
  O  O101  1  0.179300  0.285300  0.166500  1.0  -0.6842
  O  O102  1  0.170300  0.872900  0.162100  1.0  -0.6243
  O  O103  1  0.207500  0.880000  0.310200  1.0  -0.6074
  O  O104  1  0.192600  0.593000  0.574900  1.0  -0.448
  O  O105  1  0.943900  0.098500  0.189200  1.0  -0.5795
  O  O106  1  0.998400  0.084100  0.335600  1.0  -0.5864
  O  O107  1  0.424200  0.092100  0.191000  1.0  -0.6599
  O  O108  1  0.290500  0.115600  0.331400  1.0  -0.5957
  O  O109  1  0.424800  0.350300  0.533200  1.0  -0.4607
  O  O110  1  0.694100  0.565600  0.934600  1.0  -0.584
  O  O111  1  0.820700  0.714700  0.833500  1.0  -0.6833
  O  O112  1  0.829700  0.127100  0.837900  1.0  -0.6219
  O  O113  1  0.792500  0.120000  0.689800  1.0  -0.6088
  O  O114  1  0.807400  0.407000  0.425100  1.0  -0.447
  O  O115  1  0.056100  0.901500  0.810800  1.0  -0.5838
  O  O116  1  0.001600  0.915900  0.664400  1.0  -0.5806
  O  O117  1  0.575800  0.907900  0.809000  1.0  -0.657
  O  O118  1  0.709500  0.884400  0.668600  1.0  -0.5998
  O  O119  1  0.575200  0.649700  0.466800  1.0  -0.4602
