# generated using pymatgen
data_Ho2CoH32C56(N2O5)4
_symmetry_space_group_name_H-M   'P 1'
_cell_length_a   10.05970000
_cell_length_b   10.78240000
_cell_length_c   13.72610000
_cell_angle_alpha   79.14100000
_cell_angle_beta   78.80100000
_cell_angle_gamma   86.57800000
_symmetry_Int_Tables_number   1
_chemical_formula_structural   Ho2CoH32C56(N2O5)4
_chemical_formula_sum   'Ho2 Co1 H32 C56 N8 O20'
_cell_volume   1433.92472465
_cell_formula_units_Z   1
loop_
 _symmetry_equiv_pos_site_id
 _symmetry_equiv_pos_as_xyz
  1  'x, y, z'
loop_
 _atom_site_type_symbol
 _atom_site_label
 _atom_site_symmetry_multiplicity
 _atom_site_fract_x
 _atom_site_fract_y
 _atom_site_fract_z
 _atom_site_occupancy
 _atom_site_charge
  Ho  Ho1  1  0.319430  0.922160  0.795660  1.0  2.1007
  Ho  Ho2  1  0.680570  0.077840  0.204340  1.0  2.0982
  Co  Co3  1  0.000000  0.500000  0.000000  1.0  0.7404
  H  H4  1  0.280700  0.359300  0.868500  1.0  0.1109
  H  H5  1  0.347100  0.327000  0.575400  1.0  0.1168
  H  H6  1  0.329100  0.670400  0.651500  1.0  0.1169
  H  H7  1  0.354800  0.450600  0.240000  1.0  0.1231
  H  H8  1  0.366600  0.569000  0.082400  1.0  0.0793
  H  H9  1  0.354700  0.879500  0.185000  1.0  0.0725
  H  H10  1  0.346400  0.774000  0.347500  1.0  0.122
  H  H11  1  0.822600  0.913000  0.784600  1.0  0.1086
  H  H12  1  0.693000  0.856000  0.537700  1.0  0.1219
  H  H13  1  0.091400  0.842100  0.543200  1.0  0.1172
  H  H14  1  0.008000  0.477200  0.370600  1.0  0.1247
  H  H15  1  0.014800  0.407100  0.222000  1.0  0.0737
  H  H16  1  0.034200  0.751500  0.070500  1.0  0.0984
  H  H17  1  0.016900  0.832100  0.215600  1.0  0.1196
  H  H18  1  0.380400  0.645900  0.480400  1.0  0.3191
  H  H19  1  0.881000  0.847100  0.382400  1.0  0.2977
  H  H20  1  0.719300  0.640700  0.131500  1.0  0.1115
  H  H21  1  0.652900  0.673000  0.424600  1.0  0.1163
  H  H22  1  0.670900  0.329600  0.348500  1.0  0.1175
  H  H23  1  0.645200  0.549400  0.760000  1.0  0.1225
  H  H24  1  0.633400  0.431000  0.917600  1.0  0.0799
  H  H25  1  0.645300  0.120500  0.815000  1.0  0.0731
  H  H26  1  0.653600  0.226000  0.652500  1.0  0.1224
  H  H27  1  0.177400  0.087000  0.215400  1.0  0.108
  H  H28  1  0.307000  0.144000  0.462300  1.0  0.1223
  H  H29  1  0.908600  0.157900  0.456800  1.0  0.1168
  H  H30  1  0.992000  0.522800  0.629400  1.0  0.1248
  H  H31  1  0.985200  0.592900  0.778000  1.0  0.0731
  H  H32  1  0.965800  0.248500  0.929500  1.0  0.0988
  H  H33  1  0.983100  0.167900  0.784400  1.0  0.1193
  H  H34  1  0.619600  0.354100  0.519600  1.0  0.32
  H  H35  1  0.119000  0.152900  0.617600  1.0  0.2977
  C  C36  1  0.300600  0.528100  0.772100  1.0  -0.1525
  C  C37  1  0.296500  0.396800  0.800700  1.0  -0.0289
  C  C38  1  0.316600  0.323000  0.725400  1.0  -0.1224
  C  C39  1  0.335300  0.377700  0.624400  1.0  -0.1437
  C  C40  1  0.336400  0.508700  0.595900  1.0  0.2092
  C  C41  1  0.323000  0.583100  0.670200  1.0  -0.111
  C  C42  1  0.312500  0.182300  0.752400  1.0  0.6445
  C  C43  1  0.269200  0.608700  0.851900  1.0  0.7464
  C  C44  1  0.332000  0.516100  0.416500  1.0  0.4933
  C  C45  1  0.349100  0.598800  0.314400  1.0  -0.036
  C  C46  1  0.355200  0.538200  0.231100  1.0  -0.1527
  C  C47  1  0.361800  0.610200  0.136800  1.0  0.1832
  C  C48  1  0.355400  0.791700  0.196800  1.0  0.1987
  C  C49  1  0.349700  0.729200  0.295400  1.0  -0.2071
  C  C50  1  0.093400  0.891800  0.718900  1.0  0.6437
  C  C51  1  0.974000  0.881000  0.670400  1.0  -0.1361
  C  C52  1  0.840700  0.896500  0.719100  1.0  -0.0201
  C  C53  1  0.736700  0.887500  0.670000  1.0  -0.1239
  C  C54  1  0.763800  0.860000  0.571500  1.0  -0.0823
  C  C55  1  0.894900  0.839400  0.525600  1.0  0.1947
  C  C56  1  0.002100  0.852600  0.575000  1.0  -0.1218
  C  C57  1  0.590800  0.902900  0.716800  1.0  0.6526
  C  C58  1  0.006100  0.705800  0.409400  1.0  0.5109
  C  C59  1  0.008500  0.664300  0.310300  1.0  -0.0096
  C  C60  1  0.010200  0.534900  0.310700  1.0  -0.121
  C  C61  1  0.015300  0.493700  0.220600  1.0  0.1644
  C  C62  1  0.025200  0.696100  0.132000  1.0  0.1707
  C  C63  1  0.016900  0.745100  0.218700  1.0  -0.1689
  C  C64  1  0.699400  0.471900  0.227900  1.0  -0.1497
  C  C65  1  0.703500  0.603200  0.199300  1.0  -0.0283
  C  C66  1  0.683400  0.677000  0.274600  1.0  -0.1239
  C  C67  1  0.664700  0.622300  0.375600  1.0  -0.1436
  C  C68  1  0.663600  0.491300  0.404100  1.0  0.2087
  C  C69  1  0.677000  0.416900  0.329800  1.0  -0.1109
  C  C70  1  0.687500  0.817700  0.247600  1.0  0.6451
  C  C71  1  0.730800  0.391300  0.148100  1.0  0.7479
  C  C72  1  0.668000  0.483900  0.583500  1.0  0.4935
  C  C73  1  0.650900  0.401200  0.685600  1.0  -0.0358
  C  C74  1  0.644800  0.461800  0.768900  1.0  -0.1525
  C  C75  1  0.638200  0.389800  0.863200  1.0  0.1831
  C  C76  1  0.644600  0.208300  0.803200  1.0  0.2019
  C  C77  1  0.650300  0.270800  0.704600  1.0  -0.2004
  C  C78  1  0.906600  0.108200  0.281100  1.0  0.6427
  C  C79  1  0.026000  0.119000  0.329600  1.0  -0.1369
  C  C80  1  0.159300  0.103500  0.280900  1.0  -0.0199
  C  C81  1  0.263300  0.112500  0.330000  1.0  -0.123
  C  C82  1  0.236200  0.140000  0.428500  1.0  -0.0807
  C  C83  1  0.105100  0.160600  0.474400  1.0  0.1947
  C  C84  1  0.997900  0.147400  0.425000  1.0  -0.1225
  C  C85  1  0.409200  0.097100  0.283200  1.0  0.6562
  C  C86  1  0.993900  0.294200  0.590600  1.0  0.5112
  C  C87  1  0.991500  0.335700  0.689700  1.0  -0.0084
  C  C88  1  0.989800  0.465100  0.689300  1.0  -0.1225
  C  C89  1  0.984700  0.506300  0.779400  1.0  0.1644
  C  C90  1  0.974800  0.303900  0.868000  1.0  0.1701
  C  C91  1  0.983100  0.254900  0.781300  1.0  -0.168
  N  N92  1  0.353800  0.569100  0.494500  1.0  -0.3915
  N  N93  1  0.361700  0.735800  0.118700  1.0  -0.3767
  N  N94  1  0.920100  0.805200  0.429200  1.0  -0.3871
  N  N95  1  0.020800  0.570400  0.132500  1.0  -0.3534
  N  N96  1  0.646200  0.430900  0.505500  1.0  -0.3901
  N  N97  1  0.638300  0.264200  0.881300  1.0  -0.3756
  N  N98  1  0.079900  0.194800  0.570800  1.0  -0.3859
  N  N99  1  0.979200  0.429600  0.867500  1.0  -0.3543
  O  O100  1  0.193900  0.567900  0.933400  1.0  -0.5803
  O  O101  1  0.324600  0.716600  0.830500  1.0  -0.7405
  O  O102  1  0.293600  0.117700  0.689500  1.0  -0.6449
  O  O103  1  0.328800  0.125400  0.838500  1.0  -0.657
  O  O104  1  0.305800  0.405800  0.425100  1.0  -0.4558
  O  O105  1  0.209800  0.883500  0.669100  1.0  -0.6246
  O  O106  1  0.076200  0.907900  0.810700  1.0  -0.7007
  O  O107  1  0.556400  0.903300  0.811100  1.0  -0.6593
  O  O108  1  0.500700  0.916100  0.664500  1.0  -0.6256
  O  O109  1  0.077400  0.651600  0.467200  1.0  -0.478
  O  O110  1  0.806100  0.432100  0.066600  1.0  -0.5822
  O  O111  1  0.675400  0.283400  0.169500  1.0  -0.7351
  O  O112  1  0.706400  0.882300  0.310500  1.0  -0.6451
  O  O113  1  0.671200  0.874600  0.161500  1.0  -0.67
  O  O114  1  0.694200  0.594200  0.574900  1.0  -0.4538
  O  O115  1  0.790200  0.116500  0.330900  1.0  -0.6238
  O  O116  1  0.923800  0.092100  0.189300  1.0  -0.6993
  O  O117  1  0.443600  0.096700  0.188900  1.0  -0.6576
  O  O118  1  0.499300  0.083900  0.335500  1.0  -0.6277
  O  O119  1  0.922600  0.348400  0.532800  1.0  -0.4768
