# generated using pymatgen
data_KLu(CO2)4
_symmetry_space_group_name_H-M   'P 1'
_cell_length_a   8.91210000
_cell_length_b   9.16970000
_cell_length_c   9.16970000
_cell_angle_alpha   76.34040000
_cell_angle_beta   60.92490000
_cell_angle_gamma   60.92490000
_symmetry_Int_Tables_number   1
_chemical_formula_structural   KLu(CO2)4
_chemical_formula_sum   'K2 Lu2 C8 O16'
_cell_volume   572.39623495
_cell_formula_units_Z   2
loop_
 _symmetry_equiv_pos_site_id
 _symmetry_equiv_pos_as_xyz
  1  'x, y, z'
loop_
 _atom_site_type_symbol
 _atom_site_label
 _atom_site_symmetry_multiplicity
 _atom_site_fract_x
 _atom_site_fract_y
 _atom_site_fract_z
 _atom_site_occupancy
 _atom_site_charge
  K  K1  1  0.875000  0.250000  0.250000  1.0  0.985
  K  K2  1  0.125000  0.750000  0.750000  1.0  0.9756
  Lu  Lu3  1  0.375000  0.250000  0.250000  1.0  1.7097
  Lu  Lu4  1  0.625000  0.750000  0.750000  1.0  1.7099
  C  C5  1  0.395800  0.021100  0.026700  1.0  0.5501
  C  C6  1  0.943600  0.478900  0.473300  1.0  0.5488
  C  C7  1  0.422500  0.973300  0.521100  1.0  0.5508
  C  C8  1  0.416900  0.526700  0.978900  1.0  0.5507
  C  C9  1  0.604200  0.978900  0.973300  1.0  0.5501
  C  C10  1  0.056400  0.521100  0.526700  1.0  0.5485
  C  C11  1  0.577500  0.026700  0.478900  1.0  0.5499
  C  C12  1  0.583100  0.473300  0.021100  1.0  0.5486
  O  O13  1  0.273340  0.125460  0.140260  1.0  -0.6121
  O  O14  1  0.368260  0.943840  0.951240  1.0  -0.6115
  O  O15  1  0.039060  0.374540  0.359740  1.0  -0.6135
  O  O16  1  0.763340  0.556160  0.548760  1.0  -0.6097
  O  O17  1  0.413600  0.859740  0.625460  1.0  -0.6114
  O  O18  1  0.319500  0.048760  0.443840  1.0  -0.6114
  O  O19  1  0.398800  0.640260  0.874540  1.0  -0.6118
  O  O20  1  0.312100  0.451240  0.056160  1.0  -0.6096
  O  O21  1  0.726660  0.874540  0.859740  1.0  -0.6122
  O  O22  1  0.631740  0.056160  0.048760  1.0  -0.6104
  O  O23  1  0.960940  0.625460  0.640260  1.0  -0.6121
  O  O24  1  0.236660  0.443840  0.451240  1.0  -0.6101
  O  O25  1  0.586400  0.140260  0.374540  1.0  -0.6118
  O  O26  1  0.680500  0.951240  0.556160  1.0  -0.6107
  O  O27  1  0.601200  0.359740  0.125460  1.0  -0.6101
  O  O28  1  0.687900  0.548760  0.943840  1.0  -0.6095
