# generated using pymatgen
data_Mn3H24C38(N3O2)4
_symmetry_space_group_name_H-M   'P 1'
_cell_length_a   11.67140000
_cell_length_b   11.91860000
_cell_length_c   12.10940000
_cell_angle_alpha   65.09600000
_cell_angle_beta   79.89700000
_cell_angle_gamma   72.27500000
_symmetry_Int_Tables_number   1
_chemical_formula_structural   Mn3H24C38(N3O2)4
_chemical_formula_sum   'Mn3 H24 C38 N12 O8'
_cell_volume   1453.16085092
_cell_formula_units_Z   1
loop_
 _symmetry_equiv_pos_site_id
 _symmetry_equiv_pos_as_xyz
  1  'x, y, z'
loop_
 _atom_site_type_symbol
 _atom_site_label
 _atom_site_symmetry_multiplicity
 _atom_site_fract_x
 _atom_site_fract_y
 _atom_site_fract_z
 _atom_site_occupancy
 _atom_site_charge
  Mn  Mn1  1  0.000000  0.000000  0.000000  1.0  0.9217
  Mn  Mn2  1  0.000000  0.500000  0.500000  1.0  0.8288
  Mn  Mn3  1  0.000000  0.000000  0.500000  1.0  1.0305
  H  H4  1  0.264800  0.818900  0.043300  1.0  0.0803
  H  H5  1  0.459900  0.814900  0.039500  1.0  0.1119
  H  H6  1  0.359200  0.185000  0.971700  1.0  0.1147
  H  H7  1  0.166600  0.180000  0.969000  1.0  0.0782
  H  H8  1  0.759400  0.475100  0.655400  1.0  0.0752
  H  H9  1  0.557300  0.563700  0.654100  1.0  0.1234
  H  H10  1  0.592100  0.714000  0.290400  1.0  0.1101
  H  H11  1  0.793700  0.617200  0.305300  1.0  0.0714
  H  H12  1  0.362300  0.602300  0.628300  1.0  0.1111
  H  H13  1  0.168100  0.723300  0.627600  1.0  0.0881
  H  H14  1  0.230000  0.982500  0.313800  1.0  0.0636
  H  H15  1  0.426300  0.868500  0.305200  1.0  0.1075
  H  H16  1  0.735200  0.181100  0.956700  1.0  0.0804
  H  H17  1  0.540100  0.185100  0.960500  1.0  0.1125
  H  H18  1  0.640800  0.815000  0.028300  1.0  0.1143
  H  H19  1  0.833400  0.820000  0.031000  1.0  0.0776
  H  H20  1  0.240600  0.524900  0.344600  1.0  0.0754
  H  H21  1  0.442700  0.436300  0.345900  1.0  0.1229
  H  H22  1  0.407900  0.286000  0.709600  1.0  0.1101
  H  H23  1  0.206300  0.382800  0.694700  1.0  0.0714
  H  H24  1  0.637700  0.397700  0.371700  1.0  0.1109
  H  H25  1  0.831900  0.276700  0.372400  1.0  0.0878
  H  H26  1  0.770000  0.017500  0.686200  1.0  0.0643
  H  H27  1  0.573700  0.131500  0.694800  1.0  0.1059
  C  C28  1  0.979000  0.888000  0.273100  1.0  -0.0219
  C  C29  1  0.974100  0.782800  0.377300  1.0  -0.004
  C  C30  1  0.959700  0.029200  0.237800  1.0  0.712
  C  C31  1  0.944300  0.757800  0.511600  1.0  0.6636
  C  C32  1  0.283700  0.895000  0.027000  1.0  0.158
  C  C33  1  0.401600  0.892000  0.025000  1.0  -0.2101
  C  C34  1  0.436300  0.000700  0.002200  1.0  0.0775
  C  C35  1  0.343400  0.108400  0.984400  1.0  -0.2177
  C  C36  1  0.226900  0.104000  0.985100  1.0  0.1827
  C  C37  1  0.725100  0.525400  0.580500  1.0  0.1759
  C  C38  1  0.603100  0.578300  0.580700  1.0  -0.2148
  C  C39  1  0.548500  0.653100  0.471800  1.0  0.0939
  C  C40  1  0.623700  0.666300  0.366800  1.0  -0.2224
  C  C41  1  0.745400  0.608300  0.376700  1.0  0.1732
  C  C42  1  0.419100  0.723200  0.467400  1.0  0.0811
  C  C43  1  0.337900  0.680300  0.563400  1.0  -0.2052
  C  C44  1  0.221300  0.753500  0.562300  1.0  0.1755
  C  C45  1  0.257000  0.905400  0.378800  1.0  0.1914
  C  C46  1  0.375900  0.837200  0.373000  1.0  -0.205
  C  C47  1  0.021000  0.112000  0.726900  1.0  -0.0216
  C  C48  1  0.025900  0.217200  0.622700  1.0  -0.0032
  C  C49  1  0.040300  0.970800  0.762200  1.0  0.7119
  C  C50  1  0.055700  0.242200  0.488400  1.0  0.6647
  C  C51  1  0.716300  0.105000  0.973000  1.0  0.1594
  C  C52  1  0.598400  0.108000  0.975000  1.0  -0.2101
  C  C53  1  0.563700  0.999300  0.997800  1.0  0.0772
  C  C54  1  0.656600  0.891600  0.015600  1.0  -0.2176
  C  C55  1  0.773100  0.896000  0.014900  1.0  0.1833
  C  C56  1  0.274900  0.474600  0.419500  1.0  0.1747
  C  C57  1  0.396900  0.421700  0.419300  1.0  -0.214
  C  C58  1  0.451500  0.346900  0.528200  1.0  0.0922
  C  C59  1  0.376300  0.333700  0.633200  1.0  -0.2224
  C  C60  1  0.254600  0.391700  0.623300  1.0  0.1726
  C  C61  1  0.580900  0.276800  0.532600  1.0  0.0808
  C  C62  1  0.662100  0.319700  0.436600  1.0  -0.2034
  C  C63  1  0.778700  0.246500  0.437700  1.0  0.1757
  C  C64  1  0.743000  0.094600  0.621200  1.0  0.1909
  C  C65  1  0.624100  0.162800  0.627000  1.0  -0.2027
  N  N66  1  0.010600  0.845100  0.180100  1.0  -0.2072
  N  N67  1  0.024300  0.720100  0.227400  1.0  -0.1581
  N  N68  1  0.003500  0.680800  0.346900  1.0  -0.15
  N  N69  1  0.194900  0.999600  0.007100  1.0  -0.33
  N  N70  1  0.797100  0.541100  0.481200  1.0  -0.3088
  N  N71  1  0.180500  0.867800  0.470500  1.0  -0.3372
  N  N72  1  0.989400  0.154900  0.819900  1.0  -0.2068
  N  N73  1  0.975700  0.279900  0.772600  1.0  -0.1584
  N  N74  1  0.996500  0.319200  0.653100  1.0  -0.1516
  N  N75  1  0.805100  0.000400  0.992900  1.0  -0.3291
  N  N76  1  0.202900  0.458900  0.518800  1.0  -0.3074
  N  N77  1  0.819500  0.132200  0.529500  1.0  -0.3383
  O  O78  1  0.947600  0.095900  0.125500  1.0  -0.6199
  O  O79  1  0.958000  0.072400  0.314400  1.0  -0.6216
  O  O80  1  0.949500  0.643100  0.580600  1.0  -0.5881
  O  O81  1  0.913200  0.848900  0.544900  1.0  -0.5888
  O  O82  1  0.052400  0.904100  0.874500  1.0  -0.6207
  O  O83  1  0.042000  0.927600  0.685600  1.0  -0.6216
  O  O84  1  0.050500  0.356900  0.419400  1.0  -0.5894
  O  O85  1  0.086800  0.151100  0.455100  1.0  -0.5891
