# generated using pymatgen
data_Ga3P3HO13F3
_symmetry_space_group_name_H-M   'P 1'
_cell_length_a   17.98300000
_cell_length_b   9.85900000
_cell_length_c   19.84000000
_cell_angle_alpha   90.00000000
_cell_angle_beta   106.24000000
_cell_angle_gamma   90.00000000
_symmetry_Int_Tables_number   1
_chemical_formula_structural   Ga3P3HO13F3
_chemical_formula_sum   'Ga24 P24 H8 O104 F24'
_cell_volume   3377.16710895
_cell_formula_units_Z   8
loop_
 _symmetry_equiv_pos_site_id
 _symmetry_equiv_pos_as_xyz
  1  'x, y, z'
loop_
 _atom_site_type_symbol
 _atom_site_label
 _atom_site_symmetry_multiplicity
 _atom_site_fract_x
 _atom_site_fract_y
 _atom_site_fract_z
 _atom_site_occupancy
 _atom_site_charge
  Ga  Ga1  1  0.075200  0.071900  0.501100  1.0  1.6703
  Ga  Ga2  1  0.190600  0.579100  0.661200  1.0  1.5904
  Ga  Ga3  1  0.190300  0.817500  0.759400  1.0  1.6476
  Ga  Ga4  1  0.575200  0.571900  0.501100  1.0  1.6703
  Ga  Ga5  1  0.690600  0.079100  0.661200  1.0  1.5904
  Ga  Ga6  1  0.690300  0.317500  0.759400  1.0  1.6476
  Ga  Ga7  1  0.924800  0.071900  0.998900  1.0  1.6703
  Ga  Ga8  1  0.809400  0.579100  0.838800  1.0  1.5887
  Ga  Ga9  1  0.809700  0.817500  0.740600  1.0  1.6482
  Ga  Ga10  1  0.424800  0.571900  0.998900  1.0  1.6703
  Ga  Ga11  1  0.309400  0.079100  0.838800  1.0  1.5887
  Ga  Ga12  1  0.309700  0.317500  0.740600  1.0  1.6482
  Ga  Ga13  1  0.924800  0.928100  0.498900  1.0  1.6724
  Ga  Ga14  1  0.809400  0.420900  0.338800  1.0  1.59
  Ga  Ga15  1  0.809700  0.182500  0.240600  1.0  1.647
  Ga  Ga16  1  0.424800  0.428100  0.498900  1.0  1.6724
  Ga  Ga17  1  0.309400  0.920900  0.338800  1.0  1.59
  Ga  Ga18  1  0.309700  0.682500  0.240600  1.0  1.647
  Ga  Ga19  1  0.075200  0.928100  0.001100  1.0  1.6721
  Ga  Ga20  1  0.190600  0.420900  0.161200  1.0  1.591
  Ga  Ga21  1  0.190300  0.182500  0.259400  1.0  1.6461
  Ga  Ga22  1  0.575200  0.428100  0.001100  1.0  1.6721
  Ga  Ga23  1  0.690600  0.920900  0.161200  1.0  1.591
  Ga  Ga24  1  0.690300  0.682500  0.259400  1.0  1.6461
  P  P25  1  0.081200  0.827700  0.604900  1.0  1.8475
  P  P26  1  0.140900  0.272000  0.631600  1.0  1.7581
  P  P27  1  0.165600  0.019600  0.384900  1.0  1.7953
  P  P28  1  0.581200  0.327700  0.604900  1.0  1.8475
  P  P29  1  0.640900  0.772000  0.631600  1.0  1.7581
  P  P30  1  0.665600  0.519600  0.384900  1.0  1.7953
  P  P31  1  0.918800  0.827700  0.895100  1.0  1.8489
  P  P32  1  0.859100  0.272000  0.868400  1.0  1.7589
  P  P33  1  0.834400  0.019600  0.115100  1.0  1.7956
  P  P34  1  0.418800  0.327700  0.895100  1.0  1.8489
  P  P35  1  0.359100  0.772000  0.868400  1.0  1.7589
  P  P36  1  0.334400  0.519600  0.115100  1.0  1.7956
  P  P37  1  0.918800  0.172300  0.395100  1.0  1.8479
  P  P38  1  0.859100  0.728000  0.368400  1.0  1.7592
  P  P39  1  0.834400  0.980400  0.615100  1.0  1.7953
  P  P40  1  0.418800  0.672300  0.395100  1.0  1.8479
  P  P41  1  0.359100  0.228000  0.368400  1.0  1.7592
  P  P42  1  0.334400  0.480400  0.615100  1.0  1.7953
  P  P43  1  0.081200  0.172300  0.104900  1.0  1.8466
  P  P44  1  0.140900  0.728000  0.131600  1.0  1.7585
  P  P45  1  0.165600  0.980400  0.884900  1.0  1.7952
  P  P46  1  0.581200  0.672300  0.104900  1.0  1.8466
  P  P47  1  0.640900  0.228000  0.131600  1.0  1.7585
  P  P48  1  0.665600  0.480400  0.884900  1.0  1.7952
  H  H49  1  0.280000  0.460000  0.210000  1.0  0.3672
  H  H50  1  0.780000  0.960000  0.210000  1.0  0.3672
  H  H51  1  0.720000  0.460000  0.290000  1.0  0.3693
  H  H52  1  0.220000  0.960000  0.290000  1.0  0.3693
  H  H53  1  0.720000  0.540000  0.790000  1.0  0.3696
  H  H54  1  0.220000  0.040000  0.790000  1.0  0.3696
  H  H55  1  0.280000  0.540000  0.710000  1.0  0.3669
  H  H56  1  0.780000  0.040000  0.710000  1.0  0.3669
  O  O57  1  0.113100  0.685800  0.599400  1.0  -0.7384
  O  O58  1  0.118500  0.930200  0.566600  1.0  -0.7345
  O  O59  1  0.992400  0.818400  0.571700  1.0  -0.7124
  O  O60  1  0.098000  0.870700  0.683100  1.0  -0.7459
  O  O61  1  0.152400  0.058000  0.453800  1.0  -0.8081
  O  O62  1  0.121400  0.227600  0.555100  1.0  -0.761
  O  O63  1  0.145500  0.139600  0.332800  1.0  -0.7525
  O  O64  1  0.222700  0.233100  0.671100  1.0  -0.7526
  O  O65  1  0.083100  0.197000  0.667500  1.0  -0.4662
  O  O66  1  0.124800  0.422700  0.638400  1.0  -0.7219
  O  O67  1  0.248600  0.961600  0.400700  1.0  -0.7466
  O  O68  1  0.109700  0.900700  0.350200  1.0  -0.4848
  O  O69  1  0.263500  0.491100  0.738500  1.0  -0.793
  O  O70  1  0.613100  0.185800  0.599400  1.0  -0.7384
  O  O71  1  0.618500  0.430200  0.566600  1.0  -0.7345
  O  O72  1  0.492400  0.318400  0.571700  1.0  -0.7124
  O  O73  1  0.598000  0.370700  0.683100  1.0  -0.7459
  O  O74  1  0.652400  0.558000  0.453800  1.0  -0.8081
  O  O75  1  0.621400  0.727600  0.555100  1.0  -0.761
  O  O76  1  0.645500  0.639600  0.332800  1.0  -0.7525
  O  O77  1  0.722700  0.733100  0.671100  1.0  -0.7526
  O  O78  1  0.583100  0.697000  0.667500  1.0  -0.4662
  O  O79  1  0.624800  0.922700  0.638400  1.0  -0.7219
  O  O80  1  0.748600  0.461600  0.400700  1.0  -0.7466
  O  O81  1  0.609700  0.400700  0.350200  1.0  -0.4848
  O  O82  1  0.763500  0.991100  0.738500  1.0  -0.793
  O  O83  1  0.886900  0.685800  0.900600  1.0  -0.7377
  O  O84  1  0.881500  0.930200  0.933400  1.0  -0.7344
  O  O85  1  0.007600  0.818400  0.928300  1.0  -0.7146
  O  O86  1  0.902000  0.870700  0.816900  1.0  -0.7457
  O  O87  1  0.847600  0.058000  0.046200  1.0  -0.809
  O  O88  1  0.878600  0.227600  0.944900  1.0  -0.76
  O  O89  1  0.854500  0.139600  0.167200  1.0  -0.7524
  O  O90  1  0.777300  0.233100  0.828900  1.0  -0.7528
  O  O91  1  0.916900  0.197000  0.832500  1.0  -0.4679
  O  O92  1  0.875200  0.422700  0.861600  1.0  -0.7215
  O  O93  1  0.751400  0.961600  0.099300  1.0  -0.7439
  O  O94  1  0.890300  0.900700  0.149800  1.0  -0.485
  O  O95  1  0.736500  0.491100  0.761500  1.0  -0.7917
  O  O96  1  0.386900  0.185800  0.900600  1.0  -0.7377
  O  O97  1  0.381500  0.430200  0.933400  1.0  -0.7344
  O  O98  1  0.507600  0.318400  0.928300  1.0  -0.7146
  O  O99  1  0.402000  0.370700  0.816900  1.0  -0.7457
  O  O100  1  0.347600  0.558000  0.046200  1.0  -0.809
  O  O101  1  0.378600  0.727600  0.944900  1.0  -0.76
  O  O102  1  0.354500  0.639600  0.167200  1.0  -0.7524
  O  O103  1  0.277300  0.733100  0.828900  1.0  -0.7528
  O  O104  1  0.416900  0.697000  0.832500  1.0  -0.4679
  O  O105  1  0.375200  0.922700  0.861600  1.0  -0.7215
  O  O106  1  0.251400  0.461600  0.099300  1.0  -0.7439
  O  O107  1  0.390300  0.400700  0.149800  1.0  -0.485
  O  O108  1  0.236500  0.991100  0.761500  1.0  -0.7917
  O  O109  1  0.886900  0.314200  0.400600  1.0  -0.7361
  O  O110  1  0.881500  0.069800  0.433400  1.0  -0.7349
  O  O111  1  0.007600  0.181600  0.428300  1.0  -0.7141
  O  O112  1  0.902000  0.129300  0.316900  1.0  -0.7461
  O  O113  1  0.847600  0.942000  0.546200  1.0  -0.8096
  O  O114  1  0.878600  0.772400  0.444900  1.0  -0.7599
  O  O115  1  0.854500  0.860400  0.667200  1.0  -0.7521
  O  O116  1  0.777300  0.766900  0.328900  1.0  -0.7518
  O  O117  1  0.916900  0.803000  0.332500  1.0  -0.4681
  O  O118  1  0.875200  0.577300  0.361600  1.0  -0.7216
  O  O119  1  0.751400  0.038400  0.599300  1.0  -0.7441
  O  O120  1  0.890300  0.099300  0.649800  1.0  -0.4845
  O  O121  1  0.736500  0.508900  0.261500  1.0  -0.7919
  O  O122  1  0.386900  0.814200  0.400600  1.0  -0.7361
  O  O123  1  0.381500  0.569800  0.433400  1.0  -0.7349
  O  O124  1  0.507600  0.681600  0.428300  1.0  -0.7141
  O  O125  1  0.402000  0.629300  0.316900  1.0  -0.7461
  O  O126  1  0.347600  0.442000  0.546200  1.0  -0.8096
  O  O127  1  0.378600  0.272400  0.444900  1.0  -0.7599
  O  O128  1  0.354500  0.360400  0.667200  1.0  -0.7521
  O  O129  1  0.277300  0.266900  0.328900  1.0  -0.7518
  O  O130  1  0.416900  0.303000  0.332500  1.0  -0.4681
  O  O131  1  0.375200  0.077300  0.361600  1.0  -0.7216
  O  O132  1  0.251400  0.538400  0.599300  1.0  -0.7441
  O  O133  1  0.390300  0.599300  0.649800  1.0  -0.4845
  O  O134  1  0.236500  0.008900  0.261500  1.0  -0.7919
  O  O135  1  0.113100  0.314200  0.099400  1.0  -0.7368
  O  O136  1  0.118500  0.069800  0.066600  1.0  -0.7356
  O  O137  1  0.992400  0.181600  0.071700  1.0  -0.7112
  O  O138  1  0.098000  0.129300  0.183100  1.0  -0.7463
  O  O139  1  0.152400  0.942000  0.953800  1.0  -0.8084
  O  O140  1  0.121400  0.772400  0.055100  1.0  -0.7611
  O  O141  1  0.145500  0.860400  0.832800  1.0  -0.7513
  O  O142  1  0.222700  0.766900  0.171100  1.0  -0.7507
  O  O143  1  0.083100  0.803000  0.167500  1.0  -0.4664
  O  O144  1  0.124800  0.577300  0.138400  1.0  -0.7219
  O  O145  1  0.248600  0.038400  0.900700  1.0  -0.7457
  O  O146  1  0.109700  0.099300  0.850200  1.0  -0.4849
  O  O147  1  0.263500  0.508900  0.238500  1.0  -0.7939
  O  O148  1  0.613100  0.814200  0.099400  1.0  -0.7368
  O  O149  1  0.618500  0.569800  0.066600  1.0  -0.7356
  O  O150  1  0.492400  0.681600  0.071700  1.0  -0.7112
  O  O151  1  0.598000  0.629300  0.183100  1.0  -0.7463
  O  O152  1  0.652400  0.442000  0.953800  1.0  -0.8084
  O  O153  1  0.621400  0.272400  0.055100  1.0  -0.7611
  O  O154  1  0.645500  0.360400  0.832800  1.0  -0.7513
  O  O155  1  0.722700  0.266900  0.171100  1.0  -0.7507
  O  O156  1  0.583100  0.303000  0.167500  1.0  -0.4664
  O  O157  1  0.624800  0.077300  0.138400  1.0  -0.7219
  O  O158  1  0.748600  0.538400  0.900700  1.0  -0.7457
  O  O159  1  0.609700  0.599300  0.850200  1.0  -0.4849
  O  O160  1  0.763500  0.008900  0.238500  1.0  -0.7939
  F  F161  1  0.008300  0.922700  0.449900  1.0  -0.5072
  F  F162  1  0.145800  0.637700  0.739700  1.0  -0.4662
  F  F163  1  0.244400  0.753500  0.690900  1.0  -0.4896
  F  F164  1  0.508300  0.422700  0.449900  1.0  -0.5072
  F  F165  1  0.645800  0.137700  0.739700  1.0  -0.4662
  F  F166  1  0.744400  0.253500  0.690900  1.0  -0.4896
  F  F167  1  0.991700  0.922700  0.050100  1.0  -0.5058
  F  F168  1  0.854200  0.637700  0.760300  1.0  -0.4711
  F  F169  1  0.755600  0.753500  0.809100  1.0  -0.4855
  F  F170  1  0.491700  0.422700  0.050100  1.0  -0.5058
  F  F171  1  0.354200  0.137700  0.760300  1.0  -0.4711
  F  F172  1  0.255600  0.253500  0.809100  1.0  -0.4855
  F  F173  1  0.991700  0.077300  0.550100  1.0  -0.5047
  F  F174  1  0.854200  0.362300  0.260300  1.0  -0.4688
  F  F175  1  0.755600  0.246500  0.309100  1.0  -0.4888
  F  F176  1  0.491700  0.577300  0.550100  1.0  -0.5047
  F  F177  1  0.354200  0.862300  0.260300  1.0  -0.4688
  F  F178  1  0.255600  0.746500  0.309100  1.0  -0.4888
  F  F179  1  0.008300  0.077300  0.949900  1.0  -0.5074
  F  F180  1  0.145800  0.362300  0.239700  1.0  -0.4636
  F  F181  1  0.244400  0.246500  0.190900  1.0  -0.4922
  F  F182  1  0.508300  0.577300  0.949900  1.0  -0.5074
  F  F183  1  0.645800  0.862300  0.239700  1.0  -0.4636
  F  F184  1  0.744400  0.746500  0.190900  1.0  -0.4922
