# generated using pymatgen
data_NiH12C19(NO3)2
_symmetry_space_group_name_H-M   'P 1'
_cell_length_a   11.24800000
_cell_length_b   14.94500000
_cell_length_c   16.80100000
_cell_angle_alpha   90.00000000
_cell_angle_beta   90.00000000
_cell_angle_gamma   103.73200000
_symmetry_Int_Tables_number   1
_chemical_formula_structural   NiH12C19(NO3)2
_chemical_formula_sum   'Ni4 H48 C76 N8 O24'
_cell_volume   2743.54394606
_cell_formula_units_Z   4
loop_
 _symmetry_equiv_pos_site_id
 _symmetry_equiv_pos_as_xyz
  1  'x, y, z'
loop_
 _atom_site_type_symbol
 _atom_site_label
 _atom_site_symmetry_multiplicity
 _atom_site_fract_x
 _atom_site_fract_y
 _atom_site_fract_z
 _atom_site_occupancy
 _atom_site_charge
  Ni  Ni1  1  0.014580  0.867090  0.040100  1.0  0.8162
  Ni  Ni2  1  0.985420  0.632910  0.540100  1.0  0.8145
  Ni  Ni3  1  0.985420  0.132910  0.959900  1.0  0.8148
  Ni  Ni4  1  0.014580  0.367090  0.459900  1.0  0.8162
  H  H5  1  0.969200  0.340400  0.041200  1.0  0.3975
  H  H6  1  0.827200  0.922800  0.145900  1.0  0.0825
  H  H7  1  0.788400  0.790000  0.942300  1.0  0.0949
  H  H8  1  0.625700  0.932700  0.144100  1.0  0.1298
  H  H9  1  0.583800  0.796600  0.935100  1.0  0.1357
  H  H10  1  0.448400  0.938000  0.141800  1.0  0.1343
  H  H11  1  0.406500  0.811200  0.929400  1.0  0.1359
  H  H12  1  0.243800  0.940300  0.137100  1.0  0.0837
  H  H13  1  0.200700  0.814000  0.933500  1.0  0.083
  H  H14  1  0.009100  0.562900  0.072200  1.0  0.1045
  H  H15  1  0.001300  0.696900  0.281200  1.0  0.1186
  H  H16  1  0.050400  0.436700  0.281300  1.0  0.119
  H  H17  1  0.030800  0.159600  0.541200  1.0  0.3974
  H  H18  1  0.172800  0.577200  0.645900  1.0  0.0825
  H  H19  1  0.211600  0.710000  0.442300  1.0  0.0954
  H  H20  1  0.374300  0.567300  0.644100  1.0  0.1303
  H  H21  1  0.416200  0.703400  0.435100  1.0  0.1359
  H  H22  1  0.551600  0.562000  0.641800  1.0  0.1336
  H  H23  1  0.593500  0.688800  0.429400  1.0  0.1364
  H  H24  1  0.756200  0.559700  0.637100  1.0  0.0843
  H  H25  1  0.799300  0.686000  0.433500  1.0  0.0829
  H  H26  1  0.990900  0.937100  0.572200  1.0  0.1048
  H  H27  1  0.998700  0.803100  0.781200  1.0  0.1185
  H  H28  1  0.949600  0.063300  0.781300  1.0  0.1186
  H  H29  1  0.030800  0.659600  0.958800  1.0  0.3975
  H  H30  1  0.172800  0.077200  0.854100  1.0  0.0835
  H  H31  1  0.211600  0.210000  0.057700  1.0  0.0954
  H  H32  1  0.374300  0.067300  0.855900  1.0  0.1295
  H  H33  1  0.416200  0.203400  0.064900  1.0  0.1363
  H  H34  1  0.551600  0.062000  0.858200  1.0  0.1329
  H  H35  1  0.593500  0.188800  0.070600  1.0  0.1355
  H  H36  1  0.756200  0.059700  0.862900  1.0  0.0837
  H  H37  1  0.799300  0.186000  0.066500  1.0  0.0823
  H  H38  1  0.990900  0.437100  0.927800  1.0  0.1045
  H  H39  1  0.998700  0.303100  0.718800  1.0  0.1182
  H  H40  1  0.949600  0.563300  0.718700  1.0  0.1195
  H  H41  1  0.969200  0.840400  0.458800  1.0  0.3981
  H  H42  1  0.827200  0.422800  0.354100  1.0  0.0828
  H  H43  1  0.788400  0.290000  0.557700  1.0  0.0952
  H  H44  1  0.625700  0.432700  0.355900  1.0  0.1295
  H  H45  1  0.583800  0.296600  0.564900  1.0  0.1361
  H  H46  1  0.448400  0.438000  0.358200  1.0  0.1335
  H  H47  1  0.406500  0.311200  0.570600  1.0  0.136
  H  H48  1  0.243800  0.440300  0.362900  1.0  0.084
  H  H49  1  0.200700  0.314000  0.566500  1.0  0.0823
  H  H50  1  0.009100  0.062900  0.427800  1.0  0.1044
  H  H51  1  0.001300  0.196900  0.218800  1.0  0.1187
  H  H52  1  0.050400  0.936700  0.218700  1.0  0.1196
  C  C53  1  0.777300  0.897400  0.102000  1.0  0.1738
  C  C54  1  0.755100  0.820100  0.983600  1.0  0.1673
  C  C55  1  0.657300  0.903700  0.101400  1.0  -0.2027
  C  C56  1  0.632600  0.823900  0.978800  1.0  -0.1806
  C  C57  1  0.583000  0.867200  0.037800  1.0  0.094
  C  C58  1  0.451200  0.871400  0.037200  1.0  0.1113
  C  C59  1  0.399900  0.911100  0.097700  1.0  -0.1947
  C  C60  1  0.375200  0.836800  0.974200  1.0  -0.1976
  C  C61  1  0.276500  0.911900  0.094500  1.0  0.1791
  C  C62  1  0.251500  0.839600  0.976900  1.0  0.174
  C  C63  1  0.022000  0.562100  0.384000  1.0  0.6579
  C  C64  1  0.007900  0.643300  0.169100  1.0  -0.1284
  C  C65  1  0.014400  0.564200  0.128700  1.0  -0.0552
  C  C66  1  0.009500  0.643800  0.252700  1.0  0.0051
  C  C67  1  0.028600  0.486100  0.169600  1.0  -0.1137
  C  C68  1  0.023100  0.565900  0.293100  1.0  -0.0992
  C  C69  1  0.036300  0.488100  0.252900  1.0  -0.1005
  C  C70  1  0.037800  0.401700  0.126600  1.0  0.675
  C  C71  1  0.000000  0.727000  0.123500  1.0  0.6589
  C  C72  1  0.222700  0.602600  0.602000  1.0  0.1737
  C  C73  1  0.244900  0.679900  0.483600  1.0  0.1674
  C  C74  1  0.342700  0.596300  0.601400  1.0  -0.2016
  C  C75  1  0.367400  0.676100  0.478800  1.0  -0.1824
  C  C76  1  0.417000  0.632800  0.537800  1.0  0.0951
  C  C77  1  0.548800  0.628600  0.537200  1.0  0.1107
  C  C78  1  0.600100  0.588900  0.597700  1.0  -0.1963
  C  C79  1  0.624800  0.663200  0.474200  1.0  -0.1983
  C  C80  1  0.723500  0.588100  0.594500  1.0  0.1777
  C  C81  1  0.748500  0.660400  0.476900  1.0  0.1742
  C  C82  1  0.978000  0.937900  0.884000  1.0  0.6576
  C  C83  1  0.992100  0.856700  0.669100  1.0  -0.1292
  C  C84  1  0.985600  0.935800  0.628700  1.0  -0.0552
  C  C85  1  0.990500  0.856200  0.752700  1.0  0.005
  C  C86  1  0.971400  0.013900  0.669600  1.0  -0.1132
  C  C87  1  0.976900  0.934100  0.793100  1.0  -0.0998
  C  C88  1  0.963700  0.011900  0.752900  1.0  -0.0997
  C  C89  1  0.962200  0.098300  0.626600  1.0  0.6747
  C  C90  1  0.000000  0.773000  0.623500  1.0  0.6594
  C  C91  1  0.222700  0.102600  0.898000  1.0  0.1738
  C  C92  1  0.244900  0.179900  0.016400  1.0  0.1671
  C  C93  1  0.342700  0.096300  0.898600  1.0  -0.2006
  C  C94  1  0.367400  0.176100  0.021200  1.0  -0.1804
  C  C95  1  0.417000  0.132800  0.962200  1.0  0.095
  C  C96  1  0.548800  0.128600  0.962800  1.0  0.1103
  C  C97  1  0.600100  0.088900  0.902300  1.0  -0.1952
  C  C98  1  0.624800  0.163200  0.025800  1.0  -0.1992
  C  C99  1  0.723500  0.088100  0.905500  1.0  0.1774
  C  C100  1  0.748500  0.160400  0.023100  1.0  0.1746
  C  C101  1  0.978000  0.437900  0.616000  1.0  0.657
  C  C102  1  0.992100  0.356700  0.830900  1.0  -0.1291
  C  C103  1  0.985600  0.435800  0.871300  1.0  -0.0544
  C  C104  1  0.990500  0.356200  0.747300  1.0  0.0048
  C  C105  1  0.971400  0.513900  0.830400  1.0  -0.1136
  C  C106  1  0.976900  0.434100  0.706900  1.0  -0.0999
  C  C107  1  0.963700  0.511900  0.747100  1.0  -0.1014
  C  C108  1  0.962200  0.598300  0.873400  1.0  0.675
  C  C109  1  0.000000  0.273000  0.876500  1.0  0.6598
  C  C110  1  0.777300  0.397400  0.398000  1.0  0.1742
  C  C111  1  0.755100  0.320100  0.516400  1.0  0.1673
  C  C112  1  0.657300  0.403700  0.398600  1.0  -0.1996
  C  C113  1  0.632600  0.323900  0.521200  1.0  -0.1809
  C  C114  1  0.583000  0.367200  0.462200  1.0  0.0938
  C  C115  1  0.451200  0.371400  0.462800  1.0  0.1115
  C  C116  1  0.399900  0.411100  0.402300  1.0  -0.1948
  C  C117  1  0.375200  0.336800  0.525800  1.0  -0.1972
  C  C118  1  0.276500  0.411900  0.405500  1.0  0.1785
  C  C119  1  0.251500  0.339600  0.523100  1.0  0.1747
  C  C120  1  0.022000  0.062100  0.116000  1.0  0.6573
  C  C121  1  0.007900  0.143300  0.330900  1.0  -0.1282
  C  C122  1  0.014400  0.064200  0.371300  1.0  -0.0547
  C  C123  1  0.009500  0.143800  0.247300  1.0  0.0054
  C  C124  1  0.028600  0.986100  0.330400  1.0  -0.1142
  C  C125  1  0.023100  0.065900  0.206900  1.0  -0.0991
  C  C126  1  0.036300  0.988100  0.247100  1.0  -0.1022
  C  C127  1  0.037800  0.901700  0.373400  1.0  0.6755
  C  C128  1  0.000000  0.227000  0.376500  1.0  0.6593
  N  N129  1  0.827400  0.857300  0.044000  1.0  -0.3182
  N  N130  1  0.201500  0.875500  0.035800  1.0  -0.2906
  N  N131  1  0.172600  0.642700  0.544000  1.0  -0.318
  N  N132  1  0.798500  0.624500  0.535800  1.0  -0.2875
  N  N133  1  0.172600  0.142700  0.956000  1.0  -0.3182
  N  N134  1  0.798500  0.124500  0.964200  1.0  -0.2875
  N  N135  1  0.827400  0.357300  0.456000  1.0  -0.3184
  N  N136  1  0.201500  0.375500  0.464200  1.0  -0.2905
  O  O137  1  0.009100  0.802100  0.157300  1.0  -0.5941
  O  O138  1  0.987200  0.722500  0.047300  1.0  -0.6612
  O  O139  1  0.985200  0.623700  0.420300  1.0  -0.5686
  O  O140  1  0.056600  0.496600  0.415300  1.0  -0.6135
  O  O141  1  0.091800  0.347200  0.150600  1.0  -0.4785
  O  O142  1  0.976900  0.393800  0.059400  1.0  -0.5325
  O  O143  1  0.990900  0.697900  0.657300  1.0  -0.5947
  O  O144  1  0.012800  0.777500  0.547300  1.0  -0.6627
  O  O145  1  0.014800  0.876300  0.920300  1.0  -0.5696
  O  O146  1  0.943400  0.003400  0.915300  1.0  -0.613
  O  O147  1  0.908200  0.152800  0.650600  1.0  -0.4783
  O  O148  1  0.023100  0.106200  0.559400  1.0  -0.5332
  O  O149  1  0.990900  0.197900  0.842700  1.0  -0.5943
  O  O150  1  0.012800  0.277500  0.952700  1.0  -0.6629
  O  O151  1  0.014800  0.376300  0.579700  1.0  -0.5684
  O  O152  1  0.943400  0.503400  0.584700  1.0  -0.6149
  O  O153  1  0.908200  0.652800  0.849400  1.0  -0.4772
  O  O154  1  0.023100  0.606200  0.940600  1.0  -0.534
  O  O155  1  0.009100  0.302100  0.342700  1.0  -0.5943
  O  O156  1  0.987200  0.222500  0.452700  1.0  -0.6617
  O  O157  1  0.985200  0.123700  0.079700  1.0  -0.5682
  O  O158  1  0.056600  0.996600  0.084700  1.0  -0.6152
  O  O159  1  0.091800  0.847200  0.349400  1.0  -0.4785
  O  O160  1  0.976900  0.893800  0.440600  1.0  -0.5334
