# generated using pymatgen
data_UCuH12C24(NO2)4
_symmetry_space_group_name_H-M   'P 1'
_cell_length_a   17.49350000
_cell_length_b   26.01160000
_cell_length_c   15.80810000
_cell_angle_alpha   90.00000000
_cell_angle_beta   114.99500000
_cell_angle_gamma   90.00000000
_symmetry_Int_Tables_number   1
_chemical_formula_structural   UCuH12C24(NO2)4
_chemical_formula_sum   'U8 Cu8 H96 C192 N32 O64'
_cell_volume   6519.53818032
_cell_formula_units_Z   8
loop_
 _symmetry_equiv_pos_site_id
 _symmetry_equiv_pos_as_xyz
  1  'x, y, z'
loop_
 _atom_site_type_symbol
 _atom_site_label
 _atom_site_symmetry_multiplicity
 _atom_site_fract_x
 _atom_site_fract_y
 _atom_site_fract_z
 _atom_site_occupancy
 _atom_site_charge
  U  U1  1  0.646770  0.734700  0.577130  1.0  1.82
  U  U2  1  0.146770  0.234700  0.577130  1.0  1.82
  U  U3  1  0.353230  0.734700  0.922870  1.0  1.8211
  U  U4  1  0.853230  0.234700  0.922870  1.0  1.8211
  U  U5  1  0.353230  0.265300  0.422870  1.0  1.8213
  U  U6  1  0.853230  0.765300  0.422870  1.0  1.8213
  U  U7  1  0.646770  0.265300  0.077130  1.0  1.8202
  U  U8  1  0.146770  0.765300  0.077130  1.0  1.8202
  Cu  Cu9  1  0.759660  0.471130  0.485970  1.0  0.7821
  Cu  Cu10  1  0.259660  0.971130  0.485970  1.0  0.7821
  Cu  Cu11  1  0.240340  0.471130  0.014030  1.0  0.7847
  Cu  Cu12  1  0.740340  0.971130  0.014030  1.0  0.7847
  Cu  Cu13  1  0.240340  0.528870  0.514030  1.0  0.7859
  Cu  Cu14  1  0.740340  0.028870  0.514030  1.0  0.7859
  Cu  Cu15  1  0.759660  0.528870  0.985970  1.0  0.783
  Cu  Cu16  1  0.259660  0.028870  0.985970  1.0  0.783
  H  H17  1  0.967100  0.648300  0.617400  1.0  0.1204
  H  H18  1  0.023400  0.566100  0.643100  1.0  0.1082
  H  H19  1  0.738100  0.585400  0.507300  1.0  0.0784
  H  H20  1  0.070600  0.485400  0.656600  1.0  0.1199
  H  H21  1  0.771500  0.509500  0.676300  1.0  0.0766
  H  H22  1  0.715200  0.402300  0.320100  1.0  0.0872
  H  H23  1  0.562400  0.292100  0.339000  1.0  0.0967
  H  H24  1  0.864000  0.366900  0.519700  1.0  0.0437
  H  H25  1  0.654800  0.408200  0.763900  1.0  0.0827
  H  H26  1  0.577200  0.327300  0.479700  1.0  0.1173
  H  H27  1  0.104400  0.401200  0.648500  1.0  0.0935
  H  H28  1  0.619000  0.359400  0.626200  1.0  0.1196
  H  H29  1  0.467100  0.148300  0.617400  1.0  0.1204
  H  H30  1  0.523400  0.066100  0.643100  1.0  0.1082
  H  H31  1  0.238100  0.085400  0.507300  1.0  0.0784
  H  H32  1  0.570600  0.985400  0.656600  1.0  0.1199
  H  H33  1  0.271500  0.009500  0.676300  1.0  0.0766
  H  H34  1  0.215200  0.902300  0.320100  1.0  0.0872
  H  H35  1  0.062400  0.792100  0.339000  1.0  0.0967
  H  H36  1  0.364000  0.866900  0.519700  1.0  0.0437
  H  H37  1  0.154800  0.908200  0.763900  1.0  0.0827
  H  H38  1  0.077200  0.827300  0.479700  1.0  0.1173
  H  H39  1  0.604400  0.901200  0.648500  1.0  0.0935
  H  H40  1  0.119000  0.859400  0.626200  1.0  0.1196
  H  H41  1  0.032900  0.648300  0.882600  1.0  0.1206
  H  H42  1  0.976600  0.566100  0.856900  1.0  0.1106
  H  H43  1  0.261900  0.585400  0.992700  1.0  0.0779
  H  H44  1  0.929400  0.485400  0.843400  1.0  0.12
  H  H45  1  0.228500  0.509500  0.823700  1.0  0.0769
  H  H46  1  0.284800  0.402300  0.179900  1.0  0.0873
  H  H47  1  0.437600  0.292100  0.161000  1.0  0.0968
  H  H48  1  0.136000  0.366900  0.980300  1.0  0.0437
  H  H49  1  0.345200  0.408200  0.736100  1.0  0.0824
  H  H50  1  0.422800  0.327300  0.020300  1.0  0.1174
  H  H51  1  0.895600  0.401200  0.851500  1.0  0.0947
  H  H52  1  0.381000  0.359400  0.873800  1.0  0.1203
  H  H53  1  0.532900  0.148300  0.882600  1.0  0.1206
  H  H54  1  0.476600  0.066100  0.856900  1.0  0.1106
  H  H55  1  0.761900  0.085400  0.992700  1.0  0.0779
  H  H56  1  0.429400  0.985400  0.843400  1.0  0.12
  H  H57  1  0.728500  0.009500  0.823700  1.0  0.0769
  H  H58  1  0.784800  0.902300  0.179900  1.0  0.0873
  H  H59  1  0.937600  0.792100  0.161000  1.0  0.0968
  H  H60  1  0.636000  0.866900  0.980300  1.0  0.0437
  H  H61  1  0.845200  0.908200  0.736100  1.0  0.0824
  H  H62  1  0.922800  0.827300  0.020300  1.0  0.1174
  H  H63  1  0.395600  0.901200  0.851500  1.0  0.0947
  H  H64  1  0.881000  0.859400  0.873800  1.0  0.1203
  H  H65  1  0.032900  0.351700  0.382600  1.0  0.1196
  H  H66  1  0.976600  0.433900  0.356900  1.0  0.1109
  H  H67  1  0.261900  0.414600  0.492700  1.0  0.0781
  H  H68  1  0.929400  0.514600  0.343400  1.0  0.1198
  H  H69  1  0.228500  0.490500  0.323700  1.0  0.0766
  H  H70  1  0.284800  0.597700  0.679900  1.0  0.087
  H  H71  1  0.437600  0.707900  0.661000  1.0  0.0971
  H  H72  1  0.136000  0.633100  0.480300  1.0  0.0436
  H  H73  1  0.345200  0.591800  0.236100  1.0  0.0829
  H  H74  1  0.422800  0.672700  0.520300  1.0  0.1172
  H  H75  1  0.895600  0.598800  0.351500  1.0  0.0947
  H  H76  1  0.381000  0.640600  0.373800  1.0  0.1205
  H  H77  1  0.532900  0.851700  0.382600  1.0  0.1196
  H  H78  1  0.476600  0.933900  0.356900  1.0  0.1109
  H  H79  1  0.761900  0.914600  0.492700  1.0  0.0781
  H  H80  1  0.429400  0.014600  0.343400  1.0  0.1198
  H  H81  1  0.728500  0.990500  0.323700  1.0  0.0766
  H  H82  1  0.784800  0.097700  0.679900  1.0  0.087
  H  H83  1  0.937600  0.207900  0.661000  1.0  0.0971
  H  H84  1  0.636000  0.133100  0.480300  1.0  0.0436
  H  H85  1  0.845200  0.091800  0.236100  1.0  0.0829
  H  H86  1  0.922800  0.172700  0.520300  1.0  0.1172
  H  H87  1  0.395600  0.098800  0.351500  1.0  0.0947
  H  H88  1  0.881000  0.140600  0.373800  1.0  0.1205
  H  H89  1  0.967100  0.351700  0.117400  1.0  0.1202
  H  H90  1  0.023400  0.433900  0.143100  1.0  0.1088
  H  H91  1  0.738100  0.414600  0.007300  1.0  0.0785
  H  H92  1  0.070600  0.514600  0.156600  1.0  0.1201
  H  H93  1  0.771500  0.490500  0.176300  1.0  0.0765
  H  H94  1  0.715200  0.597700  0.820100  1.0  0.0873
  H  H95  1  0.562400  0.707900  0.839000  1.0  0.0972
  H  H96  1  0.864000  0.633100  0.019700  1.0  0.0442
  H  H97  1  0.654800  0.591800  0.263900  1.0  0.0825
  H  H98  1  0.577200  0.672700  0.979700  1.0  0.1172
  H  H99  1  0.104400  0.598800  0.148500  1.0  0.0933
  H  H100  1  0.619000  0.640600  0.126200  1.0  0.1202
  H  H101  1  0.467100  0.851700  0.117400  1.0  0.1202
  H  H102  1  0.523400  0.933900  0.143100  1.0  0.1088
  H  H103  1  0.238100  0.914600  0.007300  1.0  0.0785
  H  H104  1  0.570600  0.014600  0.156600  1.0  0.1201
  H  H105  1  0.271500  0.990500  0.176300  1.0  0.0765
  H  H106  1  0.215200  0.097700  0.820100  1.0  0.0873
  H  H107  1  0.062400  0.207900  0.839000  1.0  0.0972
  H  H108  1  0.364000  0.133100  0.019700  1.0  0.0442
  H  H109  1  0.154800  0.091800  0.263900  1.0  0.0825
  H  H110  1  0.077200  0.172700  0.979700  1.0  0.1172
  H  H111  1  0.604400  0.098800  0.148500  1.0  0.0933
  H  H112  1  0.119000  0.140600  0.126200  1.0  0.1202
  C  C113  1  0.932100  0.619600  0.600500  1.0  -0.0311
  C  C114  1  0.965200  0.570800  0.613700  1.0  -0.1359
  C  C115  1  0.796500  0.581700  0.534000  1.0  0.1642
  C  C116  1  0.028800  0.461000  0.628000  1.0  -0.1393
  C  C117  1  0.639000  0.342700  0.316200  1.0  -0.178
  C  C118  1  0.803200  0.676700  0.545100  1.0  0.7116
  C  C119  1  0.672800  0.409800  0.570300  1.0  0.1649
  C  C120  1  0.739800  0.479500  0.666100  1.0  0.1561
  C  C121  1  0.845500  0.624700  0.561400  1.0  -0.1724
  C  C122  1  0.687700  0.386900  0.352600  1.0  0.1744
  C  C123  1  0.986800  0.375700  0.583500  1.0  -0.1659
  C  C124  1  0.596500  0.320800  0.363400  1.0  -0.0216
  C  C125  1  0.906000  0.391400  0.547200  1.0  0.193
  C  C126  1  0.672300  0.419500  0.719100  1.0  -0.0408
  C  C127  1  0.912400  0.528400  0.583400  1.0  0.159
  C  C128  1  0.605200  0.341700  0.446900  1.0  -0.1488
  C  C129  1  0.048200  0.411300  0.623600  1.0  0.0297
  C  C130  1  0.656500  0.384800  0.482000  1.0  0.1241
  C  C131  1  0.943700  0.474400  0.588000  1.0  0.1359
  C  C132  1  0.006000  0.318800  0.574300  1.0  0.6919
  C  C133  1  0.638400  0.318100  0.229900  1.0  0.6766
  C  C134  1  0.648800  0.390100  0.635600  1.0  -0.1532
  C  C135  1  0.747300  0.495400  0.826900  1.0  0.6045
  C  C136  1  0.717400  0.461600  0.735500  1.0  -0.1105
  C  C137  1  0.432100  0.119600  0.600500  1.0  -0.0311
  C  C138  1  0.465200  0.070800  0.613700  1.0  -0.1359
  C  C139  1  0.296500  0.081700  0.534000  1.0  0.1642
  C  C140  1  0.528800  0.961000  0.628000  1.0  -0.1393
  C  C141  1  0.139000  0.842700  0.316200  1.0  -0.178
  C  C142  1  0.303200  0.176700  0.545100  1.0  0.7116
  C  C143  1  0.172800  0.909800  0.570300  1.0  0.1649
  C  C144  1  0.239800  0.979500  0.666100  1.0  0.1561
  C  C145  1  0.345500  0.124700  0.561400  1.0  -0.1724
  C  C146  1  0.187700  0.886900  0.352600  1.0  0.1744
  C  C147  1  0.486800  0.875700  0.583500  1.0  -0.1659
  C  C148  1  0.096500  0.820800  0.363400  1.0  -0.0216
  C  C149  1  0.406000  0.891400  0.547200  1.0  0.193
  C  C150  1  0.172300  0.919500  0.719100  1.0  -0.0408
  C  C151  1  0.412400  0.028400  0.583400  1.0  0.159
  C  C152  1  0.105200  0.841700  0.446900  1.0  -0.1488
  C  C153  1  0.548200  0.911300  0.623600  1.0  0.0297
  C  C154  1  0.156500  0.884800  0.482000  1.0  0.1241
  C  C155  1  0.443700  0.974400  0.588000  1.0  0.1359
  C  C156  1  0.506000  0.818800  0.574300  1.0  0.6919
  C  C157  1  0.138400  0.818100  0.229900  1.0  0.6766
  C  C158  1  0.148800  0.890100  0.635600  1.0  -0.1532
  C  C159  1  0.247300  0.995400  0.826900  1.0  0.6045
  C  C160  1  0.217400  0.961600  0.735500  1.0  -0.1105
  C  C161  1  0.067900  0.619600  0.899500  1.0  -0.0315
  C  C162  1  0.034800  0.570800  0.886300  1.0  -0.1372
  C  C163  1  0.203500  0.581700  0.966000  1.0  0.1645
  C  C164  1  0.971200  0.461000  0.872000  1.0  -0.1393
  C  C165  1  0.361000  0.342700  0.183800  1.0  -0.178
  C  C166  1  0.196800  0.676700  0.954900  1.0  0.7118
  C  C167  1  0.327200  0.409800  0.929700  1.0  0.1659
  C  C168  1  0.260200  0.479500  0.833900  1.0  0.1568
  C  C169  1  0.154500  0.624700  0.938600  1.0  -0.1743
  C  C170  1  0.312300  0.386900  0.147400  1.0  0.1754
  C  C171  1  0.013200  0.375700  0.916500  1.0  -0.1657
  C  C172  1  0.403500  0.320800  0.136600  1.0  -0.0212
  C  C173  1  0.094000  0.391400  0.952800  1.0  0.1936
  C  C174  1  0.327700  0.419500  0.780900  1.0  -0.0444
  C  C175  1  0.087600  0.528400  0.916600  1.0  0.159
  C  C176  1  0.394800  0.341700  0.053100  1.0  -0.1487
  C  C177  1  0.951800  0.411300  0.876400  1.0  0.0281
  C  C178  1  0.343500  0.384800  0.018000  1.0  0.1237
  C  C179  1  0.056300  0.474400  0.912000  1.0  0.1353
  C  C180  1  0.994000  0.318800  0.925700  1.0  0.6928
  C  C181  1  0.361600  0.318100  0.270100  1.0  0.6768
  C  C182  1  0.351200  0.390100  0.864400  1.0  -0.1519
  C  C183  1  0.252700  0.495400  0.673100  1.0  0.6074
  C  C184  1  0.282600  0.461600  0.764500  1.0  -0.1121
  C  C185  1  0.567900  0.119600  0.899500  1.0  -0.0315
  C  C186  1  0.534800  0.070800  0.886300  1.0  -0.1372
  C  C187  1  0.703500  0.081700  0.966000  1.0  0.1645
  C  C188  1  0.471200  0.961000  0.872000  1.0  -0.1393
  C  C189  1  0.861000  0.842700  0.183800  1.0  -0.178
  C  C190  1  0.696800  0.176700  0.954900  1.0  0.7118
  C  C191  1  0.827200  0.909800  0.929700  1.0  0.1659
  C  C192  1  0.760200  0.979500  0.833900  1.0  0.1568
  C  C193  1  0.654500  0.124700  0.938600  1.0  -0.1743
  C  C194  1  0.812300  0.886900  0.147400  1.0  0.1754
  C  C195  1  0.513200  0.875700  0.916500  1.0  -0.1657
  C  C196  1  0.903500  0.820800  0.136600  1.0  -0.0212
  C  C197  1  0.594000  0.891400  0.952800  1.0  0.1936
  C  C198  1  0.827700  0.919500  0.780900  1.0  -0.0444
  C  C199  1  0.587600  0.028400  0.916600  1.0  0.159
  C  C200  1  0.894800  0.841700  0.053100  1.0  -0.1487
  C  C201  1  0.451800  0.911300  0.876400  1.0  0.0281
  C  C202  1  0.843500  0.884800  0.018000  1.0  0.1237
  C  C203  1  0.556300  0.974400  0.912000  1.0  0.1353
  C  C204  1  0.494000  0.818800  0.925700  1.0  0.6928
  C  C205  1  0.861600  0.818100  0.270100  1.0  0.6768
  C  C206  1  0.851200  0.890100  0.864400  1.0  -0.1519
  C  C207  1  0.752700  0.995400  0.673100  1.0  0.6074
  C  C208  1  0.782600  0.961600  0.764500  1.0  -0.1121
  C  C209  1  0.067900  0.380400  0.399500  1.0  -0.0305
  C  C210  1  0.034800  0.429200  0.386300  1.0  -0.1373
  C  C211  1  0.203500  0.418300  0.466000  1.0  0.1648
  C  C212  1  0.971200  0.539000  0.372000  1.0  -0.1394
  C  C213  1  0.361000  0.657300  0.683800  1.0  -0.178
  C  C214  1  0.196800  0.323300  0.454900  1.0  0.7087
  C  C215  1  0.327200  0.590200  0.429700  1.0  0.1657
  C  C216  1  0.260200  0.520500  0.333900  1.0  0.1575
  C  C217  1  0.154500  0.375300  0.438600  1.0  -0.176
  C  C218  1  0.312300  0.613100  0.647400  1.0  0.1748
  C  C219  1  0.013200  0.624300  0.416500  1.0  -0.1655
  C  C220  1  0.403500  0.679200  0.636600  1.0  -0.021
  C  C221  1  0.094000  0.608600  0.452800  1.0  0.1923
  C  C222  1  0.327700  0.580500  0.280900  1.0  -0.0425
  C  C223  1  0.087600  0.471600  0.416600  1.0  0.1592
  C  C224  1  0.394800  0.658300  0.553100  1.0  -0.1491
  C  C225  1  0.951800  0.588700  0.376400  1.0  0.028
  C  C226  1  0.343500  0.615200  0.518000  1.0  0.1238
  C  C227  1  0.056300  0.525600  0.412000  1.0  0.1353
  C  C228  1  0.994000  0.681200  0.425700  1.0  0.6897
  C  C229  1  0.361600  0.681900  0.770100  1.0  0.6769
  C  C230  1  0.351200  0.609900  0.364400  1.0  -0.1522
  C  C231  1  0.252700  0.504600  0.173100  1.0  0.6065
  C  C232  1  0.282600  0.538400  0.264500  1.0  -0.1121
  C  C233  1  0.567900  0.880400  0.399500  1.0  -0.0305
  C  C234  1  0.534800  0.929200  0.386300  1.0  -0.1373
  C  C235  1  0.703500  0.918300  0.466000  1.0  0.1648
  C  C236  1  0.471200  0.039000  0.372000  1.0  -0.1394
  C  C237  1  0.861000  0.157300  0.683800  1.0  -0.178
  C  C238  1  0.696800  0.823300  0.454900  1.0  0.7087
  C  C239  1  0.827200  0.090200  0.429700  1.0  0.1657
  C  C240  1  0.760200  0.020500  0.333900  1.0  0.1575
  C  C241  1  0.654500  0.875300  0.438600  1.0  -0.176
  C  C242  1  0.812300  0.113100  0.647400  1.0  0.1748
  C  C243  1  0.513200  0.124300  0.416500  1.0  -0.1655
  C  C244  1  0.903500  0.179200  0.636600  1.0  -0.021
  C  C245  1  0.594000  0.108600  0.452800  1.0  0.1923
  C  C246  1  0.827700  0.080500  0.280900  1.0  -0.0425
  C  C247  1  0.587600  0.971600  0.416600  1.0  0.1592
  C  C248  1  0.894800  0.158300  0.553100  1.0  -0.1491
  C  C249  1  0.451800  0.088700  0.376400  1.0  0.028
  C  C250  1  0.843500  0.115200  0.518000  1.0  0.1238
  C  C251  1  0.556300  0.025600  0.412000  1.0  0.1353
  C  C252  1  0.494000  0.181200  0.425700  1.0  0.6897
  C  C253  1  0.861600  0.181900  0.770100  1.0  0.6769
  C  C254  1  0.851200  0.109900  0.364400  1.0  -0.1522
  C  C255  1  0.752700  0.004600  0.173100  1.0  0.6065
  C  C256  1  0.782600  0.038400  0.264500  1.0  -0.1121
  C  C257  1  0.932100  0.380400  0.100500  1.0  -0.0314
  C  C258  1  0.965200  0.429200  0.113700  1.0  -0.1365
  C  C259  1  0.796500  0.418300  0.034000  1.0  0.1643
  C  C260  1  0.028800  0.539000  0.128000  1.0  -0.14
  C  C261  1  0.639000  0.657300  0.816200  1.0  -0.1776
  C  C262  1  0.803200  0.323300  0.045100  1.0  0.7094
  C  C263  1  0.672800  0.590200  0.070300  1.0  0.1649
  C  C264  1  0.739800  0.520500  0.166100  1.0  0.1564
  C  C265  1  0.845500  0.375300  0.061400  1.0  -0.1739
  C  C266  1  0.687700  0.613100  0.852600  1.0  0.1738
  C  C267  1  0.986800  0.624300  0.083500  1.0  -0.1664
  C  C268  1  0.596500  0.679200  0.863400  1.0  -0.0214
  C  C269  1  0.906000  0.608600  0.047200  1.0  0.1907
  C  C270  1  0.672300  0.580500  0.219100  1.0  -0.0414
  C  C271  1  0.912400  0.471600  0.083400  1.0  0.1593
  C  C272  1  0.605200  0.658300  0.946900  1.0  -0.1491
  C  C273  1  0.048200  0.588700  0.123600  1.0  0.0298
  C  C274  1  0.656500  0.615200  0.982000  1.0  0.1242
  C  C275  1  0.943700  0.525600  0.088000  1.0  0.1359
  C  C276  1  0.006000  0.681200  0.074300  1.0  0.6891
  C  C277  1  0.638400  0.681900  0.729900  1.0  0.6772
  C  C278  1  0.648800  0.609900  0.135600  1.0  -0.1538
  C  C279  1  0.747300  0.504600  0.326900  1.0  0.6038
  C  C280  1  0.717400  0.538400  0.235500  1.0  -0.1104
  C  C281  1  0.432100  0.880400  0.100500  1.0  -0.0314
  C  C282  1  0.465200  0.929200  0.113700  1.0  -0.1365
  C  C283  1  0.296500  0.918300  0.034000  1.0  0.1643
  C  C284  1  0.528800  0.039000  0.128000  1.0  -0.14
  C  C285  1  0.139000  0.157300  0.816200  1.0  -0.1776
  C  C286  1  0.303200  0.823300  0.045100  1.0  0.7094
  C  C287  1  0.172800  0.090200  0.070300  1.0  0.1649
  C  C288  1  0.239800  0.020500  0.166100  1.0  0.1564
  C  C289  1  0.345500  0.875300  0.061400  1.0  -0.1739
  C  C290  1  0.187700  0.113100  0.852600  1.0  0.1738
  C  C291  1  0.486800  0.124300  0.083500  1.0  -0.1664
  C  C292  1  0.096500  0.179200  0.863400  1.0  -0.0214
  C  C293  1  0.406000  0.108600  0.047200  1.0  0.1907
  C  C294  1  0.172300  0.080500  0.219100  1.0  -0.0414
  C  C295  1  0.412400  0.971600  0.083400  1.0  0.1593
  C  C296  1  0.105200  0.158300  0.946900  1.0  -0.1491
  C  C297  1  0.548200  0.088700  0.123600  1.0  0.0298
  C  C298  1  0.156500  0.115200  0.982000  1.0  0.1242
  C  C299  1  0.443700  0.025600  0.088000  1.0  0.1359
  C  C300  1  0.506000  0.181200  0.074300  1.0  0.6891
  C  C301  1  0.138400  0.181900  0.729900  1.0  0.6772
  C  C302  1  0.148800  0.109900  0.135600  1.0  -0.1538
  C  C303  1  0.247300  0.004600  0.326900  1.0  0.6038
  C  C304  1  0.217400  0.038400  0.235500  1.0  -0.1104
  N  N305  1  0.695100  0.406900  0.432100  1.0  -0.3358
  N  N306  1  0.716900  0.454700  0.585700  1.0  -0.3673
  N  N307  1  0.883000  0.439900  0.548300  1.0  -0.3081
  N  N308  1  0.829500  0.534200  0.544300  1.0  -0.3052
  N  N309  1  0.195100  0.906900  0.432100  1.0  -0.3358
  N  N310  1  0.216900  0.954700  0.585700  1.0  -0.3673
  N  N311  1  0.383000  0.939900  0.548300  1.0  -0.3081
  N  N312  1  0.329500  0.034200  0.544300  1.0  -0.3052
  N  N313  1  0.304900  0.406900  0.067900  1.0  -0.3358
  N  N314  1  0.283100  0.454700  0.914300  1.0  -0.364
  N  N315  1  0.117000  0.439900  0.951700  1.0  -0.3077
  N  N316  1  0.170500  0.534200  0.955700  1.0  -0.3056
  N  N317  1  0.804900  0.906900  0.067900  1.0  -0.3358
  N  N318  1  0.783100  0.954700  0.914300  1.0  -0.364
  N  N319  1  0.617000  0.939900  0.951700  1.0  -0.3077
  N  N320  1  0.670500  0.034200  0.955700  1.0  -0.3056
  N  N321  1  0.304900  0.593100  0.567900  1.0  -0.3347
  N  N322  1  0.283100  0.545300  0.414300  1.0  -0.3636
  N  N323  1  0.117000  0.560100  0.451700  1.0  -0.3075
  N  N324  1  0.170500  0.465800  0.455700  1.0  -0.3057
  N  N325  1  0.804900  0.093100  0.567900  1.0  -0.3347
  N  N326  1  0.783100  0.045300  0.414300  1.0  -0.3636
  N  N327  1  0.617000  0.060100  0.451700  1.0  -0.3075
  N  N328  1  0.670500  0.965800  0.455700  1.0  -0.3057
  N  N329  1  0.695100  0.593100  0.932100  1.0  -0.335
  N  N330  1  0.716900  0.545300  0.085700  1.0  -0.3668
  N  N331  1  0.883000  0.560100  0.048300  1.0  -0.3082
  N  N332  1  0.829500  0.465800  0.044300  1.0  -0.3051
  N  N333  1  0.195100  0.093100  0.932100  1.0  -0.335
  N  N334  1  0.216900  0.045300  0.085700  1.0  -0.3668
  N  N335  1  0.383000  0.060100  0.048300  1.0  -0.3082
  N  N336  1  0.329500  0.965800  0.044300  1.0  -0.3051
  O  O337  1  0.845900  0.714600  0.543400  1.0  -0.6925
  O  O338  1  0.728400  0.677200  0.534100  1.0  -0.6966
  O  O339  1  0.676200  0.339200  0.186300  1.0  -0.7034
  O  O340  1  0.599700  0.276000  0.202400  1.0  -0.7018
  O  O341  1  0.080200  0.309500  0.585600  1.0  -0.674
  O  O342  1  0.949800  0.286500  0.555600  1.0  -0.5264
  O  O343  1  0.702300  0.488800  0.868500  1.0  -0.5704
  O  O344  1  0.805600  0.523500  0.843300  1.0  -0.5576
  O  O345  1  0.345900  0.214600  0.543400  1.0  -0.6929
  O  O346  1  0.228400  0.177200  0.534100  1.0  -0.6966
  O  O347  1  0.176200  0.839200  0.186300  1.0  -0.7034
  O  O348  1  0.099700  0.776000  0.202400  1.0  -0.7018
  O  O349  1  0.580200  0.809500  0.585600  1.0  -0.674
  O  O350  1  0.449800  0.786500  0.555600  1.0  -0.5264
  O  O351  1  0.202300  0.988800  0.868500  1.0  -0.5704
  O  O352  1  0.305600  0.023500  0.843300  1.0  -0.5576
  O  O353  1  0.154100  0.714600  0.956600  1.0  -0.6938
  O  O354  1  0.271600  0.677200  0.965900  1.0  -0.6954
  O  O355  1  0.323800  0.339200  0.313700  1.0  -0.7035
  O  O356  1  0.400300  0.276000  0.297600  1.0  -0.7
  O  O357  1  0.919800  0.309500  0.914400  1.0  -0.6732
  O  O358  1  0.050200  0.286500  0.944400  1.0  -0.5256
  O  O359  1  0.297700  0.488800  0.631500  1.0  -0.5707
  O  O360  1  0.194400  0.523500  0.656700  1.0  -0.5569
  O  O361  1  0.654100  0.214600  0.956600  1.0  -0.6942
  O  O362  1  0.771600  0.177200  0.965900  1.0  -0.6954
  O  O363  1  0.823800  0.839200  0.313700  1.0  -0.7035
  O  O364  1  0.900300  0.776000  0.297600  1.0  -0.7
  O  O365  1  0.419800  0.809500  0.914400  1.0  -0.6732
  O  O366  1  0.550200  0.786500  0.944400  1.0  -0.5256
  O  O367  1  0.797700  0.988800  0.631500  1.0  -0.5707
  O  O368  1  0.694400  0.023500  0.656700  1.0  -0.5569
  O  O369  1  0.154100  0.285400  0.456600  1.0  -0.6929
  O  O370  1  0.271600  0.322800  0.465900  1.0  -0.6955
  O  O371  1  0.323800  0.660800  0.813700  1.0  -0.7033
  O  O372  1  0.400300  0.724000  0.797600  1.0  -0.7005
  O  O373  1  0.919800  0.690500  0.414400  1.0  -0.6739
  O  O374  1  0.050200  0.713500  0.444400  1.0  -0.5246
  O  O375  1  0.297700  0.511200  0.131500  1.0  -0.5703
  O  O376  1  0.194400  0.476500  0.156700  1.0  -0.5568
  O  O377  1  0.654100  0.785400  0.456600  1.0  -0.6935
  O  O378  1  0.771600  0.822800  0.465900  1.0  -0.6955
  O  O379  1  0.823800  0.160800  0.813700  1.0  -0.7033
  O  O380  1  0.900300  0.224000  0.797600  1.0  -0.7005
  O  O381  1  0.419800  0.190500  0.414400  1.0  -0.6739
  O  O382  1  0.550200  0.213500  0.444400  1.0  -0.5246
  O  O383  1  0.797700  0.011200  0.131500  1.0  -0.5703
  O  O384  1  0.694400  0.976500  0.156700  1.0  -0.5568
  O  O385  1  0.845900  0.285400  0.043400  1.0  -0.6928
  O  O386  1  0.728400  0.322800  0.034100  1.0  -0.6959
  O  O387  1  0.676200  0.660800  0.686300  1.0  -0.7031
  O  O388  1  0.599700  0.724000  0.702400  1.0  -0.7011
  O  O389  1  0.080200  0.690500  0.085600  1.0  -0.6739
  O  O390  1  0.949800  0.713500  0.055600  1.0  -0.5256
  O  O391  1  0.702300  0.511200  0.368500  1.0  -0.5705
  O  O392  1  0.805600  0.476500  0.343300  1.0  -0.5575
  O  O393  1  0.345900  0.785400  0.043400  1.0  -0.6933
  O  O394  1  0.228400  0.822800  0.034100  1.0  -0.6959
  O  O395  1  0.176200  0.160800  0.686300  1.0  -0.7031
  O  O396  1  0.099700  0.224000  0.702400  1.0  -0.7011
  O  O397  1  0.580200  0.190500  0.085600  1.0  -0.6739
  O  O398  1  0.449800  0.213500  0.055600  1.0  -0.5256
  O  O399  1  0.202300  0.011200  0.368500  1.0  -0.5705
  O  O400  1  0.305600  0.976500  0.343300  1.0  -0.5575
