# generated using pymatgen
data_UZnH12C24(NO2)4
_symmetry_space_group_name_H-M   'P 1'
_cell_length_a   17.43010000
_cell_length_b   26.27000000
_cell_length_c   15.45960000
_cell_angle_alpha   90.00000000
_cell_angle_beta   113.49800000
_cell_angle_gamma   90.00000000
_symmetry_Int_Tables_number   1
_chemical_formula_structural   UZnH12C24(NO2)4
_chemical_formula_sum   'U8 Zn8 H96 C192 N32 O64'
_cell_volume   6491.76188758
_cell_formula_units_Z   8
loop_
 _symmetry_equiv_pos_site_id
 _symmetry_equiv_pos_as_xyz
  1  'x, y, z'
loop_
 _atom_site_type_symbol
 _atom_site_label
 _atom_site_symmetry_multiplicity
 _atom_site_fract_x
 _atom_site_fract_y
 _atom_site_fract_z
 _atom_site_occupancy
 _atom_site_charge
  U  U1  1  0.149580  0.737910  0.584170  1.0  1.791
  U  U2  1  0.649580  0.237910  0.584170  1.0  1.791
  U  U3  1  0.850420  0.737910  0.915830  1.0  1.7917
  U  U4  1  0.350420  0.237910  0.915830  1.0  1.7917
  U  U5  1  0.850420  0.262090  0.415830  1.0  1.7909
  U  U6  1  0.350420  0.762090  0.415830  1.0  1.7909
  U  U7  1  0.149580  0.262090  0.084170  1.0  1.79
  U  U8  1  0.649580  0.762090  0.084170  1.0  1.79
  Zn  Zn9  1  0.265990  0.469990  0.500640  1.0  0.8288
  Zn  Zn10  1  0.765990  0.969990  0.500640  1.0  0.8288
  Zn  Zn11  1  0.734010  0.469990  0.999360  1.0  0.8297
  Zn  Zn12  1  0.234010  0.969990  0.999360  1.0  0.8297
  Zn  Zn13  1  0.734010  0.530010  0.499360  1.0  0.8298
  Zn  Zn14  1  0.234010  0.030010  0.499360  1.0  0.8298
  Zn  Zn15  1  0.265990  0.530010  0.000640  1.0  0.829
  Zn  Zn16  1  0.765990  0.030010  0.000640  1.0  0.829
  H  H17  1  0.529500  0.570600  0.642800  1.0  0.1168
  H  H18  1  0.222500  0.606400  0.831800  1.0  0.0763
  H  H19  1  0.469100  0.652300  0.616400  1.0  0.1059
  H  H20  1  0.245000  0.586700  0.532300  1.0  0.0703
  H  H21  1  0.368900  0.371400  0.535900  1.0  0.062
  H  H22  1  0.117800  0.641700  0.141200  1.0  0.1234
  H  H23  1  0.612000  0.405800  0.652300  1.0  0.1052
  H  H24  1  0.152200  0.598500  0.282200  1.0  0.0977
  H  H25  1  0.574900  0.490800  0.658000  1.0  0.1075
  H  H26  1  0.261200  0.491900  0.189700  1.0  0.062
  H  H27  1  0.074700  0.670600  0.994400  1.0  0.117
  H  H28  1  0.064400  0.709500  0.855300  1.0  0.0847
  H  H29  1  0.029500  0.070600  0.642800  1.0  0.1168
  H  H30  1  0.722500  0.106400  0.831800  1.0  0.0763
  H  H31  1  0.969100  0.152300  0.616400  1.0  0.1059
  H  H32  1  0.745000  0.086700  0.532300  1.0  0.0703
  H  H33  1  0.868900  0.871400  0.535900  1.0  0.062
  H  H34  1  0.617800  0.141700  0.141200  1.0  0.1234
  H  H35  1  0.112000  0.905800  0.652300  1.0  0.1052
  H  H36  1  0.652200  0.098500  0.282200  1.0  0.0977
  H  H37  1  0.074900  0.990800  0.658000  1.0  0.1075
  H  H38  1  0.761200  0.991900  0.189700  1.0  0.062
  H  H39  1  0.574700  0.170600  0.994400  1.0  0.117
  H  H40  1  0.564400  0.209500  0.855300  1.0  0.0847
  H  H41  1  0.470500  0.570600  0.857200  1.0  0.1177
  H  H42  1  0.777500  0.606400  0.668200  1.0  0.0761
  H  H43  1  0.530900  0.652300  0.883600  1.0  0.1065
  H  H44  1  0.755000  0.586700  0.967700  1.0  0.069
  H  H45  1  0.631100  0.371400  0.964100  1.0  0.0623
  H  H46  1  0.882200  0.641700  0.358800  1.0  0.1236
  H  H47  1  0.388000  0.405800  0.847700  1.0  0.1069
  H  H48  1  0.847800  0.598500  0.217800  1.0  0.0981
  H  H49  1  0.425100  0.490800  0.842000  1.0  0.1078
  H  H50  1  0.738800  0.491900  0.310300  1.0  0.0624
  H  H51  1  0.925300  0.670600  0.505600  1.0  0.1177
  H  H52  1  0.935600  0.709500  0.644700  1.0  0.0851
  H  H53  1  0.970500  0.070600  0.857200  1.0  0.1177
  H  H54  1  0.277500  0.106400  0.668200  1.0  0.0761
  H  H55  1  0.030900  0.152300  0.883600  1.0  0.1065
  H  H56  1  0.255000  0.086700  0.967700  1.0  0.069
  H  H57  1  0.131100  0.871400  0.964100  1.0  0.0623
  H  H58  1  0.382200  0.141700  0.358800  1.0  0.1236
  H  H59  1  0.888000  0.905800  0.847700  1.0  0.1069
  H  H60  1  0.347800  0.098500  0.217800  1.0  0.0981
  H  H61  1  0.925100  0.990800  0.842000  1.0  0.1078
  H  H62  1  0.238800  0.991900  0.310300  1.0  0.0624
  H  H63  1  0.425300  0.170600  0.505600  1.0  0.1177
  H  H64  1  0.435600  0.209500  0.644700  1.0  0.0851
  H  H65  1  0.470500  0.429400  0.357200  1.0  0.1183
  H  H66  1  0.777500  0.393600  0.168200  1.0  0.0761
  H  H67  1  0.530900  0.347700  0.383600  1.0  0.1054
  H  H68  1  0.755000  0.413300  0.467700  1.0  0.0689
  H  H69  1  0.631100  0.628600  0.464100  1.0  0.0621
  H  H70  1  0.882200  0.358300  0.858800  1.0  0.1238
  H  H71  1  0.388000  0.594200  0.347700  1.0  0.1071
  H  H72  1  0.847800  0.401500  0.717800  1.0  0.098
  H  H73  1  0.425100  0.509200  0.342000  1.0  0.1077
  H  H74  1  0.738800  0.508100  0.810300  1.0  0.0629
  H  H75  1  0.925300  0.329400  0.005600  1.0  0.1177
  H  H76  1  0.935600  0.290500  0.144700  1.0  0.0847
  H  H77  1  0.970500  0.929400  0.357200  1.0  0.1183
  H  H78  1  0.277500  0.893600  0.168200  1.0  0.0761
  H  H79  1  0.030900  0.847700  0.383600  1.0  0.1054
  H  H80  1  0.255000  0.913300  0.467700  1.0  0.0689
  H  H81  1  0.131100  0.128600  0.464100  1.0  0.0621
  H  H82  1  0.382200  0.858300  0.858800  1.0  0.1238
  H  H83  1  0.888000  0.094200  0.347700  1.0  0.1071
  H  H84  1  0.347800  0.901500  0.717800  1.0  0.098
  H  H85  1  0.925100  0.009200  0.342000  1.0  0.1077
  H  H86  1  0.238800  0.008100  0.810300  1.0  0.0629
  H  H87  1  0.425300  0.829400  0.005600  1.0  0.1177
  H  H88  1  0.435600  0.790500  0.144700  1.0  0.0847
  H  H89  1  0.529500  0.429400  0.142800  1.0  0.1174
  H  H90  1  0.222500  0.393600  0.331800  1.0  0.0762
  H  H91  1  0.469100  0.347700  0.116400  1.0  0.1058
  H  H92  1  0.245000  0.413300  0.032300  1.0  0.0703
  H  H93  1  0.368900  0.628600  0.035900  1.0  0.0622
  H  H94  1  0.117800  0.358300  0.641200  1.0  0.1231
  H  H95  1  0.612000  0.594200  0.152300  1.0  0.1051
  H  H96  1  0.152200  0.401500  0.782200  1.0  0.0981
  H  H97  1  0.574900  0.509200  0.158000  1.0  0.1081
  H  H98  1  0.261200  0.508100  0.689700  1.0  0.0623
  H  H99  1  0.074700  0.329400  0.494400  1.0  0.1172
  H  H100  1  0.064400  0.290500  0.355300  1.0  0.0844
  H  H101  1  0.029500  0.929400  0.142800  1.0  0.1174
  H  H102  1  0.722500  0.893600  0.331800  1.0  0.0762
  H  H103  1  0.969100  0.847700  0.116400  1.0  0.1058
  H  H104  1  0.745000  0.913300  0.032300  1.0  0.0703
  H  H105  1  0.868900  0.128600  0.035900  1.0  0.0622
  H  H106  1  0.617800  0.858300  0.641200  1.0  0.1231
  H  H107  1  0.112000  0.094200  0.152300  1.0  0.1051
  H  H108  1  0.652200  0.901500  0.782200  1.0  0.0981
  H  H109  1  0.074900  0.009200  0.158000  1.0  0.1081
  H  H110  1  0.761200  0.008100  0.689700  1.0  0.0623
  H  H111  1  0.574700  0.829400  0.494400  1.0  0.1172
  H  H112  1  0.564400  0.790500  0.355300  1.0  0.0844
  C  C113  1  0.141500  0.686500  0.741000  1.0  0.6904
  C  C114  1  0.142100  0.661970  0.828100  1.0  -0.2238
  C  C115  1  0.471700  0.574490  0.618400  1.0  -0.1258
  C  C116  1  0.192900  0.619870  0.865000  1.0  0.1702
  C  C117  1  0.492900  0.379230  0.593100  1.0  -0.2074
  C  C118  1  0.307700  0.678380  0.552600  1.0  0.6812
  C  C119  1  0.174100  0.592200  0.085400  1.0  0.1343
  C  C120  1  0.435700  0.623360  0.604300  1.0  -0.0423
  C  C121  1  0.302800  0.583740  0.553400  1.0  0.1466
  C  C122  1  0.450800  0.479340  0.599800  1.0  0.1593
  C  C123  1  0.420300  0.532770  0.595700  1.0  0.168
  C  C124  1  0.411200  0.395430  0.560800  1.0  0.1718
  C  C125  1  0.350800  0.627420  0.572600  1.0  -0.1712
  C  C126  1  0.148100  0.611500  0.152200  1.0  -0.1762
  C  C127  1  0.556100  0.415300  0.630100  1.0  -0.0342
  C  C128  1  0.158700  0.617800  0.994600  1.0  0.1889
  C  C129  1  0.209700  0.540700  0.251000  1.0  -0.1252
  C  C130  1  0.167900  0.585300  0.235800  1.0  0.0068
  C  C131  1  0.533700  0.466000  0.633300  1.0  -0.1124
  C  C132  1  0.232700  0.522690  0.180400  1.0  0.1641
  C  C133  1  0.232400  0.510400  0.340000  1.0  0.65
  C  C134  1  0.105400  0.658500  0.961400  1.0  -0.1293
  C  C135  1  0.098500  0.681200  0.877800  1.0  -0.0196
  C  C136  1  0.510300  0.323900  0.581900  1.0  0.6958
  C  C137  1  0.641500  0.186500  0.741000  1.0  0.6904
  C  C138  1  0.642100  0.161970  0.828100  1.0  -0.2238
  C  C139  1  0.971700  0.074490  0.618400  1.0  -0.1258
  C  C140  1  0.692900  0.119870  0.865000  1.0  0.1702
  C  C141  1  0.992900  0.879230  0.593100  1.0  -0.2074
  C  C142  1  0.807700  0.178380  0.552600  1.0  0.6812
  C  C143  1  0.674100  0.092200  0.085400  1.0  0.1343
  C  C144  1  0.935700  0.123360  0.604300  1.0  -0.0423
  C  C145  1  0.802800  0.083740  0.553400  1.0  0.1466
  C  C146  1  0.950800  0.979340  0.599800  1.0  0.1593
  C  C147  1  0.920300  0.032770  0.595700  1.0  0.168
  C  C148  1  0.911200  0.895430  0.560800  1.0  0.1718
  C  C149  1  0.850800  0.127420  0.572600  1.0  -0.1712
  C  C150  1  0.648100  0.111500  0.152200  1.0  -0.1762
  C  C151  1  0.056100  0.915300  0.630100  1.0  -0.0342
  C  C152  1  0.658700  0.117800  0.994600  1.0  0.1889
  C  C153  1  0.709700  0.040700  0.251000  1.0  -0.1252
  C  C154  1  0.667900  0.085300  0.235800  1.0  0.0068
  C  C155  1  0.033700  0.966000  0.633300  1.0  -0.1124
  C  C156  1  0.732700  0.022690  0.180400  1.0  0.1641
  C  C157  1  0.732400  0.010400  0.340000  1.0  0.65
  C  C158  1  0.605400  0.158500  0.961400  1.0  -0.1293
  C  C159  1  0.598500  0.181200  0.877800  1.0  -0.0196
  C  C160  1  0.010300  0.823900  0.581900  1.0  0.6958
  C  C161  1  0.858500  0.686500  0.759000  1.0  0.6897
  C  C162  1  0.857900  0.661970  0.671900  1.0  -0.2227
  C  C163  1  0.528300  0.574490  0.881600  1.0  -0.1254
  C  C164  1  0.807100  0.619870  0.635000  1.0  0.1708
  C  C165  1  0.507100  0.379230  0.906900  1.0  -0.2077
  C  C166  1  0.692300  0.678380  0.947400  1.0  0.6816
  C  C167  1  0.825900  0.592200  0.414600  1.0  0.1345
  C  C168  1  0.564300  0.623360  0.895700  1.0  -0.0424
  C  C169  1  0.697200  0.583740  0.946600  1.0  0.146
  C  C170  1  0.549200  0.479340  0.900200  1.0  0.1598
  C  C171  1  0.579700  0.532770  0.904300  1.0  0.1682
  C  C172  1  0.588800  0.395430  0.939200  1.0  0.1717
  C  C173  1  0.649200  0.627420  0.927400  1.0  -0.1717
  C  C174  1  0.851900  0.611500  0.347800  1.0  -0.1749
  C  C175  1  0.443900  0.415300  0.869900  1.0  -0.0347
  C  C176  1  0.841300  0.617800  0.505400  1.0  0.1882
  C  C177  1  0.790300  0.540700  0.249000  1.0  -0.1283
  C  C178  1  0.832100  0.585300  0.264200  1.0  0.0062
  C  C179  1  0.466300  0.466000  0.866700  1.0  -0.1125
  C  C180  1  0.767300  0.522690  0.319600  1.0  0.1655
  C  C181  1  0.767600  0.510400  0.160000  1.0  0.6473
  C  C182  1  0.894600  0.658500  0.538600  1.0  -0.1294
  C  C183  1  0.901500  0.681200  0.622200  1.0  -0.0196
  C  C184  1  0.489700  0.323900  0.918100  1.0  0.6959
  C  C185  1  0.358500  0.186500  0.759000  1.0  0.6897
  C  C186  1  0.357900  0.161970  0.671900  1.0  -0.2227
  C  C187  1  0.028300  0.074490  0.881600  1.0  -0.1254
  C  C188  1  0.307100  0.119870  0.635000  1.0  0.1708
  C  C189  1  0.007100  0.879230  0.906900  1.0  -0.2077
  C  C190  1  0.192300  0.178380  0.947400  1.0  0.6816
  C  C191  1  0.325900  0.092200  0.414600  1.0  0.1345
  C  C192  1  0.064300  0.123360  0.895700  1.0  -0.0424
  C  C193  1  0.197200  0.083740  0.946600  1.0  0.146
  C  C194  1  0.049200  0.979340  0.900200  1.0  0.1598
  C  C195  1  0.079700  0.032770  0.904300  1.0  0.1682
  C  C196  1  0.088800  0.895430  0.939200  1.0  0.1717
  C  C197  1  0.149200  0.127420  0.927400  1.0  -0.1717
  C  C198  1  0.351900  0.111500  0.347800  1.0  -0.1749
  C  C199  1  0.943900  0.915300  0.869900  1.0  -0.0347
  C  C200  1  0.341300  0.117800  0.505400  1.0  0.1882
  C  C201  1  0.290300  0.040700  0.249000  1.0  -0.1283
  C  C202  1  0.332100  0.085300  0.264200  1.0  0.0062
  C  C203  1  0.966300  0.966000  0.866700  1.0  -0.1125
  C  C204  1  0.267300  0.022690  0.319600  1.0  0.1655
  C  C205  1  0.267600  0.010400  0.160000  1.0  0.6473
  C  C206  1  0.394600  0.158500  0.538600  1.0  -0.1294
  C  C207  1  0.401500  0.181200  0.622200  1.0  -0.0196
  C  C208  1  0.989700  0.823900  0.918100  1.0  0.6959
  C  C209  1  0.858500  0.313500  0.259000  1.0  0.6899
  C  C210  1  0.857900  0.338030  0.171900  1.0  -0.2228
  C  C211  1  0.528300  0.425510  0.381600  1.0  -0.1256
  C  C212  1  0.807100  0.380130  0.135000  1.0  0.1707
  C  C213  1  0.507100  0.620770  0.406900  1.0  -0.2052
  C  C214  1  0.692300  0.321620  0.447400  1.0  0.6818
  C  C215  1  0.825900  0.407800  0.914600  1.0  0.1345
  C  C216  1  0.564300  0.376640  0.395700  1.0  -0.0414
  C  C217  1  0.697200  0.416260  0.446600  1.0  0.1464
  C  C218  1  0.549200  0.520660  0.400200  1.0  0.1595
  C  C219  1  0.579700  0.467230  0.404300  1.0  0.1684
  C  C220  1  0.588800  0.604570  0.439200  1.0  0.1711
  C  C221  1  0.649200  0.372580  0.427400  1.0  -0.1736
  C  C222  1  0.851900  0.388500  0.847800  1.0  -0.1749
  C  C223  1  0.443900  0.584700  0.369900  1.0  -0.0359
  C  C224  1  0.841300  0.382200  0.005400  1.0  0.1884
  C  C225  1  0.790300  0.459300  0.749000  1.0  -0.1282
  C  C226  1  0.832100  0.414700  0.764200  1.0  0.005
  C  C227  1  0.466300  0.534000  0.366700  1.0  -0.1133
  C  C228  1  0.767300  0.477310  0.819600  1.0  0.1664
  C  C229  1  0.767600  0.489600  0.660000  1.0  0.6476
  C  C230  1  0.894600  0.341500  0.038600  1.0  -0.1287
  C  C231  1  0.901500  0.318800  0.122200  1.0  -0.0196
  C  C232  1  0.489700  0.676100  0.418100  1.0  0.6983
  C  C233  1  0.358500  0.813500  0.259000  1.0  0.6899
  C  C234  1  0.357900  0.838030  0.171900  1.0  -0.2228
  C  C235  1  0.028300  0.925510  0.381600  1.0  -0.1256
  C  C236  1  0.307100  0.880130  0.135000  1.0  0.1707
  C  C237  1  0.007100  0.120770  0.406900  1.0  -0.2052
  C  C238  1  0.192300  0.821620  0.447400  1.0  0.6818
  C  C239  1  0.325900  0.907800  0.914600  1.0  0.1345
  C  C240  1  0.064300  0.876640  0.395700  1.0  -0.0414
  C  C241  1  0.197200  0.916260  0.446600  1.0  0.1464
  C  C242  1  0.049200  0.020660  0.400200  1.0  0.1595
  C  C243  1  0.079700  0.967230  0.404300  1.0  0.1684
  C  C244  1  0.088800  0.104570  0.439200  1.0  0.1711
  C  C245  1  0.149200  0.872580  0.427400  1.0  -0.1736
  C  C246  1  0.351900  0.888500  0.847800  1.0  -0.1749
  C  C247  1  0.943900  0.084700  0.369900  1.0  -0.0359
  C  C248  1  0.341300  0.882200  0.005400  1.0  0.1884
  C  C249  1  0.290300  0.959300  0.749000  1.0  -0.1282
  C  C250  1  0.332100  0.914700  0.764200  1.0  0.005
  C  C251  1  0.966300  0.034000  0.366700  1.0  -0.1133
  C  C252  1  0.267300  0.977310  0.819600  1.0  0.1664
  C  C253  1  0.267600  0.989600  0.660000  1.0  0.6476
  C  C254  1  0.394600  0.841500  0.038600  1.0  -0.1287
  C  C255  1  0.401500  0.818800  0.122200  1.0  -0.0196
  C  C256  1  0.989700  0.176100  0.418100  1.0  0.6983
  C  C257  1  0.141500  0.313500  0.241000  1.0  0.69
  C  C258  1  0.142100  0.338030  0.328100  1.0  -0.2244
  C  C259  1  0.471700  0.425510  0.118400  1.0  -0.1265
  C  C260  1  0.192900  0.380130  0.365000  1.0  0.1698
  C  C261  1  0.492900  0.620770  0.093100  1.0  -0.2054
  C  C262  1  0.307700  0.321620  0.052600  1.0  0.6807
  C  C263  1  0.174100  0.407800  0.585400  1.0  0.1342
  C  C264  1  0.435700  0.376640  0.104300  1.0  -0.043
  C  C265  1  0.302800  0.416260  0.053400  1.0  0.1464
  C  C266  1  0.450800  0.520660  0.099800  1.0  0.1591
  C  C267  1  0.420300  0.467230  0.095700  1.0  0.1682
  C  C268  1  0.411200  0.604570  0.060800  1.0  0.1705
  C  C269  1  0.350800  0.372580  0.072600  1.0  -0.1727
  C  C270  1  0.148100  0.388500  0.652200  1.0  -0.175
  C  C271  1  0.556100  0.584700  0.130100  1.0  -0.0352
  C  C272  1  0.158700  0.382200  0.494600  1.0  0.189
  C  C273  1  0.209700  0.459300  0.751000  1.0  -0.1254
  C  C274  1  0.167900  0.414700  0.735800  1.0  0.009
  C  C275  1  0.533700  0.534000  0.133300  1.0  -0.1133
  C  C276  1  0.232700  0.477310  0.680400  1.0  0.1643
  C  C277  1  0.232400  0.489600  0.840000  1.0  0.6501
  C  C278  1  0.105400  0.341500  0.461400  1.0  -0.1293
  C  C279  1  0.098500  0.318800  0.377800  1.0  -0.0198
  C  C280  1  0.510300  0.676100  0.081900  1.0  0.698
  C  C281  1  0.641500  0.813500  0.241000  1.0  0.69
  C  C282  1  0.642100  0.838030  0.328100  1.0  -0.2244
  C  C283  1  0.971700  0.925510  0.118400  1.0  -0.1265
  C  C284  1  0.692900  0.880130  0.365000  1.0  0.1698
  C  C285  1  0.992900  0.120770  0.093100  1.0  -0.2054
  C  C286  1  0.807700  0.821620  0.052600  1.0  0.6807
  C  C287  1  0.674100  0.907800  0.585400  1.0  0.1342
  C  C288  1  0.935700  0.876640  0.104300  1.0  -0.043
  C  C289  1  0.802800  0.916260  0.053400  1.0  0.1464
  C  C290  1  0.950800  0.020660  0.099800  1.0  0.1591
  C  C291  1  0.920300  0.967230  0.095700  1.0  0.1682
  C  C292  1  0.911200  0.104570  0.060800  1.0  0.1705
  C  C293  1  0.850800  0.872580  0.072600  1.0  -0.1727
  C  C294  1  0.648100  0.888500  0.652200  1.0  -0.175
  C  C295  1  0.056100  0.084700  0.130100  1.0  -0.0352
  C  C296  1  0.658700  0.882200  0.494600  1.0  0.189
  C  C297  1  0.709700  0.959300  0.751000  1.0  -0.1254
  C  C298  1  0.667900  0.914700  0.735800  1.0  0.009
  C  C299  1  0.033700  0.034000  0.133300  1.0  -0.1133
  C  C300  1  0.732700  0.977310  0.680400  1.0  0.1643
  C  C301  1  0.732400  0.989600  0.840000  1.0  0.6501
  C  C302  1  0.605400  0.841500  0.461400  1.0  -0.1293
  C  C303  1  0.598500  0.818800  0.377800  1.0  -0.0198
  C  C304  1  0.010300  0.176100  0.081900  1.0  0.698
  N  N305  1  0.389900  0.443850  0.563500  1.0  -0.3046
  N  N306  1  0.336400  0.537930  0.564100  1.0  -0.3229
  N  N307  1  0.201100  0.597960  0.946300  1.0  -0.3384
  N  N308  1  0.215600  0.547720  0.099200  1.0  -0.3247
  N  N309  1  0.889900  0.943850  0.563500  1.0  -0.3046
  N  N310  1  0.836400  0.037930  0.564100  1.0  -0.3229
  N  N311  1  0.701100  0.097960  0.946300  1.0  -0.3384
  N  N312  1  0.715600  0.047720  0.099200  1.0  -0.3247
  N  N313  1  0.610100  0.443850  0.936500  1.0  -0.3039
  N  N314  1  0.663600  0.537930  0.935900  1.0  -0.3231
  N  N315  1  0.798900  0.597960  0.553700  1.0  -0.3404
  N  N316  1  0.784400  0.547720  0.400800  1.0  -0.3242
  N  N317  1  0.110100  0.943850  0.936500  1.0  -0.3039
  N  N318  1  0.163600  0.037930  0.935900  1.0  -0.3231
  N  N319  1  0.298900  0.097960  0.553700  1.0  -0.3404
  N  N320  1  0.284400  0.047720  0.400800  1.0  -0.3242
  N  N321  1  0.610100  0.556150  0.436500  1.0  -0.3047
  N  N322  1  0.663600  0.462070  0.435900  1.0  -0.3225
  N  N323  1  0.798900  0.402040  0.053700  1.0  -0.3401
  N  N324  1  0.784400  0.452280  0.900800  1.0  -0.325
  N  N325  1  0.110100  0.056150  0.436500  1.0  -0.3047
  N  N326  1  0.163600  0.962070  0.435900  1.0  -0.3225
  N  N327  1  0.298900  0.902040  0.053700  1.0  -0.3401
  N  N328  1  0.284400  0.952280  0.900800  1.0  -0.325
  N  N329  1  0.389900  0.556150  0.063500  1.0  -0.3056
  N  N330  1  0.336400  0.462070  0.064100  1.0  -0.3226
  N  N331  1  0.201100  0.402040  0.446300  1.0  -0.3384
  N  N332  1  0.215600  0.452280  0.599200  1.0  -0.3261
  N  N333  1  0.889900  0.056150  0.063500  1.0  -0.3056
  N  N334  1  0.836400  0.962070  0.064100  1.0  -0.3226
  N  N335  1  0.701100  0.902040  0.446300  1.0  -0.3384
  N  N336  1  0.715600  0.952280  0.599200  1.0  -0.3261
  O  O337  1  0.232500  0.679250  0.543000  1.0  -0.715
  O  O338  1  0.348500  0.716460  0.545800  1.0  -0.6936
  O  O339  1  0.292400  0.479950  0.361000  1.0  -0.6101
  O  O340  1  0.103500  0.728420  0.714400  1.0  -0.6376
  O  O341  1  0.177700  0.665660  0.694800  1.0  -0.6895
  O  O342  1  0.192800  0.517380  0.391000  1.0  -0.586
  O  O343  1  0.585300  0.314140  0.595000  1.0  -0.6904
  O  O344  1  0.454900  0.293250  0.564100  1.0  -0.4972
  O  O345  1  0.732500  0.179250  0.543000  1.0  -0.715
  O  O346  1  0.848500  0.216460  0.545800  1.0  -0.6942
  O  O347  1  0.792400  0.979950  0.361000  1.0  -0.6101
  O  O348  1  0.603500  0.228420  0.714400  1.0  -0.6376
  O  O349  1  0.677700  0.165660  0.694800  1.0  -0.6895
  O  O350  1  0.692800  0.017380  0.391000  1.0  -0.586
  O  O351  1  0.085300  0.814140  0.595000  1.0  -0.6904
  O  O352  1  0.954900  0.793250  0.564100  1.0  -0.4972
  O  O353  1  0.767500  0.679250  0.957000  1.0  -0.7148
  O  O354  1  0.651500  0.716460  0.954200  1.0  -0.6935
  O  O355  1  0.707600  0.479950  0.139000  1.0  -0.6091
  O  O356  1  0.896500  0.728420  0.785600  1.0  -0.6397
  O  O357  1  0.822300  0.665660  0.805200  1.0  -0.6867
  O  O358  1  0.807200  0.517380  0.109000  1.0  -0.585
  O  O359  1  0.414700  0.314140  0.905000  1.0  -0.6901
  O  O360  1  0.545100  0.293250  0.935900  1.0  -0.4969
  O  O361  1  0.267500  0.179250  0.957000  1.0  -0.7148
  O  O362  1  0.151500  0.216460  0.954200  1.0  -0.6943
  O  O363  1  0.207600  0.979950  0.139000  1.0  -0.6091
  O  O364  1  0.396500  0.228420  0.785600  1.0  -0.6397
  O  O365  1  0.322300  0.165660  0.805200  1.0  -0.6867
  O  O366  1  0.307200  0.017380  0.109000  1.0  -0.585
  O  O367  1  0.914700  0.814140  0.905000  1.0  -0.6901
  O  O368  1  0.045100  0.793250  0.935900  1.0  -0.4969
  O  O369  1  0.767500  0.320750  0.457000  1.0  -0.7152
  O  O370  1  0.651500  0.283540  0.454200  1.0  -0.6952
  O  O371  1  0.707600  0.520050  0.639000  1.0  -0.6094
  O  O372  1  0.896500  0.271580  0.285600  1.0  -0.6381
  O  O373  1  0.822300  0.334340  0.305200  1.0  -0.6861
  O  O374  1  0.807200  0.482620  0.609000  1.0  -0.5858
  O  O375  1  0.414700  0.685860  0.405000  1.0  -0.6903
  O  O376  1  0.545100  0.706750  0.435900  1.0  -0.496
  O  O377  1  0.267500  0.820750  0.457000  1.0  -0.7152
  O  O378  1  0.151500  0.783540  0.454200  1.0  -0.6949
  O  O379  1  0.207600  0.020050  0.639000  1.0  -0.6094
  O  O380  1  0.396500  0.771580  0.285600  1.0  -0.6381
  O  O381  1  0.322300  0.834340  0.305200  1.0  -0.6861
  O  O382  1  0.307200  0.982620  0.609000  1.0  -0.5858
  O  O383  1  0.914700  0.185860  0.405000  1.0  -0.6903
  O  O384  1  0.045100  0.206750  0.435900  1.0  -0.496
  O  O385  1  0.232500  0.320750  0.043000  1.0  -0.7142
  O  O386  1  0.348500  0.283540  0.045800  1.0  -0.696
  O  O387  1  0.292400  0.520050  0.861000  1.0  -0.6099
  O  O388  1  0.103500  0.271580  0.214400  1.0  -0.639
  O  O389  1  0.177700  0.334340  0.194800  1.0  -0.6895
  O  O390  1  0.192800  0.482620  0.891000  1.0  -0.5857
  O  O391  1  0.585300  0.685860  0.095000  1.0  -0.6905
  O  O392  1  0.454900  0.706750  0.064100  1.0  -0.4963
  O  O393  1  0.732500  0.820750  0.043000  1.0  -0.7142
  O  O394  1  0.848500  0.783540  0.045800  1.0  -0.6956
  O  O395  1  0.792400  0.020050  0.861000  1.0  -0.6099
  O  O396  1  0.603500  0.771580  0.214400  1.0  -0.639
  O  O397  1  0.677700  0.834340  0.194800  1.0  -0.6895
  O  O398  1  0.692800  0.982620  0.891000  1.0  -0.5857
  O  O399  1  0.085300  0.185860  0.095000  1.0  -0.6905
  O  O400  1  0.954900  0.206750  0.064100  1.0  -0.4963
