# generated using pymatgen
data_KDyH2C9SO9
_symmetry_space_group_name_H-M   'P 1'
_cell_length_a   18.28980000
_cell_length_b   9.31020000
_cell_length_c   22.20270000
_cell_angle_alpha   90.00000000
_cell_angle_beta   112.55600000
_cell_angle_gamma   90.00000000
_symmetry_Int_Tables_number   1
_chemical_formula_structural   KDyH2C9SO9
_chemical_formula_sum   'K8 Dy8 H16 C72 S8 O72'
_cell_volume   3491.50797474
_cell_formula_units_Z   8
loop_
 _symmetry_equiv_pos_site_id
 _symmetry_equiv_pos_as_xyz
  1  'x, y, z'
loop_
 _atom_site_type_symbol
 _atom_site_label
 _atom_site_symmetry_multiplicity
 _atom_site_fract_x
 _atom_site_fract_y
 _atom_site_fract_z
 _atom_site_occupancy
 _atom_site_charge
  K  K1  1  0.231540  0.478800  0.013960  1.0  0.9546
  K  K2  1  0.731540  0.978800  0.013960  1.0  0.9546
  K  K3  1  0.768460  0.478800  0.486040  1.0  0.9553
  K  K4  1  0.268460  0.978800  0.486040  1.0  0.9553
  K  K5  1  0.768460  0.521200  0.986040  1.0  0.9549
  K  K6  1  0.268460  0.021200  0.986040  1.0  0.9549
  K  K7  1  0.231540  0.521200  0.513960  1.0  0.9537
  K  K8  1  0.731540  0.021200  0.513960  1.0  0.9537
  Dy  Dy9  1  0.235010  0.801900  0.141410  1.0  2.2545
  Dy  Dy10  1  0.735010  0.301900  0.141410  1.0  2.2545
  Dy  Dy11  1  0.764990  0.801900  0.358590  1.0  2.2541
  Dy  Dy12  1  0.264990  0.301900  0.358590  1.0  2.2541
  Dy  Dy13  1  0.764990  0.198100  0.858600  1.0  2.2539
  Dy  Dy14  1  0.264990  0.698100  0.858590  1.0  2.2543
  Dy  Dy15  1  0.235010  0.198100  0.641400  1.0  2.2539
  Dy  Dy16  1  0.735010  0.698100  0.641400  1.0  2.2539
  H  H17  1  0.043700  0.153300  0.011400  1.0  0.1105
  H  H18  1  0.000700  0.267900  0.199400  1.0  0.0986
  H  H19  1  0.543700  0.653300  0.011400  1.0  0.1105
  H  H20  1  0.500700  0.767900  0.199400  1.0  0.0986
  H  H21  1  0.956300  0.153300  0.488600  1.0  0.1105
  H  H22  1  0.999300  0.267900  0.300600  1.0  0.0983
  H  H23  1  0.456300  0.653300  0.488600  1.0  0.1105
  H  H24  1  0.499300  0.767900  0.300600  1.0  0.0983
  H  H25  1  0.956300  0.846700  0.988600  1.0  0.1108
  H  H26  1  0.999300  0.732100  0.800600  1.0  0.0982
  H  H27  1  0.456300  0.346700  0.988600  1.0  0.1108
  H  H28  1  0.499300  0.232100  0.800600  1.0  0.0982
  H  H29  1  0.043700  0.846700  0.511400  1.0  0.1109
  H  H30  1  0.000700  0.732100  0.699400  1.0  0.0989
  H  H31  1  0.543700  0.346700  0.511400  1.0  0.1109
  H  H32  1  0.500700  0.232100  0.699400  1.0  0.0989
  C  C33  1  0.098700  0.191700  0.108200  1.0  -0.2466
  C  C34  1  0.889700  0.181200  0.980500  1.0  0.6824
  C  C35  1  0.957600  0.189900  0.046300  1.0  -0.132
  C  C36  1  0.086500  0.226000  0.165600  1.0  -0.0858
  C  C37  1  0.944400  0.223600  0.102500  1.0  -0.0173
  C  C38  1  0.034600  0.175600  0.050200  1.0  -0.0077
  C  C39  1  0.865300  0.247100  0.106500  1.0  0.6817
  C  C40  1  0.009700  0.242400  0.161000  1.0  -0.1065
  C  C41  1  0.150600  0.247600  0.231700  1.0  0.7002
  C  C42  1  0.598700  0.691700  0.108200  1.0  -0.2466
  C  C43  1  0.389700  0.681200  0.980500  1.0  0.6824
  C  C44  1  0.457600  0.689900  0.046300  1.0  -0.132
  C  C45  1  0.586500  0.726000  0.165600  1.0  -0.0858
  C  C46  1  0.444400  0.723600  0.102500  1.0  -0.0173
  C  C47  1  0.534600  0.675600  0.050200  1.0  -0.0077
  C  C48  1  0.365300  0.747100  0.106500  1.0  0.6817
  C  C49  1  0.509700  0.742400  0.161000  1.0  -0.1065
  C  C50  1  0.650600  0.747600  0.231700  1.0  0.7002
  C  C51  1  0.901300  0.191700  0.391800  1.0  -0.2471
  C  C52  1  0.110300  0.181200  0.519500  1.0  0.6814
  C  C53  1  0.042400  0.189900  0.453700  1.0  -0.1323
  C  C54  1  0.913500  0.226000  0.334400  1.0  -0.0866
  C  C55  1  0.055600  0.223600  0.397500  1.0  -0.0174
  C  C56  1  0.965400  0.175600  0.449800  1.0  -0.0104
  C  C57  1  0.134700  0.247100  0.393500  1.0  0.6802
  C  C58  1  0.990300  0.242400  0.339000  1.0  -0.1047
  C  C59  1  0.849400  0.247600  0.268300  1.0  0.7009
  C  C60  1  0.401300  0.691700  0.391800  1.0  -0.2471
  C  C61  1  0.610300  0.681200  0.519500  1.0  0.6814
  C  C62  1  0.542400  0.689900  0.453700  1.0  -0.1323
  C  C63  1  0.413500  0.726000  0.334400  1.0  -0.0866
  C  C64  1  0.555600  0.723600  0.397500  1.0  -0.0174
  C  C65  1  0.465400  0.675600  0.449800  1.0  -0.0104
  C  C66  1  0.634700  0.747100  0.393500  1.0  0.6802
  C  C67  1  0.490300  0.742400  0.339000  1.0  -0.1047
  C  C68  1  0.349400  0.747600  0.268300  1.0  0.7009
  C  C69  1  0.901300  0.808300  0.891800  1.0  -0.2478
  C  C70  1  0.110300  0.818800  0.019500  1.0  0.6811
  C  C71  1  0.042400  0.810100  0.953700  1.0  -0.1325
  C  C72  1  0.913500  0.774000  0.834400  1.0  -0.0863
  C  C73  1  0.055600  0.776400  0.897500  1.0  -0.0172
  C  C74  1  0.965400  0.824400  0.949800  1.0  -0.0103
  C  C75  1  0.134700  0.752900  0.893500  1.0  0.6798
  C  C76  1  0.990300  0.757600  0.839000  1.0  -0.1047
  C  C77  1  0.849400  0.752400  0.768300  1.0  0.7009
  C  C78  1  0.401300  0.308300  0.891800  1.0  -0.2478
  C  C79  1  0.610300  0.318800  0.019500  1.0  0.6811
  C  C80  1  0.542400  0.310100  0.953700  1.0  -0.1325
  C  C81  1  0.413500  0.274000  0.834400  1.0  -0.0863
  C  C82  1  0.555600  0.276400  0.897500  1.0  -0.0172
  C  C83  1  0.465400  0.324400  0.949800  1.0  -0.0103
  C  C84  1  0.634700  0.252900  0.893500  1.0  0.6798
  C  C85  1  0.490300  0.257600  0.839000  1.0  -0.1047
  C  C86  1  0.349400  0.252400  0.768300  1.0  0.7009
  C  C87  1  0.098700  0.808300  0.608200  1.0  -0.2467
  C  C88  1  0.889700  0.818800  0.480500  1.0  0.6819
  C  C89  1  0.957600  0.810100  0.546300  1.0  -0.133
  C  C90  1  0.086500  0.774000  0.665600  1.0  -0.0851
  C  C91  1  0.944400  0.776400  0.602500  1.0  -0.0173
  C  C92  1  0.034600  0.824400  0.550200  1.0  -0.0081
  C  C93  1  0.865300  0.752900  0.606500  1.0  0.6814
  C  C94  1  0.009700  0.757600  0.661000  1.0  -0.1062
  C  C95  1  0.150600  0.752400  0.731700  1.0  0.7003
  C  C96  1  0.598700  0.308300  0.608200  1.0  -0.2467
  C  C97  1  0.389700  0.318800  0.480500  1.0  0.6819
  C  C98  1  0.457600  0.310100  0.546300  1.0  -0.133
  C  C99  1  0.586500  0.274000  0.665600  1.0  -0.0851
  C  C100  1  0.444400  0.276400  0.602500  1.0  -0.0173
  C  C101  1  0.534600  0.324400  0.550200  1.0  -0.0081
  C  C102  1  0.365300  0.252900  0.606500  1.0  0.6814
  C  C103  1  0.509700  0.257600  0.661000  1.0  -0.1062
  C  C104  1  0.650600  0.252400  0.731700  1.0  0.7003
  S  S105  1  0.195930  0.186170  0.107970  1.0  1.3725
  S  S106  1  0.695930  0.686170  0.107970  1.0  1.3725
  S  S107  1  0.804070  0.186170  0.392030  1.0  1.3735
  S  S108  1  0.304070  0.686170  0.392030  1.0  1.3735
  S  S109  1  0.804070  0.813830  0.892030  1.0  1.3737
  S  S110  1  0.304070  0.313830  0.892030  1.0  1.3737
  S  S111  1  0.195930  0.813830  0.607970  1.0  1.3731
  S  S112  1  0.695930  0.313830  0.607970  1.0  1.3731
  O  O113  1  0.820700  0.205300  0.978100  1.0  -0.7262
  O  O114  1  0.186500  0.193600  0.040500  1.0  -0.7905
  O  O115  1  0.199200  0.148500  0.258500  1.0  -0.6129
  O  O116  1  0.840900  0.373900  0.104700  1.0  -0.683
  O  O117  1  0.902500  0.151700  0.930700  1.0  -0.6627
  O  O118  1  0.151500  0.363700  0.260700  1.0  -0.628
  O  O119  1  0.232700  0.051500  0.138300  1.0  -0.7439
  O  O120  1  0.828200  0.143600  0.117600  1.0  -0.6828
  O  O121  1  0.236800  0.308100  0.146500  1.0  -0.7238
  O  O122  1  0.320700  0.705300  0.978100  1.0  -0.7266
  O  O123  1  0.686500  0.693600  0.040500  1.0  -0.7905
  O  O124  1  0.699200  0.648500  0.258500  1.0  -0.6129
  O  O125  1  0.340900  0.873900  0.104700  1.0  -0.6832
  O  O126  1  0.402500  0.651700  0.930700  1.0  -0.6627
  O  O127  1  0.651500  0.863700  0.260700  1.0  -0.6282
  O  O128  1  0.732700  0.551500  0.138300  1.0  -0.7439
  O  O129  1  0.328200  0.643600  0.117600  1.0  -0.6828
  O  O130  1  0.736800  0.808100  0.146500  1.0  -0.7238
  O  O131  1  0.179300  0.205300  0.521900  1.0  -0.7258
  O  O132  1  0.813500  0.193600  0.459500  1.0  -0.7902
  O  O133  1  0.800800  0.148500  0.241500  1.0  -0.6153
  O  O134  1  0.159100  0.373900  0.395300  1.0  -0.6826
  O  O135  1  0.097500  0.151700  0.569300  1.0  -0.6655
  O  O136  1  0.848500  0.363700  0.239300  1.0  -0.6281
  O  O137  1  0.767300  0.051500  0.361700  1.0  -0.7439
  O  O138  1  0.171800  0.143600  0.382400  1.0  -0.6865
  O  O139  1  0.763200  0.308100  0.353500  1.0  -0.7228
  O  O140  1  0.679300  0.705300  0.521900  1.0  -0.7258
  O  O141  1  0.313500  0.693600  0.459500  1.0  -0.7902
  O  O142  1  0.300800  0.648500  0.241500  1.0  -0.6153
  O  O143  1  0.659100  0.873900  0.395300  1.0  -0.6825
  O  O144  1  0.597500  0.651700  0.569300  1.0  -0.6655
  O  O145  1  0.348500  0.863700  0.239300  1.0  -0.6279
  O  O146  1  0.267300  0.551500  0.361700  1.0  -0.7439
  O  O147  1  0.671800  0.643600  0.382400  1.0  -0.6865
  O  O148  1  0.263200  0.808100  0.353500  1.0  -0.7228
  O  O149  1  0.179300  0.794700  0.021900  1.0  -0.7268
  O  O150  1  0.813500  0.806400  0.959500  1.0  -0.7892
  O  O151  1  0.800800  0.851500  0.741500  1.0  -0.6141
  O  O152  1  0.159100  0.626100  0.895300  1.0  -0.6832
  O  O153  1  0.097500  0.848300  0.069300  1.0  -0.6664
  O  O154  1  0.848500  0.636300  0.739300  1.0  -0.6282
  O  O155  1  0.767300  0.948500  0.861700  1.0  -0.7439
  O  O156  1  0.171800  0.856400  0.882400  1.0  -0.6849
  O  O157  1  0.763200  0.691900  0.853500  1.0  -0.721
  O  O158  1  0.679300  0.294700  0.021900  1.0  -0.7268
  O  O159  1  0.313500  0.306400  0.959500  1.0  -0.7892
  O  O160  1  0.300800  0.351500  0.741500  1.0  -0.6141
  O  O161  1  0.659100  0.126100  0.895300  1.0  -0.6833
  O  O162  1  0.597500  0.348300  0.069300  1.0  -0.6664
  O  O163  1  0.348500  0.136300  0.739300  1.0  -0.6282
  O  O164  1  0.267300  0.448500  0.861700  1.0  -0.7439
  O  O165  1  0.671800  0.356400  0.882400  1.0  -0.6849
  O  O166  1  0.263200  0.191900  0.853500  1.0  -0.721
  O  O167  1  0.820700  0.794700  0.478100  1.0  -0.7266
  O  O168  1  0.186500  0.806400  0.540500  1.0  -0.7898
  O  O169  1  0.199200  0.851500  0.758500  1.0  -0.611
  O  O170  1  0.840900  0.626100  0.604700  1.0  -0.6859
  O  O171  1  0.902500  0.848300  0.430700  1.0  -0.6626
  O  O172  1  0.151500  0.636300  0.760700  1.0  -0.6283
  O  O173  1  0.232700  0.948500  0.638300  1.0  -0.7437
  O  O174  1  0.828200  0.856400  0.617600  1.0  -0.6834
  O  O175  1  0.236800  0.691900  0.646500  1.0  -0.7237
  O  O176  1  0.320700  0.294700  0.478100  1.0  -0.7266
  O  O177  1  0.686500  0.306400  0.540500  1.0  -0.7898
  O  O178  1  0.699200  0.351500  0.758500  1.0  -0.611
  O  O179  1  0.340900  0.126100  0.604700  1.0  -0.6854
  O  O180  1  0.402500  0.348300  0.430700  1.0  -0.6626
  O  O181  1  0.651500  0.136300  0.760700  1.0  -0.628
  O  O182  1  0.732700  0.448500  0.638300  1.0  -0.7437
  O  O183  1  0.328200  0.356400  0.617600  1.0  -0.6834
  O  O184  1  0.736800  0.191900  0.646500  1.0  -0.7237
