# generated using pymatgen
data_CoH2(CO2)2
_symmetry_space_group_name_H-M   'P 1'
_cell_length_a   10.01170000
_cell_length_b   11.34570000
_cell_length_c   14.82000000
_cell_angle_alpha   91.37200000
_cell_angle_beta   90.00000000
_cell_angle_gamma   90.00000000
_symmetry_Int_Tables_number   1
_chemical_formula_structural   CoH2(CO2)2
_chemical_formula_sum   'Co12 H24 C24 O48'
_cell_volume   1682.91740273
_cell_formula_units_Z   12
loop_
 _symmetry_equiv_pos_site_id
 _symmetry_equiv_pos_as_xyz
  1  'x, y, z'
loop_
 _atom_site_type_symbol
 _atom_site_label
 _atom_site_symmetry_multiplicity
 _atom_site_fract_x
 _atom_site_fract_y
 _atom_site_fract_z
 _atom_site_occupancy
 _atom_site_charge
  Co  Co1  1  0.572370  0.754910  0.634080  1.0  1.1146
  Co  Co2  1  0.377370  0.739450  0.804620  1.0  1.1131
  Co  Co3  1  0.072370  0.745090  0.865920  1.0  1.1145
  Co  Co4  1  0.877370  0.760550  0.695380  1.0  1.1137
  Co  Co5  1  0.427630  0.245090  0.365920  1.0  1.1146
  Co  Co6  1  0.622630  0.260550  0.195380  1.0  1.1139
  Co  Co7  1  0.927630  0.254910  0.134080  1.0  1.1148
  Co  Co8  1  0.122630  0.239450  0.304620  1.0  1.1132
  Co  Co9  1  0.500000  0.500000  0.500000  1.0  1.1217
  Co  Co10  1  0.000000  0.000000  0.000000  1.0  1.1217
  Co  Co11  1  0.500000  0.000000  0.500000  1.0  1.1331
  Co  Co12  1  0.000000  0.500000  0.000000  1.0  1.1331
  H  H13  1  0.350900  0.696500  0.426900  1.0  -0.0059
  H  H14  1  0.447700  0.477200  0.756600  1.0  0.0033
  H  H15  1  0.871400  0.559000  0.551100  1.0  -0.0034
  H  H16  1  0.279200  0.964000  0.712500  1.0  -0.0031
  H  H17  1  0.783000  0.002800  0.531700  1.0  -0.0021
  H  H18  1  0.725200  0.846600  0.870100  1.0  0.0028
  H  H19  1  0.850900  0.803500  0.073100  1.0  -0.0059
  H  H20  1  0.947700  0.022800  0.743400  1.0  0.0025
  H  H21  1  0.371400  0.941000  0.948900  1.0  -0.0031
  H  H22  1  0.779200  0.536000  0.787500  1.0  -0.003
  H  H23  1  0.283000  0.497200  0.968300  1.0  -0.0029
  H  H24  1  0.225200  0.653400  0.629900  1.0  0.0032
  H  H25  1  0.649100  0.303500  0.573100  1.0  -0.0059
  H  H26  1  0.552300  0.522800  0.243400  1.0  0.0022
  H  H27  1  0.128600  0.441000  0.448900  1.0  -0.0029
  H  H28  1  0.720800  0.036000  0.287500  1.0  -0.0027
  H  H29  1  0.217000  0.997200  0.468300  1.0  -0.0021
  H  H30  1  0.274800  0.153400  0.129900  1.0  0.0041
  H  H31  1  0.149100  0.196500  0.926900  1.0  -0.0063
  H  H32  1  0.052300  0.977200  0.256600  1.0  0.0032
  H  H33  1  0.628600  0.059000  0.051100  1.0  -0.0032
  H  H34  1  0.220800  0.464000  0.212500  1.0  -0.0034
  H  H35  1  0.717000  0.502800  0.031700  1.0  -0.0018
  H  H36  1  0.774800  0.346600  0.370100  1.0  0.0034
  C  C37  1  0.405000  0.741400  0.465500  1.0  0.7154
  C  C38  1  0.472100  0.517900  0.705400  1.0  0.7085
  C  C39  1  0.780900  0.576300  0.556100  1.0  0.7032
  C  C40  1  0.348800  0.941700  0.674200  1.0  0.7077
  C  C41  1  0.766500  0.937600  0.567000  1.0  0.718
  C  C42  1  0.657400  0.821200  0.831400  1.0  0.6866
  C  C43  1  0.905000  0.758600  0.034500  1.0  0.7161
  C  C44  1  0.972100  0.982100  0.794600  1.0  0.7102
  C  C45  1  0.280900  0.923700  0.943900  1.0  0.7024
  C  C46  1  0.848800  0.558300  0.825800  1.0  0.7091
  C  C47  1  0.266500  0.562400  0.933000  1.0  0.7184
  C  C48  1  0.157400  0.678800  0.668600  1.0  0.6869
  C  C49  1  0.595000  0.258600  0.534500  1.0  0.7162
  C  C50  1  0.527900  0.482100  0.294600  1.0  0.71
  C  C51  1  0.219100  0.423700  0.443900  1.0  0.7039
  C  C52  1  0.651200  0.058300  0.325800  1.0  0.7092
  C  C53  1  0.233500  0.062400  0.433000  1.0  0.7193
  C  C54  1  0.342600  0.178800  0.168600  1.0  0.687
  C  C55  1  0.095000  0.241400  0.965500  1.0  0.7148
  C  C56  1  0.027900  0.017900  0.205400  1.0  0.7092
  C  C57  1  0.719100  0.076300  0.056100  1.0  0.7047
  C  C58  1  0.151200  0.441700  0.174200  1.0  0.7083
  C  C59  1  0.733500  0.437600  0.067000  1.0  0.719
  C  C60  1  0.842600  0.321200  0.331400  1.0  0.686
  O  O61  1  0.473500  0.685700  0.522900  1.0  -0.6737
  O  O62  1  0.403300  0.848200  0.456100  1.0  -0.6015
  O  O63  1  0.490100  0.458700  0.636200  1.0  -0.5807
  O  O64  1  0.483300  0.628400  0.714600  1.0  -0.6915
  O  O65  1  0.705100  0.518700  0.506700  1.0  -0.5806
  O  O66  1  0.749000  0.656800  0.613200  1.0  -0.6758
  O  O67  1  0.372300  0.006600  0.610800  1.0  -0.5944
  O  O68  1  0.410000  0.847600  0.692400  1.0  -0.6802
  O  O69  1  0.647500  0.901600  0.568800  1.0  -0.6656
  O  O70  1  0.863800  0.896400  0.606600  1.0  -0.5908
  O  O71  1  0.688400  0.805100  0.748800  1.0  -0.6733
  O  O72  1  0.546000  0.806400  0.865300  1.0  -0.5798
  O  O73  1  0.973500  0.814300  0.977100  1.0  -0.6735
  O  O74  1  0.903300  0.651800  0.043900  1.0  -0.6032
  O  O75  1  0.990100  0.041300  0.863800  1.0  -0.5809
  O  O76  1  0.983300  0.871600  0.785400  1.0  -0.6915
  O  O77  1  0.205100  0.981300  0.993300  1.0  -0.5808
  O  O78  1  0.249000  0.843200  0.886800  1.0  -0.6755
  O  O79  1  0.872300  0.493400  0.889200  1.0  -0.5947
  O  O80  1  0.910000  0.652400  0.807600  1.0  -0.6806
  O  O81  1  0.147500  0.598400  0.931200  1.0  -0.6656
  O  O82  1  0.363800  0.603600  0.893400  1.0  -0.5908
  O  O83  1  0.188400  0.694900  0.751200  1.0  -0.6731
  O  O84  1  0.046000  0.693600  0.634700  1.0  -0.5798
  O  O85  1  0.526500  0.314300  0.477100  1.0  -0.6733
  O  O86  1  0.596700  0.151800  0.543900  1.0  -0.603
  O  O87  1  0.509900  0.541300  0.363800  1.0  -0.5821
  O  O88  1  0.516700  0.371600  0.285400  1.0  -0.6916
  O  O89  1  0.294900  0.481300  0.493300  1.0  -0.5809
  O  O90  1  0.251000  0.343200  0.386800  1.0  -0.6762
  O  O91  1  0.627700  0.993400  0.389200  1.0  -0.5949
  O  O92  1  0.590000  0.152400  0.307600  1.0  -0.6814
  O  O93  1  0.352500  0.098400  0.431200  1.0  -0.6651
  O  O94  1  0.136200  0.103600  0.393400  1.0  -0.5895
  O  O95  1  0.311600  0.194900  0.251200  1.0  -0.6729
  O  O96  1  0.454000  0.193600  0.134700  1.0  -0.5808
  O  O97  1  0.026500  0.185700  0.022900  1.0  -0.6736
  O  O98  1  0.096700  0.348200  0.956100  1.0  -0.6019
  O  O99  1  0.009900  0.958700  0.136200  1.0  -0.582
  O  O100  1  0.016700  0.128400  0.214600  1.0  -0.6918
  O  O101  1  0.794900  0.018700  0.006700  1.0  -0.5814
  O  O102  1  0.751000  0.156800  0.113200  1.0  -0.6764
  O  O103  1  0.127700  0.506600  0.110800  1.0  -0.5942
  O  O104  1  0.090000  0.347600  0.192400  1.0  -0.6804
  O  O105  1  0.852500  0.401600  0.068800  1.0  -0.6651
  O  O106  1  0.636200  0.396400  0.106600  1.0  -0.5898
  O  O107  1  0.811600  0.305100  0.248800  1.0  -0.6731
  O  O108  1  0.954000  0.306400  0.365300  1.0  -0.58
