# generated using pymatgen
data_CoH2(CO2)2
_symmetry_space_group_name_H-M   'P 1'
_cell_length_a   9.92920000
_cell_length_b   11.38340000
_cell_length_c   14.43240000
_cell_angle_alpha   91.25000000
_cell_angle_beta   90.00000000
_cell_angle_gamma   90.00000000
_symmetry_Int_Tables_number   1
_chemical_formula_structural   CoH2(CO2)2
_chemical_formula_sum   'Co12 H24 C24 O48'
_cell_volume   1630.87790786
_cell_formula_units_Z   12
loop_
 _symmetry_equiv_pos_site_id
 _symmetry_equiv_pos_as_xyz
  1  'x, y, z'
loop_
 _atom_site_type_symbol
 _atom_site_label
 _atom_site_symmetry_multiplicity
 _atom_site_fract_x
 _atom_site_fract_y
 _atom_site_fract_z
 _atom_site_occupancy
 _atom_site_charge
  Co  Co1  1  0.920790  0.754770  0.633390  1.0  1.1238
  Co  Co2  1  0.612360  0.760690  0.689720  1.0  1.1074
  Co  Co3  1  0.420790  0.745230  0.866610  1.0  1.1235
  Co  Co4  1  0.112360  0.739310  0.810280  1.0  1.1074
  Co  Co5  1  0.079210  0.245230  0.366610  1.0  1.1233
  Co  Co6  1  0.387640  0.239310  0.310280  1.0  1.1069
  Co  Co7  1  0.579210  0.254770  0.133390  1.0  1.1234
  Co  Co8  1  0.887640  0.260690  0.189720  1.0  1.1069
  Co  Co9  1  0.000000  0.500000  0.500000  1.0  1.1177
  Co  Co10  1  0.500000  0.000000  0.000000  1.0  1.1177
  Co  Co11  1  0.000000  0.000000  0.500000  1.0  1.1482
  Co  Co12  1  0.500000  0.500000  0.000000  1.0  1.1482
  H  H13  1  0.618400  0.561400  0.537500  1.0  0.0189
  H  H14  1  0.212100  0.966700  0.725700  1.0  0.0171
  H  H15  1  0.755600  0.841900  0.874500  1.0  0.0188
  H  H16  1  0.961000  0.524300  0.232600  1.0  0.031
  H  H17  1  0.713500  0.005000  0.520600  1.0  0.0159
  H  H18  1  0.156700  0.696000  0.426700  1.0  0.0036
  H  H19  1  0.118400  0.938600  0.962500  1.0  0.0192
  H  H20  1  0.712100  0.533300  0.774300  1.0  0.0173
  H  H21  1  0.255600  0.658100  0.625500  1.0  0.0193
  H  H22  1  0.461000  0.975700  0.267400  1.0  0.0313
  H  H23  1  0.213500  0.495000  0.979400  1.0  0.0172
  H  H24  1  0.656700  0.804000  0.073300  1.0  0.0043
  H  H25  1  0.381600  0.438600  0.462500  1.0  0.0201
  H  H26  1  0.787900  0.033300  0.274300  1.0  0.0169
  H  H27  1  0.244400  0.158100  0.125500  1.0  0.0187
  H  H28  1  0.039000  0.475700  0.767400  1.0  0.0314
  H  H29  1  0.286500  0.995000  0.479400  1.0  0.0181
  H  H30  1  0.843300  0.304000  0.573300  1.0  0.0039
  H  H31  1  0.881600  0.061400  0.037500  1.0  0.0206
  H  H32  1  0.287900  0.466700  0.225700  1.0  0.0171
  H  H33  1  0.744400  0.341900  0.374500  1.0  0.0181
  H  H34  1  0.539000  0.024300  0.732600  1.0  0.0308
  H  H35  1  0.786500  0.505000  0.020600  1.0  0.017
  H  H36  1  0.343300  0.196000  0.926700  1.0  0.0033
  C  C37  1  0.713150  0.577870  0.546590  1.0  0.6769
  C  C38  1  0.141270  0.945190  0.681990  1.0  0.6713
  C  C39  1  0.828320  0.817310  0.834390  1.0  0.6771
  C  C40  1  0.984650  0.482630  0.288820  1.0  0.6624
  C  C41  1  0.727000  0.937820  0.559710  1.0  0.6841
  C  C42  1  0.100270  0.741070  0.465980  1.0  0.7014
  C  C43  1  0.213150  0.922130  0.953410  1.0  0.6768
  C  C44  1  0.641270  0.554810  0.818010  1.0  0.6723
  C  C45  1  0.328320  0.682690  0.665610  1.0  0.6774
  C  C46  1  0.484650  0.017370  0.211180  1.0  0.6626
  C  C47  1  0.227000  0.562180  0.940290  1.0  0.685
  C  C48  1  0.600270  0.758930  0.034020  1.0  0.7014
  C  C49  1  0.286850  0.422130  0.453410  1.0  0.6758
  C  C50  1  0.858730  0.054810  0.318010  1.0  0.6721
  C  C51  1  0.171680  0.182690  0.165610  1.0  0.6779
  C  C52  1  0.015350  0.517370  0.711180  1.0  0.6625
  C  C53  1  0.273000  0.062180  0.440290  1.0  0.6844
  C  C54  1  0.899730  0.258930  0.534020  1.0  0.7006
  C  C55  1  0.786850  0.077870  0.046590  1.0  0.6757
  C  C56  1  0.358730  0.445190  0.181990  1.0  0.6703
  C  C57  1  0.671680  0.317310  0.334390  1.0  0.678
  C  C58  1  0.515350  0.982630  0.788820  1.0  0.6621
  C  C59  1  0.773000  0.437820  0.059710  1.0  0.6833
  C  C60  1  0.399730  0.241070  0.965980  1.0  0.7008
  O  O61  1  0.743610  0.657260  0.607450  1.0  -0.6765
  O  O62  1  0.793610  0.521410  0.497670  1.0  -0.5785
  O  O63  1  0.081010  0.848150  0.696520  1.0  -0.6735
  O  O64  1  0.120410  0.011030  0.616650  1.0  -0.5954
  O  O65  1  0.939860  0.802930  0.871310  1.0  -0.5796
  O  O66  1  0.801460  0.804160  0.748080  1.0  -0.6711
  O  O67  1  0.993630  0.370980  0.281830  1.0  -0.6719
  O  O68  1  0.001740  0.542710  0.359960  1.0  -0.5799
  O  O69  1  0.626750  0.895060  0.597900  1.0  -0.5782
  O  O70  1  0.848350  0.901350  0.565700  1.0  -0.656
  O  O71  1  0.103520  0.849090  0.458430  1.0  -0.6003
  O  O72  1  0.025640  0.684780  0.522690  1.0  -0.6842
  O  O73  1  0.243610  0.842740  0.892550  1.0  -0.6757
  O  O74  1  0.293610  0.978590  0.002330  1.0  -0.5775
  O  O75  1  0.581010  0.651850  0.803480  1.0  -0.6739
  O  O76  1  0.620410  0.488970  0.883350  1.0  -0.596
  O  O77  1  0.439860  0.697070  0.628690  1.0  -0.5802
  O  O78  1  0.301460  0.695840  0.751920  1.0  -0.6691
  O  O79  1  0.493630  0.129020  0.218170  1.0  -0.6712
  O  O80  1  0.501740  0.957290  0.140040  1.0  -0.5798
  O  O81  1  0.126750  0.604940  0.902100  1.0  -0.5788
  O  O82  1  0.348350  0.598650  0.934300  1.0  -0.6558
  O  O83  1  0.603520  0.650910  0.041570  1.0  -0.6011
  O  O84  1  0.525640  0.815220  0.977310  1.0  -0.6843
  O  O85  1  0.256390  0.342740  0.392550  1.0  -0.6758
  O  O86  1  0.206390  0.478590  0.502330  1.0  -0.5776
  O  O87  1  0.918990  0.151850  0.303480  1.0  -0.6734
  O  O88  1  0.879590  0.988970  0.383350  1.0  -0.5961
  O  O89  1  0.060140  0.197070  0.128690  1.0  -0.5805
  O  O90  1  0.198540  0.195840  0.251920  1.0  -0.6689
  O  O91  1  0.006370  0.629020  0.718170  1.0  -0.6714
  O  O92  1  0.998260  0.457290  0.640040  1.0  -0.5796
  O  O93  1  0.373250  0.104940  0.402100  1.0  -0.5786
  O  O94  1  0.151650  0.098650  0.434300  1.0  -0.6564
  O  O95  1  0.896480  0.150910  0.541570  1.0  -0.6013
  O  O96  1  0.974360  0.315220  0.477310  1.0  -0.6844
  O  O97  1  0.756390  0.157260  0.107450  1.0  -0.6751
  O  O98  1  0.706390  0.021410  0.997670  1.0  -0.5783
  O  O99  1  0.418990  0.348150  0.196520  1.0  -0.6734
  O  O100  1  0.379590  0.511030  0.116650  1.0  -0.5963
  O  O101  1  0.560140  0.302930  0.371310  1.0  -0.5801
  O  O102  1  0.698540  0.304160  0.248080  1.0  -0.671
  O  O103  1  0.506370  0.870980  0.781830  1.0  -0.6719
  O  O104  1  0.498260  0.042710  0.859960  1.0  -0.5796
  O  O105  1  0.873250  0.395060  0.097900  1.0  -0.5779
  O  O106  1  0.651650  0.401350  0.065700  1.0  -0.6564
  O  O107  1  0.396480  0.349090  0.958430  1.0  -0.6001
  O  O108  1  0.474360  0.184780  0.022690  1.0  -0.6838
