# generated using pymatgen
data_CoH2(CO2)2
_symmetry_space_group_name_H-M   'P 1'
_cell_length_a   11.37290000
_cell_length_b   9.94630000
_cell_length_c   14.51180000
_cell_angle_alpha   90.00000000
_cell_angle_beta   91.27830000
_cell_angle_gamma   90.00000000
_symmetry_Int_Tables_number   1
_chemical_formula_structural   CoH2(CO2)2
_chemical_formula_sum   'Co12 H24 C24 O48'
_cell_volume   1641.14125480
_cell_formula_units_Z   12
loop_
 _symmetry_equiv_pos_site_id
 _symmetry_equiv_pos_as_xyz
  1  'x, y, z'
loop_
 _atom_site_type_symbol
 _atom_site_label
 _atom_site_symmetry_multiplicity
 _atom_site_fract_x
 _atom_site_fract_y
 _atom_site_fract_z
 _atom_site_occupancy
 _atom_site_charge
  Co  Co1  1  0.254770  0.422080  0.133530  1.0  1.1173
  Co  Co2  1  0.239210  0.614260  0.309190  1.0  1.118
  Co  Co3  1  0.245230  0.922080  0.366470  1.0  1.1179
  Co  Co4  1  0.260790  0.114260  0.190810  1.0  1.1181
  Co  Co5  1  0.745230  0.577920  0.866470  1.0  1.1182
  Co  Co6  1  0.760790  0.385740  0.690810  1.0  1.1181
  Co  Co7  1  0.754770  0.077920  0.633530  1.0  1.1175
  Co  Co8  1  0.739210  0.885740  0.809190  1.0  1.1181
  Co  Co9  1  0.500000  0.500000  0.000000  1.0  1.1476
  Co  Co10  1  0.000000  0.000000  0.500000  1.0  1.1476
  Co  Co11  1  0.000000  0.500000  0.000000  1.0  1.1065
  Co  Co12  1  0.500000  0.000000  0.500000  1.0  1.1065
  H  H13  1  0.468400  0.710300  0.223400  1.0  0.0018
  H  H14  1  0.195600  0.656000  0.926600  1.0  0.0087
  H  H15  1  0.061100  0.121300  0.040400  1.0  0.0045
  H  H16  1  0.341200  0.258800  0.373600  1.0  0.0046
  H  H17  1  0.504300  0.212500  0.024000  1.0  0.0036
  H  H18  1  0.976500  0.540000  0.264400  1.0  0.0092
  H  H19  1  0.031600  0.210300  0.276600  1.0  0.0031
  H  H20  1  0.304400  0.156000  0.573400  1.0  0.0077
  H  H21  1  0.438900  0.621300  0.459600  1.0  0.0047
  H  H22  1  0.158800  0.758800  0.126400  1.0  0.0055
  H  H23  1  0.995700  0.712500  0.476000  1.0  0.0049
  H  H24  1  0.523500  0.040000  0.235600  1.0  0.0086
  H  H25  1  0.531600  0.289700  0.776600  1.0  0.0028
  H  H26  1  0.804400  0.344000  0.073400  1.0  0.0078
  H  H27  1  0.938900  0.878700  0.959600  1.0  0.0038
  H  H28  1  0.658800  0.741200  0.626400  1.0  0.0049
  H  H29  1  0.495700  0.787500  0.976000  1.0  0.0047
  H  H30  1  0.023500  0.460000  0.735600  1.0  0.0086
  H  H31  1  0.968400  0.789700  0.723400  1.0  0.0027
  H  H32  1  0.695600  0.844000  0.426600  1.0  0.0073
  H  H33  1  0.561100  0.378700  0.540400  1.0  0.004
  H  H34  1  0.841200  0.241200  0.873600  1.0  0.0045
  H  H35  1  0.004300  0.287500  0.524000  1.0  0.0039
  H  H36  1  0.476500  0.960000  0.764400  1.0  0.0094
  C  C37  1  0.444560  0.642910  0.180490  1.0  0.7106
  C  C38  1  0.240980  0.599050  0.966050  1.0  0.7136
  C  C39  1  0.078000  0.214200  0.048330  1.0  0.6841
  C  C40  1  0.317970  0.330550  0.334010  1.0  0.696
  C  C41  1  0.437970  0.228000  0.061230  1.0  0.6922
  C  C42  1  0.017320  0.517720  0.210100  1.0  0.6886
  C  C43  1  0.055440  0.142910  0.319510  1.0  0.7106
  C  C44  1  0.259020  0.099050  0.533950  1.0  0.714
  C  C45  1  0.422000  0.714200  0.451670  1.0  0.6838
  C  C46  1  0.182030  0.830550  0.165990  1.0  0.6969
  C  C47  1  0.062030  0.728000  0.438770  1.0  0.6928
  C  C48  1  0.482680  0.017720  0.289900  1.0  0.6892
  C  C49  1  0.555440  0.357090  0.819510  1.0  0.7114
  C  C50  1  0.759020  0.400950  0.033950  1.0  0.714
  C  C51  1  0.922000  0.785800  0.951670  1.0  0.6833
  C  C52  1  0.682030  0.669450  0.665990  1.0  0.6959
  C  C53  1  0.562030  0.772000  0.938770  1.0  0.6922
  C  C54  1  0.982680  0.482280  0.789900  1.0  0.6888
  C  C55  1  0.944560  0.857090  0.680490  1.0  0.7119
  C  C56  1  0.740980  0.900950  0.466050  1.0  0.7143
  C  C57  1  0.578000  0.285800  0.548330  1.0  0.6837
  C  C58  1  0.817970  0.169450  0.834010  1.0  0.6957
  C  C59  1  0.937970  0.272000  0.561230  1.0  0.6922
  C  C60  1  0.517320  0.982280  0.710100  1.0  0.6896
  O  O61  1  0.348050  0.582680  0.195740  1.0  -0.6728
  O  O62  1  0.509840  0.622100  0.115470  1.0  -0.5884
  O  O63  1  0.184920  0.525990  0.022970  1.0  -0.6834
  O  O64  1  0.349050  0.602060  0.957880  1.0  -0.6025
  O  O65  1  0.157360  0.244710  0.108350  1.0  -0.6765
  O  O66  1  0.020930  0.293860  0.999400  1.0  -0.5809
  O  O67  1  0.304390  0.303420  0.248370  1.0  -0.6883
  O  O68  1  0.303540  0.442430  0.370110  1.0  -0.5846
  O  O69  1  0.401330  0.349190  0.066360  1.0  -0.6558
  O  O70  1  0.395610  0.128630  0.099920  1.0  -0.5853
  O  O71  1  0.128680  0.508250  0.217470  1.0  -0.6877
  O  O72  1  0.957280  0.500740  0.139170  1.0  -0.5749
  O  O73  1  0.151950  0.082680  0.304260  1.0  -0.6743
  O  O74  1  0.990160  0.122100  0.384530  1.0  -0.5879
  O  O75  1  0.315080  0.025990  0.477030  1.0  -0.6835
  O  O76  1  0.150950  0.102060  0.542120  1.0  -0.6015
  O  O77  1  0.342640  0.744710  0.391650  1.0  -0.6748
  O  O78  1  0.479070  0.793860  0.500600  1.0  -0.5803
  O  O79  1  0.195610  0.803420  0.251630  1.0  -0.6872
  O  O80  1  0.196460  0.942430  0.129890  1.0  -0.585
  O  O81  1  0.098670  0.849190  0.433640  1.0  -0.6557
  O  O82  1  0.104390  0.628630  0.400080  1.0  -0.5857
  O  O83  1  0.371320  0.008250  0.282530  1.0  -0.6895
  O  O84  1  0.542720  0.000740  0.360830  1.0  -0.5767
  O  O85  1  0.651950  0.417320  0.804260  1.0  -0.6741
  O  O86  1  0.490160  0.377900  0.884530  1.0  -0.5876
  O  O87  1  0.815080  0.474010  0.977030  1.0  -0.6833
  O  O88  1  0.650950  0.397940  0.042120  1.0  -0.6017
  O  O89  1  0.842640  0.755290  0.891650  1.0  -0.676
  O  O90  1  0.979070  0.706140  0.000600  1.0  -0.5816
  O  O91  1  0.695610  0.696580  0.751630  1.0  -0.6876
  O  O92  1  0.696460  0.557570  0.629890  1.0  -0.5856
  O  O93  1  0.598670  0.650810  0.933640  1.0  -0.6559
  O  O94  1  0.604390  0.871370  0.900080  1.0  -0.5849
  O  O95  1  0.871320  0.491750  0.782530  1.0  -0.6894
  O  O96  1  0.042720  0.499260  0.860830  1.0  -0.5768
  O  O97  1  0.848050  0.917320  0.695740  1.0  -0.6728
  O  O98  1  0.009840  0.877900  0.615470  1.0  -0.5883
  O  O99  1  0.684920  0.974010  0.522970  1.0  -0.6829
  O  O100  1  0.849050  0.897940  0.457880  1.0  -0.6025
  O  O101  1  0.657360  0.255290  0.608350  1.0  -0.676
  O  O102  1  0.520930  0.206140  0.499400  1.0  -0.5815
  O  O103  1  0.804390  0.196580  0.748370  1.0  -0.6884
  O  O104  1  0.803540  0.057570  0.870110  1.0  -0.5845
  O  O105  1  0.901330  0.150810  0.566360  1.0  -0.6556
  O  O106  1  0.895610  0.371370  0.599920  1.0  -0.5842
  O  O107  1  0.628680  0.991750  0.717470  1.0  -0.6878
  O  O108  1  0.457280  0.999260  0.639170  1.0  -0.5754
