# generated using pymatgen
data_CoH2(CO2)2
_symmetry_space_group_name_H-M   'P 1'
_cell_length_a   10.07600000
_cell_length_b   11.41800000
_cell_length_c   14.90800000
_cell_angle_alpha   91.42000000
_cell_angle_beta   90.00000000
_cell_angle_gamma   90.00000000
_symmetry_Int_Tables_number   1
_chemical_formula_structural   CoH2(CO2)2
_chemical_formula_sum   'Co12 H24 C24 O48'
_cell_volume   1714.60540902
_cell_formula_units_Z   12
loop_
 _symmetry_equiv_pos_site_id
 _symmetry_equiv_pos_as_xyz
  1  'x, y, z'
loop_
 _atom_site_type_symbol
 _atom_site_label
 _atom_site_symmetry_multiplicity
 _atom_site_fract_x
 _atom_site_fract_y
 _atom_site_fract_z
 _atom_site_occupancy
 _atom_site_charge
  Co  Co1  1  0.877540  0.739470  0.304750  1.0  1.1027
  Co  Co2  1  0.072540  0.754920  0.134030  1.0  1.1107
  Co  Co3  1  0.377540  0.760530  0.195250  1.0  1.103
  Co  Co4  1  0.572540  0.745080  0.365970  1.0  1.1083
  Co  Co5  1  0.122460  0.260530  0.695250  1.0  1.1031
  Co  Co6  1  0.927460  0.245080  0.865970  1.0  1.1105
  Co  Co7  1  0.622460  0.239470  0.804750  1.0  1.1027
  Co  Co8  1  0.427460  0.254920  0.634030  1.0  1.1088
  Co  Co9  1  0.000000  0.000000  0.000000  1.0  1.148
  Co  Co10  1  0.500000  0.500000  0.500000  1.0  1.148
  Co  Co11  1  0.000000  0.500000  0.000000  1.0  1.1321
  Co  Co12  1  0.500000  0.000000  0.500000  1.0  1.1321
  H  H13  1  0.779100  0.964100  0.212000  1.0  -0.0009
  H  H14  1  0.850600  0.696600  0.926500  1.0  0.0005
  H  H15  1  0.949200  0.477100  0.257000  1.0  0.0087
  H  H16  1  0.782700  0.495700  0.466900  1.0  0.004
  H  H17  1  0.725400  0.653600  0.130000  1.0  0.0025
  H  H18  1  0.871600  0.940700  0.449100  1.0  0.0076
  H  H19  1  0.279100  0.535900  0.288000  1.0  -0.0007
  H  H20  1  0.350600  0.803400  0.573500  1.0  0.0007
  H  H21  1  0.449200  0.022900  0.243000  1.0  0.0082
  H  H22  1  0.282700  0.004300  0.033100  1.0  0.0047
  H  H23  1  0.225400  0.846400  0.370000  1.0  0.0021
  H  H24  1  0.371600  0.559300  0.050900  1.0  0.0071
  H  H25  1  0.220900  0.035900  0.788000  1.0  -0.0006
  H  H26  1  0.149400  0.303400  0.073500  1.0  0.0004
  H  H27  1  0.050800  0.522900  0.743000  1.0  0.008
  H  H28  1  0.217300  0.504300  0.533100  1.0  0.0052
  H  H29  1  0.274600  0.346400  0.870000  1.0  0.0024
  H  H30  1  0.128400  0.059300  0.550900  1.0  0.0075
  H  H31  1  0.720900  0.464100  0.712000  1.0  -0.0011
  H  H32  1  0.649400  0.196600  0.426500  1.0  0.0
  H  H33  1  0.550800  0.977100  0.757000  1.0  0.0087
  H  H34  1  0.717300  0.995700  0.966900  1.0  0.0049
  H  H35  1  0.774600  0.153600  0.630000  1.0  0.0029
  H  H36  1  0.628400  0.440700  0.949100  1.0  0.0079
  C  C37  1  0.848500  0.941800  0.174100  1.0  0.6846
  C  C38  1  0.904300  0.741100  0.964900  1.0  0.7003
  C  C39  1  0.972600  0.517600  0.206000  1.0  0.6855
  C  C40  1  0.766400  0.561100  0.432600  1.0  0.69
  C  C41  1  0.657900  0.678800  0.168400  1.0  0.691
  C  C42  1  0.781600  0.923400  0.444100  1.0  0.6824
  C  C43  1  0.348500  0.558200  0.325900  1.0  0.6853
  C  C44  1  0.404300  0.758900  0.535100  1.0  0.7003
  C  C45  1  0.472600  0.982400  0.294000  1.0  0.6855
  C  C46  1  0.266400  0.938900  0.067400  1.0  0.689
  C  C47  1  0.157900  0.821200  0.331600  1.0  0.6912
  C  C48  1  0.281600  0.576600  0.055900  1.0  0.6833
  C  C49  1  0.151500  0.058200  0.825900  1.0  0.6853
  C  C50  1  0.095700  0.258900  0.035100  1.0  0.6999
  C  C51  1  0.027400  0.482400  0.794000  1.0  0.6857
  C  C52  1  0.233600  0.438900  0.567400  1.0  0.689
  C  C53  1  0.342100  0.321200  0.831600  1.0  0.6908
  C  C54  1  0.218400  0.076600  0.555900  1.0  0.6836
  C  C55  1  0.651500  0.441800  0.674100  1.0  0.6851
  C  C56  1  0.595700  0.241100  0.464900  1.0  0.6997
  C  C57  1  0.527400  0.017600  0.706000  1.0  0.686
  C  C58  1  0.733600  0.061100  0.932600  1.0  0.69
  C  C59  1  0.842100  0.178800  0.668400  1.0  0.6912
  C  C60  1  0.718400  0.423400  0.944100  1.0  0.6829
  O  O61  1  0.872500  0.006300  0.110590  1.0  -0.5887
  O  O62  1  0.910100  0.847490  0.192670  1.0  -0.6678
  O  O63  1  0.903100  0.848450  0.955870  1.0  -0.5967
  O  O64  1  0.973300  0.685100  0.022990  1.0  -0.6798
  O  O65  1  0.989900  0.458500  0.136350  1.0  -0.5819
  O  O66  1  0.983500  0.628690  0.214820  1.0  -0.6712
  O  O67  1  0.863500  0.603400  0.392960  1.0  -0.5887
  O  O68  1  0.647200  0.598200  0.431020  1.0  -0.6464
  O  O69  1  0.688000  0.695020  0.251110  1.0  -0.6531
  O  O70  1  0.546500  0.693900  0.134540  1.0  -0.5818
  O  O71  1  0.749200  0.843040  0.387080  1.0  -0.6715
  O  O72  1  0.704800  0.980880  0.493830  1.0  -0.5798
  O  O73  1  0.372500  0.493700  0.389410  1.0  -0.5898
  O  O74  1  0.410100  0.652510  0.307330  1.0  -0.6697
  O  O75  1  0.403100  0.651550  0.544130  1.0  -0.5987
  O  O76  1  0.473300  0.814900  0.477010  1.0  -0.6791
  O  O77  1  0.489900  0.041500  0.363650  1.0  -0.5815
  O  O78  1  0.483500  0.871310  0.285180  1.0  -0.6712
  O  O79  1  0.363500  0.896600  0.107040  1.0  -0.5887
  O  O80  1  0.147200  0.901800  0.068980  1.0  -0.6465
  O  O81  1  0.188000  0.804980  0.248890  1.0  -0.6536
  O  O82  1  0.046500  0.806100  0.365460  1.0  -0.5818
  O  O83  1  0.249200  0.656960  0.112920  1.0  -0.6711
  O  O84  1  0.204800  0.519120  0.006170  1.0  -0.579
  O  O85  1  0.127500  0.993700  0.889410  1.0  -0.5898
  O  O86  1  0.089900  0.152510  0.807330  1.0  -0.6705
  O  O87  1  0.096900  0.151550  0.044130  1.0  -0.5982
  O  O88  1  0.026700  0.314900  0.977010  1.0  -0.679
  O  O89  1  0.010100  0.541500  0.863650  1.0  -0.5826
  O  O90  1  0.016500  0.371310  0.785180  1.0  -0.6714
  O  O91  1  0.136500  0.396600  0.607040  1.0  -0.5881
  O  O92  1  0.352800  0.401800  0.568980  1.0  -0.6461
  O  O93  1  0.312000  0.304980  0.748890  1.0  -0.6533
  O  O94  1  0.453500  0.306100  0.865460  1.0  -0.5821
  O  O95  1  0.250800  0.156960  0.612920  1.0  -0.6718
  O  O96  1  0.295200  0.019120  0.506170  1.0  -0.5789
  O  O97  1  0.627500  0.506300  0.610590  1.0  -0.5881
  O  O98  1  0.589900  0.347490  0.692670  1.0  -0.6683
  O  O99  1  0.596900  0.348450  0.455870  1.0  -0.5965
  O  O100  1  0.526700  0.185100  0.522990  1.0  -0.6798
  O  O101  1  0.510100  0.958500  0.636350  1.0  -0.5831
  O  O102  1  0.516500  0.128690  0.714820  1.0  -0.6715
  O  O103  1  0.636500  0.103400  0.892960  1.0  -0.588
  O  O104  1  0.852800  0.098200  0.931020  1.0  -0.646
  O  O105  1  0.812000  0.195020  0.751110  1.0  -0.6528
  O  O106  1  0.953500  0.193900  0.634540  1.0  -0.583
  O  O107  1  0.750800  0.343040  0.887080  1.0  -0.6721
  O  O108  1  0.795200  0.480880  0.993830  1.0  -0.5793
