# generated using pymatgen
data_CsH40(C6O5)4
_symmetry_space_group_name_H-M   'P 1'
_cell_length_a   15.45400000
_cell_length_b   18.73450000
_cell_length_c   18.73450000
_cell_angle_alpha   80.20550000
_cell_angle_beta   65.64120000
_cell_angle_gamma   65.64120000
_symmetry_Int_Tables_number   1
_chemical_formula_structural   CsH40(C6O5)4
_chemical_formula_sum   'Cs4 H160 C96 O80'
_cell_volume   4501.35497700
_cell_formula_units_Z   4
loop_
 _symmetry_equiv_pos_site_id
 _symmetry_equiv_pos_as_xyz
  1  'x, y, z'
loop_
 _atom_site_type_symbol
 _atom_site_label
 _atom_site_symmetry_multiplicity
 _atom_site_fract_x
 _atom_site_fract_y
 _atom_site_fract_z
 _atom_site_occupancy
 _atom_site_charge
  Cs  Cs1  1  0.445720  0.500940  0.837280  1.0  0.9492
  Cs  Cs2  1  0.783940  0.499060  0.162720  1.0  0.9461
  Cs  Cs3  1  0.283000  0.162720  0.500940  1.0  0.9528
  Cs  Cs4  1  0.946660  0.837280  0.499060  1.0  0.9516
  H  H5  1  0.060000  0.403400  0.854400  1.0  0.1148
  H  H6  1  0.019600  0.319500  0.012100  1.0  0.1346
  H  H7  1  0.322000  0.494000  0.051800  1.0  0.1295
  H  H8  1  0.973100  0.219800  0.322400  1.0  0.3618
  H  H9  1  0.008600  0.373000  0.136000  1.0  0.351
  H  H10  1  0.417500  0.269100  0.187500  1.0  0.1796
  H  H11  1  0.995700  0.552400  0.877600  1.0  0.13
  H  H12  1  0.096600  0.659800  0.695600  1.0  0.2137
  H  H13  1  0.440900  0.681800  0.722600  1.0  0.185
  H  H14  1  0.098600  0.726400  0.641000  1.0  0.2427
  H  H15  1  0.018800  0.983600  0.552200  1.0  0.208
  H  H16  1  0.358900  0.903100  0.703500  1.0  0.2669
  H  H17  1  0.262900  0.409200  0.815600  1.0  0.129
  H  H18  1  0.107900  0.441500  0.923700  1.0  0.1105
  H  H19  1  0.191500  0.281500  0.975100  1.0  0.0997
  H  H20  1  0.142300  0.424200  0.047400  1.0  0.1255
  H  H21  1  0.341300  0.304400  0.965600  1.0  0.1074
  H  H22  1  0.416700  0.383300  0.981300  1.0  0.1182
  H  H23  1  0.342400  0.367300  0.066500  1.0  0.0928
  H  H24  1  0.147900  0.415900  0.156900  1.0  0.1269
  H  H25  1  0.027700  0.389500  0.273100  1.0  0.1106
  H  H26  1  0.082700  0.244300  0.202500  1.0  0.0968
  H  H27  1  0.389600  0.333700  0.733500  1.0  0.1044
  H  H28  1  0.273000  0.214600  0.176200  1.0  0.1116
  H  H29  1  0.336500  0.162100  0.281100  1.0  0.1145
  H  H30  1  0.304800  0.249600  0.306200  1.0  0.1189
  H  H31  1  0.167800  0.554100  0.930700  1.0  0.133
  H  H32  1  0.139700  0.558600  0.817600  1.0  0.1089
  H  H33  1  0.014000  0.722100  0.840100  1.0  0.0986
  H  H34  1  0.219200  0.660700  0.726900  1.0  0.1
  H  H35  1  0.146000  0.743600  0.870000  1.0  0.1056
  H  H36  1  0.317800  0.721000  0.844200  1.0  0.1028
  H  H37  1  0.282300  0.776600  0.778200  1.0  0.097
  H  H38  1  0.248200  0.737800  0.632400  1.0  0.0962
  H  H39  1  0.177200  0.823200  0.551600  1.0  0.0997
  H  H40  1  0.000600  0.904300  0.684900  1.0  0.1094
  H  H41  1  0.117400  0.578700  0.042700  1.0  0.1622
  H  H42  1  0.122200  0.907800  0.740200  1.0  0.1117
  H  H43  1  0.178800  0.013400  0.708000  1.0  0.0871
  H  H44  1  0.275700  0.965000  0.634800  1.0  0.1063
  H  H45  1  0.317800  0.596600  0.145600  1.0  0.115
  H  H46  1  0.351200  0.680500  0.987900  1.0  0.1345
  H  H47  1  0.867800  0.506000  0.948200  1.0  0.1286
  H  H48  1  0.515300  0.780200  0.677600  1.0  0.3563
  H  H49  1  0.517600  0.627000  0.864000  1.0  0.3531
  H  H50  1  0.874100  0.730900  0.812500  1.0  0.1812
  H  H51  1  0.425700  0.447600  0.122400  1.0  0.1292
  H  H52  1  0.452000  0.340200  0.304400  1.0  0.2176
  H  H53  1  0.845300  0.318200  0.277400  1.0  0.1825
  H  H54  1  0.466000  0.273600  0.359000  1.0  0.2446
  H  H55  1  0.554600  0.016400  0.447800  1.0  0.2086
  H  H56  1  0.965500  0.096900  0.296500  1.0  0.2658
  H  H57  1  0.487700  0.590800  0.184400  1.0  0.1321
  H  H58  1  0.473100  0.558500  0.076300  1.0  0.1095
  H  H59  1  0.448100  0.718500  0.024900  1.0  0.1041
  H  H60  1  0.613900  0.575800  0.952600  1.0  0.1262
  H  H61  1  0.611300  0.695600  0.034400  1.0  0.1045
  H  H62  1  0.781300  0.616700  0.018700  1.0  0.12
  H  H63  1  0.776200  0.632700  0.933500  1.0  0.0916
  H  H64  1  0.720700  0.584100  0.843100  1.0  0.1289
  H  H65  1  0.690300  0.610500  0.726900  1.0  0.1097
  H  H66  1  0.529500  0.755700  0.797500  1.0  0.0976
  H  H67  1  0.456800  0.666300  0.266500  1.0  0.1065
  H  H68  1  0.663800  0.785400  0.823800  1.0  0.1129
  H  H69  1  0.779700  0.837900  0.718900  1.0  0.115
  H  H70  1  0.860600  0.750400  0.693800  1.0  0.1178
  H  H71  1  0.652600  0.445900  0.069300  1.0  0.1314
  H  H72  1  0.515900  0.441400  0.182400  1.0  0.1091
  H  H73  1  0.576200  0.277900  0.159900  1.0  0.0981
  H  H74  1  0.606800  0.339300  0.273100  1.0  0.0986
  H  H75  1  0.759600  0.256400  0.130000  1.0  0.1058
  H  H76  1  0.883000  0.279000  0.155800  1.0  0.0977
  H  H77  1  0.837100  0.223400  0.221800  1.0  0.0976
  H  H78  1  0.618400  0.262200  0.367600  1.0  0.094
  H  H79  1  0.552000  0.176800  0.448400  1.0  0.1011
  H  H80  1  0.589800  0.095700  0.315100  1.0  0.1096
  H  H81  1  0.738800  0.421300  0.957300  1.0  0.1628
  H  H82  1  0.770200  0.092200  0.259800  1.0  0.1124
  H  H83  1  0.900200  0.986600  0.292000  1.0  0.0873
  H  H84  1  0.875500  0.035000  0.365200  1.0  0.1083
  H  H85  1  0.914400  0.145600  0.403400  1.0  0.1142
  H  H86  1  0.031700  0.987900  0.319500  1.0  0.1342
  H  H87  1  0.373800  0.948200  0.494000  1.0  0.1295
  H  H88  1  0.295500  0.677600  0.219800  1.0  0.3585
  H  H89  1  0.144600  0.864000  0.373000  1.0  0.3518
  H  H90  1  0.605000  0.812500  0.269100  1.0  0.1826
  H  H91  1  0.873300  0.122400  0.552400  1.0  0.1298
  H  H92  1  0.792200  0.304400  0.659800  1.0  0.2161
  H  H93  1  0.163500  0.277400  0.681800  1.0  0.1863
  H  H94  1  0.739600  0.359000  0.726400  1.0  0.2421
  H  H95  1  0.571000  0.447800  0.983600  1.0  0.2076
  H  H96  1  0.062400  0.296500  0.903100  1.0  0.2677
  H  H97  1  0.078500  0.184400  0.409200  1.0  0.1297
  H  H98  1  0.031600  0.076300  0.441500  1.0  0.108
  H  H99  1  0.166600  0.024900  0.281500  1.0  0.1008
  H  H100  1  0.189700  0.952600  0.424200  1.0  0.1262
  H  H101  1  0.306900  0.034400  0.304400  1.0  0.1057
  H  H102  1  0.398000  0.018700  0.383300  1.0  0.1263
  H  H103  1  0.408900  0.933500  0.367300  1.0  0.093
  H  H104  1  0.304800  0.843100  0.415900  1.0  0.1242
  H  H105  1  0.300800  0.726900  0.389500  1.0  0.1103
  H  H106  1  0.285200  0.797500  0.244300  1.0  0.0965
  H  H107  1  0.123100  0.266500  0.333700  1.0  0.104
  H  H108  1  0.449200  0.823800  0.214600  1.0  0.1147
  H  H109  1  0.617600  0.718900  0.162100  1.0  0.1141
  H  H110  1  0.611000  0.693800  0.249600  1.0  0.1192
  H  H111  1  0.098500  0.069300  0.554100  1.0  0.1321
  H  H112  1  0.957300  0.182400  0.558600  1.0  0.1107
  H  H113  1  0.854100  0.159900  0.722100  1.0  0.0984
  H  H114  1  0.946100  0.273100  0.660700  1.0  0.1
  H  H115  1  0.016000  0.130000  0.743600  1.0  0.106
  H  H116  1  0.162000  0.155800  0.721000  1.0  0.1034
  H  H117  1  0.060500  0.221800  0.776600  1.0  0.099
  H  H118  1  0.880600  0.367600  0.737800  1.0  0.0947
  H  H119  1  0.728800  0.448400  0.823200  1.0  0.1
  H  H120  1  0.685500  0.315100  0.904300  1.0  0.1112
  H  H121  1  0.160100  0.957300  0.578700  1.0  0.1629
  H  H122  1  0.862400  0.259800  0.907800  1.0  0.1055
  H  H123  1  0.886800  0.292000  0.013400  1.0  0.0886
  H  H124  1  0.910500  0.365200  0.965000  1.0  0.1087
  H  H125  1  0.463400  0.854400  0.596600  1.0  0.1126
  H  H126  1  0.339100  0.012100  0.680500  1.0  0.1344
  H  H127  1  0.816000  0.051800  0.506000  1.0  0.1296
  H  H128  1  0.192900  0.322400  0.780200  1.0  0.3595
  H  H129  1  0.381600  0.136000  0.627000  1.0  0.3508
  H  H130  1  0.686600  0.187500  0.730900  1.0  0.1794
  H  H131  1  0.548100  0.877600  0.447600  1.0  0.1289
  H  H132  1  0.756400  0.695600  0.340200  1.0  0.2154
  H  H133  1  0.122700  0.722600  0.318200  1.0  0.1825
  H  H134  1  0.825000  0.641000  0.273600  1.0  0.2423
  H  H135  1  0.002400  0.552200  0.016400  1.0  0.2058
  H  H136  1  0.262000  0.703500  0.096900  1.0  0.2647
  H  H137  1  0.672100  0.815600  0.590800  1.0  0.1308
  H  H138  1  0.549400  0.923700  0.558500  1.0  0.1092
  H  H139  1  0.473000  0.975100  0.718500  1.0  0.1036
  H  H140  1  0.566500  0.047400  0.575800  1.0  0.1265
  H  H141  1  0.645700  0.965600  0.695600  1.0  0.1065
  H  H142  1  0.800000  0.981300  0.616700  1.0  0.1232
  H  H143  1  0.709700  0.066500  0.632700  1.0  0.0936
  H  H144  1  0.563800  0.156900  0.584100  1.0  0.126
  H  H145  1  0.417200  0.273100  0.610500  1.0  0.1085
  H  H146  1  0.327000  0.202500  0.755700  1.0  0.0989
  H  H147  1  0.723300  0.733500  0.666300  1.0  0.1054
  H  H148  1  0.487600  0.176200  0.785400  1.0  0.1132
  H  H149  1  0.498600  0.281100  0.837900  1.0  0.1114
  H  H150  1  0.554400  0.306200  0.750400  1.0  0.1166
  H  H151  1  0.721900  0.930700  0.445900  1.0  0.1326
  H  H152  1  0.698300  0.817600  0.441400  1.0  0.1086
  H  H153  1  0.736100  0.840100  0.277900  1.0  0.0972
  H  H154  1  0.879900  0.726900  0.339300  1.0  0.1003
  H  H155  1  0.889600  0.870000  0.256400  1.0  0.1044
  H  H156  1  0.038800  0.844200  0.279000  1.0  0.102
  H  H157  1  0.058900  0.778200  0.223400  1.0  0.0983
  H  H158  1  0.986000  0.632400  0.262200  1.0  0.0953
  H  H159  1  0.000400  0.551600  0.176800  1.0  0.0995
  H  H160  1  0.904900  0.684900  0.095700  1.0  0.1118
  H  H161  1  0.696100  0.042700  0.421300  1.0  0.1662
  H  H162  1  0.030000  0.740200  0.092200  1.0  0.1124
  H  H163  1  0.192200  0.708000  0.986600  1.0  0.089
  H  H164  1  0.240700  0.634800  0.035000  1.0  0.1074
  C  C165  1  0.260500  0.376600  0.864000  1.0  -0.0329
  C  C166  1  0.151200  0.384900  0.910500  1.0  0.1085
  C  C167  1  0.146800  0.337900  0.988100  1.0  0.1119
  C  C168  1  0.187200  0.368400  0.031600  1.0  0.1174
  C  C169  1  0.297300  0.361000  0.978200  1.0  0.1052
  C  C170  1  0.344100  0.393900  0.015700  1.0  0.0505
  C  C171  1  0.155800  0.360000  0.169600  1.0  -0.0182
  C  C172  1  0.051800  0.358600  0.225200  1.0  0.1122
  C  C173  1  0.062300  0.275200  0.249400  1.0  0.118
  C  C174  1  0.384900  0.283900  0.760900  1.0  0.1078
  C  C175  1  0.247100  0.246200  0.224000  1.0  0.1114
  C  C176  1  0.328700  0.215800  0.261200  1.0  0.0677
  C  C177  1  0.143200  0.607300  0.907900  1.0  -0.0261
  C  C178  1  0.092500  0.604500  0.853700  1.0  0.1041
  C  C179  1  0.071700  0.678300  0.804700  1.0  0.1243
  C  C180  1  0.163500  0.700300  0.767700  1.0  0.1241
  C  C181  1  0.202600  0.704000  0.829400  1.0  0.1126
  C  C182  1  0.297500  0.722900  0.800100  1.0  0.0689
  C  C183  1  0.193900  0.789500  0.655300  1.0  -0.0108
  C  C184  1  0.129600  0.821100  0.607100  1.0  0.0945
  C  C185  1  0.053600  0.904800  0.631400  1.0  0.1173
  C  C186  1  0.064200  0.633000  0.046800  1.0  0.1178
  C  C187  1  0.170500  0.913600  0.686200  1.0  0.1127
  C  C188  1  0.228500  0.959900  0.688900  1.0  0.0439
  C  C189  1  0.501100  0.623400  0.136000  1.0  -0.0301
  C  C190  1  0.446600  0.615100  0.089500  1.0  0.1105
  C  C191  1  0.472800  0.662100  0.011900  1.0  0.1124
  C  C192  1  0.587200  0.631600  0.968400  1.0  0.1175
  C  C193  1  0.636500  0.639000  0.021800  1.0  0.1069
  C  C194  1  0.753700  0.606100  0.984300  1.0  0.0527
  C  C195  1  0.685400  0.640000  0.830400  1.0  -0.0223
  C  C196  1  0.635600  0.641400  0.774800  1.0  0.1158
  C  C197  1  0.586900  0.724800  0.750600  1.0  0.1174
  C  C198  1  0.429700  0.716100  0.239100  1.0  0.1104
  C  C199  1  0.717300  0.753800  0.776000  1.0  0.1136
  C  C200  1  0.805700  0.784200  0.738800  1.0  0.0719
  C  C201  1  0.658400  0.392700  0.092100  1.0  -0.0254
  C  C202  1  0.550700  0.395500  0.146300  1.0  0.1017
  C  C203  1  0.554700  0.321700  0.195300  1.0  0.1258
  C  C204  1  0.631500  0.299700  0.232300  1.0  0.125
  C  C205  1  0.736000  0.296000  0.170600  1.0  0.1145
  C  C206  1  0.820500  0.277100  0.199900  1.0  0.0688
  C  C207  1  0.638700  0.210500  0.344700  1.0  -0.0063
  C  C208  1  0.557800  0.178900  0.392900  1.0  0.0891
  C  C209  1  0.589800  0.095200  0.368600  1.0  0.1158
  C  C210  1  0.744000  0.367000  0.953200  1.0  0.1184
  C  C211  1  0.770300  0.086400  0.313800  1.0  0.113
  C  C212  1  0.877300  0.040100  0.311100  1.0  0.0447
  C  C213  1  0.124500  0.136000  0.376600  1.0  -0.0326
  C  C214  1  0.061700  0.089500  0.384900  1.0  0.1102
  C  C215  1  0.134900  0.011900  0.337900  1.0  0.1131
  C  C216  1  0.218800  0.968400  0.368400  1.0  0.1196
  C  C217  1  0.275500  0.021800  0.361000  1.0  0.1075
  C  C218  1  0.359800  0.984300  0.393900  1.0  0.051
  C  C219  1  0.325400  0.830400  0.360000  1.0  -0.0194
  C  C220  1  0.277000  0.774800  0.358600  1.0  0.1145
  C  C221  1  0.311700  0.750600  0.275200  1.0  0.1177
  C  C222  1  0.145800  0.239100  0.283900  1.0  0.109
  C  C223  1  0.471100  0.776000  0.246200  1.0  0.1122
  C  C224  1  0.589900  0.738800  0.215800  1.0  0.0687
  C  C225  1  0.051100  0.092100  0.607300  1.0  -0.0247
  C  C226  1  0.946200  0.146300  0.604500  1.0  0.1019
  C  C227  1  0.876400  0.195300  0.678300  1.0  0.1254
  C  C228  1  0.931200  0.232300  0.700300  1.0  0.1241
  C  C229  1  0.032000  0.170600  0.704000  1.0  0.1124
  C  C230  1  0.097600  0.199900  0.722900  1.0  0.0641
  C  C231  1  0.849200  0.344700  0.789500  1.0  -0.0085
  C  C232  1  0.736700  0.392900  0.821100  1.0  0.091
  C  C233  1  0.685000  0.368600  0.904800  1.0  0.1138
  C  C234  1  0.111000  0.953200  0.633000  1.0  0.1201
  C  C235  1  0.856700  0.313800  0.913600  1.0  0.1114
  C  C236  1  0.917400  0.311100  0.959900  1.0  0.0461
  C  C237  1  0.637100  0.864000  0.623400  1.0  -0.0329
  C  C238  1  0.536100  0.910500  0.615100  1.0  0.1091
  C  C239  1  0.484700  0.988100  0.662100  1.0  0.109
  C  C240  1  0.555600  0.031600  0.631600  1.0  0.1176
  C  C241  1  0.658300  0.978200  0.639000  1.0  0.1083
  C  C242  1  0.738000  0.015700  0.606100  1.0  0.0512
  C  C243  1  0.515800  0.169600  0.640000  1.0  -0.0229
  C  C244  1  0.410400  0.225200  0.641400  1.0  0.1174
  C  C245  1  0.337500  0.249400  0.724800  1.0  0.118
  C  C246  1  0.668800  0.760900  0.716100  1.0  0.1082
  C  C247  1  0.493300  0.224000  0.753800  1.0  0.1143
  C  C248  1  0.544500  0.261200  0.784200  1.0  0.07
  C  C249  1  0.750500  0.907900  0.392700  1.0  -0.027
  C  C250  1  0.697000  0.853700  0.395500  1.0  0.1023
  C  C251  1  0.750000  0.804700  0.321700  1.0  0.1248
  C  C252  1  0.863800  0.767700  0.299700  1.0  0.1247
  C  C253  1  0.906600  0.829400  0.296000  1.0  0.1126
  C  C254  1  0.020400  0.800100  0.277100  1.0  0.0689
  C  C255  1  0.983400  0.655300  0.210500  1.0  -0.0054
  C  C256  1  0.950700  0.607100  0.178900  1.0  0.092
  C  C257  1  0.958400  0.631400  0.095200  1.0  0.1125
  C  C258  1  0.697200  0.046800  0.367000  1.0  0.1191
  C  C259  1  0.084100  0.686200  0.086400  1.0  0.1119
  C  C260  1  0.188400  0.688900  0.040100  1.0  0.0487
  O  O261  1  0.299100  0.403500  0.907100  1.0  -0.3459
  O  O262  1  0.114000  0.358800  0.866200  1.0  -0.5909
  O  O263  1  0.044500  0.343500  0.038100  1.0  -0.4741
  O  O264  1  0.191900  0.320300  0.098700  1.0  -0.2753
  O  O265  1  0.290400  0.474200  0.028000  1.0  -0.5159
  O  O266  1  0.230400  0.325300  0.202900  1.0  -0.2654
  O  O267  1  0.965800  0.274100  0.307300  1.0  -0.4914
  O  O268  1  0.322000  0.299000  0.841800  1.0  -0.2652
  O  O269  1  0.978900  0.394600  0.188800  1.0  -0.5213
  O  O270  1  0.424800  0.215600  0.206600  1.0  -0.4756
  O  O271  1  0.228300  0.629400  0.866000  1.0  -0.3161
  O  O272  1  0.000400  0.592900  0.901100  1.0  -0.5013
  O  O273  1  0.040000  0.667900  0.746900  1.0  -0.513
  O  O274  1  0.131700  0.775200  0.731600  1.0  -0.2959
  O  O275  1  0.380000  0.668500  0.741100  1.0  -0.5217
  O  O276  1  0.243900  0.838000  0.654000  1.0  -0.3139
  O  O277  1  0.080400  0.772300  0.608100  1.0  -0.5527
  O  O278  1  0.004600  0.937000  0.576800  1.0  -0.5308
  O  O279  1  0.067400  0.661200  0.970400  1.0  -0.2702
  O  O280  1  0.286000  0.927900  0.736500  1.0  -0.4605
  O  O281  1  0.609700  0.596500  0.092900  1.0  -0.3496
  O  O282  1  0.339000  0.641200  0.133800  1.0  -0.5954
  O  O283  1  0.426100  0.656500  0.961900  1.0  -0.4675
  O  O284  1  0.610900  0.679700  0.901300  1.0  -0.2774
  O  O285  1  0.792600  0.525800  0.972000  1.0  -0.5174
  O  O286  1  0.758600  0.674700  0.797100  1.0  -0.2628
  O  O287  1  0.547200  0.725900  0.692700  1.0  -0.4889
  O  O288  1  0.462800  0.701000  0.158200  1.0  -0.2624
  O  O289  1  0.562300  0.605400  0.811200  1.0  -0.5256
  O  O290  1  0.847000  0.784400  0.793400  1.0  -0.4735
  O  O291  1  0.723700  0.370600  0.134000  1.0  -0.3173
  O  O292  1  0.494400  0.407100  0.098900  1.0  -0.5039
  O  O293  1  0.454800  0.332100  0.253100  1.0  -0.5116
  O  O294  1  0.638500  0.224800  0.268400  1.0  -0.2977
  O  O295  1  0.789600  0.331500  0.258900  1.0  -0.5246
  O  O296  1  0.735900  0.162000  0.346000  1.0  -0.3184
  O  O297  1  0.460800  0.227700  0.391900  1.0  -0.5488
  O  O298  1  0.518400  0.063000  0.423200  1.0  -0.5295
  O  O299  1  0.699000  0.338800  0.029600  1.0  -0.2678
  O  O300  1  0.950400  0.072100  0.263500  1.0  -0.4607
  O  O301  1  0.206200  0.092900  0.403500  1.0  -0.3498
  O  O302  1  0.980200  0.133800  0.358800  1.0  -0.5918
  O  O303  1  0.082600  0.961900  0.343500  1.0  -0.4707
  O  O304  1  0.290600  0.901300  0.320300  1.0  -0.276
  O  O305  1  0.318400  0.972000  0.474200  1.0  -0.5169
  O  O306  1  0.433300  0.797100  0.325300  1.0  -0.2621
  O  O307  1  0.273100  0.692700  0.274100  1.0  -0.4946
  O  O308  1  0.163800  0.158200  0.299000  1.0  -0.2643
  O  O309  1  0.167700  0.811200  0.394600  1.0  -0.5243
  O  O310  1  0.631400  0.793400  0.215600  1.0  -0.4795
  O  O311  1  0.094300  0.134000  0.629400  1.0  -0.3154
  O  O312  1  0.901500  0.098900  0.592900  1.0  -0.5003
  O  O313  1  0.786900  0.253100  0.667900  1.0  -0.5114
  O  O314  1  0.863300  0.268400  0.775200  1.0  -0.2979
  O  O315  1  0.121100  0.258900  0.668500  1.0  -0.5223
  O  O316  1  0.897900  0.346000  0.838000  1.0  -0.313
  O  O317  1  0.688500  0.391900  0.772300  1.0  -0.5489
  O  O318  1  0.581400  0.423200  0.937000  1.0  -0.5322
  O  O319  1  0.037800  0.029600  0.661200  1.0  -0.2756
  O  O320  1  0.022500  0.263500  0.927900  1.0  -0.4608
  O  O321  1  0.702600  0.907100  0.596500  1.0  -0.3456
  O  O322  1  0.472800  0.866200  0.641200  1.0  -0.5967
  O  O323  1  0.388000  0.038100  0.656500  1.0  -0.4731
  O  O324  1  0.512200  0.098700  0.679700  1.0  -0.2806
  O  O325  1  0.764600  0.028000  0.525800  1.0  -0.5145
  O  O326  1  0.555700  0.202900  0.674700  1.0  -0.261
  O  O327  1  0.239900  0.307300  0.725900  1.0  -0.4934
  O  O328  1  0.621000  0.841800  0.701000  1.0  -0.2668
  O  O329  1  0.373500  0.188800  0.605400  1.0  -0.5241
  O  O330  1  0.640400  0.206600  0.784400  1.0  -0.4941
  O  O331  1  0.857700  0.866000  0.370600  1.0  -0.3181
  O  O332  1  0.593300  0.901100  0.407100  1.0  -0.5014
  O  O333  1  0.707900  0.746900  0.332100  1.0  -0.5122
  O  O334  1  0.906900  0.731600  0.224800  1.0  -0.2968
  O  O335  1  0.048500  0.741100  0.331500  1.0  -0.5236
  O  O336  1  0.081900  0.654000  0.162000  1.0  -0.3192
  O  O337  1  0.852700  0.608100  0.227700  1.0  -0.5495
  O  O338  1  0.941600  0.576800  0.063000  1.0  -0.5294
  O  O339  1  0.728600  0.970400  0.338800  1.0  -0.2679
  O  O340  1  0.213900  0.736500  0.072100  1.0  -0.4594
