# generated using pymatgen
data_SrH75C48BrO43
_symmetry_space_group_name_H-M   'P 1'
_cell_length_a   17.48430000
_cell_length_b   17.48430000
_cell_length_c   22.58560000
_cell_angle_alpha   90.00000000
_cell_angle_beta   90.00000000
_cell_angle_gamma   120.00000000
_symmetry_Int_Tables_number   1
_chemical_formula_structural   SrH75C48BrO43
_chemical_formula_sum   'Sr3 H225 C144 Br3 O129'
_cell_volume   5979.41591819
_cell_formula_units_Z   3
loop_
 _symmetry_equiv_pos_site_id
 _symmetry_equiv_pos_as_xyz
  1  'x, y, z'
loop_
 _atom_site_type_symbol
 _atom_site_label
 _atom_site_symmetry_multiplicity
 _atom_site_fract_x
 _atom_site_fract_y
 _atom_site_fract_z
 _atom_site_occupancy
 _atom_site_charge
  Sr  Sr1  1  0.580790  0.254920  0.712290  1.0  1.5209
  Sr  Sr2  1  0.674130  0.419210  0.045620  1.0  1.5175
  Sr  Sr3  1  0.745080  0.325870  0.378960  1.0  1.5222
  H  H4  1  0.437100  0.182700  0.992600  1.0  0.346
  H  H5  1  0.004000  0.767900  0.941700  1.0  0.0973
  H  H6  1  0.128300  0.174900  0.936600  1.0  0.1114
  H  H7  1  0.953500  0.198800  0.974800  1.0  0.2982
  H  H8  1  0.659800  0.588200  0.940600  1.0  0.1165
  H  H9  1  0.946100  0.061200  0.825200  1.0  0.1077
  H  H10  1  0.049200  0.234700  0.875100  1.0  0.1125
  H  H11  1  0.055500  0.913200  0.885300  1.0  0.1209
  H  H12  1  0.412000  0.530300  0.734500  1.0  0.1097
  H  H13  1  0.500700  0.545700  0.766400  1.0  0.1153
  H  H14  1  0.210300  0.597700  0.944300  1.0  0.1135
  H  H15  1  0.938500  0.071100  0.936600  1.0  0.1093
  H  H16  1  0.770600  0.296000  0.855100  1.0  0.1524
  H  H17  1  0.034800  0.521200  0.898300  1.0  0.104
  H  H18  1  0.069800  0.286800  0.756200  1.0  0.273
  H  H19  1  0.295700  0.846800  0.954200  1.0  0.1061
  H  H20  1  0.897500  0.654400  0.883400  1.0  0.1236
  H  H21  1  0.299600  0.873300  0.838000  1.0  0.108
  H  H22  1  0.655000  0.433400  0.893200  1.0  0.1172
  H  H23  1  0.889200  0.839400  0.946900  1.0  0.114
  H  H24  1  0.804700  0.186800  0.934900  1.0  0.1059
  H  H25  1  0.281600  0.040600  0.911000  1.0  0.1271
  H  H26  1  0.108600  0.111500  0.016800  1.0  0.3135
  H  H27  1  0.525300  0.400400  0.844300  1.0  0.1226
  H  H28  1  0.406200  0.131500  0.886000  1.0  0.1404
  H  H29  1  0.649500  0.634300  0.839200  1.0  0.1063
  H  H30  1  0.525800  0.103400  0.957600  1.0  0.1133
  H  H31  1  0.774000  0.572800  0.855500  1.0  0.1721
  H  H32  1  0.916300  0.360600  0.889400  1.0  0.1014
  H  H33  1  0.178500  0.917000  0.962200  1.0  0.1065
  H  H34  1  0.682100  0.648600  0.739400  1.0  0.1102
  H  H35  1  0.772100  0.708800  0.774600  1.0  0.091
  H  H36  1  0.986000  0.296100  0.835100  1.0  0.1152
  H  H37  1  0.657200  0.295900  0.863600  1.0  0.1254
  H  H38  1  0.536300  0.267300  0.923300  1.0  0.1067
  H  H39  1  0.259700  0.322100  0.895300  1.0  0.111
  H  H40  1  0.403700  0.548700  0.839100  1.0  0.1072
  H  H41  1  0.075700  0.656300  0.852800  1.0  0.1261
  H  H42  1  0.128200  0.780800  0.893200  1.0  0.1234
  H  H43  1  0.405700  0.386800  0.853200  1.0  0.1312
  H  H44  1  0.024500  0.130300  0.735800  1.0  0.0872
  H  H45  1  0.959900  0.165600  0.756100  1.0  0.0968
  H  H46  1  0.119700  0.050300  0.889200  1.0  0.117
  H  H47  1  0.973300  0.935100  0.768200  1.0  0.1185
  H  H48  1  0.045800  0.906100  0.777800  1.0  0.1104
  H  H49  1  0.382500  0.492900  0.940700  1.0  0.1035
  H  H50  1  0.880300  0.834700  0.835100  1.0  0.1043
  H  H51  1  0.180700  0.380500  0.851000  1.0  0.1292
  H  H52  1  0.187300  0.772900  0.772400  1.0  0.0938
  H  H53  1  0.126300  0.814300  0.788900  1.0  0.0886
  H  H54  1  0.392000  0.004100  0.788300  1.0  0.1062
  H  H55  1  0.400300  0.099000  0.780200  1.0  0.1213
  H  H56  1  0.268600  0.649500  0.837300  1.0  0.1142
  H  H57  1  0.739400  0.142300  0.736900  1.0  0.1271
  H  H58  1  0.656800  0.120700  0.778200  1.0  0.1294
  H  H59  1  0.133800  0.465200  0.853100  1.0  0.1171
  H  H60  1  0.243900  0.613200  0.734500  1.0  0.1181
  H  H61  1  0.292700  0.569200  0.768200  1.0  0.0964
  H  H62  1  0.765100  0.130100  0.837600  1.0  0.1145
  H  H63  1  0.843800  0.686100  0.985600  1.0  0.4249
  H  H64  1  0.763500  0.564200  0.761200  1.0  0.3941
  H  H65  1  0.218300  0.770900  0.020000  1.0  0.3213
  H  H66  1  0.007500  0.306600  0.936400  1.0  0.303
  H  H67  1  0.832500  0.338100  0.974700  1.0  0.4189
  H  H68  1  0.126500  0.461700  0.768600  1.0  0.3899
  H  H69  1  0.110400  0.656000  0.972300  1.0  0.3264
  H  H70  1  0.469100  0.422100  0.734700  1.0  0.2674
  H  H71  1  0.078000  0.436300  0.957700  1.0  0.312
  H  H72  1  0.262600  0.999800  0.025300  1.0  0.2622
  H  H73  1  0.027100  0.947100  0.988000  1.0  0.3683
  H  H74  1  0.356700  0.372800  0.995900  1.0  0.4133
  H  H75  1  0.928100  0.773100  0.740000  1.0  0.4054
  H  H76  1  0.218500  0.410700  0.971600  1.0  0.3291
  H  H77  1  0.518800  0.064200  0.847200  1.0  0.1142
  H  H78  1  0.198200  0.876000  0.707400  1.0  0.4105
  H  H79  1  0.745600  0.562900  0.325930  1.0  0.3452
  H  H80  1  0.763900  0.996000  0.275030  1.0  0.0986
  H  H81  1  0.046600  0.871700  0.269930  1.0  0.1132
  H  H82  1  0.245300  0.046500  0.308130  1.0  0.2942
  H  H83  1  0.928400  0.340200  0.273930  1.0  0.1168
  H  H84  1  0.115100  0.053900  0.158530  1.0  0.1071
  H  H85  1  0.185500  0.950800  0.208430  1.0  0.1135
  H  H86  1  0.857700  0.944500  0.218630  1.0  0.1165
  H  H87  1  0.118300  0.588000  0.067830  1.0  0.1103
  H  H88  1  0.045000  0.499300  0.099730  1.0  0.117
  H  H89  1  0.387400  0.789700  0.277630  1.0  0.1158
  H  H90  1  0.132600  0.061500  0.269930  1.0  0.1086
  H  H91  1  0.525400  0.229400  0.188430  1.0  0.152
  H  H92  1  0.486400  0.965200  0.231630  1.0  0.1041
  H  H93  1  0.217000  0.930200  0.089530  1.0  0.2739
  H  H94  1  0.551100  0.704300  0.287530  1.0  0.1038
  H  H95  1  0.756900  0.102500  0.216730  1.0  0.1281
  H  H96  1  0.573700  0.700400  0.171330  1.0  0.105
  H  H97  1  0.778400  0.345000  0.226530  1.0  0.1166
  H  H98  1  0.950200  0.110800  0.280230  1.0  0.1132
  H  H99  1  0.382100  0.195300  0.268230  1.0  0.1033
  H  H100  1  0.759000  0.718400  0.244330  1.0  0.1321
  H  H101  1  0.002900  0.891400  0.350130  1.0  0.314
  H  H102  1  0.875100  0.474700  0.177630  1.0  0.1239
  H  H103  1  0.725300  0.593800  0.219330  1.0  0.141
  H  H104  1  0.984800  0.350500  0.172530  1.0  0.1068
  H  H105  1  0.577600  0.474200  0.290930  1.0  0.1126
  H  H106  1  0.798800  0.226000  0.188830  1.0  0.1701
  H  H107  1  0.444300  0.083700  0.222730  1.0  0.102
  H  H108  1  0.738500  0.821500  0.295530  1.0  0.1086
  H  H109  1  0.966500  0.317900  0.072730  1.0  0.1089
  H  H110  1  0.936700  0.227900  0.107930  1.0  0.0927
  H  H111  1  0.310100  0.014000  0.168430  1.0  0.1172
  H  H112  1  0.638700  0.342800  0.196930  1.0  0.1261
  H  H113  1  0.731000  0.463700  0.256630  1.0  0.1059
  H  H114  1  0.062400  0.740300  0.228630  1.0  0.1112
  H  H115  1  0.145000  0.596300  0.172430  1.0  0.1101
  H  H116  1  0.580600  0.924300  0.186130  1.0  0.1261
  H  H117  1  0.652600  0.871800  0.226530  1.0  0.1239
  H  H118  1  0.981100  0.594300  0.186530  1.0  0.133
  H  H119  1  0.105800  0.975500  0.069130  1.0  0.0879
  H  H120  1  0.205700  0.040100  0.089430  1.0  0.0994
  H  H121  1  0.930600  0.880300  0.222530  1.0  0.1158
  H  H122  1  0.961800  0.026700  0.101530  1.0  0.1159
  H  H123  1  0.860300  0.954200  0.111130  1.0  0.1137
  H  H124  1  0.110400  0.617500  0.274030  1.0  0.1057
  H  H125  1  0.954400  0.119700  0.168430  1.0  0.1048
  H  H126  1  0.199800  0.819300  0.184330  1.0  0.1292
  H  H127  1  0.585600  0.812700  0.105730  1.0  0.0915
  H  H128  1  0.688000  0.873700  0.122230  1.0  0.0977
  H  H129  1  0.612100  0.608000  0.121630  1.0  0.1084
  H  H130  1  0.698700  0.599700  0.113530  1.0  0.1238
  H  H131  1  0.380900  0.731400  0.170630  1.0  0.1147
  H  H132  1  0.402900  0.260600  0.070230  1.0  0.1278
  H  H133  1  0.463900  0.343200  0.111530  1.0  0.1307
  H  H134  1  0.331400  0.866200  0.186430  1.0  0.1187
  H  H135  1  0.369300  0.756100  0.067830  1.0  0.1173
  H  H136  1  0.276500  0.707300  0.101530  1.0  0.097
  H  H137  1  0.365000  0.234900  0.170930  1.0  0.1165
  H  H138  1  0.842300  0.156200  0.318930  1.0  0.4232
  H  H139  1  0.800700  0.236500  0.094530  1.0  0.3943
  H  H140  1  0.552600  0.781700  0.353330  1.0  0.3205
  H  H141  1  0.299100  0.992500  0.269730  1.0  0.3025
  H  H142  1  0.505600  0.167500  0.308030  1.0  0.4202
  H  H143  1  0.335200  0.873500  0.101930  1.0  0.391
  H  H144  1  0.545600  0.889600  0.305630  1.0  0.3244
  H  H145  1  0.953000  0.530900  0.068030  1.0  0.2658
  H  H146  1  0.358300  0.922000  0.291030  1.0  0.3136
  H  H147  1  0.737200  0.737400  0.358630  1.0  0.2617
  H  H148  1  0.920000  0.972900  0.321330  1.0  0.3685
  H  H149  1  0.016100  0.643300  0.329230  1.0  0.4118
  H  H150  1  0.845000  0.071900  0.073330  1.0  0.4082
  H  H151  1  0.192200  0.781500  0.304930  1.0  0.3323
  H  H152  1  0.545400  0.481200  0.180530  1.0  0.1125
  H  H153  1  0.677800  0.801800  0.040730  1.0  0.4115
  H  H154  1  0.817300  0.254400  0.659270  1.0  0.3445
  H  H155  1  0.232100  0.236100  0.608370  1.0  0.0987
  H  H156  1  0.825100  0.953400  0.603270  1.0  0.1073
  H  H157  1  0.801200  0.754700  0.641470  1.0  0.296
  H  H158  1  0.411800  0.071600  0.607270  1.0  0.1165
  H  H159  1  0.938800  0.884900  0.491870  1.0  0.1079
  H  H160  1  0.765300  0.814500  0.541770  1.0  0.1143
  H  H161  1  0.086800  0.142300  0.551970  1.0  0.1164
  H  H162  1  0.469700  0.881700  0.401170  1.0  0.1106
  H  H163  1  0.454300  0.955000  0.433070  1.0  0.1137
  H  H164  1  0.402300  0.612600  0.610970  1.0  0.1128
  H  H165  1  0.928900  0.867400  0.603270  1.0  0.1084
  H  H166  1  0.704000  0.474600  0.521770  1.0  0.1522
  H  H167  1  0.478800  0.513600  0.564970  1.0  0.1027
  H  H168  1  0.713200  0.783000  0.422870  1.0  0.2741
  H  H169  1  0.153200  0.448900  0.620870  1.0  0.1097
  H  H170  1  0.345600  0.243100  0.550070  1.0  0.1211
  H  H171  1  0.126700  0.426300  0.504670  1.0  0.104
  H  H172  1  0.566600  0.221600  0.559870  1.0  0.1162
  H  H173  1  0.160600  0.049800  0.613570  1.0  0.114
  H  H174  1  0.813200  0.617900  0.601570  1.0  0.1051
  H  H175  1  0.959400  0.241000  0.577670  1.0  0.1249
  H  H176  1  0.888500  0.997100  0.683470  1.0  0.3135
  H  H177  1  0.599600  0.124900  0.510970  1.0  0.1231
  H  H178  1  0.868500  0.274700  0.552670  1.0  0.1386
  H  H179  1  0.365700  0.015200  0.505870  1.0  0.1096
  H  H180  1  0.896600  0.422400  0.624270  1.0  0.1095
  H  H181  1  0.427200  0.201200  0.522170  1.0  0.1698
  H  H182  1  0.639400  0.555700  0.556070  1.0  0.1018
  H  H183  1  0.083000  0.261500  0.628870  1.0  0.11
  H  H184  1  0.351400  0.033500  0.406070  1.0  0.1085
  H  H185  1  0.291200  0.063300  0.441270  1.0  0.0893
  H  H186  1  0.703900  0.689900  0.501770  1.0  0.1146
  H  H187  1  0.704100  0.361300  0.530270  1.0  0.1257
  H  H188  1  0.732700  0.269000  0.589970  1.0  0.1073
  H  H189  1  0.677900  0.937600  0.561970  1.0  0.1148
  H  H190  1  0.451300  0.855000  0.505770  1.0  0.1088
  H  H191  1  0.343700  0.419400  0.519470  1.0  0.1264
  H  H192  1  0.219200  0.347400  0.559870  1.0  0.1255
  H  H193  1  0.613200  0.018900  0.519870  1.0  0.1332
  H  H194  1  0.869700  0.894200  0.402470  1.0  0.0872
  H  H195  1  0.834400  0.794300  0.422770  1.0  0.1003
  H  H196  1  0.949700  0.069400  0.555870  1.0  0.1164
  H  H197  1  0.064900  0.038200  0.434870  1.0  0.1175
  H  H198  1  0.093900  0.139700  0.444470  1.0  0.1121
  H  H199  1  0.507100  0.889600  0.607370  1.0  0.1072
  H  H200  1  0.165300  0.045600  0.501770  1.0  0.1069
  H  H201  1  0.619500  0.800200  0.517670  1.0  0.1298
  H  H202  1  0.227100  0.414400  0.439070  1.0  0.0939
  H  H203  1  0.185700  0.312000  0.455570  1.0  0.0992
  H  H204  1  0.995900  0.387900  0.454970  1.0  0.1072
  H  H205  1  0.901000  0.301300  0.446870  1.0  0.1228
  H  H206  1  0.350500  0.619100  0.503970  1.0  0.1122
  H  H207  1  0.857700  0.597100  0.403570  1.0  0.128
  H  H208  1  0.879300  0.536100  0.444870  1.0  0.1251
  H  H209  1  0.534800  0.668600  0.519770  1.0  0.1211
  H  H210  1  0.386800  0.630700  0.401170  1.0  0.1171
  H  H211  1  0.430800  0.723500  0.434870  1.0  0.0974
  H  H212  1  0.869900  0.635000  0.504270  1.0  0.115
  H  H213  1  0.313900  0.157700  0.652270  1.0  0.4256
  H  H214  1  0.435800  0.199300  0.427870  1.0  0.3932
  H  H215  1  0.229100  0.447400  0.686670  1.0  0.32
  H  H216  1  0.693400  0.700900  0.603070  1.0  0.304
  H  H217  1  0.661900  0.494400  0.641370  1.0  0.42
  H  H218  1  0.538300  0.664800  0.435270  1.0  0.3931
  H  H219  1  0.344000  0.454400  0.638970  1.0  0.3252
  H  H220  1  0.577900  0.047000  0.401370  1.0  0.2659
  H  H221  1  0.563700  0.641700  0.624370  1.0  0.3125
  H  H222  1  0.000200  0.262800  0.691970  1.0  0.2602
  H  H223  1  0.052900  0.080000  0.654670  1.0  0.3686
  H  H224  1  0.627200  0.983900  0.662570  1.0  0.4127
  H  H225  1  0.226900  0.155000  0.406670  1.0  0.4056
  H  H226  1  0.589300  0.807800  0.638270  1.0  0.328
  H  H227  1  0.935800  0.454600  0.513870  1.0  0.114
  H  H228  1  0.124000  0.322200  0.374070  1.0  0.4099
  C  C229  1  0.942900  0.759000  0.942000  1.0  0.1348
  C  C230  1  0.072700  0.116300  0.938700  1.0  0.1002
  C  C231  1  0.690500  0.557000  0.925200  1.0  0.1202
  C  C232  1  0.001900  0.119700  0.826100  1.0  0.1153
  C  C233  1  0.996900  0.173700  0.876200  1.0  0.1308
  C  C234  1  0.992700  0.899500  0.887500  1.0  0.1118
  C  C235  1  0.436400  0.504500  0.762600  1.0  0.0685
  C  C236  1  0.157000  0.545500  0.927300  1.0  0.1295
  C  C237  1  0.993600  0.130200  0.935300  1.0  0.1032
  C  C238  1  0.754500  0.235900  0.869900  1.0  0.0851
  C  C239  1  0.089700  0.574300  0.912700  1.0  0.1141
  C  C240  1  0.234600  0.837900  0.953200  1.0  0.1328
  C  C241  1  0.896700  0.711200  0.885400  1.0  -0.0364
  C  C242  1  0.238100  0.862300  0.842400  1.0  0.1115
  C  C243  1  0.622400  0.463000  0.908100  1.0  0.091
  C  C244  1  0.949900  0.847800  0.943600  1.0  0.1334
  C  C245  1  0.814800  0.246200  0.923000  1.0  0.1217
  C  C246  1  0.284700  0.985200  0.906600  1.0  -0.0209
  C  C247  1  0.564100  0.462600  0.858100  1.0  -0.0246
  C  C248  1  0.437100  0.097600  0.894500  1.0  0.096
  C  C249  1  0.681000  0.604000  0.823400  1.0  0.1272
  C  C250  1  0.496600  0.138400  0.947500  1.0  0.1221
  C  C251  1  0.743800  0.604500  0.870900  1.0  0.1074
  C  C252  1  0.908800  0.303000  0.903300  1.0  0.1538
  C  C253  1  0.240100  0.927400  0.960000  1.0  0.0993
  C  C254  1  0.725800  0.647000  0.766500  1.0  0.0676
  C  C255  1  0.924600  0.257300  0.850100  1.0  -0.0337
  C  C256  1  0.615500  0.233300  0.875100  1.0  -0.0296
  C  C257  1  0.566900  0.232900  0.931300  1.0  0.0757
  C  C258  1  0.271000  0.380700  0.910400  1.0  0.1288
  C  C259  1  0.391400  0.490200  0.823200  1.0  0.113
  C  C260  1  0.123200  0.642700  0.863400  1.0  -0.0118
  C  C261  1  0.191700  0.796900  0.892400  1.0  0.1044
  C  C262  1  0.420100  0.446200  0.868500  1.0  0.1041
  C  C263  1  0.014400  0.164600  0.766600  1.0  0.0628
  C  C264  1  0.068900  0.061100  0.886700  1.0  -0.0227
  C  C265  1  0.981500  0.883900  0.775800  1.0  0.0442
  C  C266  1  0.368400  0.433800  0.924900  1.0  0.1415
  C  C267  1  0.942000  0.845400  0.833700  1.0  0.083
  C  C268  1  0.243800  0.421400  0.861900  1.0  -0.0234
  C  C269  1  0.188200  0.828000  0.783900  1.0  0.0531
  C  C270  1  0.434400  0.068100  0.784700  1.0  0.0931
  C  C271  1  0.215400  0.595000  0.822400  1.0  0.0982
  C  C272  1  0.717700  0.166900  0.767800  1.0  -0.0117
  C  C273  1  0.185300  0.520000  0.869300  1.0  0.1131
  C  C274  1  0.236000  0.568800  0.764700  1.0  0.0382
  C  C275  1  0.774200  0.187100  0.820900  1.0  0.0649
  C  C276  1  0.489800  0.100200  0.839900  1.0  0.1116
  C  C277  1  0.816100  0.057100  0.275330  1.0  0.131
  C  C278  1  0.043600  0.927300  0.272030  1.0  0.1063
  C  C279  1  0.866500  0.309500  0.258530  1.0  0.1196
  C  C280  1  0.117800  0.998100  0.159430  1.0  0.1129
  C  C281  1  0.176800  0.003100  0.209530  1.0  0.1296
  C  C282  1  0.906800  0.007300  0.220830  1.0  0.1098
  C  C283  1  0.068100  0.563600  0.095930  1.0  0.0664
  C  C284  1  0.388500  0.843000  0.260630  1.0  0.1311
  C  C285  1  0.136600  0.006400  0.268630  1.0  0.1013
  C  C286  1  0.481400  0.245500  0.203230  1.0  0.0881
  C  C287  1  0.484600  0.910300  0.246030  1.0  0.117
  C  C288  1  0.603300  0.765400  0.286530  1.0  0.1307
  C  C289  1  0.814500  0.103300  0.218730  1.0  -0.0413
  C  C290  1  0.624200  0.761900  0.175730  1.0  0.1102
  C  C291  1  0.840600  0.377600  0.241430  1.0  0.0905
  C  C292  1  0.897900  0.050100  0.276930  1.0  0.135
  C  C293  1  0.431400  0.185200  0.256330  1.0  0.1209
  C  C294  1  0.700500  0.715300  0.239930  1.0  -0.0218
  C  C295  1  0.898500  0.435900  0.191430  1.0  -0.024
  C  C296  1  0.660500  0.562900  0.227830  1.0  0.0954
  C  C297  1  0.923000  0.319000  0.156730  1.0  0.1248
  C  C298  1  0.641800  0.503400  0.280830  1.0  0.1203
  C  C299  1  0.860700  0.256200  0.204230  1.0  0.1065
  C  C300  1  0.394200  0.091200  0.236630  1.0  0.1509
  C  C301  1  0.687300  0.759900  0.293330  1.0  0.1004
  C  C302  1  0.921200  0.274200  0.099830  1.0  0.065
  C  C303  1  0.332700  0.075400  0.183430  1.0  -0.0325
  C  C304  1  0.617800  0.384500  0.208430  1.0  -0.0301
  C  C305  1  0.666000  0.433100  0.264630  1.0  0.0783
  C  C306  1  0.109700  0.729000  0.243730  1.0  0.1277
  C  C307  1  0.098800  0.608600  0.156530  1.0  0.1135
  C  C308  1  0.519500  0.876800  0.196730  1.0  -0.0077
  C  C309  1  0.605200  0.808300  0.225730  1.0  0.1046
  C  C310  1  0.026100  0.579900  0.201830  1.0  0.105
  C  C311  1  0.150200  0.985600  0.099930  1.0  0.0607
  C  C312  1  0.992200  0.931100  0.220030  1.0  -0.0196
  C  C313  1  0.902400  0.018500  0.109130  1.0  0.0464
  C  C314  1  0.065400  0.631600  0.258230  1.0  0.1452
  C  C315  1  0.903400  0.058000  0.167030  1.0  0.083
  C  C316  1  0.177600  0.756200  0.195230  1.0  -0.0235
  C  C317  1  0.639800  0.811800  0.117230  1.0  0.0532
  C  C318  1  0.633700  0.565600  0.118030  1.0  0.0936
  C  C319  1  0.379600  0.784600  0.155730  1.0  0.0933
  C  C320  1  0.449200  0.282300  0.101130  1.0  -0.014
  C  C321  1  0.334700  0.814700  0.202630  1.0  0.1131
  C  C322  1  0.332800  0.764000  0.098030  1.0  0.0338
  C  C323  1  0.412900  0.225800  0.154230  1.0  0.0664
  C  C324  1  0.610400  0.510200  0.173230  1.0  0.1096
  C  C325  1  0.241000  0.183900  0.608670  1.0  0.1343
  C  C326  1  0.883700  0.956400  0.605370  1.0  0.1027
  C  C327  1  0.443000  0.133500  0.591870  1.0  0.1202
  C  C328  1  0.880300  0.882200  0.492770  1.0  0.1169
  C  C329  1  0.826300  0.823200  0.542870  1.0  0.1295
  C  C330  1  0.100500  0.093200  0.554170  1.0  0.1118
  C  C331  1  0.495500  0.931900  0.429270  1.0  0.067
  C  C332  1  0.454500  0.611500  0.593970  1.0  0.1296
  C  C333  1  0.869800  0.863400  0.601970  1.0  0.1042
  C  C334  1  0.764100  0.518600  0.536570  1.0  0.0869
  C  C335  1  0.425700  0.515400  0.579370  1.0  0.1145
  C  C336  1  0.162100  0.396700  0.619870  1.0  0.1306
  C  C337  1  0.288800  0.185500  0.552070  1.0  -0.0374
  C  C338  1  0.137700  0.375800  0.509070  1.0  0.1107
  C  C339  1  0.537000  0.159400  0.574770  1.0  0.091
  C  C340  1  0.152200  0.102100  0.610270  1.0  0.135
  C  C341  1  0.753800  0.568600  0.589670  1.0  0.1193
  C  C342  1  0.014800  0.299500  0.573270  1.0  -0.0241
  C  C343  1  0.537400  0.101500  0.524770  1.0  -0.0254
  C  C344  1  0.902400  0.339500  0.561170  1.0  0.0954
  C  C345  1  0.396000  0.077000  0.490070  1.0  0.1301
  C  C346  1  0.861600  0.358200  0.614170  1.0  0.1233
  C  C347  1  0.395500  0.139300  0.537570  1.0  0.1076
  C  C348  1  0.697000  0.605800  0.569970  1.0  0.1527
  C  C349  1  0.072600  0.312700  0.626670  1.0  0.1002
  C  C350  1  0.353000  0.078800  0.433170  1.0  0.0665
  C  C351  1  0.742700  0.667300  0.516770  1.0  -0.0327
  C  C352  1  0.766700  0.382200  0.541770  1.0  -0.0298
  C  C353  1  0.767100  0.334000  0.597970  1.0  0.0773
  C  C354  1  0.619300  0.890300  0.577070  1.0  0.1305
  C  C355  1  0.509800  0.901200  0.489870  1.0  0.1132
  C  C356  1  0.357300  0.480500  0.530070  1.0  -0.0113
  C  C357  1  0.203100  0.394800  0.559070  1.0  0.1046
  C  C358  1  0.553800  0.973900  0.535170  1.0  0.1048
  C  C359  1  0.835400  0.849800  0.433270  1.0  0.0607
  C  C360  1  0.938900  0.007800  0.553370  1.0  -0.0236
  C  C361  1  0.116100  0.097600  0.442470  1.0  0.0464
  C  C362  1  0.566200  0.934600  0.591570  1.0  0.1408
  C  C363  1  0.154600  0.096600  0.500370  1.0  0.0827
  C  C364  1  0.578600  0.822400  0.528570  1.0  -0.0233
  C  C365  1  0.172000  0.360200  0.450570  1.0  0.0527
  C  C366  1  0.931900  0.366300  0.451370  1.0  0.094
  C  C367  1  0.405000  0.620400  0.489070  1.0  0.0986
  C  C368  1  0.833100  0.550800  0.434470  1.0  -0.0138
  C  C369  1  0.480000  0.665300  0.535970  1.0  0.1136
  C  C370  1  0.431200  0.667200  0.431370  1.0  0.0366
  C  C371  1  0.812900  0.587100  0.487570  1.0  0.066
  C  C372  1  0.899800  0.389600  0.506570  1.0  0.1105
  Br  Br373  1  0.877870  0.489940  0.829970  1.0  -0.3557
  Br  Br374  1  0.612070  0.122130  0.163300  1.0  -0.3552
  Br  Br375  1  0.510060  0.387930  0.496640  1.0  -0.3553
  O  O376  1  0.556600  0.191300  0.828300  1.0  -0.3361
  O  O377  1  0.864300  0.238800  0.803000  1.0  -0.2559
  O  O378  1  0.917000  0.177500  0.871100  1.0  -0.2886
  O  O379  1  0.074900  0.105400  0.833000  1.0  -0.3139
  O  O380  1  0.551000  0.372200  0.658400  1.0  -0.485
  O  O381  1  0.448800  0.141900  0.997300  1.0  -0.5216
  O  O382  1  0.664600  0.191900  0.887800  1.0  -0.2681
  O  O383  1  0.990600  0.183100  0.982700  1.0  -0.5131
  O  O384  1  0.678100  0.397200  0.768000  1.0  -0.2442
  O  O385  1  0.463100  0.280600  0.764000  1.0  -0.2601
  O  O386  1  0.086600  0.251900  0.767700  1.0  -0.5042
  O  O387  1  0.070700  0.074200  0.993600  1.0  -0.4925
  O  O388  1  0.715300  0.241200  0.744000  1.0  -0.5294
  O  O389  1  0.898300  0.706400  0.989900  1.0  -0.4945
  O  O390  1  0.764700  0.602600  0.738200  1.0  -0.5272
  O  O391  1  0.617900  0.514800  0.809400  1.0  -0.2713
  O  O392  1  0.808500  0.691600  0.887400  1.0  -0.2566
  O  O393  1  0.742900  0.551000  0.970400  1.0  -0.5676
  O  O394  1  0.939600  0.761600  0.835200  1.0  -0.2934
  O  O395  1  0.240300  0.943200  0.853800  1.0  -0.2762
  O  O396  1  0.185000  0.779500  0.997600  1.0  -0.4998
  O  O397  1  0.970500  0.320600  0.948000  1.0  -0.5222
  O  O398  1  0.628800  0.275900  0.978600  1.0  -0.4821
  O  O399  1  0.793300  0.284800  0.971300  1.0  -0.5261
  O  O400  1  0.989900  0.979700  0.889800  1.0  -0.2817
  O  O401  1  0.372700  0.008300  0.907300  1.0  -0.2565
  O  O402  1  0.168800  0.482700  0.744600  1.0  -0.5408
  O  O403  1  0.145900  0.612400  0.813200  1.0  -0.259
  O  O404  1  0.196600  0.719700  0.885000  1.0  -0.2775
  O  O405  1  0.569300  0.412700  0.957300  1.0  -0.5312
  O  O406  1  0.253800  0.501900  0.882600  1.0  -0.2728
  O  O407  1  0.067000  0.607400  0.962200  1.0  -0.524
  O  O408  1  0.510700  0.495100  0.880400  1.0  -0.2554
  O  O409  1  0.299100  0.437900  0.810600  1.0  -0.2906
  O  O410  1  0.420600  0.419800  0.740700  1.0  -0.5176
  O  O411  1  0.127400  0.478000  0.968300  1.0  -0.5099
  O  O412  1  0.283600  0.969200  0.012200  1.0  -0.4855
  O  O413  1  0.998400  0.892600  0.994700  1.0  -0.5183
  O  O414  1  0.488100  0.083700  0.733600  1.0  -0.5735
  O  O415  1  0.392600  0.389700  0.967600  1.0  -0.5377
  O  O416  1  0.945900  0.824800  0.728000  1.0  -0.5303
  O  O417  1  0.215000  0.363400  0.960100  1.0  -0.5098
  O  O418  1  0.229800  0.892700  0.738000  1.0  -0.5236
  O  O419  1  0.634700  0.443400  0.161630  1.0  -0.3351
  O  O420  1  0.374500  0.135700  0.136330  1.0  -0.2573
  O  O421  1  0.260500  0.083000  0.204430  1.0  -0.289
  O  O422  1  0.030500  0.925100  0.166330  1.0  -0.3169
  O  O423  1  0.821200  0.449000  0.991730  1.0  -0.4848
  O  O424  1  0.693100  0.551200  0.330630  1.0  -0.5216
  O  O425  1  0.527300  0.335400  0.221130  1.0  -0.2644
  O  O426  1  0.192500  0.009400  0.316030  1.0  -0.5171
  O  O427  1  0.719100  0.321900  0.101330  1.0  -0.2445
  O  O428  1  0.817500  0.536900  0.097330  1.0  -0.2584
  O  O429  1  0.165300  0.913400  0.101030  1.0  -0.5071
  O  O430  1  0.003500  0.929300  0.326930  1.0  -0.4956
  O  O431  1  0.525900  0.284700  0.077330  1.0  -0.5291
  O  O432  1  0.808100  0.101700  0.323230  1.0  -0.498
  O  O433  1  0.837900  0.235300  0.071530  1.0  -0.5267
  O  O434  1  0.896900  0.382100  0.142730  1.0  -0.2717
  O  O435  1  0.883100  0.191500  0.220730  1.0  -0.2579
  O  O436  1  0.808100  0.257100  0.303730  1.0  -0.5684
  O  O437  1  0.822000  0.060400  0.168530  1.0  -0.2907
  O  O438  1  0.702900  0.759700  0.187130  1.0  -0.2745
  O  O439  1  0.594500  0.815000  0.330930  1.0  -0.4999
  O  O440  1  0.350100  0.029500  0.281330  1.0  -0.5219
  O  O441  1  0.647100  0.371200  0.311930  1.0  -0.4824
  O  O442  1  0.491500  0.206700  0.304630  1.0  -0.5268
  O  O443  1  0.989800  0.010100  0.223130  1.0  -0.2805
  O  O444  1  0.635600  0.627300  0.240630  1.0  -0.2612
  O  O445  1  0.313900  0.831200  0.077930  1.0  -0.5396
  O  O446  1  0.466500  0.854100  0.146530  1.0  -0.2569
  O  O447  1  0.523100  0.803400  0.218330  1.0  -0.2826
  O  O448  1  0.843400  0.430700  0.290630  1.0  -0.5295
  O  O449  1  0.248100  0.746200  0.215930  1.0  -0.2727
  O  O450  1  0.540400  0.933000  0.295530  1.0  -0.523
  O  O451  1  0.984400  0.489300  0.213730  1.0  -0.2523
  O  O452  1  0.138800  0.700900  0.143930  1.0  -0.2902
  O  O453  1  0.999200  0.579400  0.074030  1.0  -0.5196
  O  O454  1  0.350600  0.872600  0.301630  1.0  -0.5114
  O  O455  1  0.685600  0.716400  0.345530  1.0  -0.4859
  O  O456  1  0.894200  0.001600  0.328030  1.0  -0.518
  O  O457  1  0.595600  0.511900  0.066930  1.0  -0.5709
  O  O458  1  0.997100  0.607400  0.300930  1.0  -0.5406
  O  O459  1  0.878900  0.054100  0.061330  1.0  -0.5279
  O  O460  1  0.148400  0.785000  0.293430  1.0  -0.5069
  O  O461  1  0.662900  0.770200  0.071330  1.0  -0.5233
  O  O462  1  0.808700  0.365300  0.494970  1.0  -0.3354
  O  O463  1  0.761200  0.625500  0.469670  1.0  -0.2577
  O  O464  1  0.822500  0.739500  0.537770  1.0  -0.2862
  O  O465  1  0.894600  0.969500  0.499670  1.0  -0.3164
  O  O466  1  0.627800  0.178800  0.325070  1.0  -0.4859
  O  O467  1  0.858100  0.306900  0.663970  1.0  -0.5256
  O  O468  1  0.808100  0.472700  0.554470  1.0  -0.2643
  O  O469  1  0.816900  0.807500  0.649370  1.0  -0.5175
  O  O470  1  0.602800  0.280900  0.434670  1.0  -0.2462
  O  O471  1  0.719400  0.182500  0.430670  1.0  -0.2595
  O  O472  1  0.748100  0.834700  0.434370  1.0  -0.5071
  O  O473  1  0.925800  0.996500  0.660270  1.0  -0.4935
  O  O474  1  0.758800  0.474100  0.410670  1.0  -0.5293
  O  O475  1  0.293600  0.191900  0.656570  1.0  -0.4964
  O  O476  1  0.397400  0.162100  0.404870  1.0  -0.5261
  O  O477  1  0.485200  0.103100  0.476070  1.0  -0.2712
  O  O478  1  0.308400  0.116900  0.554070  1.0  -0.2577
  O  O479  1  0.449000  0.191900  0.637070  1.0  -0.5689
  O  O480  1  0.238400  0.178000  0.501870  1.0  -0.2934
  O  O481  1  0.056800  0.297100  0.520470  1.0  -0.2773
  O  O482  1  0.220500  0.405500  0.664270  1.0  -0.5
  O  O483  1  0.679400  0.649900  0.614670  1.0  -0.5245
  O  O484  1  0.724100  0.352900  0.645270  1.0  -0.4812
  O  O485  1  0.715200  0.508500  0.637970  1.0  -0.5221
  O  O486  1  0.020300  0.010200  0.556470  1.0  -0.2798
  O  O487  1  0.991700  0.364400  0.573970  1.0  -0.2577
  O  O488  1  0.517300  0.686100  0.411270  1.0  -0.5426
  O  O489  1  0.387600  0.533500  0.479870  1.0  -0.2598
  O  O490  1  0.280300  0.476900  0.551670  1.0  -0.2815
  O  O491  1  0.587300  0.156600  0.623970  1.0  -0.5304
  O  O492  1  0.498100  0.751900  0.549270  1.0  -0.2716
  O  O493  1  0.392600  0.459600  0.628870  1.0  -0.5199
  O  O494  1  0.504900  0.015600  0.547070  1.0  -0.2574
  O  O495  1  0.562100  0.861200  0.477270  1.0  -0.2891
  O  O496  1  0.580200  0.000800  0.407370  1.0  -0.5181
  O  O497  1  0.522000  0.649400  0.634970  1.0  -0.5097
  O  O498  1  0.030800  0.314400  0.678870  1.0  -0.4884
  O  O499  1  0.107400  0.105800  0.661370  1.0  -0.5163
  O  O500  1  0.916300  0.404400  0.400270  1.0  -0.5732
  O  O501  1  0.610300  0.002900  0.634270  1.0  -0.5405
  O  O502  1  0.175200  0.121100  0.394670  1.0  -0.531
  O  O503  1  0.636600  0.851600  0.626770  1.0  -0.5084
  O  O504  1  0.107300  0.337100  0.404670  1.0  -0.5234
