# generated using pymatgen
data_ZnH8C17(O2F3)2
_symmetry_space_group_name_H-M   'P 1'
_cell_length_a   21.15500000
_cell_length_b   21.15500000
_cell_length_c   7.66320000
_cell_angle_alpha   90.00000000
_cell_angle_beta   90.00000000
_cell_angle_gamma   120.00000000
_symmetry_Int_Tables_number   1
_chemical_formula_structural   ZnH8C17(O2F3)2
_chemical_formula_sum   'Zn6 H48 C102 O24 F36'
_cell_volume   2970.07113653
_cell_formula_units_Z   6
loop_
 _symmetry_equiv_pos_site_id
 _symmetry_equiv_pos_as_xyz
  1  'x, y, z'
loop_
 _atom_site_type_symbol
 _atom_site_label
 _atom_site_symmetry_multiplicity
 _atom_site_fract_x
 _atom_site_fract_y
 _atom_site_fract_z
 _atom_site_occupancy
 _atom_site_charge
  Zn  Zn1  1  0.700230  0.400460  0.000000  1.0  1.0544
  Zn  Zn2  1  0.599540  0.299770  0.333333  1.0  1.0522
  Zn  Zn3  1  0.700230  0.299770  0.666667  1.0  1.052
  Zn  Zn4  1  0.299770  0.599540  0.000000  1.0  1.0541
  Zn  Zn5  1  0.400460  0.700230  0.333333  1.0  1.0525
  Zn  Zn6  1  0.299770  0.700230  0.666667  1.0  1.0517
  H  H7  1  0.849100  0.255800  0.885300  1.0  0.0988
  H  H8  1  0.929800  0.339900  0.442900  1.0  0.1227
  H  H9  1  0.843800  0.361700  0.309200  1.0  0.089
  H  H10  1  0.935000  0.234100  0.013600  1.0  0.1092
  H  H11  1  0.744200  0.593300  0.218630  1.0  0.099
  H  H12  1  0.660100  0.589900  0.776230  1.0  0.1229
  H  H13  1  0.638300  0.482100  0.642530  1.0  0.0894
  H  H14  1  0.765900  0.700900  0.346930  1.0  0.1099
  H  H15  1  0.406700  0.150900  0.551970  1.0  0.0986
  H  H16  1  0.410100  0.070200  0.109570  1.0  0.1235
  H  H17  1  0.517900  0.156200  0.975870  1.0  0.0889
  H  H18  1  0.299100  0.065000  0.680270  1.0  0.1092
  H  H19  1  0.150900  0.744200  0.885300  1.0  0.0988
  H  H20  1  0.070200  0.660100  0.442900  1.0  0.123
  H  H21  1  0.156200  0.638300  0.309200  1.0  0.0892
  H  H22  1  0.065000  0.765900  0.013600  1.0  0.1096
  H  H23  1  0.255800  0.406700  0.218630  1.0  0.0987
  H  H24  1  0.339900  0.410100  0.776230  1.0  0.123
  H  H25  1  0.361700  0.517900  0.642530  1.0  0.0891
  H  H26  1  0.234100  0.299100  0.346930  1.0  0.1095
  H  H27  1  0.593300  0.849100  0.551970  1.0  0.0989
  H  H28  1  0.589900  0.929800  0.109570  1.0  0.1234
  H  H29  1  0.482100  0.843800  0.975870  1.0  0.0888
  H  H30  1  0.700900  0.935000  0.680270  1.0  0.1088
  H  H31  1  0.255800  0.849100  0.448030  1.0  0.0981
  H  H32  1  0.339900  0.929800  0.890430  1.0  0.1244
  H  H33  1  0.361700  0.843800  0.024130  1.0  0.0888
  H  H34  1  0.234100  0.935000  0.319730  1.0  0.1093
  H  H35  1  0.593300  0.744200  0.114700  1.0  0.0984
  H  H36  1  0.589900  0.660100  0.557100  1.0  0.1238
  H  H37  1  0.482100  0.638300  0.690800  1.0  0.0887
  H  H38  1  0.700900  0.765900  0.986400  1.0  0.1093
  H  H39  1  0.150900  0.406700  0.781370  1.0  0.0985
  H  H40  1  0.070200  0.410100  0.223770  1.0  0.1235
  H  H41  1  0.156200  0.517900  0.357470  1.0  0.0897
  H  H42  1  0.065000  0.299100  0.653070  1.0  0.1098
  H  H43  1  0.744200  0.150900  0.448030  1.0  0.0985
  H  H44  1  0.660100  0.070200  0.890430  1.0  0.124
  H  H45  1  0.638300  0.156200  0.024130  1.0  0.0889
  H  H46  1  0.765900  0.065000  0.319730  1.0  0.1093
  H  H47  1  0.406700  0.255800  0.114700  1.0  0.0977
  H  H48  1  0.410100  0.339900  0.557100  1.0  0.1234
  H  H49  1  0.517900  0.361700  0.690800  1.0  0.0892
  H  H50  1  0.299100  0.234100  0.986400  1.0  0.1098
  H  H51  1  0.849100  0.593300  0.781370  1.0  0.0982
  H  H52  1  0.929800  0.589900  0.223770  1.0  0.1236
  H  H53  1  0.843800  0.482100  0.357470  1.0  0.0891
  H  H54  1  0.935000  0.700900  0.653070  1.0  0.1098
  C  C55  1  0.781100  0.323100  0.994200  1.0  0.6823
  C  C56  1  0.837200  0.310500  0.084500  1.0  -0.1315
  C  C57  1  0.865300  0.272900  0.997500  1.0  -0.0027
  C  C58  1  0.914200  0.323500  0.329900  1.0  -0.1326
  C  C59  1  0.956600  0.210100  0.462000  1.0  0.6765
  C  C60  1  0.942700  0.286000  0.237500  1.0  0.0838
  C  C61  1  0.862000  0.335900  0.249700  1.0  0.0008
  C  C62  1  0.917300  0.260200  0.073900  1.0  -0.1477
  C  C63  1  0.676900  0.458000  0.327530  1.0  0.6844
  C  C64  1  0.689500  0.526700  0.417830  1.0  -0.1329
  C  C65  1  0.727100  0.592400  0.330830  1.0  -0.0024
  C  C66  1  0.676500  0.590700  0.663230  1.0  -0.1344
  C  C67  1  0.789900  0.746500  0.795330  1.0  0.6706
  C  C68  1  0.714000  0.656700  0.570830  1.0  0.0827
  C  C69  1  0.664100  0.526100  0.583030  1.0  1e-04
  C  C70  1  0.739800  0.657100  0.407230  1.0  -0.1471
  C  C71  1  0.542000  0.218900  0.660870  1.0  0.6848
  C  C72  1  0.473300  0.162800  0.751170  1.0  -0.1314
  C  C73  1  0.407600  0.134700  0.664170  1.0  -0.0014
  C  C74  1  0.409300  0.085800  0.996570  1.0  -0.1301
  C  C75  1  0.253500  0.043400  0.128670  1.0  0.6741
  C  C76  1  0.343300  0.057300  0.904170  1.0  0.083
  C  C77  1  0.473900  0.138000  0.916370  1.0  -0.0004
  C  C78  1  0.342900  0.082700  0.740570  1.0  -0.1477
  C  C79  1  0.218900  0.676900  0.994200  1.0  0.681
  C  C80  1  0.162800  0.689500  0.084500  1.0  -0.1308
  C  C81  1  0.134700  0.727100  0.997500  1.0  -0.0024
  C  C82  1  0.085800  0.676500  0.329900  1.0  -0.1336
  C  C83  1  0.043400  0.789900  0.462000  1.0  0.6755
  C  C84  1  0.057300  0.714000  0.237500  1.0  0.0836
  C  C85  1  0.138000  0.664100  0.249700  1.0  0.0007
  C  C86  1  0.082700  0.739800  0.073900  1.0  -0.1483
  C  C87  1  0.323100  0.542000  0.327530  1.0  0.6847
  C  C88  1  0.310500  0.473300  0.417830  1.0  -0.1313
  C  C89  1  0.272900  0.407600  0.330830  1.0  -0.0013
  C  C90  1  0.323500  0.409300  0.663230  1.0  -0.1334
  C  C91  1  0.210100  0.253500  0.795330  1.0  0.6729
  C  C92  1  0.286000  0.343300  0.570830  1.0  0.0838
  C  C93  1  0.335900  0.473900  0.583030  1.0  -0.0002
  C  C94  1  0.260200  0.342900  0.407230  1.0  -0.1467
  C  C95  1  0.458000  0.781100  0.660870  1.0  0.6846
  C  C96  1  0.526700  0.837200  0.751170  1.0  -0.1321
  C  C97  1  0.592400  0.865300  0.664170  1.0  -0.0025
  C  C98  1  0.590700  0.914200  0.996570  1.0  -0.1291
  C  C99  1  0.746500  0.956600  0.128670  1.0  0.6718
  C  C100  1  0.656700  0.942700  0.904170  1.0  0.0822
  C  C101  1  0.526100  0.862000  0.916370  1.0  -0.0003
  C  C102  1  0.657100  0.917300  0.740570  1.0  -0.1487
  C  C103  1  0.323100  0.781100  0.339130  1.0  0.6837
  C  C104  1  0.310500  0.837200  0.248830  1.0  -0.131
  C  C105  1  0.272900  0.865300  0.335830  1.0  -0.0031
  C  C106  1  0.323500  0.914200  0.003430  1.0  -0.1302
  C  C107  1  0.210100  0.956600  0.871330  1.0  0.6721
  C  C108  1  0.286000  0.942700  0.095830  1.0  0.0831
  C  C109  1  0.335900  0.862000  0.083630  1.0  0.0002
  C  C110  1  0.260200  0.917300  0.259430  1.0  -0.1486
  C  C111  1  0.458000  0.676900  0.005800  1.0  0.6814
  C  C112  1  0.526700  0.689500  0.915500  1.0  -0.1305
  C  C113  1  0.592400  0.727100  0.002500  1.0  -0.0046
  C  C114  1  0.590700  0.676500  0.670100  1.0  -0.1327
  C  C115  1  0.746500  0.789900  0.538000  1.0  0.6764
  C  C116  1  0.656700  0.714000  0.762500  1.0  0.0837
  C  C117  1  0.526100  0.664100  0.750300  1.0  0.0022
  C  C118  1  0.657100  0.739800  0.926100  1.0  -0.1487
  C  C119  1  0.218900  0.542000  0.672470  1.0  0.6837
  C  C120  1  0.162800  0.473300  0.582170  1.0  -0.1304
  C  C121  1  0.134700  0.407600  0.669170  1.0  -0.004
  C  C122  1  0.085800  0.409300  0.336770  1.0  -0.1348
  C  C123  1  0.043400  0.253500  0.204670  1.0  0.6704
  C  C124  1  0.057300  0.343300  0.429170  1.0  0.0822
  C  C125  1  0.138000  0.473900  0.416970  1.0  0.0014
  C  C126  1  0.082700  0.342900  0.592770  1.0  -0.148
  C  C127  1  0.676900  0.218900  0.339130  1.0  0.6843
  C  C128  1  0.689500  0.162800  0.248830  1.0  -0.1313
  C  C129  1  0.727100  0.134700  0.335830  1.0  -0.0039
  C  C130  1  0.676500  0.085800  0.003430  1.0  -0.1296
  C  C131  1  0.789900  0.043400  0.871330  1.0  0.6727
  C  C132  1  0.714000  0.057300  0.095830  1.0  0.0819
  C  C133  1  0.664100  0.138000  0.083630  1.0  0.0003
  C  C134  1  0.739800  0.082700  0.259430  1.0  -0.1499
  C  C135  1  0.542000  0.323100  0.005800  1.0  0.6802
  C  C136  1  0.473300  0.310500  0.915500  1.0  -0.1305
  C  C137  1  0.407600  0.272900  0.002500  1.0  -0.0034
  C  C138  1  0.409300  0.323500  0.670100  1.0  -0.1352
  C  C139  1  0.253500  0.210100  0.538000  1.0  0.6766
  C  C140  1  0.343300  0.286000  0.762500  1.0  0.0836
  C  C141  1  0.473900  0.335900  0.750300  1.0  0.0012
  C  C142  1  0.342900  0.260200  0.926100  1.0  -0.1493
  C  C143  1  0.781100  0.458000  0.672470  1.0  0.6846
  C  C144  1  0.837200  0.526700  0.582170  1.0  -0.1314
  C  C145  1  0.865300  0.592400  0.669170  1.0  -0.0031
  C  C146  1  0.914200  0.590700  0.336770  1.0  -0.1343
  C  C147  1  0.956600  0.746500  0.204670  1.0  0.674
  C  C148  1  0.942700  0.656700  0.429170  1.0  0.0843
  C  C149  1  0.862000  0.526100  0.416970  1.0  -0.0003
  C  C150  1  0.917300  0.657100  0.592770  1.0  -0.1479
  C  C151  1  0.000000  0.273100  0.333333  1.0  -0.3103
  C  C152  1  0.726900  0.726900  0.666667  1.0  -0.3102
  C  C153  1  0.273100  0.000000  0.000000  1.0  -0.3107
  C  C154  1  0.000000  0.726900  0.333333  1.0  -0.3111
  C  C155  1  0.273100  0.273100  0.666667  1.0  -0.311
  C  C156  1  0.726900  0.000000  0.000000  1.0  -0.3099
  O  O157  1  0.760100  0.361300  0.078800  1.0  -0.6151
  O  O158  1  0.758200  0.293800  0.851900  1.0  -0.5955
  O  O159  1  0.638700  0.398800  0.412130  1.0  -0.6162
  O  O160  1  0.706200  0.464400  0.185230  1.0  -0.5959
  O  O161  1  0.601200  0.239900  0.745470  1.0  -0.6156
  O  O162  1  0.535600  0.241800  0.518570  1.0  -0.5962
  O  O163  1  0.239900  0.638700  0.078800  1.0  -0.6149
  O  O164  1  0.241800  0.706200  0.851900  1.0  -0.5953
  O  O165  1  0.361300  0.601200  0.412130  1.0  -0.6165
  O  O166  1  0.293800  0.535600  0.185230  1.0  -0.596
  O  O167  1  0.398800  0.760100  0.745470  1.0  -0.616
  O  O168  1  0.464400  0.758200  0.518570  1.0  -0.5951
  O  O169  1  0.361300  0.760100  0.254530  1.0  -0.6146
  O  O170  1  0.293800  0.758200  0.481430  1.0  -0.5964
  O  O171  1  0.398800  0.638700  0.921200  1.0  -0.6155
  O  O172  1  0.464400  0.706200  0.148100  1.0  -0.5962
  O  O173  1  0.239900  0.601200  0.587870  1.0  -0.617
  O  O174  1  0.241800  0.535600  0.814770  1.0  -0.5969
  O  O175  1  0.638700  0.239900  0.254530  1.0  -0.6141
  O  O176  1  0.706200  0.241800  0.481430  1.0  -0.5966
  O  O177  1  0.601200  0.361300  0.921200  1.0  -0.6165
  O  O178  1  0.535600  0.293800  0.148100  1.0  -0.5965
  O  O179  1  0.760100  0.398800  0.587870  1.0  -0.6155
  O  O180  1  0.758200  0.464400  0.814770  1.0  -0.5973
  F  F181  1  0.928600  0.228100  0.591600  1.0  -0.1875
  F  F182  1  0.997700  0.183800  0.530400  1.0  -0.2166
  F  F183  1  0.901200  0.153000  0.380300  1.0  -0.2036
  F  F184  1  0.771900  0.700500  0.924930  1.0  -0.1869
  F  F185  1  0.816200  0.813900  0.863730  1.0  -0.2165
  F  F186  1  0.847000  0.748200  0.713630  1.0  -0.203
  F  F187  1  0.299500  0.071400  0.258270  1.0  -0.1888
  F  F188  1  0.186100  0.002300  0.197070  1.0  -0.2128
  F  F189  1  0.251800  0.098800  0.046970  1.0  -0.2012
  F  F190  1  0.071400  0.771900  0.591600  1.0  -0.1874
  F  F191  1  0.002300  0.816200  0.530400  1.0  -0.2155
  F  F192  1  0.098800  0.847000  0.380300  1.0  -0.2056
  F  F193  1  0.228100  0.299500  0.924930  1.0  -0.1879
  F  F194  1  0.183800  0.186100  0.863730  1.0  -0.218
  F  F195  1  0.153000  0.251800  0.713630  1.0  -0.2024
  F  F196  1  0.700500  0.928600  0.258270  1.0  -0.1886
  F  F197  1  0.813900  0.997700  0.197070  1.0  -0.212
  F  F198  1  0.748200  0.901200  0.046970  1.0  -0.2014
  F  F199  1  0.228100  0.928600  0.741730  1.0  -0.1879
  F  F200  1  0.183800  0.997700  0.802930  1.0  -0.2136
  F  F201  1  0.153000  0.901200  0.953030  1.0  -0.2001
  F  F202  1  0.700500  0.771900  0.408400  1.0  -0.1867
  F  F203  1  0.813900  0.816200  0.469600  1.0  -0.217
  F  F204  1  0.748200  0.847000  0.619700  1.0  -0.2037
  F  F205  1  0.071400  0.299500  0.075070  1.0  -0.1868
  F  F206  1  0.002300  0.186100  0.136270  1.0  -0.2181
  F  F207  1  0.098800  0.251800  0.286370  1.0  -0.2028
  F  F208  1  0.771900  0.071400  0.741730  1.0  -0.1885
  F  F209  1  0.816200  0.002300  0.802930  1.0  -0.2128
  F  F210  1  0.847000  0.098800  0.953030  1.0  -0.2001
  F  F211  1  0.299500  0.228100  0.408400  1.0  -0.1871
  F  F212  1  0.186100  0.183800  0.469600  1.0  -0.2163
  F  F213  1  0.251800  0.153000  0.619700  1.0  -0.2028
  F  F214  1  0.928600  0.700500  0.075070  1.0  -0.1873
  F  F215  1  0.997700  0.813900  0.136270  1.0  -0.2177
  F  F216  1  0.901200  0.748200  0.286370  1.0  -0.2014
