# generated using pymatgen
data_Co2H10C21N2O9
_symmetry_space_group_name_H-M   'P 1'
_cell_length_a   7.36270000
_cell_length_b   12.33000000
_cell_length_c   13.92900000
_cell_angle_alpha   83.43900000
_cell_angle_beta   81.48500000
_cell_angle_gamma   72.67400000
_symmetry_Int_Tables_number   1
_chemical_formula_structural   Co2H10C21N2O9
_chemical_formula_sum   'Co4 H20 C42 N4 O18'
_cell_volume   1190.52032380
_cell_formula_units_Z   2
loop_
 _symmetry_equiv_pos_site_id
 _symmetry_equiv_pos_as_xyz
  1  'x, y, z'
loop_
 _atom_site_type_symbol
 _atom_site_label
 _atom_site_symmetry_multiplicity
 _atom_site_fract_x
 _atom_site_fract_y
 _atom_site_fract_z
 _atom_site_occupancy
 _atom_site_charge
  Co  Co1  1  0.455220  0.789900  0.959690  1.0  1.0695
  Co  Co2  1  0.915810  0.936280  0.751840  1.0  0.9425
  Co  Co3  1  0.544780  0.210100  0.040310  1.0  1.0722
  Co  Co4  1  0.084190  0.063720  0.248160  1.0  0.9453
  H  H5  1  0.924200  0.574400  0.698200  1.0  0.1011
  H  H6  1  0.988500  0.370400  0.779400  1.0  0.1016
  H  H7  1  0.296900  0.601200  0.667500  1.0  0.0974
  H  H8  1  0.543200  0.220700  0.575100  1.0  0.1055
  H  H9  1  0.541200  0.454800  0.601100  1.0  0.1002
  H  H10  1  0.259700  0.312500  0.511000  1.0  0.0919
  H  H11  1  0.207000  0.625000  0.980000  1.0  0.1043
  H  H12  1  0.751000  0.568000  0.980000  1.0  0.1058
  H  H13  1  0.006000  0.815000  0.559000  1.0  0.1108
  H  H14  1  0.931000  0.133000  0.600000  1.0  0.1141
  H  H15  1  0.075800  0.425600  0.301800  1.0  0.101
  H  H16  1  0.011500  0.629600  0.220600  1.0  0.1017
  H  H17  1  0.703100  0.398800  0.332500  1.0  0.0972
  H  H18  1  0.456800  0.779300  0.424900  1.0  0.1053
  H  H19  1  0.458800  0.545200  0.398900  1.0  0.1002
  H  H20  1  0.740300  0.687500  0.489000  1.0  0.0914
  H  H21  1  0.793000  0.375000  0.020000  1.0  0.1049
  H  H22  1  0.249000  0.432000  0.020000  1.0  0.1061
  H  H23  1  0.994000  0.185000  0.441000  1.0  0.1112
  H  H24  1  0.069000  0.867000  0.400000  1.0  0.1156
  C  C25  1  0.760500  0.498800  0.643500  1.0  -0.0575
  C  C26  1  0.095500  0.351200  0.639100  1.0  -0.1094
  C  C27  1  0.797700  0.579500  0.692200  1.0  -0.057
  C  C28  1  0.098900  0.338300  0.738500  1.0  -0.0077
  C  C29  1  0.652300  0.668400  0.732900  1.0  -0.0813
  C  C30  1  0.267600  0.277100  0.778700  1.0  -0.1535
  C  C31  1  0.461200  0.673800  0.726000  1.0  -0.1292
  C  C32  1  0.434200  0.235000  0.717700  1.0  -0.0058
  C  C33  1  0.423100  0.595200  0.674900  1.0  -0.0388
  C  C34  1  0.431500  0.249100  0.616400  1.0  -0.0997
  C  C35  1  0.569500  0.507800  0.634400  1.0  -0.0425
  C  C36  1  0.262100  0.305300  0.578000  1.0  -0.0233
  C  C37  1  0.707000  0.758800  0.776300  1.0  0.7008
  C  C38  1  0.262900  0.260800  0.888600  1.0  0.6989
  C  C39  1  0.294800  0.766500  0.769100  1.0  0.7103
  C  C40  1  0.627500  0.170700  0.751200  1.0  0.6591
  C  C41  1  0.912900  0.406300  0.593600  1.0  0.4266
  C  C42  1  0.330200  0.573700  0.992800  1.0  0.109
  C  C43  1  0.649300  0.542300  0.989100  1.0  0.128
  C  C44  1  0.999400  0.895000  0.538200  1.0  0.1059
  C  C45  1  0.962600  0.082800  0.560100  1.0  0.1261
  C  C46  1  0.239500  0.501200  0.356500  1.0  -0.0591
  C  C47  1  0.904500  0.648800  0.360900  1.0  -0.111
  C  C48  1  0.202300  0.420500  0.307800  1.0  -0.0586
  C  C49  1  0.901100  0.661700  0.261500  1.0  -0.0077
  C  C50  1  0.347700  0.331600  0.267100  1.0  -0.0817
  C  C51  1  0.732400  0.722900  0.221300  1.0  -0.1529
  C  C52  1  0.538800  0.326200  0.274000  1.0  -0.1328
  C  C53  1  0.565800  0.765000  0.282300  1.0  -0.006
  C  C54  1  0.576900  0.404800  0.325100  1.0  -0.0383
  C  C55  1  0.568500  0.750900  0.383600  1.0  -0.099
  C  C56  1  0.430500  0.492200  0.365600  1.0  -0.0432
  C  C57  1  0.737900  0.694700  0.422000  1.0  -0.0302
  C  C58  1  0.293000  0.241200  0.223700  1.0  0.701
  C  C59  1  0.737100  0.739200  0.111400  1.0  0.7002
  C  C60  1  0.705200  0.233500  0.230900  1.0  0.7054
  C  C61  1  0.372500  0.829300  0.248800  1.0  0.6579
  C  C62  1  0.087100  0.593700  0.406400  1.0  0.4334
  C  C63  1  0.669800  0.426300  0.007200  1.0  0.1067
  C  C64  1  0.350700  0.457700  0.010900  1.0  0.1242
  C  C65  1  0.000600  0.105000  0.461800  1.0  0.1069
  C  C66  1  0.037400  0.917200  0.439900  1.0  0.125
  N  N67  1  0.480600  0.616500  0.982900  1.0  -0.3144
  N  N68  1  0.960300  0.978000  0.599400  1.0  -0.2997
  N  N69  1  0.519400  0.383500  0.017100  1.0  -0.3146
  N  N70  1  0.039700  0.022000  0.400600  1.0  -0.3013
  O  O71  1  0.762900  0.829100  0.718900  1.0  -0.5353
  O  O72  1  0.108500  0.291200  0.941100  1.0  -0.5866
  O  O73  1  0.705900  0.755100  0.867800  1.0  -0.6238
  O  O74  1  0.423800  0.213400  0.918500  1.0  -0.6265
  O  O75  1  0.304900  0.809500  0.844500  1.0  -0.6907
  O  O76  1  0.745200  0.222700  0.758600  1.0  -0.5921
  O  O77  1  0.149800  0.797300  0.727100  1.0  -0.5658
  O  O78  1  0.659600  0.063000  0.762900  1.0  -0.6234
  O  O79  1  0.889800  0.376000  0.517200  1.0  -0.4391
  O  O80  1  0.237100  0.170900  0.281100  1.0  -0.5354
  O  O81  1  0.891500  0.708800  0.058900  1.0  -0.5869
  O  O82  1  0.294100  0.244900  0.132200  1.0  -0.6249
  O  O83  1  0.576200  0.786600  0.081500  1.0  -0.625
  O  O84  1  0.695100  0.190500  0.155500  1.0  -0.6877
  O  O85  1  0.254800  0.777300  0.241400  1.0  -0.5938
  O  O86  1  0.850200  0.202700  0.272900  1.0  -0.5659
  O  O87  1  0.340400  0.937000  0.237100  1.0  -0.6245
  O  O88  1  0.110200  0.624000  0.482800  1.0  -0.4384
