# generated using pymatgen
data_Mn3C30(NO2)5
_symmetry_space_group_name_H-M   'P 1'
_cell_length_a   18.78920000
_cell_length_b   23.23070000
_cell_length_c   21.13550000
_cell_angle_alpha   90.00000000
_cell_angle_beta   95.08500000
_cell_angle_gamma   90.00000000
_symmetry_Int_Tables_number   1
_chemical_formula_structural   Mn3C30(NO2)5
_chemical_formula_sum   'Mn24 C240 N40 O80'
_cell_volume   9189.04732946
_cell_formula_units_Z   8
loop_
 _symmetry_equiv_pos_site_id
 _symmetry_equiv_pos_as_xyz
  1  'x, y, z'
loop_
 _atom_site_type_symbol
 _atom_site_label
 _atom_site_symmetry_multiplicity
 _atom_site_fract_x
 _atom_site_fract_y
 _atom_site_fract_z
 _atom_site_occupancy
 _atom_site_charge
  Mn  Mn1  1  0.161970  0.881380  0.343160  1.0  1.1608
  Mn  Mn2  1  0.268850  0.878380  0.169020  1.0  1.1167
  Mn  Mn3  1  0.206850  0.006200  0.246930  1.0  1.0978
  Mn  Mn4  1  0.707250  0.749360  0.258950  1.0  1.1124
  Mn  Mn5  1  0.662570  0.882310  0.341370  1.0  1.0388
  Mn  Mn6  1  0.769020  0.867900  0.167340  1.0  1.0805
  Mn  Mn7  1  0.338030  0.381380  0.156840  1.0  1.1616
  Mn  Mn8  1  0.231150  0.378380  0.330980  1.0  1.1154
  Mn  Mn9  1  0.293150  0.506200  0.253070  1.0  1.0967
  Mn  Mn10  1  0.792750  0.249360  0.241050  1.0  1.1121
  Mn  Mn11  1  0.837430  0.382310  0.158630  1.0  1.0389
  Mn  Mn12  1  0.730980  0.367900  0.332660  1.0  1.0796
  Mn  Mn13  1  0.838030  0.118620  0.656840  1.0  1.1619
  Mn  Mn14  1  0.731150  0.121620  0.830980  1.0  1.1155
  Mn  Mn15  1  0.793150  0.993800  0.753070  1.0  1.0953
  Mn  Mn16  1  0.292750  0.250640  0.741050  1.0  1.1144
  Mn  Mn17  1  0.337430  0.117690  0.658630  1.0  1.0393
  Mn  Mn18  1  0.230980  0.132100  0.832660  1.0  1.0794
  Mn  Mn19  1  0.661970  0.618620  0.843160  1.0  1.161
  Mn  Mn20  1  0.768850  0.621620  0.669020  1.0  1.1168
  Mn  Mn21  1  0.706850  0.493800  0.746930  1.0  1.096
  Mn  Mn22  1  0.207250  0.750640  0.758950  1.0  1.1145
  Mn  Mn23  1  0.162570  0.617690  0.841370  1.0  1.0395
  Mn  Mn24  1  0.269020  0.632100  0.667340  1.0  1.0805
  C  C25  1  0.514400  0.945600  0.307000  1.0  0.1434
  C  C26  1  0.441200  0.952100  0.295100  1.0  0.0107
  C  C27  1  0.499800  0.866700  0.371000  1.0  0.0985
  C  C28  1  0.426300  0.871700  0.361900  1.0  0.0372
  C  C29  1  0.395800  0.913900  0.322000  1.0  -0.1612
  C  C30  1  0.316200  0.916900  0.306900  1.0  0.6597
  C  C31  1  0.208700  0.621600  0.297900  1.0  0.1518
  C  C32  1  0.197100  0.679700  0.301800  1.0  -0.0128
  C  C33  1  0.268100  0.632800  0.209000  1.0  0.1525
  C  C34  1  0.261400  0.691500  0.211100  1.0  0.0107
  C  C35  1  0.225900  0.716200  0.258700  1.0  -0.1179
  C  C36  1  0.219000  0.780700  0.262400  1.0  0.6767
  C  C37  1  0.419000  0.820600  0.206700  1.0  0.1556
  C  C38  1  0.492000  0.814900  0.218000  1.0  -0.003
  C  C39  1  0.431000  0.896200  0.138500  1.0  0.1547
  C  C40  1  0.503000  0.892100  0.145400  1.0  0.014
  C  C41  1  0.535700  0.851900  0.187000  1.0  -0.1355
  C  C42  1  0.615500  0.848200  0.200200  1.0  0.6985
  C  C43  1  0.795300  0.635500  0.218800  1.0  0.1467
  C  C44  1  0.805700  0.576600  0.214700  1.0  -0.0339
  C  C45  1  0.736100  0.623900  0.308100  1.0  0.1209
  C  C46  1  0.743100  0.565700  0.306200  1.0  0.011
  C  C47  1  0.778000  0.540600  0.258000  1.0  -0.1183
  C  C48  1  0.783900  0.475700  0.252300  1.0  0.6752
  C  C49  1  0.194300  0.782000  0.075700  1.0  0.184
  C  C50  1  0.174600  0.752300  0.020400  1.0  -0.0498
  C  C51  1  0.283100  0.830100  0.030600  1.0  0.1126
  C  C52  1  0.267700  0.802500  0.973500  1.0  -0.036
  C  C53  1  0.211700  0.762900  0.967800  1.0  -0.0904
  C  C54  1  0.193500  0.732200  0.905200  1.0  0.6886
  C  C55  1  0.198500  0.103500  0.975100  1.0  0.1276
  C  C56  1  0.198700  0.074800  0.031800  1.0  -0.0124
  C  C57  1  0.285000  0.041600  0.941200  1.0  0.1034
  C  C58  1  0.286800  0.011000  0.996700  1.0  -0.0125
  C  C59  1  0.242600  0.027000  0.043400  1.0  -0.1305
  C  C60  1  0.243100  0.993500  0.103900  1.0  0.665
  C  C61  1  0.997700  0.900100  0.367700  1.0  0.1165
  C  C62  1  0.924800  0.894000  0.359200  1.0  0.0106
  C  C63  1  0.015400  0.814300  0.316300  1.0  0.1362
  C  C64  1  0.942700  0.806600  0.303900  1.0  0.0118
  C  C65  1  0.895600  0.847300  0.325200  1.0  -0.1545
  C  C66  1  0.816600  0.842100  0.309200  1.0  0.6834
  C  C67  1  0.931100  0.846500  0.144100  1.0  0.1203
  C  C68  1  0.005000  0.852400  0.150400  1.0  -0.0266
  C  C69  1  0.916900  0.928400  0.202100  1.0  0.1529
  C  C70  1  0.989600  0.936700  0.213100  1.0  -0.0118
  C  C71  1  0.034800  0.897800  0.187200  1.0  0.1185
  C  C72  1  0.150900  0.850000  0.487400  1.0  0.1214
  C  C73  1  0.164400  0.823400  0.546200  1.0  -0.0353
  C  C74  1  0.237100  0.794900  0.444700  1.0  0.1304
  C  C75  1  0.253800  0.767000  0.500900  1.0  0.0002
  C  C76  1  0.215900  0.780500  0.552900  1.0  -0.1191
  C  C77  1  0.231300  0.749000  0.614900  1.0  0.6619
  C  C78  1  0.326100  0.077400  0.514100  1.0  0.0935
  C  C79  1  0.294600  0.056800  0.457800  1.0  0.0251
  C  C80  1  0.246600  0.027700  0.571200  1.0  0.1725
  C  C81  1  0.211800  0.005500  0.516100  1.0  -0.0253
  C  C82  1  0.236500  0.019500  0.457400  1.0  -0.1274
  C  C83  1  0.201200  0.995200  0.396300  1.0  0.6862
  C  C84  1  0.109000  0.903900  0.197700  1.0  0.6628
  C  C85  1  0.985600  0.445600  0.193000  1.0  0.1453
  C  C86  1  0.058800  0.452100  0.204900  1.0  0.0096
  C  C87  1  0.000200  0.366700  0.129000  1.0  0.0998
  C  C88  1  0.073700  0.371700  0.138100  1.0  0.0455
  C  C89  1  0.104200  0.413900  0.178000  1.0  -0.1608
  C  C90  1  0.183800  0.416900  0.193100  1.0  0.6611
  C  C91  1  0.291300  0.121600  0.202100  1.0  0.1529
  C  C92  1  0.302900  0.179700  0.198200  1.0  -0.0156
  C  C93  1  0.231900  0.132800  0.291000  1.0  0.152
  C  C94  1  0.238600  0.191500  0.288900  1.0  0.01
  C  C95  1  0.274100  0.216200  0.241300  1.0  -0.1179
  C  C96  1  0.281000  0.280700  0.237600  1.0  0.6769
  C  C97  1  0.081000  0.320600  0.293300  1.0  0.1556
  C  C98  1  0.008000  0.314900  0.282000  1.0  -0.0033
  C  C99  1  0.069000  0.396200  0.361500  1.0  0.1563
  C  C100  1  0.997000  0.392100  0.354600  1.0  0.0124
  C  C101  1  0.964300  0.351900  0.313000  1.0  -0.1369
  C  C102  1  0.884500  0.348200  0.299800  1.0  0.6964
  C  C103  1  0.704700  0.135500  0.281200  1.0  0.1465
  C  C104  1  0.694300  0.076600  0.285300  1.0  -0.0314
  C  C105  1  0.763900  0.123900  0.191900  1.0  0.1231
  C  C106  1  0.756900  0.065700  0.193800  1.0  0.0102
  C  C107  1  0.722000  0.040600  0.242000  1.0  -0.118
  C  C108  1  0.716100  0.975700  0.247700  1.0  0.6753
  C  C109  1  0.305700  0.282000  0.424300  1.0  0.1799
  C  C110  1  0.325400  0.252300  0.479600  1.0  -0.0503
  C  C111  1  0.216900  0.330100  0.469400  1.0  0.1132
  C  C112  1  0.232300  0.302500  0.526500  1.0  -0.0337
  C  C113  1  0.288300  0.262900  0.532200  1.0  -0.0905
  C  C114  1  0.306500  0.232200  0.594800  1.0  0.6879
  C  C115  1  0.301500  0.603500  0.524900  1.0  0.1263
  C  C116  1  0.301300  0.574800  0.468200  1.0  -0.0162
  C  C117  1  0.215000  0.541600  0.558800  1.0  0.1049
  C  C118  1  0.213200  0.511000  0.503300  1.0  -0.0136
  C  C119  1  0.257400  0.527000  0.456600  1.0  -0.1304
  C  C120  1  0.256900  0.493500  0.396100  1.0  0.665
  C  C121  1  0.502300  0.400100  0.132300  1.0  0.116
  C  C122  1  0.575200  0.394000  0.140800  1.0  0.0096
  C  C123  1  0.484600  0.314300  0.183700  1.0  0.1349
  C  C124  1  0.557300  0.306600  0.196100  1.0  0.0113
  C  C125  1  0.604400  0.347300  0.174800  1.0  -0.1557
  C  C126  1  0.683400  0.342100  0.190800  1.0  0.6853
  C  C127  1  0.568900  0.346500  0.355900  1.0  0.1181
  C  C128  1  0.495000  0.352400  0.349600  1.0  -0.028
  C  C129  1  0.583100  0.428400  0.297900  1.0  0.1527
  C  C130  1  0.510400  0.436700  0.286900  1.0  -0.0118
  C  C131  1  0.465200  0.397800  0.312800  1.0  0.1189
  C  C132  1  0.349100  0.350000  0.012600  1.0  0.1207
  C  C133  1  0.335600  0.323400  0.953800  1.0  -0.0394
  C  C134  1  0.262900  0.294900  0.055300  1.0  0.1307
  C  C135  1  0.246200  0.267000  0.999100  1.0  -0.0005
  C  C136  1  0.284100  0.280500  0.947100  1.0  -0.1187
  C  C137  1  0.268700  0.249000  0.885100  1.0  0.662
  C  C138  1  0.173900  0.577400  0.985900  1.0  0.0961
  C  C139  1  0.205400  0.556800  0.042200  1.0  0.0227
  C  C140  1  0.253400  0.527700  0.928800  1.0  0.1706
  C  C141  1  0.288200  0.505500  0.983900  1.0  -0.0268
  C  C142  1  0.263500  0.519500  0.042600  1.0  -0.1272
  C  C143  1  0.298800  0.495200  0.103700  1.0  0.6876
  C  C144  1  0.391000  0.403900  0.302300  1.0  0.6627
  C  C145  1  0.485600  0.054400  0.693000  1.0  0.1459
  C  C146  1  0.558800  0.047900  0.704900  1.0  0.0097
  C  C147  1  0.500200  0.133300  0.629000  1.0  0.0969
  C  C148  1  0.573700  0.128300  0.638100  1.0  0.0429
  C  C149  1  0.604200  0.086100  0.678000  1.0  -0.1609
  C  C150  1  0.683800  0.083100  0.693100  1.0  0.6612
  C  C151  1  0.791300  0.378400  0.702100  1.0  0.1541
  C  C152  1  0.802900  0.320300  0.698200  1.0  -0.0157
  C  C153  1  0.731900  0.367200  0.791000  1.0  0.1522
  C  C154  1  0.738600  0.308500  0.788900  1.0  0.0104
  C  C155  1  0.774100  0.283800  0.741300  1.0  -0.1188
  C  C156  1  0.781000  0.219300  0.737600  1.0  0.6771
  C  C157  1  0.581000  0.179400  0.793300  1.0  0.1558
  C  C158  1  0.508000  0.185100  0.782000  1.0  -0.0022
  C  C159  1  0.569000  0.103800  0.861500  1.0  0.1552
  C  C160  1  0.497000  0.107900  0.854600  1.0  0.0117
  C  C161  1  0.464300  0.148100  0.813000  1.0  -0.1368
  C  C162  1  0.384500  0.151800  0.799800  1.0  0.6956
  C  C163  1  0.204700  0.364500  0.781200  1.0  0.1459
  C  C164  1  0.194300  0.423400  0.785300  1.0  -0.0314
  C  C165  1  0.263900  0.376100  0.691900  1.0  0.1229
  C  C166  1  0.256900  0.434300  0.693800  1.0  0.0106
  C  C167  1  0.222000  0.459400  0.742000  1.0  -0.1173
  C  C168  1  0.216100  0.524300  0.747700  1.0  0.6754
  C  C169  1  0.805700  0.218000  0.924300  1.0  0.1789
  C  C170  1  0.825400  0.247700  0.979600  1.0  -0.0504
  C  C171  1  0.716900  0.169900  0.969400  1.0  0.1111
  C  C172  1  0.732300  0.197500  0.026500  1.0  -0.0326
  C  C173  1  0.788300  0.237100  0.032200  1.0  -0.0905
  C  C174  1  0.806500  0.267800  0.094800  1.0  0.6878
  C  C175  1  0.801500  0.896500  0.024900  1.0  0.1272
  C  C176  1  0.801300  0.925200  0.968200  1.0  -0.0159
  C  C177  1  0.715000  0.958400  0.058800  1.0  0.1043
  C  C178  1  0.713200  0.989000  0.003300  1.0  -0.0124
  C  C179  1  0.757400  0.973000  0.956600  1.0  -0.1307
  C  C180  1  0.756900  0.006500  0.896100  1.0  0.665
  C  C181  1  0.002300  0.099900  0.632300  1.0  0.1176
  C  C182  1  0.075200  0.106000  0.640800  1.0  0.0111
  C  C183  1  0.984600  0.185700  0.683700  1.0  0.1351
  C  C184  1  0.057300  0.193400  0.696100  1.0  0.0121
  C  C185  1  0.104400  0.152700  0.674800  1.0  -0.156
  C  C186  1  0.183400  0.157900  0.690800  1.0  0.6853
  C  C187  1  0.068900  0.153500  0.855900  1.0  0.1196
  C  C188  1  0.995000  0.147600  0.849600  1.0  -0.0278
  C  C189  1  0.083100  0.071600  0.797900  1.0  0.1521
  C  C190  1  0.010400  0.063300  0.786900  1.0  -0.0118
  C  C191  1  0.965200  0.102200  0.812800  1.0  0.1188
  C  C192  1  0.849100  0.150000  0.512600  1.0  0.1208
  C  C193  1  0.835600  0.176600  0.453800  1.0  -0.0388
  C  C194  1  0.762900  0.205100  0.555300  1.0  0.1289
  C  C195  1  0.746200  0.233000  0.499100  1.0  0.001
  C  C196  1  0.784100  0.219500  0.447100  1.0  -0.1184
  C  C197  1  0.768700  0.251000  0.385100  1.0  0.6613
  C  C198  1  0.673900  0.922600  0.485900  1.0  0.0959
  C  C199  1  0.705400  0.943200  0.542200  1.0  0.0236
  C  C200  1  0.753400  0.972300  0.428800  1.0  0.1684
  C  C201  1  0.788200  0.994500  0.483900  1.0  -0.0262
  C  C202  1  0.763500  0.980500  0.542600  1.0  -0.1266
  C  C203  1  0.798800  0.004800  0.603700  1.0  0.6872
  C  C204  1  0.891000  0.096100  0.802300  1.0  0.6633
  C  C205  1  0.014400  0.554400  0.807000  1.0  0.145
  C  C206  1  0.941200  0.547900  0.795100  1.0  0.0085
  C  C207  1  0.999800  0.633300  0.871000  1.0  0.0987
  C  C208  1  0.926300  0.628300  0.861900  1.0  0.0364
  C  C209  1  0.895800  0.586100  0.822000  1.0  -0.1611
  C  C210  1  0.816200  0.583100  0.806900  1.0  0.6601
  C  C211  1  0.708700  0.878400  0.797900  1.0  0.1538
  C  C212  1  0.697100  0.820300  0.801800  1.0  -0.0124
  C  C213  1  0.768100  0.867200  0.709000  1.0  0.1531
  C  C214  1  0.761400  0.808500  0.711100  1.0  0.0096
  C  C215  1  0.725900  0.783800  0.758700  1.0  -0.1189
  C  C216  1  0.719000  0.719300  0.762400  1.0  0.6768
  C  C217  1  0.919000  0.679400  0.706700  1.0  0.1576
  C  C218  1  0.992000  0.685100  0.718000  1.0  -0.0027
  C  C219  1  0.931000  0.603800  0.638500  1.0  0.1558
  C  C220  1  0.003000  0.607900  0.645400  1.0  0.0161
  C  C221  1  0.035700  0.648100  0.687000  1.0  -0.1359
  C  C222  1  0.115500  0.651800  0.700200  1.0  0.6978
  C  C223  1  0.295300  0.864500  0.718800  1.0  0.1466
  C  C224  1  0.305700  0.923400  0.714700  1.0  -0.034
  C  C225  1  0.236100  0.876100  0.808100  1.0  0.1215
  C  C226  1  0.243100  0.934300  0.806200  1.0  0.0099
  C  C227  1  0.278000  0.959400  0.758000  1.0  -0.1175
  C  C228  1  0.283900  0.024300  0.752300  1.0  0.6753
  C  C229  1  0.694300  0.718000  0.575700  1.0  0.1825
  C  C230  1  0.674600  0.747700  0.520400  1.0  -0.0499
  C  C231  1  0.783100  0.669900  0.530600  1.0  0.1117
  C  C232  1  0.767700  0.697500  0.473500  1.0  -0.0357
  C  C233  1  0.711700  0.737100  0.467800  1.0  -0.0904
  C  C234  1  0.693500  0.767800  0.405200  1.0  0.6892
  C  C235  1  0.698500  0.396500  0.475100  1.0  0.1285
  C  C236  1  0.698700  0.425200  0.531800  1.0  -0.0109
  C  C237  1  0.785000  0.458400  0.441200  1.0  0.1033
  C  C238  1  0.786800  0.489000  0.496700  1.0  -0.0115
  C  C239  1  0.742600  0.473000  0.543400  1.0  -0.1309
  C  C240  1  0.743100  0.506500  0.603900  1.0  0.6649
  C  C241  1  0.497700  0.599900  0.867700  1.0  0.1152
  C  C242  1  0.424800  0.606000  0.859200  1.0  0.0102
  C  C243  1  0.515400  0.685700  0.816300  1.0  0.1348
  C  C244  1  0.442700  0.693400  0.803900  1.0  0.0129
  C  C245  1  0.395600  0.652700  0.825200  1.0  -0.155
  C  C246  1  0.316600  0.657900  0.809200  1.0  0.6828
  C  C247  1  0.431100  0.653500  0.644100  1.0  0.1191
  C  C248  1  0.505000  0.647600  0.650400  1.0  -0.0275
  C  C249  1  0.416900  0.571600  0.702100  1.0  0.1508
  C  C250  1  0.489600  0.563300  0.713100  1.0  -0.011
  C  C251  1  0.534800  0.602200  0.687200  1.0  0.1186
  C  C252  1  0.650900  0.650000  0.987400  1.0  0.1204
  C  C253  1  0.664400  0.676600  0.046200  1.0  -0.0338
  C  C254  1  0.737100  0.705100  0.944700  1.0  0.1287
  C  C255  1  0.753800  0.733000  0.000900  1.0  0.0014
  C  C256  1  0.715900  0.719500  0.052900  1.0  -0.1189
  C  C257  1  0.731300  0.751000  0.114900  1.0  0.6605
  C  C258  1  0.826100  0.422600  0.014100  1.0  0.0936
  C  C259  1  0.794600  0.443200  0.957800  1.0  0.0266
  C  C260  1  0.746600  0.472300  0.071200  1.0  0.1702
  C  C261  1  0.711800  0.494500  0.016100  1.0  -0.0255
  C  C262  1  0.736500  0.480500  0.957400  1.0  -0.1269
  C  C263  1  0.701200  0.504800  0.896300  1.0  0.6863
  C  C264  1  0.609000  0.596100  0.697700  1.0  0.663
  N  N265  1  0.544800  0.902750  0.344300  1.0  -0.2761
  N  N266  1  0.243200  0.597000  0.252400  1.0  -0.2674
  N  N267  1  0.387400  0.861280  0.168800  1.0  -0.2393
  N  N268  1  0.760100  0.659560  0.265000  1.0  -0.2728
  N  N269  1  0.247200  0.820900  0.081500  1.0  -0.1949
  N  N270  1  0.241000  0.087800  0.929000  1.0  -0.242
  N  N271  1  0.044300  0.861760  0.346300  1.0  -0.2405
  N  N272  1  0.887200  0.883300  0.169400  1.0  -0.2367
  N  N273  1  0.185600  0.836070  0.436400  1.0  -0.2224
  N  N274  1  0.301900  0.064100  0.571500  1.0  -0.2361
  N  N275  1  0.955200  0.402750  0.155700  1.0  -0.2727
  N  N276  1  0.256800  0.097000  0.247600  1.0  -0.2676
  N  N277  1  0.112600  0.361280  0.331200  1.0  -0.2382
  N  N278  1  0.739900  0.159560  0.235000  1.0  -0.273
  N  N279  1  0.252800  0.320900  0.418500  1.0  -0.1955
  N  N280  1  0.259000  0.587800  0.571000  1.0  -0.2414
  N  N281  1  0.455700  0.361760  0.153700  1.0  -0.2406
  N  N282  1  0.612800  0.383300  0.330600  1.0  -0.2337
  N  N283  1  0.314400  0.336070  0.063600  1.0  -0.2217
  N  N284  1  0.198100  0.564100  0.928500  1.0  -0.2374
  N  N285  1  0.455200  0.097250  0.655700  1.0  -0.2732
  N  N286  1  0.756800  0.403000  0.747600  1.0  -0.2665
  N  N287  1  0.612600  0.138720  0.831200  1.0  -0.2388
  N  N288  1  0.239900  0.340440  0.735000  1.0  -0.2717
  N  N289  1  0.752800  0.179100  0.918500  1.0  -0.1958
  N  N290  1  0.759000  0.912200  0.071000  1.0  -0.2426
  N  N291  1  0.955700  0.138240  0.653700  1.0  -0.2406
  N  N292  1  0.112800  0.116700  0.830600  1.0  -0.2335
  N  N293  1  0.814400  0.163930  0.563600  1.0  -0.2229
  N  N294  1  0.698100  0.935900  0.428500  1.0  -0.2374
  N  N295  1  0.044800  0.597250  0.844300  1.0  -0.2761
  N  N296  1  0.743200  0.903000  0.752400  1.0  -0.2665
  N  N297  1  0.887400  0.638720  0.668800  1.0  -0.2389
  N  N298  1  0.260100  0.840440  0.765000  1.0  -0.2719
  N  N299  1  0.747200  0.679100  0.581500  1.0  -0.1955
  N  N300  1  0.741000  0.412200  0.429000  1.0  -0.2429
  N  N301  1  0.544300  0.638240  0.846300  1.0  -0.2408
  N  N302  1  0.387200  0.616700  0.669400  1.0  -0.2369
  N  N303  1  0.685600  0.663930  0.936400  1.0  -0.2228
  N  N304  1  0.801900  0.435900  0.071500  1.0  -0.2363
  O  O305  1  0.277410  0.895410  0.344850  1.0  -0.6222
  O  O306  1  0.294600  0.941140  0.253730  1.0  -0.681
  O  O307  1  0.261100  0.809270  0.231940  1.0  -0.6534
  O  O308  1  0.172500  0.800610  0.295970  1.0  -0.6215
  O  O309  1  0.653370  0.864430  0.157460  1.0  -0.5822
  O  O310  1  0.639350  0.828040  0.254150  1.0  -0.6416
  O  O311  1  0.742250  0.446350  0.283440  1.0  -0.6722
  O  O312  1  0.827750  0.456910  0.215760  1.0  -0.6198
  O  O313  1  0.153490  0.688650  0.905190  1.0  -0.5498
  O  O314  1  0.221100  0.752560  0.858110  1.0  -0.6187
  O  O315  1  0.206400  0.012830  0.146480  1.0  -0.6527
  O  O316  1  0.280700  0.948390  0.108170  1.0  -0.566
  O  O317  1  0.777020  0.867230  0.344290  1.0  -0.6187
  O  O318  1  0.795570  0.812910  0.259140  1.0  -0.6781
  O  O319  1  0.137230  0.928960  0.251530  1.0  -0.6743
  O  O320  1  0.152800  0.883770  0.159720  1.0  -0.6028
  O  O321  1  0.195100  0.763860  0.660040  1.0  -0.6411
  O  O322  1  0.277800  0.710580  0.617210  1.0  -0.5635
  O  O323  1  0.224200  0.015840  0.346310  1.0  -0.6456
  O  O324  1  0.154900  0.957550  0.399180  1.0  -0.5599
  O  O325  1  0.222590  0.395410  0.155150  1.0  -0.6228
  O  O326  1  0.205400  0.441140  0.246270  1.0  -0.6807
  O  O327  1  0.238900  0.309270  0.268060  1.0  -0.6534
  O  O328  1  0.327500  0.300610  0.204030  1.0  -0.6228
  O  O329  1  0.846630  0.364430  0.342540  1.0  -0.5815
  O  O330  1  0.860650  0.328040  0.245850  1.0  -0.6427
  O  O331  1  0.757750  0.946350  0.216560  1.0  -0.6721
  O  O332  1  0.672250  0.956910  0.284240  1.0  -0.6198
  O  O333  1  0.346510  0.188650  0.594810  1.0  -0.5496
  O  O334  1  0.278900  0.252560  0.641890  1.0  -0.6195
  O  O335  1  0.293600  0.512830  0.353520  1.0  -0.6527
  O  O336  1  0.219300  0.448390  0.391830  1.0  -0.5664
  O  O337  1  0.722980  0.367230  0.155710  1.0  -0.6214
  O  O338  1  0.704430  0.312910  0.240860  1.0  -0.6785
  O  O339  1  0.362770  0.428960  0.248470  1.0  -0.6736
  O  O340  1  0.347200  0.383770  0.340280  1.0  -0.604
  O  O341  1  0.304900  0.263860  0.839960  1.0  -0.6412
  O  O342  1  0.222200  0.210580  0.882790  1.0  -0.5626
  O  O343  1  0.275800  0.515840  0.153690  1.0  -0.6454
  O  O344  1  0.345100  0.457550  0.100820  1.0  -0.557
  O  O345  1  0.722590  0.104590  0.655150  1.0  -0.6229
  O  O346  1  0.705400  0.058860  0.746270  1.0  -0.6816
  O  O347  1  0.738900  0.190730  0.768060  1.0  -0.6538
  O  O348  1  0.827500  0.199390  0.704030  1.0  -0.6216
  O  O349  1  0.346630  0.135570  0.842540  1.0  -0.5816
  O  O350  1  0.360650  0.171960  0.745850  1.0  -0.6424
  O  O351  1  0.257750  0.553650  0.716560  1.0  -0.6718
  O  O352  1  0.172250  0.543090  0.784240  1.0  -0.62
  O  O353  1  0.846510  0.311350  0.094810  1.0  -0.5506
  O  O354  1  0.778900  0.247440  0.141890  1.0  -0.618
  O  O355  1  0.793600  0.987170  0.853520  1.0  -0.6534
  O  O356  1  0.719300  0.051610  0.891830  1.0  -0.5663
  O  O357  1  0.222980  0.132770  0.655710  1.0  -0.6212
  O  O358  1  0.204430  0.187090  0.740860  1.0  -0.6778
  O  O359  1  0.862770  0.071040  0.748470  1.0  -0.6736
  O  O360  1  0.847200  0.116230  0.840280  1.0  -0.6038
  O  O361  1  0.804900  0.236140  0.339960  1.0  -0.6403
  O  O362  1  0.722200  0.289420  0.382790  1.0  -0.5626
  O  O363  1  0.775800  0.984160  0.653690  1.0  -0.6434
  O  O364  1  0.845100  0.042450  0.600820  1.0  -0.5568
  O  O365  1  0.777410  0.604590  0.844850  1.0  -0.6225
  O  O366  1  0.794600  0.558860  0.753730  1.0  -0.6823
  O  O367  1  0.761100  0.690730  0.731940  1.0  -0.6529
  O  O368  1  0.672500  0.699390  0.795970  1.0  -0.6215
  O  O369  1  0.153370  0.635570  0.657460  1.0  -0.5827
  O  O370  1  0.139350  0.671960  0.754150  1.0  -0.6422
  O  O371  1  0.242250  0.053650  0.783440  1.0  -0.6708
  O  O372  1  0.327750  0.043090  0.715760  1.0  -0.6211
  O  O373  1  0.653490  0.811350  0.405190  1.0  -0.5505
  O  O374  1  0.721100  0.747440  0.358110  1.0  -0.617
  O  O375  1  0.706400  0.487170  0.646480  1.0  -0.6538
  O  O376  1  0.780700  0.551610  0.608170  1.0  -0.5663
  O  O377  1  0.277020  0.632770  0.844290  1.0  -0.6186
  O  O378  1  0.295570  0.687090  0.759140  1.0  -0.6774
  O  O379  1  0.637230  0.571040  0.751530  1.0  -0.6734
  O  O380  1  0.652800  0.616230  0.659720  1.0  -0.6026
  O  O381  1  0.695100  0.736140  0.160040  1.0  -0.6403
  O  O382  1  0.777800  0.789420  0.117210  1.0  -0.5637
  O  O383  1  0.724200  0.484160  0.846310  1.0  -0.6429
  O  O384  1  0.654900  0.542450  0.899180  1.0  -0.5589
