# generated using pymatgen
data_In4P7H9O28
_symmetry_space_group_name_H-M   'P 1'
_cell_length_a   13.85900000
_cell_length_b   13.85900000
_cell_length_c   18.94490000
_cell_angle_alpha   90.00000000
_cell_angle_beta   90.00000000
_cell_angle_gamma   120.00000000
_symmetry_Int_Tables_number   1
_chemical_formula_structural   In4P7H9O28
_chemical_formula_sum   'In16 P28 H36 O112'
_cell_volume   3151.27815171
_cell_formula_units_Z   4
loop_
 _symmetry_equiv_pos_site_id
 _symmetry_equiv_pos_as_xyz
  1  'x, y, z'
loop_
 _atom_site_type_symbol
 _atom_site_label
 _atom_site_symmetry_multiplicity
 _atom_site_fract_x
 _atom_site_fract_y
 _atom_site_fract_z
 _atom_site_occupancy
 _atom_site_charge
  In  In1  1  0.293680  0.439010  0.453940  1.0  1.644
  In  In2  1  0.560990  0.854670  0.453940  1.0  1.6453
  In  In3  1  0.145330  0.706320  0.453940  1.0  1.6432
  In  In4  1  0.439010  0.293680  0.046060  1.0  1.6428
  In  In5  1  0.854670  0.560990  0.046060  1.0  1.6432
  In  In6  1  0.706320  0.145330  0.046060  1.0  1.6443
  In  In7  1  0.706320  0.560990  0.546060  1.0  1.6431
  In  In8  1  0.439010  0.145330  0.546060  1.0  1.643
  In  In9  1  0.854670  0.293680  0.546060  1.0  1.6445
  In  In10  1  0.560990  0.706320  0.953940  1.0  1.6448
  In  In11  1  0.145330  0.439010  0.953940  1.0  1.644
  In  In12  1  0.293680  0.854670  0.953940  1.0  1.6435
  In  In13  1  0.000000  0.000000  0.250000  1.0  1.5738
  In  In14  1  0.000000  0.000000  0.750000  1.0  1.5738
  In  In15  1  0.000000  0.000000  0.500000  1.0  1.5624
  In  In16  1  0.000000  0.000000  0.000000  1.0  1.5624
  P  P17  1  0.149860  0.193180  0.371600  1.0  1.9069
  P  P18  1  0.127340  0.495800  0.551790  1.0  1.6752
  P  P19  1  0.806820  0.956680  0.371600  1.0  1.9035
  P  P20  1  0.504200  0.631540  0.551790  1.0  1.6761
  P  P21  1  0.043320  0.850140  0.371600  1.0  1.9018
  P  P22  1  0.368460  0.872660  0.551790  1.0  1.6778
  P  P23  1  0.193180  0.149860  0.128400  1.0  1.9053
  P  P24  1  0.495800  0.127340  0.948210  1.0  1.6776
  P  P25  1  0.956680  0.806820  0.128400  1.0  1.9016
  P  P26  1  0.631540  0.504200  0.948210  1.0  1.675
  P  P27  1  0.850140  0.043320  0.128400  1.0  1.9044
  P  P28  1  0.872660  0.368460  0.948210  1.0  1.6755
  P  P29  1  0.850140  0.806820  0.628400  1.0  1.9068
  P  P30  1  0.872660  0.504200  0.448210  1.0  1.6747
  P  P31  1  0.193180  0.043320  0.628400  1.0  1.9032
  P  P32  1  0.495800  0.368460  0.448210  1.0  1.6743
  P  P33  1  0.956680  0.149860  0.628400  1.0  1.9018
  P  P34  1  0.631540  0.127340  0.448210  1.0  1.6769
  P  P35  1  0.806820  0.850140  0.871600  1.0  1.9084
  P  P36  1  0.504200  0.872660  0.051790  1.0  1.6768
  P  P37  1  0.043320  0.193180  0.871600  1.0  1.9015
  P  P38  1  0.368460  0.495800  0.051790  1.0  1.6754
  P  P39  1  0.149860  0.956680  0.871600  1.0  1.9025
  P  P40  1  0.127340  0.631540  0.051790  1.0  1.6744
  P  P41  1  0.333333  0.666667  0.357070  1.0  1.7239
  P  P42  1  0.666667  0.333333  0.142930  1.0  1.7225
  P  P43  1  0.666667  0.333333  0.642930  1.0  1.7225
  P  P44  1  0.333333  0.666667  0.857070  1.0  1.7239
  H  H45  1  0.316200  0.254700  0.343500  1.0  0.1234
  H  H46  1  0.278000  0.536400  0.604400  1.0  0.2811
  H  H47  1  0.391700  0.667700  0.258900  1.0  0.2831
  H  H48  1  0.745300  0.061500  0.343500  1.0  0.1226
  H  H49  1  0.463600  0.741600  0.604400  1.0  0.2776
  H  H50  1  0.332300  0.724000  0.258900  1.0  0.2955
  H  H51  1  0.938500  0.683800  0.343500  1.0  0.1245
  H  H52  1  0.258400  0.722000  0.604400  1.0  0.2822
  H  H53  1  0.276000  0.608300  0.258900  1.0  0.292
  H  H54  1  0.254700  0.316200  0.156500  1.0  0.1248
  H  H55  1  0.536400  0.278000  0.895600  1.0  0.2826
  H  H56  1  0.667700  0.391700  0.241100  1.0  0.2957
  H  H57  1  0.061500  0.745300  0.156500  1.0  0.1248
  H  H58  1  0.741600  0.463600  0.895600  1.0  0.2813
  H  H59  1  0.724000  0.332300  0.241100  1.0  0.2835
  H  H60  1  0.683800  0.938500  0.156500  1.0  0.1231
  H  H61  1  0.722000  0.258400  0.895600  1.0  0.2773
  H  H62  1  0.608300  0.276000  0.241100  1.0  0.2911
  H  H63  1  0.683800  0.745300  0.656500  1.0  0.1253
  H  H64  1  0.722000  0.463600  0.395600  1.0  0.2823
  H  H65  1  0.608300  0.332300  0.741100  1.0  0.287
  H  H66  1  0.254700  0.938500  0.656500  1.0  0.1237
  H  H67  1  0.536400  0.258400  0.395600  1.0  0.2795
  H  H68  1  0.667700  0.276000  0.741100  1.0  0.2903
  H  H69  1  0.061500  0.316200  0.656500  1.0  0.1252
  H  H70  1  0.741600  0.278000  0.395600  1.0  0.2818
  H  H71  1  0.724000  0.391700  0.741100  1.0  0.295
  H  H72  1  0.745300  0.683800  0.843500  1.0  0.1243
  H  H73  1  0.463600  0.722000  0.104400  1.0  0.282
  H  H74  1  0.332300  0.608300  0.758900  1.0  0.2902
  H  H75  1  0.938500  0.254700  0.843500  1.0  0.1237
  H  H76  1  0.258400  0.536400  0.104400  1.0  0.2818
  H  H77  1  0.276000  0.667700  0.758900  1.0  0.287
  H  H78  1  0.316200  0.061500  0.843500  1.0  0.1228
  H  H79  1  0.278000  0.741600  0.104400  1.0  0.2792
  H  H80  1  0.391700  0.724000  0.758900  1.0  0.2944
  O  O81  1  0.065300  0.145800  0.314690  1.0  -0.8007
  O  O82  1  0.107400  0.136800  0.437800  1.0  -0.7672
  O  O83  1  0.189500  0.316400  0.378760  1.0  -0.7609
  O  O84  1  0.251800  0.181900  0.347750  1.0  -0.5562
  O  O85  1  0.145800  0.436700  0.490860  1.0  -0.814
  O  O86  1  0.007800  0.433500  0.576400  1.0  -0.8252
  O  O87  1  0.200700  0.497100  0.617450  1.0  -0.5761
  O  O88  1  0.168200  0.615700  0.534050  1.0  -0.8551
  O  O89  1  0.335300  0.563300  0.377520  1.0  -0.8739
  O  O90  1  0.854200  0.919500  0.314690  1.0  -0.8043
  O  O91  1  0.863200  0.970600  0.437800  1.0  -0.7669
  O  O92  1  0.683600  0.873100  0.378760  1.0  -0.7629
  O  O93  1  0.818100  0.069900  0.347750  1.0  -0.5529
  O  O94  1  0.563300  0.709100  0.490860  1.0  -0.8123
  O  O95  1  0.566500  0.574300  0.576400  1.0  -0.8252
  O  O96  1  0.502900  0.703600  0.617450  1.0  -0.574
  O  O97  1  0.384300  0.552500  0.534050  1.0  -0.8559
  O  O98  1  0.436700  0.772000  0.377520  1.0  -0.8736
  O  O99  1  0.080500  0.934700  0.314690  1.0  -0.8005
  O  O100  1  0.029400  0.892600  0.437800  1.0  -0.7673
  O  O101  1  0.126900  0.810500  0.378760  1.0  -0.7614
  O  O102  1  0.930100  0.748200  0.347750  1.0  -0.5568
  O  O103  1  0.290900  0.854200  0.490860  1.0  -0.8125
  O  O104  1  0.425700  0.992200  0.576400  1.0  -0.8265
  O  O105  1  0.296400  0.799300  0.617450  1.0  -0.5758
  O  O106  1  0.447500  0.831800  0.534050  1.0  -0.8539
  O  O107  1  0.228000  0.664700  0.377520  1.0  -0.8687
  O  O108  1  0.145800  0.065300  0.185310  1.0  -0.8011
  O  O109  1  0.136800  0.107400  0.062200  1.0  -0.7672
  O  O110  1  0.316400  0.189500  0.121240  1.0  -0.7609
  O  O111  1  0.181900  0.251800  0.152250  1.0  -0.556
  O  O112  1  0.436700  0.145800  0.009140  1.0  -0.8142
  O  O113  1  0.433500  0.007800  0.923600  1.0  -0.8253
  O  O114  1  0.497100  0.200700  0.882550  1.0  -0.5763
  O  O115  1  0.615700  0.168200  0.965950  1.0  -0.855
  O  O116  1  0.563300  0.335300  0.122480  1.0  -0.8688
  O  O117  1  0.919500  0.854200  0.185310  1.0  -0.8003
  O  O118  1  0.970600  0.863200  0.062200  1.0  -0.7664
  O  O119  1  0.873100  0.683600  0.121240  1.0  -0.761
  O  O120  1  0.069900  0.818100  0.152250  1.0  -0.5566
  O  O121  1  0.709100  0.563300  0.009140  1.0  -0.8147
  O  O122  1  0.574300  0.566500  0.923600  1.0  -0.8252
  O  O123  1  0.703600  0.502900  0.882550  1.0  -0.577
  O  O124  1  0.552500  0.384300  0.965950  1.0  -0.8548
  O  O125  1  0.772000  0.436700  0.122480  1.0  -0.8733
  O  O126  1  0.934700  0.080500  0.185310  1.0  -0.8038
  O  O127  1  0.892600  0.029400  0.062200  1.0  -0.7665
  O  O128  1  0.810500  0.126900  0.121240  1.0  -0.7619
  O  O129  1  0.748200  0.930100  0.152250  1.0  -0.5524
  O  O130  1  0.854200  0.290900  0.009140  1.0  -0.8135
  O  O131  1  0.992200  0.425700  0.923600  1.0  -0.8257
  O  O132  1  0.799300  0.296400  0.882550  1.0  -0.5751
  O  O133  1  0.831800  0.447500  0.965950  1.0  -0.8565
  O  O134  1  0.664700  0.228000  0.122480  1.0  -0.8745
  O  O135  1  0.934700  0.854200  0.685310  1.0  -0.8006
  O  O136  1  0.892600  0.863200  0.562200  1.0  -0.7663
  O  O137  1  0.810500  0.683600  0.621240  1.0  -0.7608
  O  O138  1  0.748200  0.818100  0.652250  1.0  -0.5565
  O  O139  1  0.854200  0.563300  0.509140  1.0  -0.8146
  O  O140  1  0.992200  0.566500  0.423600  1.0  -0.8246
  O  O141  1  0.799300  0.502900  0.382550  1.0  -0.5762
  O  O142  1  0.831800  0.384300  0.465950  1.0  -0.8546
  O  O143  1  0.664700  0.436700  0.622480  1.0  -0.8722
  O  O144  1  0.145800  0.080500  0.685310  1.0  -0.8034
  O  O145  1  0.136800  0.029400  0.562200  1.0  -0.7659
  O  O146  1  0.316400  0.126900  0.621240  1.0  -0.7623
  O  O147  1  0.181900  0.930100  0.652250  1.0  -0.5552
  O  O148  1  0.436700  0.290900  0.509140  1.0  -0.8146
  O  O149  1  0.433500  0.425700  0.423600  1.0  -0.8263
  O  O150  1  0.497100  0.296400  0.382550  1.0  -0.5751
  O  O151  1  0.615700  0.447500  0.465950  1.0  -0.8563
  O  O152  1  0.563300  0.228000  0.622480  1.0  -0.8744
  O  O153  1  0.919500  0.065300  0.685310  1.0  -0.8013
  O  O154  1  0.970600  0.107400  0.562200  1.0  -0.7674
  O  O155  1  0.873100  0.189500  0.621240  1.0  -0.7609
  O  O156  1  0.069900  0.251800  0.652250  1.0  -0.5566
  O  O157  1  0.709100  0.145800  0.509140  1.0  -0.8144
  O  O158  1  0.574300  0.007800  0.423600  1.0  -0.8263
  O  O159  1  0.703600  0.200700  0.382550  1.0  -0.5756
  O  O160  1  0.552500  0.168200  0.465950  1.0  -0.8556
  O  O161  1  0.772000  0.335300  0.622480  1.0  -0.8738
  O  O162  1  0.854200  0.934700  0.814690  1.0  -0.8008
  O  O163  1  0.863200  0.892600  0.937800  1.0  -0.7677
  O  O164  1  0.683600  0.810500  0.878760  1.0  -0.7622
  O  O165  1  0.818100  0.748200  0.847750  1.0  -0.5551
  O  O166  1  0.563300  0.854200  0.990860  1.0  -0.8127
  O  O167  1  0.566500  0.992200  0.076400  1.0  -0.8272
  O  O168  1  0.502900  0.799300  0.117450  1.0  -0.5755
  O  O169  1  0.384300  0.831800  0.034050  1.0  -0.8555
  O  O170  1  0.436700  0.664700  0.877520  1.0  -0.873
  O  O171  1  0.080500  0.145800  0.814690  1.0  -0.801
  O  O172  1  0.029400  0.136800  0.937800  1.0  -0.7672
  O  O173  1  0.126900  0.316400  0.878760  1.0  -0.7606
  O  O174  1  0.930100  0.181900  0.847750  1.0  -0.5569
  O  O175  1  0.290900  0.436700  0.990860  1.0  -0.814
  O  O176  1  0.425700  0.433500  0.076400  1.0  -0.825
  O  O177  1  0.296400  0.497100  0.117450  1.0  -0.5748
  O  O178  1  0.447500  0.615700  0.034050  1.0  -0.8541
  O  O179  1  0.228000  0.563300  0.877520  1.0  -0.8727
  O  O180  1  0.065300  0.919500  0.814690  1.0  -0.8042
  O  O181  1  0.107400  0.970600  0.937800  1.0  -0.7661
  O  O182  1  0.189500  0.873100  0.878760  1.0  -0.7631
  O  O183  1  0.251800  0.069900  0.847750  1.0  -0.5548
  O  O184  1  0.145800  0.709100  0.990860  1.0  -0.8128
  O  O185  1  0.007800  0.574300  0.076400  1.0  -0.8253
  O  O186  1  0.200700  0.703600  0.117450  1.0  -0.5744
  O  O187  1  0.168200  0.552500  0.034050  1.0  -0.8558
  O  O188  1  0.335300  0.772000  0.877520  1.0  -0.8741
  O  O189  1  0.333333  0.666667  0.273900  1.0  -0.5612
  O  O190  1  0.666667  0.333333  0.226100  1.0  -0.5622
  O  O191  1  0.666667  0.333333  0.726100  1.0  -0.5622
  O  O192  1  0.333333  0.666667  0.773900  1.0  -0.5612
