# generated using pymatgen
data_InP2(HO4)2
_symmetry_space_group_name_H-M   'P 1'
_cell_length_a   18.31710000
_cell_length_b   8.76020000
_cell_length_c   19.42720000
_cell_angle_alpha   90.00000000
_cell_angle_beta   128.94500000
_cell_angle_gamma   90.00000000
_symmetry_Int_Tables_number   1
_chemical_formula_structural   InP2(HO4)2
_chemical_formula_sum   'In12 P24 H24 O96'
_cell_volume   2424.49227955
_cell_formula_units_Z   12
loop_
 _symmetry_equiv_pos_site_id
 _symmetry_equiv_pos_as_xyz
  1  'x, y, z'
loop_
 _atom_site_type_symbol
 _atom_site_label
 _atom_site_symmetry_multiplicity
 _atom_site_fract_x
 _atom_site_fract_y
 _atom_site_fract_z
 _atom_site_occupancy
 _atom_site_charge
  In  In1  1  0.174040  0.470490  0.659430  1.0  1.6732
  In  In2  1  0.674040  0.970490  0.659430  1.0  1.6774
  In  In3  1  0.825960  0.470490  0.840570  1.0  1.6717
  In  In4  1  0.325960  0.970490  0.840570  1.0  1.6759
  In  In5  1  0.825960  0.529510  0.340570  1.0  1.6698
  In  In6  1  0.325960  0.029510  0.340570  1.0  1.6699
  In  In7  1  0.174040  0.529510  0.159430  1.0  1.6714
  In  In8  1  0.674040  0.029510  0.159430  1.0  1.6713
  In  In9  1  0.000000  0.464680  0.750000  1.0  1.6445
  In  In10  1  0.500000  0.964680  0.750000  1.0  1.6445
  In  In11  1  0.000000  0.535320  0.250000  1.0  1.6429
  In  In12  1  0.500000  0.035320  0.250000  1.0  1.6429
  P  P13  1  0.142100  0.205200  0.761830  1.0  1.7631
  P  P14  1  0.809730  0.674400  0.685270  1.0  1.7444
  P  P15  1  0.957450  0.603200  0.568510  1.0  1.6875
  P  P16  1  0.642100  0.705200  0.761830  1.0  1.7631
  P  P17  1  0.309730  0.174400  0.685270  1.0  1.7444
  P  P18  1  0.457450  0.103200  0.568510  1.0  1.6875
  P  P19  1  0.857900  0.205200  0.738170  1.0  1.7622
  P  P20  1  0.190270  0.674400  0.814730  1.0  1.7452
  P  P21  1  0.042550  0.603200  0.931490  1.0  1.6888
  P  P22  1  0.357900  0.705200  0.738170  1.0  1.7622
  P  P23  1  0.690270  0.174400  0.814730  1.0  1.7452
  P  P24  1  0.542550  0.103200  0.931490  1.0  1.6888
  P  P25  1  0.857900  0.794800  0.238170  1.0  1.7624
  P  P26  1  0.190270  0.325600  0.314730  1.0  1.7448
  P  P27  1  0.042550  0.396800  0.431490  1.0  1.6883
  P  P28  1  0.357900  0.294800  0.238170  1.0  1.7624
  P  P29  1  0.690270  0.825600  0.314730  1.0  1.7448
  P  P30  1  0.542550  0.896800  0.431490  1.0  1.6883
  P  P31  1  0.142100  0.794800  0.261830  1.0  1.7632
  P  P32  1  0.809730  0.325600  0.185270  1.0  1.7446
  P  P33  1  0.957450  0.396800  0.068510  1.0  1.6881
  P  P34  1  0.642100  0.294800  0.261830  1.0  1.7632
  P  P35  1  0.309730  0.825600  0.185270  1.0  1.7446
  P  P36  1  0.457450  0.896800  0.068510  1.0  1.6881
  H  H37  1  0.116100  0.977700  0.746300  1.0  0.4319
  H  H38  1  0.706000  0.732400  0.558600  1.0  0.4122
  H  H39  1  0.981500  0.763700  0.655600  1.0  0.3891
  H  H40  1  0.616100  0.477700  0.746300  1.0  0.4319
  H  H41  1  0.206000  0.232400  0.558600  1.0  0.4122
  H  H42  1  0.481500  0.263700  0.655600  1.0  0.3891
  H  H43  1  0.883900  0.977700  0.753700  1.0  0.431
  H  H44  1  0.294000  0.732400  0.941400  1.0  0.4123
  H  H45  1  0.018500  0.763700  0.844400  1.0  0.3897
  H  H46  1  0.383900  0.477700  0.753700  1.0  0.431
  H  H47  1  0.794000  0.232400  0.941400  1.0  0.4123
  H  H48  1  0.518500  0.263700  0.844400  1.0  0.3897
  H  H49  1  0.883900  0.022300  0.253700  1.0  0.431
  H  H50  1  0.294000  0.267600  0.441400  1.0  0.4127
  H  H51  1  0.018500  0.236300  0.344400  1.0  0.3885
  H  H52  1  0.383900  0.522300  0.253700  1.0  0.431
  H  H53  1  0.794000  0.767600  0.441400  1.0  0.4127
  H  H54  1  0.518500  0.736300  0.344400  1.0  0.3885
  H  H55  1  0.116100  0.022300  0.246300  1.0  0.432
  H  H56  1  0.706000  0.267600  0.058600  1.0  0.4124
  H  H57  1  0.981500  0.236300  0.155600  1.0  0.3889
  H  H58  1  0.616100  0.522300  0.246300  1.0  0.432
  H  H59  1  0.206000  0.767600  0.058600  1.0  0.4124
  H  H60  1  0.481500  0.736300  0.155600  1.0  0.3889
  O  O61  1  0.109300  0.306700  0.801800  1.0  -0.7658
  O  O62  1  0.123300  0.276100  0.680900  1.0  -0.7957
  O  O63  1  0.080400  0.055200  0.728300  1.0  -0.616
  O  O64  1  0.244700  0.157700  0.834200  1.0  -0.7588
  O  O65  1  0.797800  0.833200  0.709900  1.0  -0.8658
  O  O66  1  0.911100  0.656200  0.721700  1.0  -0.7358
  O  O67  1  0.747400  0.662600  0.582100  1.0  -0.608
  O  O68  1  0.777000  0.548200  0.713500  1.0  -0.7902
  O  O69  1  0.051300  0.610000  0.587100  1.0  -0.8028
  O  O70  1  0.943900  0.760300  0.599400  1.0  -0.6173
  O  O71  1  0.951500  0.474100  0.616200  1.0  -0.7559
  O  O72  1  0.875200  0.601700  0.470000  1.0  -0.8178
  O  O73  1  0.609300  0.806700  0.801800  1.0  -0.7658
  O  O74  1  0.623300  0.776100  0.680900  1.0  -0.7957
  O  O75  1  0.580400  0.555200  0.728300  1.0  -0.616
  O  O76  1  0.744700  0.657700  0.834200  1.0  -0.7588
  O  O77  1  0.297800  0.333200  0.709900  1.0  -0.8658
  O  O78  1  0.411100  0.156200  0.721700  1.0  -0.7358
  O  O79  1  0.247400  0.162600  0.582100  1.0  -0.608
  O  O80  1  0.277000  0.048200  0.713500  1.0  -0.7902
  O  O81  1  0.551300  0.110000  0.587100  1.0  -0.8028
  O  O82  1  0.443900  0.260300  0.599400  1.0  -0.6173
  O  O83  1  0.451500  0.974100  0.616200  1.0  -0.7559
  O  O84  1  0.375200  0.101700  0.470000  1.0  -0.8178
  O  O85  1  0.890700  0.306700  0.698200  1.0  -0.7665
  O  O86  1  0.876700  0.276100  0.819100  1.0  -0.7954
  O  O87  1  0.919600  0.055200  0.771700  1.0  -0.6144
  O  O88  1  0.755300  0.157700  0.665800  1.0  -0.7571
  O  O89  1  0.202200  0.833200  0.790100  1.0  -0.8647
  O  O90  1  0.088900  0.656200  0.778300  1.0  -0.7284
  O  O91  1  0.252600  0.662600  0.917900  1.0  -0.6077
  O  O92  1  0.223000  0.548200  0.786500  1.0  -0.7897
  O  O93  1  0.948700  0.610000  0.912900  1.0  -0.805
  O  O94  1  0.056100  0.760300  0.900600  1.0  -0.616
  O  O95  1  0.048500  0.474100  0.883800  1.0  -0.7559
  O  O96  1  0.124800  0.601700  0.030000  1.0  -0.8179
  O  O97  1  0.390700  0.806700  0.698200  1.0  -0.7665
  O  O98  1  0.376700  0.776100  0.819100  1.0  -0.7954
  O  O99  1  0.419600  0.555200  0.771700  1.0  -0.6144
  O  O100  1  0.255300  0.657700  0.665800  1.0  -0.7582
  O  O101  1  0.702200  0.333200  0.790100  1.0  -0.8647
  O  O102  1  0.588900  0.156200  0.778300  1.0  -0.7284
  O  O103  1  0.752600  0.162600  0.917900  1.0  -0.6077
  O  O104  1  0.723000  0.048200  0.786500  1.0  -0.7897
  O  O105  1  0.448700  0.110000  0.912900  1.0  -0.805
  O  O106  1  0.556100  0.260300  0.900600  1.0  -0.616
  O  O107  1  0.548500  0.974100  0.883800  1.0  -0.7559
  O  O108  1  0.624800  0.101700  0.030000  1.0  -0.8179
  O  O109  1  0.890700  0.693300  0.198200  1.0  -0.7671
  O  O110  1  0.876700  0.723900  0.319100  1.0  -0.7957
  O  O111  1  0.919600  0.944800  0.271700  1.0  -0.6134
  O  O112  1  0.755300  0.842300  0.165800  1.0  -0.758
  O  O113  1  0.202200  0.166800  0.290100  1.0  -0.8652
  O  O114  1  0.088900  0.343800  0.278300  1.0  -0.735
  O  O115  1  0.252600  0.337400  0.417900  1.0  -0.6075
  O  O116  1  0.223000  0.451800  0.286500  1.0  -0.7892
  O  O117  1  0.948700  0.390000  0.412900  1.0  -0.8014
  O  O118  1  0.056100  0.239700  0.400600  1.0  -0.6159
  O  O119  1  0.048500  0.525900  0.383800  1.0  -0.7548
  O  O120  1  0.124800  0.398300  0.530000  1.0  -0.8182
  O  O121  1  0.390700  0.193300  0.198200  1.0  -0.7671
  O  O122  1  0.376700  0.223900  0.319100  1.0  -0.7957
  O  O123  1  0.419600  0.444800  0.271700  1.0  -0.6134
  O  O124  1  0.255300  0.342300  0.165800  1.0  -0.758
  O  O125  1  0.702200  0.666800  0.290100  1.0  -0.8652
  O  O126  1  0.588900  0.843800  0.278300  1.0  -0.735
  O  O127  1  0.752600  0.837400  0.417900  1.0  -0.6075
  O  O128  1  0.723000  0.951800  0.286500  1.0  -0.7892
  O  O129  1  0.448700  0.890000  0.412900  1.0  -0.8014
  O  O130  1  0.556100  0.739700  0.400600  1.0  -0.6159
  O  O131  1  0.548500  0.025900  0.383800  1.0  -0.7548
  O  O132  1  0.624800  0.898300  0.530000  1.0  -0.8182
  O  O133  1  0.109300  0.693300  0.301800  1.0  -0.7667
  O  O134  1  0.123300  0.723900  0.180900  1.0  -0.7959
  O  O135  1  0.080400  0.944800  0.228300  1.0  -0.6156
  O  O136  1  0.244700  0.842300  0.334200  1.0  -0.7579
  O  O137  1  0.797800  0.166800  0.209900  1.0  -0.866
  O  O138  1  0.911100  0.343800  0.221700  1.0  -0.7291
  O  O139  1  0.747400  0.337400  0.082100  1.0  -0.6085
  O  O140  1  0.777000  0.451800  0.213500  1.0  -0.7898
  O  O141  1  0.051300  0.390000  0.087100  1.0  -0.8009
  O  O142  1  0.943900  0.239700  0.099400  1.0  -0.6174
  O  O143  1  0.951500  0.525900  0.116200  1.0  -0.7547
  O  O144  1  0.875200  0.398300  0.970000  1.0  -0.8182
  O  O145  1  0.609300  0.193300  0.301800  1.0  -0.7667
  O  O146  1  0.623300  0.223900  0.180900  1.0  -0.7959
  O  O147  1  0.580400  0.444800  0.228300  1.0  -0.6156
  O  O148  1  0.744700  0.342300  0.334200  1.0  -0.7591
  O  O149  1  0.297800  0.666800  0.209900  1.0  -0.866
  O  O150  1  0.411100  0.843800  0.221700  1.0  -0.7291
  O  O151  1  0.247400  0.837400  0.082100  1.0  -0.6085
  O  O152  1  0.277000  0.951800  0.213500  1.0  -0.7898
  O  O153  1  0.551300  0.890000  0.087100  1.0  -0.8009
  O  O154  1  0.443900  0.739700  0.099400  1.0  -0.6174
  O  O155  1  0.451500  0.025900  0.116200  1.0  -0.7547
  O  O156  1  0.375200  0.898300  0.970000  1.0  -0.8182
