# generated using pymatgen
data_HoSb2H24C20(NO4)4
_symmetry_space_group_name_H-M   'P 1'
_cell_length_a   7.23890000
_cell_length_b   22.16400000
_cell_length_c   10.63300000
_cell_angle_alpha   90.00000000
_cell_angle_beta   90.80000000
_cell_angle_gamma   90.00000000
_symmetry_Int_Tables_number   1
_chemical_formula_structural   HoSb2H24C20(NO4)4
_chemical_formula_sum   'Ho2 Sb4 H48 C40 N8 O32'
_cell_volume   1705.82390900
_cell_formula_units_Z   2
loop_
 _symmetry_equiv_pos_site_id
 _symmetry_equiv_pos_as_xyz
  1  'x, y, z'
loop_
 _atom_site_type_symbol
 _atom_site_label
 _atom_site_symmetry_multiplicity
 _atom_site_fract_x
 _atom_site_fract_y
 _atom_site_fract_z
 _atom_site_occupancy
 _atom_site_charge
  Ho  Ho1  1  0.263170  0.250370  0.848820  1.0  2.1325
  Ho  Ho2  1  0.763170  0.749630  0.348820  1.0  2.1325
  Sb  Sb3  1  0.452670  0.992570  0.139050  1.0  1.1535
  Sb  Sb4  1  0.575080  0.482190  0.595980  1.0  1.1448
  Sb  Sb5  1  0.952670  0.007430  0.639050  1.0  1.1531
  Sb  Sb6  1  0.075080  0.517800  0.095980  1.0  1.1235
  H  H7  1  0.271500  0.127700  0.221500  1.0  0.1009
  H  H8  1  0.070100  0.105300  0.260700  1.0  0.0944
  H  H9  1  0.094200  0.121000  0.021000  1.0  0.0883
  H  H10  1  0.146800  0.062600  0.940300  1.0  0.1024
  H  H11  1  0.005000  0.995600  0.040900  1.0  0.0919
  H  H12  1  0.917900  0.031500  0.156000  1.0  0.0742
  H  H13  1  0.063500  0.967200  0.298000  1.0  0.0802
  H  H14  1  0.940600  0.928700  0.199800  1.0  0.0628
  H  H15  1  0.261300  0.897300  0.349800  1.0  0.1019
  H  H16  1  0.179400  0.844100  0.263400  1.0  0.0993
  H  H17  1  0.254600  0.851400  0.047900  1.0  0.1023
  H  H18  1  0.057200  0.883000  0.032000  1.0  0.0866
  H  H19  1  0.779000  0.388600  0.816100  1.0  0.0959
  H  H20  1  0.843500  0.333600  0.729700  1.0  0.1
  H  H21  1  0.762100  0.341400  0.515100  1.0  0.1114
  H  H22  1  0.967000  0.367800  0.506800  1.0  0.1014
  H  H23  1  0.966300  0.458400  0.760600  1.0  0.0824
  H  H24  1  0.086700  0.420200  0.663900  1.0  0.075
  H  H25  1  0.112800  0.524400  0.626900  1.0  0.0815
  H  H26  1  0.031500  0.489800  0.506000  1.0  0.0895
  H  H27  1  0.768300  0.617600  0.689700  1.0  0.1002
  H  H28  1  0.965600  0.591400  0.732000  1.0  0.0873
  H  H29  1  0.886100  0.556500  0.409500  1.0  0.1008
  H  H30  1  0.938100  0.612900  0.497500  1.0  0.0811
  H  H31  1  0.771500  0.872300  0.721500  1.0  0.1012
  H  H32  1  0.570100  0.894700  0.760700  1.0  0.0938
  H  H33  1  0.594200  0.879000  0.521000  1.0  0.0887
  H  H34  1  0.646800  0.937400  0.440300  1.0  0.1012
  H  H35  1  0.505000  0.004400  0.540900  1.0  0.0916
  H  H36  1  0.417900  0.968500  0.656000  1.0  0.0734
  H  H37  1  0.563500  0.032800  0.798000  1.0  0.0798
  H  H38  1  0.440600  0.071300  0.699800  1.0  0.0636
  H  H39  1  0.761300  0.102700  0.849800  1.0  0.1009
  H  H40  1  0.679400  0.155900  0.763400  1.0  0.0996
  H  H41  1  0.754600  0.148600  0.547900  1.0  0.1039
  H  H42  1  0.557200  0.117000  0.532000  1.0  0.0865
  H  H43  1  0.279000  0.611400  0.316100  1.0  0.0949
  H  H44  1  0.343500  0.666400  0.229700  1.0  0.0986
  H  H45  1  0.262100  0.658600  0.015100  1.0  0.1124
  H  H46  1  0.467000  0.632200  0.006800  1.0  0.1042
  H  H47  1  0.466300  0.541600  0.260600  1.0  0.0814
  H  H48  1  0.586700  0.579800  0.163900  1.0  0.0762
  H  H49  1  0.612800  0.475600  0.126900  1.0  0.0811
  H  H50  1  0.531500  0.510200  0.006000  1.0  0.0894
  H  H51  1  0.268300  0.382400  0.189700  1.0  0.1005
  H  H52  1  0.465600  0.408600  0.232000  1.0  0.0877
  H  H53  1  0.386100  0.443500  0.909500  1.0  0.0998
  H  H54  1  0.438100  0.387100  0.997500  1.0  0.0812
  C  C55  1  0.196800  0.091600  0.241400  1.0  -0.2282
  C  C56  1  0.278800  0.060700  0.354800  1.0  0.724
  C  C57  1  0.185600  0.088100  0.012300  1.0  -0.1389
  C  C58  1  0.371900  0.114500  0.987700  1.0  0.7269
  C  C59  1  0.028300  0.009000  0.128500  1.0  -0.0193
  C  C60  1  0.050100  0.955200  0.208600  1.0  0.0089
  C  C61  1  0.268700  0.877900  0.266100  1.0  -0.1956
  C  C62  1  0.463400  0.853700  0.247000  1.0  0.7189
  C  C63  1  0.190900  0.890900  0.044000  1.0  -0.2066
  C  C64  1  0.259500  0.925200  0.931900  1.0  0.7171
  C  C65  1  0.759900  0.368900  0.733400  1.0  -0.2016
  C  C66  1  0.562400  0.347500  0.722600  1.0  0.7266
  C  C67  1  0.835200  0.379100  0.513100  1.0  -0.2235
  C  C68  1  0.779600  0.414800  0.395600  1.0  0.7082
  C  C69  1  0.977000  0.446600  0.671200  1.0  -0.0287
  C  C70  1  0.004900  0.501800  0.593700  1.0  -0.0261
  C  C71  1  0.837200  0.580100  0.708900  1.0  -0.198
  C  C72  1  0.749100  0.548800  0.819200  1.0  0.7149
  C  C73  1  0.846500  0.580400  0.483100  1.0  -0.1308
  C  C74  1  0.654800  0.608300  0.455700  1.0  0.7206
  C  C75  1  0.696800  0.908400  0.741400  1.0  -0.2256
  C  C76  1  0.778800  0.939300  0.854800  1.0  0.7241
  C  C77  1  0.685600  0.911900  0.512300  1.0  -0.1375
  C  C78  1  0.871900  0.885500  0.487700  1.0  0.7279
  C  C79  1  0.528300  0.991000  0.628500  1.0  -0.0195
  C  C80  1  0.550100  0.044800  0.708600  1.0  0.009
  C  C81  1  0.768700  0.122100  0.766100  1.0  -0.1959
  C  C82  1  0.963400  0.146300  0.747000  1.0  0.7177
  C  C83  1  0.690900  0.109100  0.544000  1.0  -0.2083
  C  C84  1  0.759500  0.074800  0.431900  1.0  0.7173
  C  C85  1  0.259900  0.631100  0.233400  1.0  -0.2035
  C  C86  1  0.062400  0.652500  0.222600  1.0  0.7292
  C  C87  1  0.335200  0.620900  0.013100  1.0  -0.2257
  C  C88  1  0.279600  0.585200  0.895600  1.0  0.7087
  C  C89  1  0.477000  0.553400  0.171200  1.0  -0.0288
  C  C90  1  0.504900  0.498200  0.093700  1.0  -0.0261
  C  C91  1  0.337200  0.419900  0.208900  1.0  -0.1953
  C  C92  1  0.249100  0.451200  0.319200  1.0  0.7156
  C  C93  1  0.346500  0.419600  0.983100  1.0  -0.1297
  C  C94  1  0.154800  0.391700  0.955700  1.0  0.7201
  N  N95  1  0.190100  0.051000  0.129900  1.0  -0.171
  N  N96  1  0.219900  0.922700  0.166600  1.0  -0.1709
  N  N97  1  0.808500  0.411900  0.632600  1.0  -0.1569
  N  N98  1  0.839300  0.541300  0.594500  1.0  -0.2338
  N  N99  1  0.690100  0.949000  0.629900  1.0  -0.1702
  N  N100  1  0.719900  0.077300  0.666667  1.0  -0.17
  N  N101  1  0.308500  0.588100  0.132600  1.0  -0.1576
  N  N102  1  0.339300  0.458700  0.094500  1.0  -0.234
  O  O103  1  0.370800  0.011900  0.335800  1.0  -0.6362
  O  O104  1  0.256600  0.083900  0.458900  1.0  -0.5723
  O  O105  1  0.512300  0.088800  0.037200  1.0  -0.6475
  O  O106  1  0.382000  0.159500  0.916500  1.0  -0.7201
  O  O107  1  0.573200  0.887400  0.189300  1.0  -0.6268
  O  O108  1  0.502700  0.803400  0.296600  1.0  -0.7137
  O  O109  1  0.361500  0.972900  0.954000  1.0  -0.5875
  O  O110  1  0.220000  0.907800  0.825300  1.0  -0.5736
  O  O111  1  0.452800  0.377600  0.654900  1.0  -0.6287
  O  O112  1  0.522100  0.301200  0.784500  1.0  -0.7049
  O  O113  1  0.680000  0.462600  0.414200  1.0  -0.6021
  O  O114  1  0.824800  0.397000  0.291900  1.0  -0.5488
  O  O115  1  0.648100  0.501300  0.794600  1.0  -0.6097
  O  O116  1  0.768500  0.570100  0.924100  1.0  -0.5285
  O  O117  1  0.517100  0.579300  0.495000  1.0  -0.6303
  O  O118  1  0.645600  0.655500  0.392700  1.0  -0.7184
  O  O119  1  0.870800  0.988100  0.835800  1.0  -0.6376
  O  O120  1  0.756600  0.916100  0.958900  1.0  -0.5739
  O  O121  1  0.012300  0.911200  0.537200  1.0  -0.6473
  O  O122  1  0.882000  0.840500  0.416500  1.0  -0.72
  O  O123  1  0.073200  0.112600  0.689300  1.0  -0.6249
  O  O124  1  0.002700  0.196600  0.796600  1.0  -0.7167
  O  O125  1  0.861500  0.027100  0.454000  1.0  -0.5893
  O  O126  1  0.720000  0.092200  0.325300  1.0  -0.572
  O  O127  1  0.952800  0.622400  0.154900  1.0  -0.6302
  O  O128  1  0.022100  0.698800  0.284500  1.0  -0.7075
  O  O129  1  0.180000  0.537400  0.914200  1.0  -0.6028
  O  O130  1  0.324800  0.603000  0.791900  1.0  -0.5449
  O  O131  1  0.148100  0.498700  0.294600  1.0  -0.6097
  O  O132  1  0.268500  0.429900  0.424100  1.0  -0.5277
  O  O133  1  0.017100  0.420700  0.995000  1.0  -0.629
  O  O134  1  0.145600  0.344500  0.892700  1.0  -0.7184
