# generated using pymatgen
data_UHC5O4
_symmetry_space_group_name_H-M   'P 1'
_cell_length_a   9.97360000
_cell_length_b   12.70510000
_cell_length_c   12.84890000
_cell_angle_alpha   90.00000000
_cell_angle_beta   90.00000000
_cell_angle_gamma   90.00000000
_symmetry_Int_Tables_number   1
_chemical_formula_structural   UHC5O4
_chemical_formula_sum   'U8 H8 C40 O32'
_cell_volume   1628.15588473
_cell_formula_units_Z   8
loop_
 _symmetry_equiv_pos_site_id
 _symmetry_equiv_pos_as_xyz
  1  'x, y, z'
loop_
 _atom_site_type_symbol
 _atom_site_label
 _atom_site_symmetry_multiplicity
 _atom_site_fract_x
 _atom_site_fract_y
 _atom_site_fract_z
 _atom_site_occupancy
 _atom_site_charge
  U  U1  1  0.594890  0.186860  0.201400  1.0  1.4826
  U  U2  1  0.094890  0.313140  0.298600  1.0  1.4836
  U  U3  1  0.905110  0.186860  0.798600  1.0  1.4833
  U  U4  1  0.405110  0.313140  0.701400  1.0  1.4817
  U  U5  1  0.405110  0.813140  0.798600  1.0  1.4833
  U  U6  1  0.905110  0.686860  0.701400  1.0  1.482
  U  U7  1  0.094890  0.813140  0.201400  1.0  1.482
  U  U8  1  0.594890  0.686860  0.298600  1.0  1.4839
  H  H9  1  0.849500  0.938100  0.377700  1.0  0.0565
  H  H10  1  0.349500  0.561900  0.122300  1.0  0.0564
  H  H11  1  0.650500  0.938100  0.622300  1.0  0.0556
  H  H12  1  0.150500  0.561900  0.877700  1.0  0.056
  H  H13  1  0.150500  0.061900  0.622300  1.0  0.0556
  H  H14  1  0.650500  0.438100  0.877700  1.0  0.0559
  H  H15  1  0.349500  0.061900  0.377700  1.0  0.0566
  H  H16  1  0.849500  0.438100  0.122300  1.0  0.0564
  C  C17  1  0.845200  0.141800  0.369600  1.0  0.6972
  C  C18  1  0.030600  0.222500  0.545800  1.0  0.7581
  C  C19  1  0.016300  0.108600  0.514400  1.0  -0.1319
  C  C20  1  0.925500  0.071300  0.439700  1.0  -0.1383
  C  C21  1  0.910200  0.963100  0.426800  1.0  -0.0373
  C  C22  1  0.345200  0.358200  0.130400  1.0  0.6962
  C  C23  1  0.530600  0.277500  0.954200  1.0  0.7592
  C  C24  1  0.516300  0.391400  0.985600  1.0  -0.133
  C  C25  1  0.425500  0.428700  0.060300  1.0  -0.1387
  C  C26  1  0.410200  0.536900  0.073200  1.0  -0.0392
  C  C27  1  0.654800  0.141800  0.630400  1.0  0.6965
  C  C28  1  0.469400  0.222500  0.454200  1.0  0.7588
  C  C29  1  0.483700  0.108600  0.485600  1.0  -0.1322
  C  C30  1  0.574500  0.071300  0.560300  1.0  -0.1386
  C  C31  1  0.589800  0.963100  0.573200  1.0  -0.0374
  C  C32  1  0.154800  0.358200  0.869600  1.0  0.6959
  C  C33  1  0.969400  0.277500  0.045800  1.0  0.7588
  C  C34  1  0.983700  0.391400  0.014400  1.0  -0.1333
  C  C35  1  0.074500  0.428700  0.939700  1.0  -0.1384
  C  C36  1  0.089800  0.536900  0.926800  1.0  -0.0381
  C  C37  1  0.154800  0.858200  0.630400  1.0  0.6958
  C  C38  1  0.969400  0.777500  0.454200  1.0  0.7591
  C  C39  1  0.983700  0.891400  0.485600  1.0  -0.1331
  C  C40  1  0.074500  0.928700  0.560300  1.0  -0.138
  C  C41  1  0.089800  0.036900  0.573200  1.0  -0.038
  C  C42  1  0.654800  0.641800  0.869600  1.0  0.6958
  C  C43  1  0.469400  0.722500  0.045800  1.0  0.7581
  C  C44  1  0.483700  0.608600  0.014400  1.0  -0.1323
  C  C45  1  0.574500  0.571300  0.939700  1.0  -0.1376
  C  C46  1  0.589800  0.463100  0.926800  1.0  -0.0374
  C  C47  1  0.345200  0.858200  0.369600  1.0  0.6978
  C  C48  1  0.530600  0.777500  0.545800  1.0  0.759
  C  C49  1  0.516300  0.891400  0.514400  1.0  -0.1331
  C  C50  1  0.425500  0.928700  0.439700  1.0  -0.1381
  C  C51  1  0.410200  0.036900  0.426800  1.0  -0.0382
  C  C52  1  0.845200  0.641800  0.130400  1.0  0.6964
  C  C53  1  0.030600  0.722500  0.954200  1.0  0.7588
  C  C54  1  0.016300  0.608600  0.985600  1.0  -0.132
  C  C55  1  0.925500  0.571300  0.060300  1.0  -0.1382
  C  C56  1  0.910200  0.463100  0.073200  1.0  -0.0383
  O  O57  1  0.733100  0.110230  0.338340  1.0  -0.6393
  O  O58  1  0.078500  0.291150  0.485740  1.0  -0.6791
  O  O59  1  0.999600  0.244920  0.637740  1.0  -0.6668
  O  O60  1  0.893700  0.230100  0.344400  1.0  -0.6996
  O  O61  1  0.233100  0.389770  0.161660  1.0  -0.641
  O  O62  1  0.578500  0.208850  0.014260  1.0  -0.6786
  O  O63  1  0.499600  0.255080  0.862260  1.0  -0.6688
  O  O64  1  0.393700  0.269900  0.155600  1.0  -0.6973
  O  O65  1  0.766900  0.110230  0.661660  1.0  -0.6422
  O  O66  1  0.421500  0.291150  0.514260  1.0  -0.6785
  O  O67  1  0.500400  0.244920  0.362260  1.0  -0.6677
  O  O68  1  0.606300  0.230100  0.655600  1.0  -0.6991
  O  O69  1  0.266900  0.389770  0.838340  1.0  -0.6408
  O  O70  1  0.921500  0.208850  0.985740  1.0  -0.6786
  O  O71  1  0.000400  0.255080  0.137740  1.0  -0.6635
  O  O72  1  0.106300  0.269900  0.844400  1.0  -0.7001
  O  O73  1  0.266900  0.889770  0.661660  1.0  -0.6421
  O  O74  1  0.921500  0.708850  0.514260  1.0  -0.6785
  O  O75  1  0.000400  0.755080  0.362260  1.0  -0.6693
  O  O76  1  0.106300  0.769900  0.655600  1.0  -0.6975
  O  O77  1  0.766900  0.610230  0.838340  1.0  -0.6409
  O  O78  1  0.421500  0.791150  0.985740  1.0  -0.6788
  O  O79  1  0.500400  0.744920  0.137740  1.0  -0.6655
  O  O80  1  0.606300  0.730100  0.844400  1.0  -0.6996
  O  O81  1  0.233100  0.889770  0.338340  1.0  -0.639
  O  O82  1  0.578500  0.708850  0.485740  1.0  -0.6785
  O  O83  1  0.499600  0.755080  0.637740  1.0  -0.6652
  O  O84  1  0.393700  0.769900  0.344400  1.0  -0.6996
  O  O85  1  0.733100  0.610230  0.161660  1.0  -0.6411
  O  O86  1  0.078500  0.791150  0.014260  1.0  -0.6787
  O  O87  1  0.999600  0.744920  0.862260  1.0  -0.6678
  O  O88  1  0.893700  0.730100  0.155600  1.0  -0.6992
