# generated using pymatgen
data_U6H11C15(NO15)2
_symmetry_space_group_name_H-M   'P 1'
_cell_length_a   13.19800000
_cell_length_b   14.85200000
_cell_length_c   23.40700000
_cell_angle_alpha   90.00000000
_cell_angle_beta   90.00000000
_cell_angle_gamma   90.00000000
_symmetry_Int_Tables_number   1
_chemical_formula_structural   U6H11C15(NO15)2
_chemical_formula_sum   'U24 H44 C60 N8 O120'
_cell_volume   4588.16280327
_cell_formula_units_Z   4
loop_
 _symmetry_equiv_pos_site_id
 _symmetry_equiv_pos_as_xyz
  1  'x, y, z'
loop_
 _atom_site_type_symbol
 _atom_site_label
 _atom_site_symmetry_multiplicity
 _atom_site_fract_x
 _atom_site_fract_y
 _atom_site_fract_z
 _atom_site_occupancy
 _atom_site_charge
  U  U1  1  0.323410  0.200230  0.197470  1.0  2.3262
  U  U2  1  0.001310  0.188990  0.187080  1.0  2.5607
  U  U3  1  0.186500  0.316530  0.312630  1.0  2.5759
  U  U4  1  0.657960  0.817060  0.190440  1.0  2.5553
  U  U5  1  0.985820  0.807570  0.209790  1.0  2.3052
  U  U6  1  0.807470  0.724840  0.308140  1.0  2.3419
  U  U7  1  0.169430  0.691960  0.306200  1.0  2.2658
  U  U8  1  0.488510  0.676720  0.308760  1.0  2.5735
  U  U9  1  0.336980  0.816810  0.203940  1.0  2.3279
  U  U10  1  0.865990  0.318210  0.298610  1.0  2.3084
  U  U11  1  0.506020  0.283710  0.301120  1.0  2.3556
  U  U12  1  0.682920  0.214250  0.198100  1.0  2.2789
  U  U13  1  0.649550  0.813190  0.802050  1.0  2.325
  U  U14  1  0.009030  0.789100  0.798790  1.0  2.4238
  U  U15  1  0.831860  0.715910  0.698360  1.0  2.2824
  U  U16  1  0.336540  0.199820  0.798740  1.0  2.3198
  U  U17  1  0.999630  0.206020  0.804260  1.0  2.4948
  U  U18  1  0.165990  0.301780  0.700140  1.0  2.4459
  U  U19  1  0.846140  0.310740  0.685160  1.0  2.6861
  U  U20  1  0.521210  0.318040  0.700830  1.0  2.3324
  U  U21  1  0.664100  0.197180  0.810790  1.0  2.5596
  U  U22  1  0.191540  0.702470  0.695910  1.0  2.3155
  U  U23  1  0.513760  0.685780  0.689530  1.0  2.5633
  U  U24  1  0.328750  0.813430  0.814600  1.0  2.6948
  H  H25  1  0.192350  0.158940  0.005600  1.0  0.0848
  H  H26  1  0.128290  0.831050  0.011760  1.0  0.0831
  H  H27  1  0.491980  0.174620  0.007980  1.0  0.1021
  H  H28  1  0.847360  0.827510  0.987850  1.0  0.0952
  H  H29  1  0.816130  0.159080  0.987280  1.0  0.0935
  H  H30  1  0.503840  0.841910  0.011260  1.0  0.0893
  H  H31  1  0.317170  0.653540  0.505090  1.0  0.0723
  H  H32  1  0.377830  0.325560  0.516850  1.0  0.0687
  H  H33  1  0.984440  0.690770  0.502100  1.0  0.1138
  H  H34  1  0.671830  0.314030  0.493380  1.0  0.0959
  H  H35  1  0.706580  0.645200  0.496160  1.0  0.0595
  H  H36  1  0.032640  0.361930  0.494980  1.0  0.094
  H  H37  1  0.240980  0.029850  0.378260  1.0  0.2309
  H  H38  1  0.311790  0.105230  0.416100  1.0  0.2343
  H  H39  1  0.357030  0.061960  0.353640  1.0  0.2257
  H  H40  1  0.524710  0.958000  0.356390  1.0  0.2242
  H  H41  1  0.601600  0.002260  0.407830  1.0  0.1932
  H  H42  1  0.651070  0.970520  0.343580  1.0  0.2433
  H  H43  1  0.155960  0.481300  0.084440  1.0  0.2111
  H  H44  1  0.123960  0.585930  0.108450  1.0  0.2609
  H  H45  1  0.217810  0.526740  0.141560  1.0  0.2463
  H  H46  1  0.799390  0.475050  0.071940  1.0  0.2178
  H  H47  1  0.905700  0.511680  0.106220  1.0  0.2346
  H  H48  1  0.859670  0.406450  0.119440  1.0  0.2452
  H  H49  1  0.649240  0.910100  0.595140  1.0  0.2539
  H  H50  1  0.613090  0.020260  0.592270  1.0  0.2101
  H  H51  1  0.702990  0.986730  0.640110  1.0  0.2374
  H  H52  1  0.324610  0.075400  0.577390  1.0  0.2407
  H  H53  1  0.279100  0.021960  0.636570  1.0  0.2613
  H  H54  1  0.405160  0.045550  0.631100  1.0  0.2254
  H  H55  1  0.785260  0.444720  0.833930  1.0  0.2255
  H  H56  1  0.817280  0.530720  0.878690  1.0  0.2116
  H  H57  1  0.908650  0.477400  0.839820  1.0  0.2543
  H  H58  1  0.119130  0.527880  0.851800  1.0  0.226
  H  H59  1  0.170150  0.606380  0.896560  1.0  0.2383
  H  H60  1  0.243940  0.521750  0.870240  1.0  0.2397
  H  H61  1  0.610160  0.891020  0.390800  1.0  0.2447
  H  H62  1  0.579740  0.955490  0.649410  1.0  0.2445
  H  H63  1  0.795280  0.498660  0.143190  1.0  0.2642
  H  H64  1  0.850930  0.422960  0.895150  1.0  0.2336
  H  H65  1  0.152580  0.498570  0.919650  1.0  0.2219
  H  H66  1  0.094770  0.493160  0.148150  1.0  0.2112
  H  H67  1  0.352440  0.964670  0.588820  1.0  0.2611
  H  H68  1  0.347990  0.995090  0.412650  1.0  0.2229
  C  C69  1  0.186910  0.103340  0.113630  1.0  0.6434
  C  C70  1  0.531640  0.114770  0.120070  1.0  0.4419
  C  C71  1  0.494070  0.059820  0.065620  1.0  -0.0574
  C  C72  1  0.170530  0.043680  0.062040  1.0  -0.1264
  C  C73  1  0.156590  0.946840  0.065770  1.0  -0.1143
  C  C74  1  0.126840  0.893690  0.121950  1.0  0.4571
  C  C75  1  0.840640  0.893110  0.099110  1.0  0.5131
  C  C76  1  0.478270  0.907630  0.118460  1.0  0.6047
  C  C77  1  0.495560  0.962470  0.064470  1.0  -0.1556
  C  C78  1  0.837400  0.946020  0.042090  1.0  -0.0979
  C  C79  1  0.820520  0.041520  0.042220  1.0  -0.1497
  C  C80  1  0.820600  0.097070  0.098880  1.0  0.5083
  C  C81  1  0.322720  0.582680  0.396300  1.0  0.5307
  C  C82  1  0.964640  0.631640  0.388890  1.0  0.4475
  C  C83  1  0.004950  0.577620  0.443070  1.0  -0.1072
  C  C84  1  0.340770  0.534030  0.454930  1.0  -0.1869
  C  C85  1  0.367790  0.440730  0.459370  1.0  -0.1223
  C  C86  1  0.368120  0.384620  0.405350  1.0  0.5592
  C  C87  1  0.653880  0.380310  0.381890  1.0  0.4401
  C  C88  1  0.005210  0.420320  0.387780  1.0  0.5913
  C  C89  1  0.017030  0.480260  0.442160  1.0  -0.1343
  C  C90  1  0.687950  0.430980  0.438160  1.0  -0.0932
  C  C91  1  0.690950  0.527680  0.441840  1.0  -0.0806
  C  C92  1  0.683720  0.588240  0.390860  1.0  0.6272
  C  C93  1  0.863440  0.888500  0.877750  1.0  0.4563
  C  C94  1  0.509190  0.901030  0.898050  1.0  0.5407
  C  C95  1  0.496940  0.956990  0.954960  1.0  -0.1626
  C  C96  1  0.830440  0.943540  0.931710  1.0  -0.0806
  C  C97  1  0.827010  0.041330  0.932190  1.0  -0.0822
  C  C98  1  0.864980  0.097650  0.880700  1.0  0.5377
  C  C99  1  0.170370  0.097730  0.895410  1.0  0.4478
  C  C100  1  0.486480  0.104270  0.898650  1.0  0.5145
  C  C101  1  0.486830  0.053150  0.955250  1.0  -0.1998
  C  C102  1  0.167050  0.042380  0.952930  1.0  -0.1385
  C  C103  1  0.146680  0.947440  0.956250  1.0  -0.1081
  C  C104  1  0.146930  0.891140  0.902640  1.0  0.5627
  C  C105  1  0.662220  0.381340  0.603200  1.0  0.6328
  C  C106  1  0.025100  0.412130  0.604300  1.0  0.4983
  C  C107  1  0.024870  0.476190  0.552190  1.0  -0.1584
  C  C108  1  0.688510  0.431990  0.548500  1.0  -0.1628
  C  C109  1  0.699140  0.528200  0.549790  1.0  -0.0992
  C  C110  1  0.695960  0.586960  0.604930  1.0  0.4996
  C  C111  1  0.328950  0.602460  0.614440  1.0  0.6221
  C  C112  1  0.981230  0.621980  0.614650  1.0  0.4128
  C  C113  1  0.014270  0.573490  0.556210  1.0  -0.1169
  C  C114  1  0.344960  0.541800  0.563340  1.0  -0.1508
  C  C115  1  0.357440  0.445470  0.568770  1.0  -0.0964
  C  C116  1  0.316380  0.392780  0.622450  1.0  0.4411
  C  C117  1  0.178710  0.087020  0.006690  1.0  -0.0363
  C  C118  1  0.143090  0.902780  0.011380  1.0  -0.0631
  C  C119  1  0.489350  0.101800  0.009620  1.0  0.0208
  C  C120  1  0.837100  0.899850  0.987290  1.0  0.0161
  C  C121  1  0.817700  0.086170  0.987180  1.0  0.0613
  C  C122  1  0.500380  0.914770  0.010260  1.0  -0.0128
  C  C123  1  0.333333  0.582120  0.507520  1.0  -0.0433
  C  C124  1  0.371730  0.398230  0.515330  1.0  0.0359
  C  C125  1  0.002650  0.619760  0.500540  1.0  0.0495
  C  C126  1  0.684940  0.386010  0.493270  1.0  -0.0048
  C  C127  1  0.701920  0.572290  0.495950  1.0  -0.0435
  C  C128  1  0.026930  0.434700  0.496300  1.0  0.0215
  N  N129  1  0.314440  0.048040  0.390180  1.0  -0.7318
  N  N130  1  0.596860  0.955460  0.374640  1.0  -0.7458
  N  N131  1  0.148120  0.521790  0.120650  1.0  -0.7407
  N  N132  1  0.840020  0.472980  0.110200  1.0  -0.7529
  N  N133  1  0.636260  0.968150  0.619230  1.0  -0.7782
  N  N134  1  0.340310  0.026890  0.608460  1.0  -0.7807
  N  N135  1  0.840550  0.468940  0.861910  1.0  -0.7571
  N  N136  1  0.171450  0.538650  0.884570  1.0  -0.7704
  O  O137  1  0.155940  0.249890  0.225530  1.0  -0.8715
  O  O138  1  0.030490  0.882770  0.130480  1.0  -0.6226
  O  O139  1  0.629270  0.125670  0.125320  1.0  -0.6191
  O  O140  1  0.131250  0.097960  0.159200  1.0  -0.745
  O  O141  1  0.183950  0.854570  0.161670  1.0  -0.7009
  O  O142  1  0.505240  0.194930  0.222130  1.0  -0.9482
  O  O143  1  0.349040  0.337750  0.163650  1.0  -0.3607
  O  O144  1  0.297220  0.063660  0.230140  1.0  -0.305
  O  O145  1  0.031120  0.286040  0.117050  1.0  -0.3579
  O  O146  1  0.248530  0.425060  0.258550  1.0  -0.3095
  O  O147  1  0.970720  0.094250  0.257320  1.0  -0.3742
  O  O148  1  0.268110  0.151030  0.114610  1.0  -0.6352
  O  O149  1  0.479380  0.154350  0.162060  1.0  -0.7269
  O  O150  1  0.336970  0.236470  0.290960  1.0  -0.8647
  O  O151  1  0.128380  0.204790  0.366240  1.0  -0.3394
  O  O152  1  0.815110  0.824510  0.238490  1.0  -0.7824
  O  O153  1  0.909670  0.107400  0.122570  1.0  -0.7393
  O  O154  1  0.397280  0.923240  0.147100  1.0  -0.6373
  O  O155  1  0.928420  0.881930  0.127170  1.0  -0.5994
  O  O156  1  0.733600  0.129850  0.119080  1.0  -0.6215
  O  O157  1  0.504690  0.792940  0.244220  1.0  -0.8838
  O  O158  1  0.676720  0.675340  0.162760  1.0  -0.3539
  O  O159  1  0.635430  0.958020  0.216650  1.0  -0.3631
  O  O160  1  0.951620  0.681260  0.163130  1.0  -0.3144
  O  O161  1  0.802500  0.613740  0.245800  1.0  -0.2862
  O  O162  1  0.023040  0.931330  0.257020  1.0  -0.3392
  O  O163  1  0.751450  0.866180  0.115790  1.0  -0.7475
  O  O164  1  0.527730  0.833850  0.128580  1.0  -0.7714
  O  O165  1  0.634740  0.763390  0.283010  1.0  -0.8752
  O  O166  1  0.811780  0.837400  0.370310  1.0  -0.3269
  O  O167  1  0.329530  0.699480  0.264020  1.0  -0.8988
  O  O168  1  0.455610  0.363930  0.380690  1.0  -0.5858
  O  O169  1  0.867230  0.638070  0.381690  1.0  -0.6124
  O  O170  1  0.392350  0.574180  0.357080  1.0  -0.6901
  O  O171  1  0.277940  0.367180  0.386470  1.0  -0.7306
  O  O172  1  0.989120  0.732220  0.293890  1.0  -0.9646
  O  O173  1  0.192990  0.822230  0.350400  1.0  -0.4094
  O  O174  1  0.140660  0.563600  0.262100  1.0  -0.323
  O  O175  1  0.449750  0.776530  0.375710  1.0  -0.3148
  O  O176  1  0.311990  0.911500  0.275290  1.0  -0.2781
  O  O177  1  0.527660  0.577920  0.241530  1.0  -0.3364
  O  O178  1  0.235450  0.622940  0.386250  1.0  -0.6511
  O  O179  1  0.014900  0.673150  0.347770  1.0  -0.7315
  O  O180  1  0.161160  0.763270  0.218390  1.0  -0.8369
  O  O181  1  0.362090  0.717710  0.134370  1.0  -0.3372
  O  O182  1  0.683080  0.303590  0.276860  1.0  -0.901
  O  O183  1  0.595230  0.606140  0.369910  1.0  -0.7152
  O  O184  1  0.071670  0.421530  0.346440  1.0  -0.7367
  O  O185  1  0.556970  0.367130  0.376220  1.0  -0.6112
  O  O186  1  0.768420  0.624780  0.375210  1.0  -0.5911
  O  O187  1  0.033390  0.292930  0.258850  1.0  -0.862
  O  O188  1  0.863690  0.181430  0.336370  1.0  -0.3505
  O  O189  1  0.869000  0.454650  0.262020  1.0  -0.3531
  O  O190  1  0.540330  0.163090  0.353390  1.0  -0.3124
  O  O191  1  0.723140  0.099160  0.253510  1.0  -0.279
  O  O192  1  0.472290  0.404160  0.249140  1.0  -0.3541
  O  O193  1  0.708310  0.346920  0.338690  1.0  -0.7457
  O  O194  1  0.921480  0.376070  0.381530  1.0  -0.6443
  O  O195  1  0.849530  0.266800  0.207370  1.0  -0.843
  O  O196  1  0.645130  0.331840  0.143730  1.0  -0.3643
  O  O197  1  0.831510  0.807590  0.775790  1.0  -0.9049
  O  O198  1  0.960770  0.108480  0.874040  1.0  -0.7394
  O  O199  1  0.445200  0.909590  0.855790  1.0  -0.7427
  O  O200  1  0.960200  0.876680  0.871700  1.0  -0.6167
  O  O201  1  0.812470  0.142600  0.843230  1.0  -0.7562
  O  O202  1  0.482400  0.787300  0.762350  1.0  -0.8477
  O  O203  1  0.662180  0.674640  0.836380  1.0  -0.414
  O  O204  1  0.636250  0.950260  0.770290  1.0  -0.3421
  O  O205  1  0.975000  0.670810  0.853280  1.0  -0.2818
  O  O206  1  0.799870  0.602050  0.756200  1.0  -0.2954
  O  O207  1  0.041920  0.907890  0.744740  1.0  -0.3431
  O  O208  1  0.808370  0.848480  0.837390  1.0  -0.734
  O  O209  1  0.594650  0.860480  0.888710  1.0  -0.6516
  O  O210  1  0.664380  0.765920  0.709550  1.0  -0.8917
  O  O211  1  0.863170  0.832730  0.642040  1.0  -0.347
  O  O212  1  0.166460  0.194740  0.767840  1.0  -0.8347
  O  O213  1  0.060140  0.873370  0.876450  1.0  -0.5814
  O  O214  1  0.574580  0.108170  0.872360  1.0  -0.732
  O  O215  1  0.080230  0.116310  0.872330  1.0  -0.7641
  O  O216  1  0.236770  0.866290  0.887240  1.0  -0.7597
  O  O217  1  0.502880  0.251440  0.785830  1.0  -0.865
  O  O218  1  0.304390  0.327470  0.844280  1.0  -0.3856
  O  O219  1  0.374240  0.073890  0.753630  1.0  -0.2823
  O  O220  1  0.028220  0.318850  0.864160  1.0  -0.3071
  O  O221  1  0.192580  0.407570  0.764360  1.0  -0.3443
  O  O222  1  0.972360  0.092440  0.744940  1.0  -0.3138
  O  O223  1  0.261040  0.124050  0.875700  1.0  -0.7791
  O  O224  1  0.398700  0.136370  0.880590  1.0  -0.7452
  O  O225  1  0.343640  0.268870  0.710550  1.0  -0.8365
  O  O226  1  0.137400  0.193480  0.636930  1.0  -0.3405
  O  O227  1  0.691180  0.302540  0.740570  1.0  -0.8696
  O  O228  1  0.606340  0.599490  0.627560  1.0  -0.7375
  O  O229  1  0.110720  0.404290  0.633450  1.0  -0.6259
  O  O230  1  0.574090  0.394380  0.624830  1.0  -0.6557
  O  O231  1  0.781770  0.624330  0.623050  1.0  -0.5987
  O  O232  1  0.000050  0.310060  0.734770  1.0  -0.8575
  O  O233  1  0.859740  0.167020  0.660970  1.0  -0.3722
  O  O234  1  0.831980  0.453810  0.707290  1.0  -0.3794
  O  O235  1  0.544160  0.190540  0.653250  1.0  -0.2696
  O  O236  1  0.662330  0.102430  0.738550  1.0  -0.3468
  O  O237  1  0.493340  0.441160  0.749350  1.0  -0.3486
  O  O238  1  0.715410  0.314670  0.622340  1.0  -0.7551
  O  O239  1  0.945540  0.359500  0.610670  1.0  -0.7166
  O  O240  1  0.827300  0.258100  0.778820  1.0  -0.8759
  O  O241  1  0.667410  0.299420  0.879790  1.0  -0.3717
  O  O242  1  0.359140  0.749380  0.726500  1.0  -0.8459
  O  O243  1  0.364980  0.343930  0.661290  1.0  -0.7578
  O  O244  1  0.883940  0.630400  0.623330  1.0  -0.611
  O  O245  1  0.383100  0.595850  0.660710  1.0  -0.7506
  O  O246  1  0.219290  0.393260  0.630180  1.0  -0.695
  O  O247  1  0.009860  0.698760  0.720750  1.0  -0.8489
  O  O248  1  0.169760  0.840340  0.661790  1.0  -0.3995
  O  O249  1  0.214030  0.565850  0.729460  1.0  -0.3346
  O  O250  1  0.485690  0.780780  0.618160  1.0  -0.3362
  O  O251  1  0.277140  0.928100  0.762310  1.0  -0.3014
  O  O252  1  0.543660  0.596210  0.762180  1.0  -0.4054
  O  O253  1  0.249640  0.652420  0.614160  1.0  -0.6334
  O  O254  1  0.036690  0.658280  0.656710  1.0  -0.7467
  O  O255  1  0.176500  0.739910  0.788950  1.0  -0.8897
  O  O256  1  0.376660  0.696000  0.866510  1.0  -0.3555
