# generated using pymatgen
data_NiH28C36(NO3)2
_symmetry_space_group_name_H-M   'P 1'
_cell_length_a   13.98300000
_cell_length_b   23.77560000
_cell_length_c   23.77560000
_cell_angle_alpha   76.67630000
_cell_angle_beta   72.89880000
_cell_angle_gamma   72.89870000
_symmetry_Int_Tables_number   1
_chemical_formula_structural   NiH28C36(NO3)2
_chemical_formula_sum   'Ni8 H224 C288 N16 O48'
_cell_volume   7130.54961139
_cell_formula_units_Z   8
loop_
 _symmetry_equiv_pos_site_id
 _symmetry_equiv_pos_as_xyz
  1  'x, y, z'
loop_
 _atom_site_type_symbol
 _atom_site_label
 _atom_site_symmetry_multiplicity
 _atom_site_fract_x
 _atom_site_fract_y
 _atom_site_fract_z
 _atom_site_occupancy
 _atom_site_charge
  Ni  Ni1  1  0.924330  0.243380  0.645060  1.0  0.7935
  Ni  Ni2  1  0.803700  0.067980  0.321620  1.0  0.5712
  Ni  Ni3  1  0.687230  0.743380  0.145060  1.0  0.7925
  Ni  Ni4  1  0.306700  0.567980  0.821620  1.0  0.5713
  Ni  Ni5  1  0.187230  0.645060  0.243380  1.0  0.7947
  Ni  Ni6  1  0.806700  0.321620  0.067980  1.0  0.5678
  Ni  Ni7  1  0.424330  0.145060  0.743380  1.0  0.7905
  Ni  Ni8  1  0.303700  0.821620  0.567980  1.0  0.5679
  H  H9  1  0.740300  0.066000  0.747600  1.0  0.25
  H  H10  1  0.630200  0.894400  0.034600  1.0  0.3856
  H  H11  1  0.042200  0.043400  0.349400  1.0  0.3833
  H  H12  1  0.559000  0.046300  0.350500  1.0  0.3666
  H  H13  1  0.878200  0.164800  0.829600  1.0  0.1525
  H  H14  1  0.859600  0.170200  0.929400  1.0  0.1247
  H  H15  1  0.843000  0.122500  0.028300  1.0  0.1253
  H  H16  1  0.754200  0.048600  0.060600  1.0  0.1053
  H  H17  1  0.713200  0.005400  0.995200  1.0  0.1211
  H  H18  1  0.680600  0.981500  0.862900  1.0  0.1248
  H  H19  1  0.648300  0.993500  0.928700  1.0  0.109
  H  H20  1  0.929900  0.777100  0.972100  1.0  0.121
  H  H21  1  0.063700  0.781400  0.881400  1.0  0.1144
  H  H22  1  0.127100  0.830700  0.787500  1.0  0.1133
  H  H23  1  0.030600  0.921900  0.751100  1.0  0.1169
  H  H24  1  0.870700  0.964100  0.808500  1.0  0.1132
  H  H25  1  0.985400  0.225900  0.370100  1.0  0.1066
  H  H26  1  0.087600  0.284300  0.385100  1.0  0.1102
  H  H27  1  0.243800  0.292700  0.393500  1.0  0.1091
  H  H28  1  0.385800  0.211700  0.385300  1.0  0.113
  H  H29  1  0.371600  0.122400  0.368600  1.0  0.0963
  H  H30  1  0.329700  0.034000  0.386800  1.0  0.1347
  H  H31  1  0.269000  0.006600  0.359000  1.0  0.1312
  H  H32  1  0.617700  0.025300  0.161100  1.0  0.1234
  H  H33  1  0.513700  0.010300  0.103700  1.0  0.1116
  H  H34  1  0.356800  0.001600  0.096800  1.0  0.1033
  H  H35  1  0.216600  0.008800  0.178800  1.0  0.11
  H  H36  1  0.233400  0.024700  0.267700  1.0  0.1078
  H  H37  1  0.043700  0.392200  0.824000  1.0  0.1147
  H  H38  1  0.950400  0.370400  0.869800  1.0  0.1124
  H  H39  1  0.962600  0.360800  0.662400  1.0  0.1131
  H  H40  1  0.991800  0.403000  0.732800  1.0  0.1035
  H  H41  1  0.007700  0.246700  0.843700  1.0  0.1176
  H  H42  1  0.978400  0.204600  0.773400  1.0  0.1102
  H  H43  1  0.082800  0.274500  0.883500  1.0  0.1181
  H  H44  1  0.070900  0.325300  0.918900  1.0  0.0911
  H  H45  1  0.221000  0.305200  0.811000  1.0  0.13
  H  H46  1  0.245900  0.285800  0.873400  1.0  0.1443
  H  H47  1  0.349200  0.470000  0.745600  1.0  0.121
  H  H48  1  0.303500  0.381600  0.754800  1.0  0.1128
  H  H49  1  0.174900  0.386300  0.929100  1.0  0.104
  H  H50  1  0.220600  0.474900  0.919900  1.0  0.1036
  H  H51  1  0.072100  0.148100  0.698100  1.0  0.1174
  H  H52  1  0.243300  0.101800  0.676200  1.0  0.1119
  H  H53  1  0.275400  0.190500  0.511100  1.0  0.0939
  H  H54  1  0.103800  0.236800  0.532200  1.0  0.1104
  H  H55  1  0.423800  0.123100  0.602700  1.0  0.1027
  H  H56  1  0.423100  0.125300  0.536900  1.0  0.1179
  H  H57  1  0.429700  0.029400  0.549400  1.0  0.0996
  H  H58  1  0.386500  0.024900  0.618500  1.0  0.1208
  H  H59  1  0.556000  0.041000  0.618200  1.0  0.1024
  H  H60  1  0.557100  0.976900  0.608900  1.0  0.1077
  H  H61  1  0.672300  0.983400  0.402200  1.0  0.1037
  H  H62  1  0.581000  0.965100  0.498300  1.0  0.0977
  H  H63  1  0.660500  0.095700  0.537900  1.0  0.1107
  H  H64  1  0.690800  0.134600  0.435400  1.0  0.1175
  H  H65  1  0.946100  0.566000  0.247600  1.0  0.2504
  H  H66  1  0.940800  0.394400  0.534600  1.0  0.3854
  H  H67  1  0.065000  0.543400  0.849400  1.0  0.3815
  H  H68  1  0.544200  0.546300  0.850500  1.0  0.3668
  H  H69  1  0.627400  0.664800  0.329600  1.0  0.1526
  H  H70  1  0.540800  0.670200  0.429400  1.0  0.1247
  H  H71  1  0.506200  0.622500  0.528300  1.0  0.125
  H  H72  1  0.636600  0.548600  0.560600  1.0  0.106
  H  H73  1  0.786200  0.505400  0.495200  1.0  0.1207
  H  H74  1  0.975000  0.481500  0.362900  1.0  0.122
  H  H75  1  0.929500  0.493500  0.428700  1.0  0.1074
  H  H76  1  0.820900  0.277100  0.472100  1.0  0.12
  H  H77  1  0.773500  0.281400  0.381400  1.0  0.1145
  H  H78  1  0.754700  0.330700  0.287500  1.0  0.1129
  H  H79  1  0.796400  0.421900  0.251100  1.0  0.117
  H  H80  1  0.856700  0.464100  0.308500  1.0  0.1129
  H  H81  1  0.918600  0.725900  0.870100  1.0  0.1056
  H  H82  1  0.743000  0.784300  0.885100  1.0  0.1096
  H  H83  1  0.570000  0.792700  0.893500  1.0  0.1094
  H  H84  1  0.517200  0.711700  0.885300  1.0  0.1148
  H  H85  1  0.637400  0.622400  0.868600  1.0  0.0958
  H  H86  1  0.749500  0.534000  0.886800  1.0  0.1333
  H  H87  1  0.865400  0.506600  0.859000  1.0  0.1317
  H  H88  1  0.695900  0.525300  0.661100  1.0  0.1261
  H  H89  1  0.872300  0.510300  0.603700  1.0  0.1133
  H  H90  1  0.044800  0.501600  0.596800  1.0  0.1018
  H  H91  1  0.095800  0.508800  0.678800  1.0  0.1082
  H  H92  1  0.974200  0.524700  0.767700  1.0  0.1071
  H  H93  1  0.240100  0.892200  0.324000  1.0  0.1159
  H  H94  1  0.309400  0.870400  0.369800  1.0  0.1134
  H  H95  1  0.514200  0.860800  0.162400  1.0  0.1113
  H  H96  1  0.372400  0.903000  0.232800  1.0  0.1033
  H  H97  1  0.401900  0.746700  0.343700  1.0  0.1185
  H  H98  1  0.543600  0.704600  0.273400  1.0  0.1104
  H  H99  1  0.259200  0.774500  0.383500  1.0  0.1183
  H  H100  1  0.184900  0.825300  0.418900  1.0  0.091
  H  H101  1  0.162800  0.805200  0.311000  1.0  0.1305
  H  H102  1  0.094900  0.785800  0.373400  1.0  0.1452
  H  H103  1  0.935200  0.970000  0.245600  1.0  0.1216
  H  H104  1  0.060100  0.881600  0.254800  1.0  0.1119
  H  H105  1  0.009700  0.886300  0.429100  1.0  0.1057
  H  H106  1  0.884600  0.974900  0.419900  1.0  0.1038
  H  H107  1  0.581700  0.648100  0.198100  1.0  0.1184
  H  H108  1  0.478700  0.601800  0.176200  1.0  0.1111
  H  H109  1  0.523000  0.690500  0.011100  1.0  0.0931
  H  H110  1  0.627200  0.736800  0.032200  1.0  0.1095
  H  H111  1  0.350400  0.623100  0.102700  1.0  0.1001
  H  H112  1  0.414700  0.625300  0.036900  1.0  0.1185
  H  H113  1  0.491500  0.529400  0.049400  1.0  0.0966
  H  H114  1  0.470100  0.524900  0.118500  1.0  0.1203
  H  H115  1  0.284800  0.541000  0.118200  1.0  0.1039
  H  H116  1  0.357100  0.476900  0.108900  1.0  0.1073
  H  H117  1  0.442100  0.483400  0.902200  1.0  0.1027
  H  H118  1  0.455600  0.465100  0.998300  1.0  0.0979
  H  H119  1  0.205900  0.595700  0.037900  1.0  0.1098
  H  H120  1  0.239200  0.634600  0.935400  1.0  0.1169
  H  H121  1  0.446100  0.747600  0.066000  1.0  0.2512
  H  H122  1  0.440800  0.034600  0.894400  1.0  0.3846
  H  H123  1  0.565000  0.349400  0.043400  1.0  0.3832
  H  H124  1  0.044200  0.350500  0.046300  1.0  0.3673
  H  H125  1  0.127400  0.829600  0.164800  1.0  0.1533
  H  H126  1  0.040800  0.929400  0.170200  1.0  0.1237
  H  H127  1  0.006200  0.028300  0.122500  1.0  0.1251
  H  H128  1  0.136600  0.060600  0.048600  1.0  0.1054
  H  H129  1  0.286200  0.995200  0.005400  1.0  0.1205
  H  H130  1  0.475000  0.862900  0.981500  1.0  0.1247
  H  H131  1  0.429500  0.928700  0.993500  1.0  0.106
  H  H132  1  0.320900  0.972100  0.777100  1.0  0.1218
  H  H133  1  0.273500  0.881400  0.781400  1.0  0.1147
  H  H134  1  0.254700  0.787500  0.830700  1.0  0.1131
  H  H135  1  0.296400  0.751100  0.921900  1.0  0.118
  H  H136  1  0.356700  0.808500  0.964100  1.0  0.1139
  H  H137  1  0.418600  0.370100  0.225900  1.0  0.1064
  H  H138  1  0.243000  0.385100  0.284300  1.0  0.1107
  H  H139  1  0.070000  0.393500  0.292700  1.0  0.1088
  H  H140  1  0.017200  0.385300  0.211700  1.0  0.1136
  H  H141  1  0.137400  0.368600  0.122400  1.0  0.097
  H  H142  1  0.249500  0.386800  0.034000  1.0  0.1324
  H  H143  1  0.365400  0.359000  0.006600  1.0  0.1305
  H  H144  1  0.195900  0.161100  0.025300  1.0  0.1245
  H  H145  1  0.372300  0.103700  0.010300  1.0  0.112
  H  H146  1  0.544800  0.096800  0.001600  1.0  0.1036
  H  H147  1  0.595800  0.178800  0.008800  1.0  0.11
  H  H148  1  0.474200  0.267700  0.024700  1.0  0.1072
  H  H149  1  0.740100  0.824000  0.392200  1.0  0.1161
  H  H150  1  0.809400  0.869800  0.370400  1.0  0.1137
  H  H151  1  0.014200  0.662400  0.360800  1.0  0.112
  H  H152  1  0.872400  0.732800  0.403000  1.0  0.1023
  H  H153  1  0.901900  0.843700  0.246700  1.0  0.119
  H  H154  1  0.043600  0.773400  0.204600  1.0  0.1094
  H  H155  1  0.759200  0.883500  0.274500  1.0  0.1195
  H  H156  1  0.684900  0.918900  0.325300  1.0  0.0921
  H  H157  1  0.662800  0.811000  0.305200  1.0  0.1316
  H  H158  1  0.594900  0.873400  0.285800  1.0  0.1426
  H  H159  1  0.435200  0.745600  0.470000  1.0  0.1213
  H  H160  1  0.560100  0.754800  0.381600  1.0  0.1113
  H  H161  1  0.509700  0.929100  0.386300  1.0  0.104
  H  H162  1  0.384600  0.919900  0.474900  1.0  0.1028
  H  H163  1  0.081700  0.698100  0.148100  1.0  0.1199
  H  H164  1  0.978700  0.676200  0.101800  1.0  0.1118
  H  H165  1  0.023000  0.511100  0.190500  1.0  0.095
  H  H166  1  0.127200  0.532200  0.236800  1.0  0.1089
  H  H167  1  0.850400  0.602700  0.123100  1.0  0.1009
  H  H168  1  0.914700  0.536900  0.125300  1.0  0.1145
  H  H169  1  0.991500  0.549400  0.029400  1.0  0.0966
  H  H170  1  0.970100  0.618500  0.024900  1.0  0.1201
  H  H171  1  0.784800  0.618200  0.041000  1.0  0.1047
  H  H172  1  0.857100  0.608900  0.976900  1.0  0.1059
  H  H173  1  0.942100  0.402200  0.983400  1.0  0.1021
  H  H174  1  0.955600  0.498300  0.965100  1.0  0.0974
  H  H175  1  0.705900  0.537900  0.095700  1.0  0.1098
  H  H176  1  0.739200  0.435400  0.134600  1.0  0.1159
  H  H177  1  0.240300  0.247600  0.566000  1.0  0.2506
  H  H178  1  0.130200  0.534600  0.394400  1.0  0.3843
  H  H179  1  0.542200  0.849400  0.543400  1.0  0.3824
  H  H180  1  0.059000  0.850500  0.546300  1.0  0.3672
  H  H181  1  0.378200  0.329600  0.664800  1.0  0.1535
  H  H182  1  0.359600  0.429400  0.670200  1.0  0.1234
  H  H183  1  0.343000  0.528300  0.622500  1.0  0.1235
  H  H184  1  0.254200  0.560600  0.548600  1.0  0.1054
  H  H185  1  0.213200  0.495200  0.505400  1.0  0.1209
  H  H186  1  0.180600  0.362900  0.481500  1.0  0.124
  H  H187  1  0.148300  0.428700  0.493500  1.0  0.1079
  H  H188  1  0.429900  0.472100  0.277100  1.0  0.1201
  H  H189  1  0.563700  0.381400  0.281400  1.0  0.1135
  H  H190  1  0.627100  0.287500  0.330700  1.0  0.1138
  H  H191  1  0.530600  0.251100  0.421900  1.0  0.1175
  H  H192  1  0.370700  0.308500  0.464100  1.0  0.1119
  H  H193  1  0.485400  0.870100  0.725900  1.0  0.1053
  H  H194  1  0.587600  0.885100  0.784300  1.0  0.1096
  H  H195  1  0.743800  0.893500  0.792700  1.0  0.1097
  H  H196  1  0.885800  0.885300  0.711700  1.0  0.1121
  H  H197  1  0.871600  0.868600  0.622400  1.0  0.0967
  H  H198  1  0.829700  0.886800  0.534000  1.0  0.1339
  H  H199  1  0.769000  0.859000  0.506600  1.0  0.1315
  H  H200  1  0.117700  0.661100  0.525300  1.0  0.1241
  H  H201  1  0.013700  0.603700  0.510300  1.0  0.112
  H  H202  1  0.856800  0.596800  0.501600  1.0  0.103
  H  H203  1  0.716600  0.678800  0.508800  1.0  0.1098
  H  H204  1  0.733400  0.767700  0.524700  1.0  0.1065
  H  H205  1  0.543700  0.324000  0.892200  1.0  0.1141
  H  H206  1  0.450400  0.369800  0.870400  1.0  0.1131
  H  H207  1  0.462600  0.162400  0.860800  1.0  0.1117
  H  H208  1  0.491800  0.232800  0.903000  1.0  0.1029
  H  H209  1  0.507700  0.343700  0.746700  1.0  0.1195
  H  H210  1  0.478400  0.273400  0.704600  1.0  0.111
  H  H211  1  0.582800  0.383500  0.774500  1.0  0.121
  H  H212  1  0.570900  0.418900  0.825300  1.0  0.0926
  H  H213  1  0.721000  0.311000  0.805200  1.0  0.1308
  H  H214  1  0.745900  0.373400  0.785800  1.0  0.1445
  H  H215  1  0.849200  0.245600  0.970000  1.0  0.1209
  H  H216  1  0.803500  0.254800  0.881600  1.0  0.1106
  H  H217  1  0.674900  0.429100  0.886300  1.0  0.1041
  H  H218  1  0.720600  0.419900  0.974900  1.0  0.1022
  H  H219  1  0.572100  0.198100  0.648100  1.0  0.119
  H  H220  1  0.743300  0.176200  0.601800  1.0  0.1124
  H  H221  1  0.775400  0.011100  0.690500  1.0  0.0966
  H  H222  1  0.603800  0.032200  0.736800  1.0  0.1095
  H  H223  1  0.923800  0.102700  0.623100  1.0  0.1025
  H  H224  1  0.923100  0.036900  0.625300  1.0  0.1143
  H  H225  1  0.929700  0.049400  0.529400  1.0  0.0975
  H  H226  1  0.886500  0.118500  0.524900  1.0  0.1204
  H  H227  1  0.056000  0.118200  0.541000  1.0  0.1032
  H  H228  1  0.057100  0.108900  0.476900  1.0  0.106
  H  H229  1  0.172300  0.902200  0.483400  1.0  0.1034
  H  H230  1  0.081000  0.998300  0.465100  1.0  0.0992
  H  H231  1  0.160500  0.037900  0.595700  1.0  0.11
  H  H232  1  0.190800  0.935400  0.634600  1.0  0.1151
  C  C233  1  0.835600  0.145300  0.734700  1.0  0.449
  C  C234  1  0.740300  0.801800  0.055600  1.0  0.4317
  C  C235  1  0.843400  0.134600  0.840600  1.0  -0.1309
  C  C236  1  0.819500  0.114300  0.796700  1.0  -0.1492
  C  C237  1  0.772900  0.065900  0.817900  1.0  0.1067
  C  C238  1  0.759200  0.035000  0.876000  1.0  0.0379
  C  C239  1  0.773200  0.060100  0.920700  1.0  0.0087
  C  C240  1  0.815900  0.110200  0.900400  1.0  0.0435
  C  C241  1  0.836300  0.135600  0.941800  1.0  -0.1884
  C  C242  1  0.820500  0.109400  0.001600  1.0  -0.1129
  C  C243  1  0.771500  0.063000  0.020000  1.0  -0.1144
  C  C244  1  0.746000  0.036600  0.981600  1.0  -0.2235
  C  C245  1  0.706900  0.984300  0.895300  1.0  -0.1748
  C  C246  1  0.891200  0.813700  0.957500  1.0  -0.0585
  C  C247  1  0.795500  0.838900  0.991900  1.0  -0.2202
  C  C248  1  0.737700  0.893600  0.970000  1.0  0.2458
  C  C249  1  0.775600  0.923200  0.913800  1.0  0.0032
  C  C250  1  0.871500  0.897900  0.879300  1.0  0.0497
  C  C251  1  0.929200  0.843200  0.901200  1.0  0.0461
  C  C252  1  0.025000  0.818000  0.866800  1.0  -0.1491
  C  C253  1  0.063000  0.847500  0.810500  1.0  -0.0698
  C  C254  1  0.005200  0.902300  0.788700  1.0  -0.1078
  C  C255  1  0.909400  0.927500  0.823100  1.0  -0.1533
  C  C256  1  0.928800  0.140100  0.355100  1.0  0.6978
  C  C257  1  0.677300  0.041900  0.249300  1.0  0.6961
  C  C258  1  0.042300  0.193400  0.366800  1.0  -0.1147
  C  C259  1  0.033700  0.140000  0.356800  1.0  -0.1454
  C  C260  1  0.118800  0.091500  0.351900  1.0  0.2989
  C  C261  1  0.212400  0.096400  0.357000  1.0  -0.0131
  C  C262  1  0.221000  0.149900  0.366900  1.0  0.0518
  C  C263  1  0.135900  0.198400  0.371800  1.0  0.0396
  C  C264  1  0.144500  0.251800  0.381800  1.0  -0.1031
  C  C265  1  0.238000  0.256900  0.386900  1.0  -0.0566
  C  C266  1  0.323200  0.208300  0.381900  1.0  -0.0916
  C  C267  1  0.314600  0.154900  0.371900  1.0  -0.1473
  C  C268  1  0.299400  0.039900  0.353500  1.0  -0.2632
  C  C269  1  0.561600  0.028100  0.193900  1.0  -0.0884
  C  C270  1  0.571500  0.037700  0.247300  1.0  -0.2184
  C  C271  1  0.487600  0.042000  0.296400  1.0  0.2032
  C  C272  1  0.393600  0.036800  0.292200  1.0  -0.049
  C  C273  1  0.383500  0.027200  0.239000  1.0  0.0394
  C  C274  1  0.467600  0.022800  0.189800  1.0  0.0567
  C  C275  1  0.457500  0.013200  0.136600  1.0  -0.1653
  C  C276  1  0.363500  0.008000  0.132400  1.0  -0.0989
  C  C277  1  0.279500  0.012300  0.181500  1.0  -0.0791
  C  C278  1  0.289600  0.021800  0.234800  1.0  -0.133
  C  C279  1  0.016800  0.357300  0.843100  1.0  -0.2151
  C  C280  1  0.971600  0.338000  0.698800  1.0  0.1797
  C  C281  1  0.989100  0.363200  0.741000  1.0  -0.0474
  C  C282  1  0.002700  0.329000  0.795200  1.0  0.0875
  C  C283  1  0.998600  0.269600  0.807400  1.0  -0.1135
  C  C284  1  0.981100  0.244300  0.765300  1.0  0.1233
  C  C285  1  0.089900  0.314800  0.879400  1.0  -0.1222
  C  C286  1  0.203700  0.316400  0.850200  1.0  -0.2014
  C  C287  1  0.314300  0.453300  0.782300  1.0  0.1304
  C  C288  1  0.286900  0.400300  0.787900  1.0  -0.1032
  C  C289  1  0.234700  0.375200  0.842800  1.0  0.1105
  C  C290  1  0.209900  0.403100  0.892300  1.0  -0.0821
  C  C291  1  0.237200  0.456200  0.886800  1.0  0.1639
  C  C292  1  0.112400  0.157100  0.660100  1.0  0.0971
  C  C293  1  0.216000  0.129200  0.646800  1.0  -0.1099
  C  C294  1  0.280100  0.140600  0.591200  1.0  0.1246
  C  C295  1  0.234600  0.181700  0.549100  1.0  -0.0658
  C  C296  1  0.131200  0.209700  0.561900  1.0  0.0499
  C  C297  1  0.393200  0.109700  0.577900  1.0  -0.2137
  C  C298  1  0.432500  0.042500  0.584500  1.0  -0.168
  C  C299  1  0.542100  0.019000  0.592800  1.0  -0.1604
  C  C300  1  0.666667  0.007800  0.429000  1.0  0.0792
  C  C301  1  0.612000  0.996900  0.487100  1.0  -0.0925
  C  C302  1  0.601800  0.030800  0.529600  1.0  0.06
  C  C303  1  0.651300  0.077100  0.510300  1.0  -0.1175
  C  C304  1  0.686500  0.095400  0.449600  1.0  0.1325
  C  C305  1  0.784400  0.645300  0.234700  1.0  0.4508
  C  C306  1  0.902300  0.301800  0.555600  1.0  0.4333
  C  C307  1  0.681400  0.634600  0.340600  1.0  -0.1327
  C  C308  1  0.769500  0.614300  0.296700  1.0  -0.1483
  C  C309  1  0.843300  0.565900  0.317900  1.0  0.1061
  C  C310  1  0.829800  0.535000  0.376000  1.0  0.038
  C  C311  1  0.746000  0.560100  0.420700  1.0  0.0079
  C  C312  1  0.673500  0.610200  0.400400  1.0  0.0459
  C  C313  1  0.586300  0.635600  0.441800  1.0  -0.187
  C  C314  1  0.568500  0.609400  0.501600  1.0  -0.1162
  C  C315  1  0.645500  0.563000  0.520000  1.0  -0.1153
  C  C316  1  0.735800  0.536600  0.481600  1.0  -0.2223
  C  C317  1  0.913500  0.484300  0.395300  1.0  -0.1775
  C  C318  1  0.837600  0.313700  0.457500  1.0  -0.0575
  C  C319  1  0.873700  0.338900  0.491900  1.0  -0.2261
  C  C320  1  0.898700  0.393600  0.470000  1.0  0.2448
  C  C321  1  0.887400  0.423200  0.413800  1.0  0.0022
  C  C322  1  0.851300  0.397900  0.379300  1.0  0.0482
  C  C323  1  0.826400  0.343200  0.401200  1.0  0.052
  C  C324  1  0.790200  0.318000  0.366800  1.0  -0.1515
  C  C325  1  0.779000  0.347500  0.310500  1.0  -0.0677
  C  C326  1  0.803800  0.402300  0.288700  1.0  -0.1059
  C  C327  1  0.840000  0.427500  0.323100  1.0  -0.1596
  C  C328  1  0.076000  0.640100  0.855100  1.0  0.6974
  C  C329  1  0.531500  0.541900  0.749300  1.0  0.6996
  C  C330  1  0.897500  0.693400  0.866800  1.0  -0.1182
  C  C331  1  0.969500  0.640000  0.856800  1.0  -0.148
  C  C332  1  0.937800  0.591500  0.851900  1.0  0.2991
  C  C333  1  0.834200  0.596400  0.857000  1.0  -0.012
  C  C334  1  0.762200  0.649900  0.866900  1.0  0.05
  C  C335  1  0.793900  0.698400  0.871800  1.0  0.0402
  C  C336  1  0.721900  0.751800  0.881800  1.0  -0.1056
  C  C337  1  0.618200  0.756900  0.886900  1.0  -0.0572
  C  C338  1  0.586600  0.708300  0.881900  1.0  -0.0909
  C  C339  1  0.658600  0.654900  0.871900  1.0  -0.1483
  C  C340  1  0.807200  0.539900  0.853500  1.0  -0.2611
  C  C341  1  0.716400  0.528100  0.693900  1.0  -0.0868
  C  C342  1  0.643500  0.537700  0.747300  1.0  -0.2195
  C  C343  1  0.674000  0.542000  0.796400  1.0  0.203
  C  C344  1  0.777400  0.536800  0.792200  1.0  -0.0497
  C  C345  1  0.850300  0.527200  0.739000  1.0  0.039
  C  C346  1  0.819800  0.522800  0.689800  1.0  0.0558
  C  C347  1  0.892700  0.513200  0.636600  1.0  -0.1664
  C  C348  1  0.996100  0.508000  0.632400  1.0  -0.1012
  C  C349  1  0.026700  0.512300  0.681500  1.0  -0.0786
  C  C350  1  0.953800  0.521800  0.734800  1.0  -0.1379
  C  C351  1  0.282800  0.857300  0.343100  1.0  -0.2136
  C  C352  1  0.491600  0.838000  0.198800  1.0  0.1758
  C  C353  1  0.406700  0.863200  0.241000  1.0  -0.0475
  C  C354  1  0.373100  0.829000  0.295200  1.0  0.0877
  C  C355  1  0.424400  0.769600  0.307400  1.0  -0.1125
  C  C356  1  0.509300  0.744300  0.265300  1.0  0.1222
  C  C357  1  0.215900  0.814800  0.379400  1.0  -0.1229
  C  C358  1  0.129700  0.816400  0.350200  1.0  -0.2037
  C  C359  1  0.950100  0.953300  0.282300  1.0  0.131
  C  C360  1  0.024900  0.900300  0.287900  1.0  -0.1059
  C  C361  1  0.047300  0.875200  0.342800  1.0  0.1107
  C  C362  1  0.994700  0.903100  0.392300  1.0  -0.0833
  C  C363  1  0.919800  0.956200  0.386800  1.0  0.1636
  C  C364  1  0.570400  0.657100  0.160100  1.0  0.0963
  C  C365  1  0.508000  0.629200  0.146800  1.0  -0.1074
  C  C366  1  0.488100  0.640600  0.091200  1.0  0.123
  C  C367  1  0.534600  0.681700  0.049100  1.0  -0.0659
  C  C368  1  0.597200  0.709700  0.061900  1.0  0.0525
  C  C369  1  0.419200  0.609700  0.077900  1.0  -0.2103
  C  C370  1  0.440500  0.542500  0.084500  1.0  -0.1686
  C  C371  1  0.346100  0.519000  0.092800  1.0  -0.1592
  C  C372  1  0.396600  0.507800  0.929000  1.0  0.0748
  C  C373  1  0.404000  0.496900  0.987100  1.0  -0.0941
  C  C374  1  0.337800  0.530800  0.029600  1.0  0.062
  C  C375  1  0.261300  0.577100  0.010300  1.0  -0.1162
  C  C376  1  0.268500  0.595400  0.949600  1.0  0.133
  C  C377  1  0.284400  0.734700  0.145300  1.0  0.452
  C  C378  1  0.402300  0.055600  0.801800  1.0  0.435
  C  C379  1  0.181400  0.840600  0.134600  1.0  -0.1322
  C  C380  1  0.269500  0.796700  0.114300  1.0  -0.1472
  C  C381  1  0.343300  0.817900  0.065900  1.0  0.1072
  C  C382  1  0.329800  0.876000  0.035000  1.0  0.0386
  C  C383  1  0.246000  0.920700  0.060100  1.0  0.0077
  C  C384  1  0.173500  0.900400  0.110200  1.0  0.0454
  C  C385  1  0.086300  0.941800  0.135600  1.0  -0.1856
  C  C386  1  0.068500  0.001600  0.109400  1.0  -0.1169
  C  C387  1  0.145500  0.020000  0.063000  1.0  -0.1177
  C  C388  1  0.235800  0.981600  0.036600  1.0  -0.223
  C  C389  1  0.413500  0.895300  0.984300  1.0  -0.1758
  C  C390  1  0.337600  0.957500  0.813700  1.0  -0.0553
  C  C391  1  0.373700  0.991900  0.838900  1.0  -0.2311
  C  C392  1  0.398700  0.970000  0.893600  1.0  0.2425
  C  C393  1  0.387400  0.913800  0.923200  1.0  0.0055
  C  C394  1  0.351300  0.879300  0.897900  1.0  0.0491
  C  C395  1  0.326400  0.901200  0.843200  1.0  0.0518
  C  C396  1  0.290200  0.866800  0.818000  1.0  -0.1514
  C  C397  1  0.279000  0.810500  0.847500  1.0  -0.0654
  C  C398  1  0.303800  0.788700  0.902300  1.0  -0.1077
  C  C399  1  0.340000  0.823100  0.927500  1.0  -0.1586
  C  C400  1  0.576000  0.355100  0.140100  1.0  0.6948
  C  C401  1  0.031500  0.249300  0.041900  1.0  0.6967
  C  C402  1  0.397500  0.366800  0.193400  1.0  -0.1186
  C  C403  1  0.469500  0.356800  0.140000  1.0  -0.1453
  C  C404  1  0.437800  0.351900  0.091500  1.0  0.2985
  C  C405  1  0.334200  0.357000  0.096400  1.0  -0.0147
  C  C406  1  0.262200  0.366900  0.149900  1.0  0.0523
  C  C407  1  0.293900  0.371800  0.198400  1.0  0.0426
  C  C408  1  0.221900  0.381800  0.251800  1.0  -0.1063
  C  C409  1  0.118200  0.386900  0.256900  1.0  -0.056
  C  C410  1  0.086600  0.381900  0.208300  1.0  -0.0962
  C  C411  1  0.158600  0.371900  0.154900  1.0  -0.15
  C  C412  1  0.307200  0.353500  0.039900  1.0  -0.2621
  C  C413  1  0.216400  0.193900  0.028100  1.0  -0.0851
  C  C414  1  0.143500  0.247300  0.037700  1.0  -0.2158
  C  C415  1  0.174000  0.296400  0.042000  1.0  0.2044
  C  C416  1  0.277400  0.292200  0.036800  1.0  -0.0503
  C  C417  1  0.350300  0.239000  0.027200  1.0  0.0366
  C  C418  1  0.319800  0.189800  0.022800  1.0  0.0562
  C  C419  1  0.392700  0.136600  0.013200  1.0  -0.1665
  C  C420  1  0.496100  0.132400  0.008000  1.0  -0.1021
  C  C421  1  0.526700  0.181500  0.012300  1.0  -0.0749
  C  C422  1  0.453800  0.234800  0.021800  1.0  -0.1324
  C  C423  1  0.782800  0.843100  0.357300  1.0  -0.2135
  C  C424  1  0.991600  0.698800  0.338000  1.0  0.176
  C  C425  1  0.906700  0.741000  0.363200  1.0  -0.0432
  C  C426  1  0.873100  0.795200  0.329000  1.0  0.0892
  C  C427  1  0.924400  0.807400  0.269600  1.0  -0.1076
  C  C428  1  0.009300  0.765300  0.244300  1.0  0.1263
  C  C429  1  0.715900  0.879400  0.314800  1.0  -0.1217
  C  C430  1  0.629700  0.850200  0.316400  1.0  -0.2014
  C  C431  1  0.450100  0.782300  0.453300  1.0  0.1304
  C  C432  1  0.524900  0.787900  0.400300  1.0  -0.1046
  C  C433  1  0.547300  0.842800  0.375200  1.0  0.1112
  C  C434  1  0.494700  0.892300  0.403100  1.0  -0.084
  C  C435  1  0.419800  0.886800  0.456200  1.0  0.1661
  C  C436  1  0.070400  0.660100  0.157100  1.0  0.0977
  C  C437  1  0.008000  0.646800  0.129200  1.0  -0.1102
  C  C438  1  0.988100  0.591200  0.140600  1.0  0.1262
  C  C439  1  0.034600  0.549100  0.181700  1.0  -0.0659
  C  C440  1  0.097200  0.561900  0.209700  1.0  0.0522
  C  C441  1  0.919200  0.577900  0.109700  1.0  -0.2116
  C  C442  1  0.940500  0.584500  0.042500  1.0  -0.1654
  C  C443  1  0.846100  0.592800  0.019000  1.0  -0.16
  C  C444  1  0.896600  0.429000  0.007800  1.0  0.0756
  C  C445  1  0.904000  0.487100  0.996900  1.0  -0.0926
  C  C446  1  0.837800  0.529600  0.030800  1.0  0.0592
  C  C447  1  0.761300  0.510300  0.077100  1.0  -0.1174
  C  C448  1  0.768500  0.449600  0.095400  1.0  0.1331
  C  C449  1  0.335600  0.234700  0.645300  1.0  0.4531
  C  C450  1  0.240300  0.555600  0.301800  1.0  0.4318
  C  C451  1  0.343400  0.340600  0.634600  1.0  -0.1307
  C  C452  1  0.319500  0.296700  0.614300  1.0  -0.1489
  C  C453  1  0.272900  0.317900  0.565900  1.0  0.106
  C  C454  1  0.259200  0.376000  0.535000  1.0  0.0395
  C  C455  1  0.273200  0.420700  0.560100  1.0  0.0082
  C  C456  1  0.315900  0.400400  0.610200  1.0  0.0459
  C  C457  1  0.336300  0.441800  0.635600  1.0  -0.1857
  C  C458  1  0.320500  0.501600  0.609400  1.0  -0.1144
  C  C459  1  0.271500  0.520000  0.563000  1.0  -0.1148
  C  C460  1  0.246000  0.481600  0.536600  1.0  -0.2206
  C  C461  1  0.206900  0.395300  0.484300  1.0  -0.1756
  C  C462  1  0.391200  0.457500  0.313700  1.0  -0.056
  C  C463  1  0.295500  0.491900  0.338900  1.0  -0.2314
  C  C464  1  0.237700  0.470000  0.393600  1.0  0.2446
  C  C465  1  0.275600  0.413800  0.423200  1.0  0.0044
  C  C466  1  0.371500  0.379300  0.397900  1.0  0.0477
  C  C467  1  0.429200  0.401200  0.343200  1.0  0.0501
  C  C468  1  0.525000  0.366800  0.318000  1.0  -0.1506
  C  C469  1  0.563000  0.310500  0.347500  1.0  -0.0654
  C  C470  1  0.505200  0.288700  0.402300  1.0  -0.1076
  C  C471  1  0.409400  0.323100  0.427500  1.0  -0.1552
  C  C472  1  0.428800  0.855100  0.640100  1.0  0.6956
  C  C473  1  0.177300  0.749300  0.541900  1.0  0.6978
  C  C474  1  0.542300  0.866800  0.693400  1.0  -0.116
  C  C475  1  0.533700  0.856800  0.640000  1.0  -0.1464
  C  C476  1  0.618800  0.851900  0.591500  1.0  0.2972
  C  C477  1  0.712400  0.857000  0.596400  1.0  -0.0127
  C  C478  1  0.721000  0.866900  0.649900  1.0  0.0536
  C  C479  1  0.635900  0.871800  0.698400  1.0  0.0442
  C  C480  1  0.644500  0.881800  0.751800  1.0  -0.1047
  C  C481  1  0.738000  0.886900  0.756900  1.0  -0.0557
  C  C482  1  0.823200  0.881900  0.708300  1.0  -0.0943
  C  C483  1  0.814600  0.871900  0.654900  1.0  -0.1477
  C  C484  1  0.799400  0.853500  0.539900  1.0  -0.2616
  C  C485  1  0.061600  0.693900  0.528100  1.0  -0.0866
  C  C486  1  0.071500  0.747300  0.537700  1.0  -0.2144
  C  C487  1  0.987600  0.796400  0.542000  1.0  0.2057
  C  C488  1  0.893600  0.792200  0.536800  1.0  -0.0501
  C  C489  1  0.883500  0.739000  0.527200  1.0  0.0372
  C  C490  1  0.967600  0.689800  0.522800  1.0  0.0558
  C  C491  1  0.957500  0.636600  0.513200  1.0  -0.1658
  C  C492  1  0.863500  0.632400  0.508000  1.0  -0.102
  C  C493  1  0.779500  0.681500  0.512300  1.0  -0.0764
  C  C494  1  0.789600  0.734800  0.521800  1.0  -0.1333
  C  C495  1  0.516800  0.343100  0.857300  1.0  -0.2146
  C  C496  1  0.471600  0.198800  0.838000  1.0  0.1756
  C  C497  1  0.489100  0.241000  0.863200  1.0  -0.0453
  C  C498  1  0.502700  0.295200  0.829000  1.0  0.0876
  C  C499  1  0.498600  0.307400  0.769600  1.0  -0.1108
  C  C500  1  0.481100  0.265300  0.744300  1.0  0.1251
  C  C501  1  0.589900  0.379400  0.814800  1.0  -0.1221
  C  C502  1  0.703700  0.350200  0.816400  1.0  -0.2024
  C  C503  1  0.814300  0.282300  0.953300  1.0  0.1325
  C  C504  1  0.786900  0.287900  0.900300  1.0  -0.1034
  C  C505  1  0.734700  0.342800  0.875200  1.0  0.1104
  C  C506  1  0.709900  0.392300  0.903100  1.0  -0.0846
  C  C507  1  0.737200  0.386800  0.956200  1.0  0.1669
  C  C508  1  0.612400  0.160100  0.657100  1.0  0.097
  C  C509  1  0.716000  0.146800  0.629200  1.0  -0.1074
  C  C510  1  0.780100  0.091200  0.640600  1.0  0.125
  C  C511  1  0.734600  0.049100  0.681700  1.0  -0.0677
  C  C512  1  0.631200  0.061900  0.709700  1.0  0.0528
  C  C513  1  0.893200  0.077900  0.609700  1.0  -0.2105
  C  C514  1  0.932500  0.084500  0.542500  1.0  -0.1662
  C  C515  1  0.042100  0.092800  0.519000  1.0  -0.1588
  C  C516  1  0.166600  0.929000  0.507800  1.0  0.0763
  C  C517  1  0.112000  0.987100  0.496900  1.0  -0.0926
  C  C518  1  0.101800  0.029600  0.530800  1.0  0.0596
  C  C519  1  0.151300  0.010300  0.577100  1.0  -0.1154
  C  C520  1  0.186500  0.949600  0.595400  1.0  0.1341
  N  N521  1  0.067600  0.198200  0.617600  1.0  -0.3292
  N  N522  1  0.714200  0.055000  0.410200  1.0  -0.3376
  N  N523  1  0.967700  0.278500  0.710900  1.0  -0.3646
  N  N524  1  0.289400  0.481300  0.831900  1.0  -0.3546
  N  N525  1  0.616600  0.698200  0.117600  1.0  -0.3294
  N  N526  1  0.320600  0.555000  0.910200  1.0  -0.3364
  N  N527  1  0.542900  0.778500  0.210900  1.0  -0.3612
  N  N528  1  0.897400  0.981300  0.331900  1.0  -0.3539
  N  N529  1  0.116600  0.617600  0.198200  1.0  -0.3292
  N  N530  1  0.820600  0.410200  0.055000  1.0  -0.3356
  N  N531  1  0.042900  0.710900  0.278500  1.0  -0.3593
  N  N532  1  0.397400  0.831900  0.481300  1.0  -0.3592
  N  N533  1  0.567600  0.117600  0.698200  1.0  -0.3299
  N  N534  1  0.214200  0.910200  0.555000  1.0  -0.3366
  N  N535  1  0.467700  0.210900  0.778500  1.0  -0.3618
  N  N536  1  0.789400  0.331900  0.981300  1.0  -0.3611
  O  O537  1  0.884900  0.181400  0.712600  1.0  -0.5972
  O  O538  1  0.819100  0.125800  0.695800  1.0  -0.5022
  O  O539  1  0.663800  0.821400  0.081600  1.0  -0.5908
  O  O540  1  0.806000  0.750300  0.063300  1.0  -0.5705
  O  O541  1  0.736100  0.044000  0.780000  1.0  -0.539
  O  O542  1  0.641700  0.916200  0.002600  1.0  -0.5205
  O  O543  1  0.919000  0.090600  0.347800  1.0  -0.6614
  O  O544  1  0.855700  0.183200  0.359800  1.0  -0.5183
  O  O545  1  0.690700  0.048300  0.298900  1.0  -0.6291
  O  O546  1  0.747700  0.045600  0.201600  1.0  -0.5191
  O  O547  1  0.102800  0.038700  0.349300  1.0  -0.5072
  O  O548  1  0.500300  0.043600  0.354000  1.0  -0.5138
  O  O549  1  0.721100  0.681400  0.212600  1.0  -0.5971
  O  O550  1  0.859300  0.625800  0.195800  1.0  -0.5051
  O  O551  1  0.933200  0.321400  0.581600  1.0  -0.5965
  O  O552  1  0.880400  0.250300  0.563300  1.0  -0.5706
  O  O553  1  0.939900  0.544000  0.280000  1.0  -0.539
  O  O554  1  0.939500  0.416200  0.502600  1.0  -0.5189
  O  O555  1  0.142600  0.590600  0.847800  1.0  -0.659
  O  O556  1  0.101300  0.683200  0.859800  1.0  -0.5225
  O  O557  1  0.462100  0.548300  0.798900  1.0  -0.63
  O  O558  1  0.505100  0.545600  0.701600  1.0  -0.5183
  O  O559  1  0.009200  0.538700  0.849300  1.0  -0.5087
  O  O560  1  0.602100  0.543600  0.854000  1.0  -0.5153
  O  O561  1  0.221100  0.712600  0.181400  1.0  -0.5988
  O  O562  1  0.359300  0.695800  0.125800  1.0  -0.508
  O  O563  1  0.433200  0.081600  0.821400  1.0  -0.5957
  O  O564  1  0.380400  0.063300  0.750300  1.0  -0.5723
  O  O565  1  0.439900  0.780000  0.044000  1.0  -0.538
  O  O566  1  0.439500  0.002600  0.916200  1.0  -0.5215
  O  O567  1  0.642600  0.347800  0.090600  1.0  -0.6557
  O  O568  1  0.601300  0.359800  0.183200  1.0  -0.5213
  O  O569  1  0.962100  0.298900  0.048300  1.0  -0.6295
  O  O570  1  0.005100  0.201600  0.045600  1.0  -0.5172
  O  O571  1  0.509200  0.349300  0.038700  1.0  -0.5094
  O  O572  1  0.102100  0.354000  0.043600  1.0  -0.5121
  O  O573  1  0.384900  0.212600  0.681400  1.0  -0.5963
  O  O574  1  0.319100  0.195800  0.625800  1.0  -0.5088
  O  O575  1  0.163800  0.581600  0.321400  1.0  -0.5912
  O  O576  1  0.306000  0.563300  0.250300  1.0  -0.5728
  O  O577  1  0.236100  0.280000  0.544000  1.0  -0.5391
  O  O578  1  0.141700  0.502600  0.416200  1.0  -0.5215
  O  O579  1  0.419000  0.847800  0.590600  1.0  -0.6571
  O  O580  1  0.355700  0.859800  0.683200  1.0  -0.5201
  O  O581  1  0.190700  0.798900  0.548300  1.0  -0.6268
  O  O582  1  0.247700  0.701600  0.545600  1.0  -0.5186
  O  O583  1  0.602800  0.849300  0.538700  1.0  -0.5089
  O  O584  1  0.000300  0.854000  0.543600  1.0  -0.5126
