# generated using pymatgen
data_NiH26C35(NO3)2
_symmetry_space_group_name_H-M   'P 1'
_cell_length_a   19.46900000
_cell_length_b   18.07700000
_cell_length_c   13.26500000
_cell_angle_alpha   90.00000000
_cell_angle_beta   131.21300000
_cell_angle_gamma   90.00000000
_symmetry_Int_Tables_number   1
_chemical_formula_structural   NiH26C35(NO3)2
_chemical_formula_sum   'Ni4 H104 C140 N8 O24'
_cell_volume   3511.95034097
_cell_formula_units_Z   4
loop_
 _symmetry_equiv_pos_site_id
 _symmetry_equiv_pos_as_xyz
  1  'x, y, z'
loop_
 _atom_site_type_symbol
 _atom_site_label
 _atom_site_symmetry_multiplicity
 _atom_site_fract_x
 _atom_site_fract_y
 _atom_site_fract_z
 _atom_site_occupancy
 _atom_site_charge
  Ni  Ni1  1  0.000000  0.000000  0.500000  1.0  0.5002
  Ni  Ni2  1  0.500000  0.500000  0.500000  1.0  0.5002
  Ni  Ni3  1  0.000000  0.000000  0.000000  1.0  0.5002
  Ni  Ni4  1  0.500000  0.500000  0.000000  1.0  0.5002
  H  H5  1  0.742200  0.061400  0.491700  1.0  0.3928
  H  H6  1  0.738300  0.901900  0.243900  1.0  0.1027
  H  H7  1  0.614600  0.834200  0.040400  1.0  0.1113
  H  H8  1  0.462300  0.806400  0.875500  1.0  0.1201
  H  H9  1  0.356100  0.862600  0.876600  1.0  0.1092
  H  H10  1  0.399900  0.945400  0.037100  1.0  0.0977
  H  H11  1  0.535400  0.063500  0.328100  1.0  0.1203
  H  H12  1  0.973200  0.839000  0.537500  1.0  0.0886
  H  H13  1  0.045000  0.748300  0.696300  1.0  0.1097
  H  H14  1  0.249500  0.887800  0.947000  1.0  0.113
  H  H15  1  0.174500  0.975100  0.781700  1.0  0.0778
  H  H16  1  0.186000  0.701000  0.903600  1.0  0.0779
  H  H17  1  0.175400  0.749500  0.990000  1.0  0.097
  H  H18  1  0.242200  0.561400  0.491700  1.0  0.3928
  H  H19  1  0.238300  0.401900  0.243900  1.0  0.1027
  H  H20  1  0.114600  0.334200  0.040400  1.0  0.1113
  H  H21  1  0.962300  0.306400  0.875500  1.0  0.1201
  H  H22  1  0.856100  0.362600  0.876600  1.0  0.1092
  H  H23  1  0.899900  0.445400  0.037100  1.0  0.0977
  H  H24  1  0.035400  0.563500  0.328100  1.0  0.1203
  H  H25  1  0.473200  0.339000  0.537500  1.0  0.0886
  H  H26  1  0.545000  0.248300  0.696300  1.0  0.1097
  H  H27  1  0.749500  0.387800  0.947000  1.0  0.113
  H  H28  1  0.674500  0.475100  0.781700  1.0  0.0778
  H  H29  1  0.686000  0.201000  0.903600  1.0  0.0779
  H  H30  1  0.675400  0.249500  0.990000  1.0  0.097
  H  H31  1  0.257800  0.061400  0.008300  1.0  0.395
  H  H32  1  0.261700  0.901900  0.256100  1.0  0.1035
  H  H33  1  0.385400  0.834200  0.459600  1.0  0.1118
  H  H34  1  0.537700  0.806400  0.624500  1.0  0.1216
  H  H35  1  0.643900  0.862600  0.623400  1.0  0.1081
  H  H36  1  0.600100  0.945400  0.462900  1.0  0.0994
  H  H37  1  0.464600  0.063500  0.171900  1.0  0.1221
  H  H38  1  0.026800  0.839000  0.962500  1.0  0.0895
  H  H39  1  0.955000  0.748300  0.803700  1.0  0.1097
  H  H40  1  0.750500  0.887800  0.553000  1.0  0.1118
  H  H41  1  0.825500  0.975100  0.718300  1.0  0.0778
  H  H42  1  0.814000  0.701000  0.596400  1.0  0.0789
  H  H43  1  0.824600  0.749500  0.510000  1.0  0.098
  H  H44  1  0.757800  0.561400  0.008300  1.0  0.395
  H  H45  1  0.761700  0.401900  0.256100  1.0  0.1035
  H  H46  1  0.885400  0.334200  0.459600  1.0  0.1118
  H  H47  1  0.037700  0.306400  0.624500  1.0  0.1216
  H  H48  1  0.143900  0.362600  0.623400  1.0  0.1081
  H  H49  1  0.100100  0.445400  0.462900  1.0  0.0994
  H  H50  1  0.964600  0.563500  0.171900  1.0  0.1221
  H  H51  1  0.526800  0.339000  0.962500  1.0  0.0895
  H  H52  1  0.455000  0.248300  0.803700  1.0  0.1097
  H  H53  1  0.250500  0.387800  0.553000  1.0  0.1118
  H  H54  1  0.325500  0.475100  0.718300  1.0  0.0778
  H  H55  1  0.314000  0.201000  0.596400  1.0  0.0789
  H  H56  1  0.324600  0.249500  0.510000  1.0  0.098
  H  H57  1  0.257800  0.938600  0.508300  1.0  0.3952
  H  H58  1  0.261700  0.098100  0.756100  1.0  0.1036
  H  H59  1  0.385400  0.165800  0.959600  1.0  0.1113
  H  H60  1  0.537700  0.193600  0.124500  1.0  0.1217
  H  H61  1  0.643900  0.137400  0.123400  1.0  0.1084
  H  H62  1  0.600100  0.054600  0.962900  1.0  0.0996
  H  H63  1  0.464600  0.936500  0.671900  1.0  0.1209
  H  H64  1  0.026800  0.161000  0.462500  1.0  0.0895
  H  H65  1  0.955000  0.251700  0.303700  1.0  0.11
  H  H66  1  0.750500  0.112200  0.053000  1.0  0.1117
  H  H67  1  0.825500  0.024900  0.218300  1.0  0.0775
  H  H68  1  0.814000  0.299000  0.096400  1.0  0.0792
  H  H69  1  0.824600  0.250500  0.010000  1.0  0.0979
  H  H70  1  0.757800  0.438600  0.508300  1.0  0.3952
  H  H71  1  0.761700  0.598100  0.756100  1.0  0.1036
  H  H72  1  0.885400  0.665800  0.959600  1.0  0.1113
  H  H73  1  0.037700  0.693600  0.124500  1.0  0.1217
  H  H74  1  0.143900  0.637400  0.123400  1.0  0.1084
  H  H75  1  0.100100  0.554600  0.962900  1.0  0.0996
  H  H76  1  0.964600  0.436500  0.671900  1.0  0.1209
  H  H77  1  0.526800  0.661000  0.462500  1.0  0.0895
  H  H78  1  0.455000  0.751700  0.303700  1.0  0.11
  H  H79  1  0.250500  0.612200  0.053000  1.0  0.1117
  H  H80  1  0.325500  0.524900  0.218300  1.0  0.0775
  H  H81  1  0.314000  0.799000  0.096400  1.0  0.0792
  H  H82  1  0.324600  0.750500  0.010000  1.0  0.0979
  H  H83  1  0.742200  0.938600  0.991700  1.0  0.3933
  H  H84  1  0.738300  0.098100  0.743900  1.0  0.1032
  H  H85  1  0.614600  0.165800  0.540400  1.0  0.1115
  H  H86  1  0.462300  0.193600  0.375500  1.0  0.1213
  H  H87  1  0.356100  0.137400  0.376600  1.0  0.1093
  H  H88  1  0.399900  0.054600  0.537100  1.0  0.0978
  H  H89  1  0.535400  0.936500  0.828100  1.0  0.1213
  H  H90  1  0.973200  0.161000  0.037500  1.0  0.0886
  H  H91  1  0.045000  0.251700  0.196300  1.0  0.1101
  H  H92  1  0.249500  0.112200  0.447000  1.0  0.1132
  H  H93  1  0.174500  0.024900  0.281700  1.0  0.0776
  H  H94  1  0.186000  0.299000  0.403600  1.0  0.0791
  H  H95  1  0.175400  0.250500  0.490000  1.0  0.0974
  H  H96  1  0.242200  0.438600  0.991700  1.0  0.3933
  H  H97  1  0.238300  0.598100  0.743900  1.0  0.1032
  H  H98  1  0.114600  0.665800  0.540400  1.0  0.1115
  H  H99  1  0.962300  0.693600  0.375500  1.0  0.1213
  H  H100  1  0.856100  0.637400  0.376600  1.0  0.1093
  H  H101  1  0.899900  0.554600  0.537100  1.0  0.0978
  H  H102  1  0.035400  0.436500  0.828100  1.0  0.1213
  H  H103  1  0.473200  0.661000  0.037500  1.0  0.0886
  H  H104  1  0.545000  0.751700  0.196300  1.0  0.1101
  H  H105  1  0.749500  0.612200  0.447000  1.0  0.1132
  H  H106  1  0.674500  0.524900  0.281700  1.0  0.0776
  H  H107  1  0.686000  0.799000  0.403600  1.0  0.0791
  H  H108  1  0.675400  0.750500  0.490000  1.0  0.0974
  C  C109  1  0.823300  0.994600  0.442100  1.0  0.6989
  C  C110  1  0.695600  0.923800  0.244800  1.0  -0.0868
  C  C111  1  0.723500  0.973100  0.341100  1.0  -0.1443
  C  C112  1  0.659300  0.006500  0.344100  1.0  0.2265
  C  C113  1  0.566800  0.989200  0.248800  1.0  0.0178
  C  C114  1  0.537400  0.939500  0.146600  1.0  -0.0007
  C  C115  1  0.602400  0.904700  0.145000  1.0  -0.0005
  C  C116  1  0.572200  0.856200  0.042200  1.0  -0.1078
  C  C117  1  0.481200  0.839900  0.942700  1.0  -0.1092
  C  C118  1  0.417800  0.873700  0.943700  1.0  -0.0717
  C  C119  1  0.444000  0.922500  0.040300  1.0  -0.125
  C  C120  1  0.029700  0.849000  0.621000  1.0  0.1787
  C  C121  1  0.072400  0.794500  0.716700  1.0  -0.1771
  C  C122  1  0.155500  0.807400  0.842600  1.0  0.14
  C  C123  1  0.193000  0.876500  0.864200  1.0  -0.2256
  C  C124  1  0.147600  0.928900  0.764200  1.0  0.178
  C  C125  1  0.201500  0.748400  0.948100  1.0  -0.1822
  C  C126  1  0.323300  0.494600  0.442100  1.0  0.6989
  C  C127  1  0.195600  0.423800  0.244800  1.0  -0.0868
  C  C128  1  0.223500  0.473100  0.341100  1.0  -0.1443
  C  C129  1  0.159300  0.506500  0.344100  1.0  0.2265
  C  C130  1  0.066800  0.489200  0.248800  1.0  0.0178
  C  C131  1  0.037400  0.439500  0.146600  1.0  -0.0007
  C  C132  1  0.102400  0.404700  0.145000  1.0  -0.0005
  C  C133  1  0.072200  0.356200  0.042200  1.0  -0.1078
  C  C134  1  0.981200  0.339900  0.942700  1.0  -0.1092
  C  C135  1  0.917800  0.373700  0.943700  1.0  -0.0717
  C  C136  1  0.944000  0.422500  0.040300  1.0  -0.125
  C  C137  1  0.529700  0.349000  0.621000  1.0  0.1787
  C  C138  1  0.572400  0.294500  0.716700  1.0  -0.1771
  C  C139  1  0.655500  0.307400  0.842600  1.0  0.14
  C  C140  1  0.693000  0.376500  0.864200  1.0  -0.2256
  C  C141  1  0.647600  0.428900  0.764200  1.0  0.178
  C  C142  1  0.701500  0.248400  0.948100  1.0  -0.1822
  C  C143  1  0.176700  0.994600  0.057900  1.0  0.699
  C  C144  1  0.304400  0.923800  0.255200  1.0  -0.0857
  C  C145  1  0.276500  0.973100  0.158900  1.0  -0.1463
  C  C146  1  0.340700  0.006500  0.155900  1.0  0.2244
  C  C147  1  0.433200  0.989200  0.251200  1.0  0.0169
  C  C148  1  0.462600  0.939500  0.353400  1.0  -0.0004
  C  C149  1  0.397600  0.904700  0.355000  1.0  -0.0022
  C  C150  1  0.427800  0.856200  0.457800  1.0  -0.1037
  C  C151  1  0.518800  0.839900  0.557300  1.0  -0.1047
  C  C152  1  0.582200  0.873700  0.556300  1.0  -0.0696
  C  C153  1  0.556000  0.922500  0.459700  1.0  -0.125
  C  C154  1  0.970300  0.849000  0.879000  1.0  0.1797
  C  C155  1  0.927600  0.794500  0.783300  1.0  -0.1774
  C  C156  1  0.844500  0.807400  0.657400  1.0  0.1409
  C  C157  1  0.807000  0.876500  0.635800  1.0  -0.2246
  C  C158  1  0.852400  0.928900  0.735800  1.0  0.1778
  C  C159  1  0.798500  0.748400  0.551900  1.0  -0.1827
  C  C160  1  0.676700  0.494600  0.057900  1.0  0.699
  C  C161  1  0.804400  0.423800  0.255200  1.0  -0.0857
  C  C162  1  0.776500  0.473100  0.158900  1.0  -0.1463
  C  C163  1  0.840700  0.506500  0.155900  1.0  0.2244
  C  C164  1  0.933200  0.489200  0.251200  1.0  0.0169
  C  C165  1  0.962600  0.439500  0.353400  1.0  -0.0004
  C  C166  1  0.897600  0.404700  0.355000  1.0  -0.0022
  C  C167  1  0.927800  0.356200  0.457800  1.0  -0.1037
  C  C168  1  0.018800  0.339900  0.557300  1.0  -0.1047
  C  C169  1  0.082200  0.373700  0.556300  1.0  -0.0696
  C  C170  1  0.056000  0.422500  0.459700  1.0  -0.125
  C  C171  1  0.470300  0.349000  0.879000  1.0  0.1797
  C  C172  1  0.427600  0.294500  0.783300  1.0  -0.1774
  C  C173  1  0.344500  0.307400  0.657400  1.0  0.1409
  C  C174  1  0.307000  0.376500  0.635800  1.0  -0.2246
  C  C175  1  0.352400  0.428900  0.735800  1.0  0.1778
  C  C176  1  0.298500  0.248400  0.551900  1.0  -0.1827
  C  C177  1  0.176700  0.005400  0.557900  1.0  0.6985
  C  C178  1  0.304400  0.076200  0.755200  1.0  -0.0869
  C  C179  1  0.276500  0.026900  0.658900  1.0  -0.1467
  C  C180  1  0.340700  0.993500  0.655900  1.0  0.2262
  C  C181  1  0.433200  0.010800  0.751200  1.0  0.0172
  C  C182  1  0.462600  0.060500  0.853400  1.0  -0.0002
  C  C183  1  0.397600  0.095300  0.855000  1.0  -0.0017
  C  C184  1  0.427800  0.143800  0.957800  1.0  -0.1067
  C  C185  1  0.518800  0.160100  0.057300  1.0  -0.1039
  C  C186  1  0.582200  0.126300  0.056300  1.0  -0.0701
  C  C187  1  0.556000  0.077500  0.959700  1.0  -0.1252
  C  C188  1  0.970300  0.151000  0.379000  1.0  0.1799
  C  C189  1  0.927600  0.205500  0.283300  1.0  -0.1765
  C  C190  1  0.844500  0.192600  0.157400  1.0  0.1411
  C  C191  1  0.807000  0.123500  0.135800  1.0  -0.2238
  C  C192  1  0.852400  0.071100  0.235800  1.0  0.1776
  C  C193  1  0.798500  0.251600  0.051900  1.0  -0.1823
  C  C194  1  0.676700  0.505400  0.557900  1.0  0.6985
  C  C195  1  0.804400  0.576200  0.755200  1.0  -0.0869
  C  C196  1  0.776500  0.526900  0.658900  1.0  -0.1467
  C  C197  1  0.840700  0.493500  0.655900  1.0  0.2262
  C  C198  1  0.933200  0.510800  0.751200  1.0  0.0172
  C  C199  1  0.962600  0.560500  0.853400  1.0  -0.0002
  C  C200  1  0.897600  0.595300  0.855000  1.0  -0.0017
  C  C201  1  0.927800  0.643800  0.957800  1.0  -0.1067
  C  C202  1  0.018800  0.660100  0.057300  1.0  -0.1039
  C  C203  1  0.082200  0.626300  0.056300  1.0  -0.0701
  C  C204  1  0.056000  0.577500  0.959700  1.0  -0.1252
  C  C205  1  0.470300  0.651000  0.379000  1.0  0.1799
  C  C206  1  0.427600  0.705500  0.283300  1.0  -0.1765
  C  C207  1  0.344500  0.692600  0.157400  1.0  0.1411
  C  C208  1  0.307000  0.623500  0.135800  1.0  -0.2238
  C  C209  1  0.352400  0.571100  0.235800  1.0  0.1776
  C  C210  1  0.298500  0.751600  0.051900  1.0  -0.1823
  C  C211  1  0.823300  0.005400  0.942100  1.0  0.6995
  C  C212  1  0.695600  0.076200  0.744800  1.0  -0.0882
  C  C213  1  0.723500  0.026900  0.841100  1.0  -0.1442
  C  C214  1  0.659300  0.993500  0.844100  1.0  0.2286
  C  C215  1  0.566800  0.010800  0.748800  1.0  0.0183
  C  C216  1  0.537400  0.060500  0.646600  1.0  -0.0004
  C  C217  1  0.602400  0.095300  0.645000  1.0  -1e-04
  C  C218  1  0.572200  0.143800  0.542200  1.0  -0.1086
  C  C219  1  0.481200  0.160100  0.442700  1.0  -0.1064
  C  C220  1  0.417800  0.126300  0.443700  1.0  -0.0717
  C  C221  1  0.444000  0.077500  0.540300  1.0  -0.1252
  C  C222  1  0.029700  0.151000  0.121000  1.0  0.1785
  C  C223  1  0.072400  0.205500  0.216700  1.0  -0.1761
  C  C224  1  0.155500  0.192600  0.342600  1.0  0.1403
  C  C225  1  0.193000  0.123500  0.364200  1.0  -0.2248
  C  C226  1  0.147600  0.071100  0.264200  1.0  0.1772
  C  C227  1  0.201500  0.251600  0.448100  1.0  -0.1817
  C  C228  1  0.323300  0.505400  0.942100  1.0  0.6995
  C  C229  1  0.195600  0.576200  0.744800  1.0  -0.0882
  C  C230  1  0.223500  0.526900  0.841100  1.0  -0.1442
  C  C231  1  0.159300  0.493500  0.844100  1.0  0.2286
  C  C232  1  0.066800  0.510800  0.748800  1.0  0.0183
  C  C233  1  0.037400  0.560500  0.646600  1.0  -0.0004
  C  C234  1  0.102400  0.595300  0.645000  1.0  -1e-04
  C  C235  1  0.072200  0.643800  0.542200  1.0  -0.1086
  C  C236  1  0.981200  0.660100  0.442700  1.0  -0.1064
  C  C237  1  0.917800  0.626300  0.443700  1.0  -0.0717
  C  C238  1  0.944000  0.577500  0.540300  1.0  -0.1252
  C  C239  1  0.529700  0.651000  0.121000  1.0  0.1785
  C  C240  1  0.572400  0.705500  0.216700  1.0  -0.1761
  C  C241  1  0.655500  0.692600  0.342600  1.0  0.1403
  C  C242  1  0.693000  0.623500  0.364200  1.0  -0.2248
  C  C243  1  0.647600  0.571100  0.264200  1.0  0.1772
  C  C244  1  0.701500  0.751600  0.448100  1.0  -0.1817
  C  C245  1  0.500000  0.031600  0.250000  1.0  -0.1547
  C  C246  1  0.000000  0.531600  0.250000  1.0  -0.1547
  C  C247  1  0.500000  0.968400  0.750000  1.0  -0.1537
  C  C248  1  0.000000  0.468400  0.750000  1.0  -0.1537
  N  N249  1  0.066600  0.916310  0.643300  1.0  -0.319
  N  N250  1  0.566600  0.416310  0.643300  1.0  -0.319
  N  N251  1  0.933400  0.916310  0.856700  1.0  -0.3191
  N  N252  1  0.433400  0.416310  0.856700  1.0  -0.3191
  N  N253  1  0.933400  0.083690  0.356700  1.0  -0.3184
  N  N254  1  0.433400  0.583690  0.356700  1.0  -0.3184
  N  N255  1  0.066600  0.083690  0.143300  1.0  -0.3207
  N  N256  1  0.566600  0.583690  0.143300  1.0  -0.3207
  O  O257  1  0.876310  0.964140  0.433400  1.0  -0.5995
  O  O258  1  0.846700  0.043700  0.528000  1.0  -0.5907
  O  O259  1  0.686800  0.055500  0.442100  1.0  -0.5043
  O  O260  1  0.376310  0.464140  0.433400  1.0  -0.5995
  O  O261  1  0.346700  0.543700  0.528000  1.0  -0.5907
  O  O262  1  0.186800  0.555500  0.442100  1.0  -0.5043
  O  O263  1  0.123690  0.964140  0.066600  1.0  -0.5995
  O  O264  1  0.153300  0.043700  0.972000  1.0  -0.5886
  O  O265  1  0.313200  0.055500  0.057900  1.0  -0.5029
  O  O266  1  0.623690  0.464140  0.066600  1.0  -0.5995
  O  O267  1  0.653300  0.543700  0.972000  1.0  -0.5886
  O  O268  1  0.813200  0.555500  0.057900  1.0  -0.5029
  O  O269  1  0.123690  0.035860  0.566600  1.0  -0.5991
  O  O270  1  0.153300  0.956300  0.472000  1.0  -0.5863
  O  O271  1  0.313200  0.944500  0.557900  1.0  -0.5032
  O  O272  1  0.623690  0.535860  0.566600  1.0  -0.5991
  O  O273  1  0.653300  0.456300  0.472000  1.0  -0.5863
  O  O274  1  0.813200  0.444500  0.557900  1.0  -0.5032
  O  O275  1  0.876310  0.035860  0.933400  1.0  -0.5995
  O  O276  1  0.846700  0.956300  0.028000  1.0  -0.5894
  O  O277  1  0.686800  0.944500  0.942100  1.0  -0.5043
  O  O278  1  0.376310  0.535860  0.933400  1.0  -0.5995
  O  O279  1  0.346700  0.456300  0.028000  1.0  -0.5894
  O  O280  1  0.186800  0.444500  0.942100  1.0  -0.5043
