# generated using pymatgen
data_CoH18C22(NO)4
_symmetry_space_group_name_H-M   'P 1'
_cell_length_a   11.45390000
_cell_length_b   11.72700000
_cell_length_c   14.13890000
_cell_angle_alpha   112.65700000
_cell_angle_beta   90.00000000
_cell_angle_gamma   119.23200000
_symmetry_Int_Tables_number   1
_chemical_formula_structural   CoH18C22(NO)4
_chemical_formula_sum   'Co2 H36 C44 N8 O8'
_cell_volume   1487.06984450
_cell_formula_units_Z   2
loop_
 _symmetry_equiv_pos_site_id
 _symmetry_equiv_pos_as_xyz
  1  'x, y, z'
loop_
 _atom_site_type_symbol
 _atom_site_label
 _atom_site_symmetry_multiplicity
 _atom_site_fract_x
 _atom_site_fract_y
 _atom_site_fract_z
 _atom_site_occupancy
 _atom_site_charge
  Co  Co1  1  0.014390  0.000000  0.750000  1.0  0.9243
  Co  Co2  1  0.985610  0.000000  0.250000  1.0  0.9236
  H  H3  1  0.163100  0.700600  0.648200  1.0  0.0955
  H  H4  1  0.207800  0.524600  0.547500  1.0  0.1079
  H  H5  1  0.948400  0.161000  0.964500  1.0  0.1026
  H  H6  1  0.802800  0.743000  0.804400  1.0  0.1055
  H  H7  1  0.698300  0.775000  0.955600  1.0  0.1245
  H  H8  1  0.761100  0.024600  0.134500  1.0  0.113
  H  H9  1  0.833100  0.167600  0.118800  1.0  0.1098
  H  H10  1  0.513300  0.854000  0.065800  1.0  0.0963
  H  H11  1  0.301000  0.798600  0.993500  1.0  0.1206
  H  H12  1  0.462500  0.299400  0.851800  1.0  0.0964
  H  H13  1  0.683200  0.475400  0.952500  1.0  0.1082
  H  H14  1  0.787400  0.839000  0.535500  1.0  0.1028
  H  H15  1  0.059800  0.257000  0.695600  1.0  0.1056
  H  H16  1  0.923300  0.225000  0.544400  1.0  0.1253
  H  H17  1  0.736500  0.975400  0.365500  1.0  0.113
  H  H18  1  0.665500  0.832400  0.381200  1.0  0.1087
  H  H19  1  0.659300  0.146000  0.434200  1.0  0.096
  H  H20  1  0.502400  0.201400  0.506500  1.0  0.1201
  H  H21  1  0.836900  0.299400  0.351800  1.0  0.0961
  H  H22  1  0.792200  0.475400  0.452500  1.0  0.108
  H  H23  1  0.051600  0.839000  0.035500  1.0  0.1029
  H  H24  1  0.197200  0.257000  0.195600  1.0  0.1052
  H  H25  1  0.301700  0.225000  0.044400  1.0  0.1249
  H  H26  1  0.238900  0.975400  0.865500  1.0  0.1129
  H  H27  1  0.166900  0.832400  0.881200  1.0  0.1081
  H  H28  1  0.486700  0.146000  0.934200  1.0  0.096
  H  H29  1  0.699000  0.201400  0.006500  1.0  0.1204
  H  H30  1  0.537500  0.700600  0.148200  1.0  0.0956
  H  H31  1  0.316800  0.524600  0.047500  1.0  0.1081
  H  H32  1  0.212600  0.161000  0.464500  1.0  0.1023
  H  H33  1  0.940200  0.743000  0.304400  1.0  0.1051
  H  H34  1  0.076700  0.775000  0.455600  1.0  0.1243
  H  H35  1  0.263500  0.024600  0.634500  1.0  0.1129
  H  H36  1  0.334500  0.167600  0.618800  1.0  0.1091
  H  H37  1  0.340700  0.854000  0.565800  1.0  0.0962
  H  H38  1  0.497600  0.798600  0.493500  1.0  0.1203
  C  C39  1  0.947020  0.724240  0.623910  1.0  0.6362
  C  C40  1  0.973160  0.606320  0.560920  1.0  -0.1251
  C  C41  1  0.097370  0.619740  0.588490  1.0  -0.0651
  C  C42  1  0.124460  0.514520  0.528290  1.0  -0.0598
  C  C43  1  0.899660  0.060960  0.943040  1.0  0.1392
  C  C44  1  0.819180  0.831360  0.855480  1.0  0.0336
  C  C45  1  0.761320  0.848240  0.938970  1.0  -0.151
  C  C46  1  0.767250  0.063300  0.083890  1.0  -0.0713
  C  C47  1  0.627960  0.033320  0.044240  1.0  0.0205
  C  C48  1  0.508210  0.913220  0.039400  1.0  -0.1035
  C  C49  1  0.380710  0.879620  0.995800  1.0  -0.1216
  C  C50  1  0.222780  0.275760  0.876090  1.0  0.6378
  C  C51  1  0.366840  0.393680  0.939080  1.0  -0.1253
  C  C52  1  0.477630  0.380260  0.911510  1.0  -0.0656
  C  C53  1  0.609940  0.485480  0.971710  1.0  -0.0601
  C  C54  1  0.838700  0.939040  0.556960  1.0  0.1403
  C  C55  1  0.987820  0.168640  0.644520  1.0  0.0358
  C  C56  1  0.913080  0.151760  0.561030  1.0  -0.1519
  C  C57  1  0.703950  0.936700  0.416110  1.0  -0.0685
  C  C58  1  0.594640  0.966680  0.455760  1.0  0.02
  C  C59  1  0.594990  0.086780  0.460600  1.0  -0.1009
  C  C60  1  0.501090  0.120380  0.504200  1.0  -0.1206
  C  C61  1  0.052980  0.275760  0.376090  1.0  0.6393
  C  C62  1  0.026840  0.393680  0.439080  1.0  -0.1227
  C  C63  1  0.902630  0.380260  0.411510  1.0  -0.0654
  C  C64  1  0.875540  0.485480  0.471710  1.0  -0.0622
  C  C65  1  0.100340  0.939040  0.056960  1.0  0.1406
  C  C66  1  0.180820  0.168640  0.144520  1.0  0.0349
  C  C67  1  0.238680  0.151760  0.061030  1.0  -0.1516
  C  C68  1  0.232750  0.936700  0.916110  1.0  -0.0688
  C  C69  1  0.372040  0.966680  0.955760  1.0  0.0209
  C  C70  1  0.491790  0.086780  0.960600  1.0  -0.1109
  C  C71  1  0.619290  0.120380  0.004200  1.0  -0.115
  C  C72  1  0.777220  0.724240  0.123910  1.0  0.6384
  C  C73  1  0.633160  0.606320  0.060920  1.0  -0.1229
  C  C74  1  0.522370  0.619740  0.088490  1.0  -0.0655
  C  C75  1  0.390060  0.514520  0.028290  1.0  -0.0617
  C  C76  1  0.161300  0.060960  0.443040  1.0  0.1389
  C  C77  1  0.012180  0.831360  0.355480  1.0  0.0328
  C  C78  1  0.086920  0.848240  0.438970  1.0  -0.1509
  C  C79  1  0.296050  0.063300  0.583890  1.0  -0.0718
  C  C80  1  0.405360  0.033320  0.544240  1.0  0.021
  C  C81  1  0.405010  0.913220  0.539400  1.0  -0.113
  C  C82  1  0.498910  0.879620  0.495800  1.0  -0.1171
  N  N83  1  0.906210  0.965340  0.857710  1.0  -0.4343
  N  N84  1  0.813430  0.994160  0.994240  1.0  0.0557
  N  N85  1  0.940870  0.034660  0.642290  1.0  -0.4331
  N  N86  1  0.819270  0.005840  0.505760  1.0  0.0557
  N  N87  1  0.093790  0.034660  0.142290  1.0  -0.4328
  N  N88  1  0.186570  0.005840  0.005760  1.0  0.0554
  N  N89  1  0.059130  0.965340  0.357710  1.0  -0.4334
  N  N90  1  0.180730  0.994160  0.494240  1.0  0.0556
  O  O91  1  0.053110  0.844760  0.686900  1.0  -0.5966
  O  O92  1  0.830090  0.702520  0.610860  1.0  -0.5968
  O  O93  1  0.208350  0.155240  0.813100  1.0  -0.5992
  O  O94  1  0.127570  0.297480  0.889140  1.0  -0.596
  O  O95  1  0.946890  0.155240  0.313100  1.0  -0.5996
  O  O96  1  0.169910  0.297480  0.389140  1.0  -0.5946
  O  O97  1  0.791650  0.844760  0.186900  1.0  -0.5986
  O  O98  1  0.872430  0.702520  0.110860  1.0  -0.596
