# generated using pymatgen
data_ZnH18C22(NO)4
_symmetry_space_group_name_H-M   'P 1'
_cell_length_a   11.54800000
_cell_length_b   11.79730000
_cell_length_c   14.06170000
_cell_angle_alpha   112.92400000
_cell_angle_beta   90.00000000
_cell_angle_gamma   119.30300000
_symmetry_Int_Tables_number   1
_chemical_formula_structural   ZnH18C22(NO)4
_chemical_formula_sum   'Zn2 H36 C44 N8 O8'
_cell_volume   1494.66529470
_cell_formula_units_Z   2
loop_
 _symmetry_equiv_pos_site_id
 _symmetry_equiv_pos_as_xyz
  1  'x, y, z'
loop_
 _atom_site_type_symbol
 _atom_site_label
 _atom_site_symmetry_multiplicity
 _atom_site_fract_x
 _atom_site_fract_y
 _atom_site_fract_z
 _atom_site_occupancy
 _atom_site_charge
  Zn  Zn1  1  0.011750  0.000000  0.750000  1.0  0.8799
  Zn  Zn2  1  0.988250  0.000000  0.250000  1.0  0.881
  H  H3  1  0.945000  0.161400  0.965400  1.0  0.1051
  H  H4  1  0.802800  0.744200  0.804200  1.0  0.0991
  H  H5  1  0.699000  0.776400  0.956400  1.0  0.1237
  H  H6  1  0.759200  0.023600  0.135400  1.0  0.1127
  H  H7  1  0.831400  0.167000  0.121500  1.0  0.1113
  H  H8  1  0.698100  0.200600  0.007000  1.0  0.1192
  H  H9  1  0.512700  0.854800  0.066200  1.0  0.0923
  H  H10  1  0.457300  0.296000  0.850700  1.0  0.0927
  H  H11  1  0.321800  0.529600  0.049800  1.0  0.1029
  H  H12  1  0.783600  0.838600  0.534600  1.0  0.1052
  H  H13  1  0.058600  0.255800  0.695800  1.0  0.0997
  H  H14  1  0.922600  0.223600  0.543600  1.0  0.1241
  H  H15  1  0.735600  0.976400  0.364600  1.0  0.1126
  H  H16  1  0.664400  0.833000  0.378500  1.0  0.1104
  H  H17  1  0.497500  0.799400  0.493000  1.0  0.1194
  H  H18  1  0.657900  0.145200  0.433800  1.0  0.0917
  H  H19  1  0.161300  0.704000  0.649300  1.0  0.092
  H  H20  1  0.792200  0.470400  0.450200  1.0  0.1031
  H  H21  1  0.055000  0.838600  0.034600  1.0  0.1054
  H  H22  1  0.197200  0.255800  0.195800  1.0  0.0994
  H  H23  1  0.301000  0.223600  0.043600  1.0  0.1238
  H  H24  1  0.240800  0.976400  0.864600  1.0  0.1129
  H  H25  1  0.168600  0.833000  0.878500  1.0  0.111
  H  H26  1  0.301900  0.799400  0.993000  1.0  0.1195
  H  H27  1  0.487300  0.145200  0.933800  1.0  0.092
  H  H28  1  0.542700  0.704000  0.149300  1.0  0.0921
  H  H29  1  0.678200  0.470400  0.950200  1.0  0.1027
  H  H30  1  0.216400  0.161400  0.465400  1.0  0.1051
  H  H31  1  0.941400  0.744200  0.304200  1.0  0.099
  H  H32  1  0.077400  0.776400  0.456400  1.0  0.1234
  H  H33  1  0.264400  0.023600  0.635400  1.0  0.1125
  H  H34  1  0.335600  0.167000  0.621500  1.0  0.1112
  H  H35  1  0.502500  0.200600  0.507000  1.0  0.1191
  H  H36  1  0.342100  0.854800  0.566200  1.0  0.0923
  H  H37  1  0.838700  0.296000  0.350700  1.0  0.0927
  H  H38  1  0.207800  0.529600  0.549800  1.0  0.1027
  C  C39  1  0.897250  0.061740  0.943750  1.0  0.122
  C  C40  1  0.818600  0.832400  0.855520  1.0  0.0146
  C  C41  1  0.761020  0.849240  0.939500  1.0  -0.1543
  C  C42  1  0.765900  0.063040  0.085200  1.0  -0.0787
  C  C43  1  0.627340  0.033300  0.044750  1.0  0.0245
  C  C44  1  0.618870  0.119940  0.004500  1.0  -0.1015
  C  C45  1  0.507980  0.913760  0.039600  1.0  -0.099
  C  C46  1  0.221410  0.278420  0.878990  1.0  0.6426
  C  C47  1  0.366000  0.394460  0.940180  1.0  -0.1257
  C  C48  1  0.474300  0.377900  0.910770  1.0  -0.0652
  C  C49  1  0.393230  0.517420  0.029660  1.0  -0.0553
  C  C50  1  0.835510  0.938260  0.556250  1.0  0.1226
  C  C51  1  0.986200  0.167600  0.644480  1.0  0.0158
  C  C52  1  0.911780  0.150760  0.560500  1.0  -0.1554
  C  C53  1  0.702860  0.936960  0.414800  1.0  -0.0758
  C  C54  1  0.594040  0.966700  0.455250  1.0  0.0236
  C  C55  1  0.498930  0.880060  0.495500  1.0  -0.1021
  C  C56  1  0.594220  0.086240  0.460400  1.0  -0.0966
  C  C57  1  0.942990  0.721580  0.621010  1.0  0.6413
  C  C58  1  0.971540  0.605540  0.559820  1.0  -0.1254
  C  C59  1  0.096400  0.622100  0.589230  1.0  -0.065
  C  C60  1  0.875810  0.482580  0.470340  1.0  -0.0563
  C  C61  1  0.102750  0.938260  0.056250  1.0  0.1231
  C  C62  1  0.181400  0.167600  0.144480  1.0  0.0158
  C  C63  1  0.238980  0.150760  0.060500  1.0  -0.1549
  C  C64  1  0.234100  0.936960  0.914800  1.0  -0.0767
  C  C65  1  0.372660  0.966700  0.955250  1.0  0.0246
  C  C66  1  0.381130  0.880060  0.995500  1.0  -0.0999
  C  C67  1  0.492020  0.086240  0.960400  1.0  -0.0877
  C  C68  1  0.778590  0.721580  0.121010  1.0  0.6419
  C  C69  1  0.634000  0.605540  0.059820  1.0  -0.1234
  C  C70  1  0.525700  0.622100  0.089230  1.0  -0.0653
  C  C71  1  0.606770  0.482580  0.970340  1.0  -0.0513
  C  C72  1  0.164490  0.061740  0.443750  1.0  0.1224
  C  C73  1  0.013800  0.832400  0.355520  1.0  0.014
  C  C74  1  0.088220  0.849240  0.439500  1.0  -0.154
  C  C75  1  0.297140  0.063040  0.585200  1.0  -0.0795
  C  C76  1  0.405960  0.033300  0.544750  1.0  0.0243
  C  C77  1  0.501070  0.119940  0.504500  1.0  -0.1002
  C  C78  1  0.405780  0.913760  0.539600  1.0  -0.0897
  C  C79  1  0.057010  0.278420  0.378990  1.0  0.6428
  C  C80  1  0.028460  0.394460  0.440180  1.0  -0.1231
  C  C81  1  0.903600  0.377900  0.410770  1.0  -0.0647
  C  C82  1  0.124190  0.517420  0.529660  1.0  -0.0507
  N  N83  1  0.904500  0.965920  0.857490  1.0  -0.4326
  N  N84  1  0.812110  0.995040  0.994710  1.0  0.064
  N  N85  1  0.938580  0.034080  0.642510  1.0  -0.4331
  N  N86  1  0.817070  0.004960  0.505290  1.0  0.0643
  N  N87  1  0.095500  0.034080  0.142510  1.0  -0.4318
  N  N88  1  0.187890  0.004960  0.005290  1.0  0.0641
  N  N89  1  0.061420  0.965920  0.357490  1.0  -0.4323
  N  N90  1  0.182930  0.995040  0.494710  1.0  0.0644
  O  O91  1  0.204150  0.156700  0.813890  1.0  -0.5913
  O  O92  1  0.128920  0.303280  0.894640  1.0  -0.5745
  O  O93  1  0.047450  0.843300  0.686110  1.0  -0.5912
  O  O94  1  0.825640  0.696720  0.605360  1.0  -0.5747
  O  O95  1  0.795850  0.843300  0.186110  1.0  -0.5915
  O  O96  1  0.871080  0.696720  0.105360  1.0  -0.5731
  O  O97  1  0.952550  0.156700  0.313890  1.0  -0.5917
  O  O98  1  0.174360  0.303280  0.394640  1.0  -0.5728
