# generated using pymatgen
data_Zn3H24C48O13
_symmetry_space_group_name_H-M   'P 1'
_cell_length_a   15.57800000
_cell_length_b   15.57800000
_cell_length_c   16.52100000
_cell_angle_alpha   90.00000000
_cell_angle_beta   90.00000000
_cell_angle_gamma   120.00000000
_symmetry_Int_Tables_number   1
_chemical_formula_structural   Zn3H24C48O13
_chemical_formula_sum   'Zn6 H48 C96 O26'
_cell_volume   3472.08510649
_cell_formula_units_Z   2
loop_
 _symmetry_equiv_pos_site_id
 _symmetry_equiv_pos_as_xyz
  1  'x, y, z'
loop_
 _atom_site_type_symbol
 _atom_site_label
 _atom_site_symmetry_multiplicity
 _atom_site_fract_x
 _atom_site_fract_y
 _atom_site_fract_z
 _atom_site_occupancy
 _atom_site_charge
  Zn  Zn1  1  0.259080  0.518160  0.750000  1.0  1.1727
  Zn  Zn2  1  0.259080  0.740920  0.750000  1.0  1.173
  Zn  Zn3  1  0.481840  0.740920  0.750000  1.0  1.1781
  Zn  Zn4  1  0.740920  0.481840  0.250000  1.0  1.1743
  Zn  Zn5  1  0.740920  0.259080  0.250000  1.0  1.1771
  Zn  Zn6  1  0.518160  0.259080  0.250000  1.0  1.1734
  H  H7  1  0.692000  0.453900  0.478000  1.0  0.1042
  H  H8  1  0.766400  0.481600  0.602400  1.0  0.0979
  H  H9  1  0.710600  0.541100  0.711500  1.0  0.1029
  H  H10  1  0.577600  0.564300  0.695000  1.0  0.1095
  H  H11  1  0.761900  0.308000  0.478000  1.0  0.1051
  H  H12  1  0.715200  0.233600  0.602400  1.0  0.0979
  H  H13  1  0.830500  0.289400  0.711500  1.0  0.1007
  H  H14  1  0.986700  0.422400  0.695000  1.0  0.1085
  H  H15  1  0.546100  0.238100  0.478000  1.0  0.1057
  H  H16  1  0.518400  0.284800  0.602400  1.0  0.099
  H  H17  1  0.458900  0.169500  0.711500  1.0  0.1015
  H  H18  1  0.435700  0.013300  0.695000  1.0  0.1083
  H  H19  1  0.761900  0.453900  0.022000  1.0  0.1046
  H  H20  1  0.715200  0.481600  0.897600  1.0  0.0982
  H  H21  1  0.830500  0.541100  0.788500  1.0  0.1027
  H  H22  1  0.986700  0.564300  0.805000  1.0  0.1088
  H  H23  1  0.546100  0.308000  0.022000  1.0  0.1056
  H  H24  1  0.518400  0.233600  0.897600  1.0  0.0977
  H  H25  1  0.458900  0.289400  0.788500  1.0  0.101
  H  H26  1  0.435700  0.422400  0.805000  1.0  0.1083
  H  H27  1  0.692000  0.238100  0.022000  1.0  0.1049
  H  H28  1  0.766400  0.284800  0.897600  1.0  0.0985
  H  H29  1  0.710600  0.169500  0.788500  1.0  0.102
  H  H30  1  0.577600  0.013300  0.805000  1.0  0.108
  H  H31  1  0.308000  0.546100  0.522000  1.0  0.1048
  H  H32  1  0.233600  0.518400  0.397600  1.0  0.0988
  H  H33  1  0.289400  0.458900  0.288500  1.0  0.1022
  H  H34  1  0.422400  0.435700  0.305000  1.0  0.1091
  H  H35  1  0.238100  0.692000  0.522000  1.0  0.1053
  H  H36  1  0.284800  0.766400  0.397600  1.0  0.0978
  H  H37  1  0.169500  0.710600  0.288500  1.0  0.1003
  H  H38  1  0.013300  0.577600  0.305000  1.0  0.1078
  H  H39  1  0.453900  0.761900  0.522000  1.0  0.1052
  H  H40  1  0.481600  0.715200  0.397600  1.0  0.099
  H  H41  1  0.541100  0.830500  0.288500  1.0  0.1022
  H  H42  1  0.564300  0.986700  0.305000  1.0  0.1081
  H  H43  1  0.238100  0.546100  0.978000  1.0  0.1047
  H  H44  1  0.284800  0.518400  0.102400  1.0  0.0987
  H  H45  1  0.169500  0.458900  0.211500  1.0  0.1023
  H  H46  1  0.013300  0.435700  0.195000  1.0  0.1095
  H  H47  1  0.453900  0.692000  0.978000  1.0  0.1059
  H  H48  1  0.481600  0.766400  0.102400  1.0  0.0978
  H  H49  1  0.541100  0.710600  0.211500  1.0  0.1011
  H  H50  1  0.564300  0.577600  0.195000  1.0  0.1082
  H  H51  1  0.308000  0.761900  0.978000  1.0  0.1059
  H  H52  1  0.233600  0.715200  0.102400  1.0  0.0988
  H  H53  1  0.289400  0.830500  0.211500  1.0  0.1013
  H  H54  1  0.422400  0.986700  0.195000  1.0  0.1081
  C  C55  1  0.433500  0.572700  0.634620  1.0  0.7099
  C  C56  1  0.466900  0.534800  0.564690  1.0  -0.1049
  C  C57  1  0.549100  0.521700  0.575470  1.0  0.0418
  C  C58  1  0.582400  0.485900  0.509440  1.0  0.0445
  C  C59  1  0.667000  0.474500  0.521830  1.0  -0.0853
  C  C60  1  0.712000  0.492300  0.594800  1.0  -0.0788
  C  C61  1  0.677900  0.527400  0.660700  1.0  -0.0825
  C  C62  1  0.599500  0.541200  0.650700  1.0  -0.1007
  C  C63  1  0.139200  0.566500  0.634620  1.0  0.7095
  C  C64  1  0.067900  0.533100  0.564690  1.0  -0.1051
  C  C65  1  0.972600  0.450900  0.575470  1.0  0.0419
  C  C66  1  0.903500  0.417600  0.509440  1.0  0.0437
  C  C67  1  0.807500  0.333000  0.521830  1.0  -0.0848
  C  C68  1  0.780300  0.288000  0.594800  1.0  -0.0778
  C  C69  1  0.849500  0.322100  0.660700  1.0  -0.0818
  C  C70  1  0.941700  0.400500  0.650700  1.0  -0.0964
  C  C71  1  0.427300  0.860800  0.634620  1.0  0.7106
  C  C72  1  0.465200  0.932100  0.564690  1.0  -0.1051
  C  C73  1  0.478300  0.027400  0.575470  1.0  0.0427
  C  C74  1  0.514100  0.096500  0.509440  1.0  0.0431
  C  C75  1  0.525500  0.192500  0.521830  1.0  -0.086
  C  C76  1  0.507700  0.219700  0.594800  1.0  -0.0777
  C  C77  1  0.472600  0.150500  0.660700  1.0  -0.0789
  C  C78  1  0.458800  0.058300  0.650700  1.0  -0.0957
  C  C79  1  0.139200  0.572700  0.865380  1.0  0.7099
  C  C80  1  0.067900  0.534800  0.935310  1.0  -0.1052
  C  C81  1  0.972600  0.521700  0.924530  1.0  0.0418
  C  C82  1  0.903500  0.485900  0.990560  1.0  0.0442
  C  C83  1  0.807500  0.474500  0.978170  1.0  -0.085
  C  C84  1  0.780300  0.492300  0.905200  1.0  -0.0798
  C  C85  1  0.849500  0.527400  0.839300  1.0  -0.0836
  C  C86  1  0.941700  0.541200  0.849300  1.0  -0.1001
  C  C87  1  0.427300  0.566500  0.865380  1.0  0.7094
  C  C88  1  0.465200  0.533100  0.935310  1.0  -0.1046
  C  C89  1  0.478300  0.450900  0.924530  1.0  0.0423
  C  C90  1  0.514100  0.417600  0.990560  1.0  0.0432
  C  C91  1  0.525500  0.333000  0.978170  1.0  -0.0862
  C  C92  1  0.507700  0.288000  0.905200  1.0  -0.0811
  C  C93  1  0.472600  0.322100  0.839300  1.0  -0.0832
  C  C94  1  0.458800  0.400500  0.849300  1.0  -0.0969
  C  C95  1  0.433500  0.860800  0.865380  1.0  0.7106
  C  C96  1  0.466900  0.932100  0.935310  1.0  -0.1052
  C  C97  1  0.549100  0.027400  0.924530  1.0  0.0427
  C  C98  1  0.582400  0.096500  0.990560  1.0  0.0435
  C  C99  1  0.667000  0.192500  0.978170  1.0  -0.0861
  C  C100  1  0.712000  0.219700  0.905200  1.0  -0.0775
  C  C101  1  0.677900  0.150500  0.839300  1.0  -0.0812
  C  C102  1  0.599500  0.058300  0.849300  1.0  -0.0954
  C  C103  1  0.566500  0.427300  0.365380  1.0  0.7098
  C  C104  1  0.533100  0.465200  0.435310  1.0  -0.1053
  C  C105  1  0.450900  0.478300  0.424530  1.0  0.0415
  C  C106  1  0.417600  0.514100  0.490560  1.0  0.0434
  C  C107  1  0.333000  0.525500  0.478170  1.0  -0.0845
  C  C108  1  0.288000  0.507700  0.405200  1.0  -0.0805
  C  C109  1  0.322100  0.472600  0.339300  1.0  -0.0844
  C  C110  1  0.400500  0.458800  0.349300  1.0  -0.1001
  C  C111  1  0.860800  0.433500  0.365380  1.0  0.7093
  C  C112  1  0.932100  0.466900  0.435310  1.0  -0.1046
  C  C113  1  0.027400  0.549100  0.424530  1.0  0.0425
  C  C114  1  0.096500  0.582400  0.490560  1.0  0.0432
  C  C115  1  0.192500  0.667000  0.478170  1.0  -0.0875
  C  C116  1  0.219700  0.712000  0.405200  1.0  -0.0804
  C  C117  1  0.150500  0.677900  0.339300  1.0  -0.0831
  C  C118  1  0.058300  0.599500  0.349300  1.0  -0.0975
  C  C119  1  0.572700  0.139200  0.365380  1.0  0.7113
  C  C120  1  0.534800  0.067900  0.435310  1.0  -0.105
  C  C121  1  0.521700  0.972600  0.424530  1.0  0.0424
  C  C122  1  0.485900  0.903500  0.490560  1.0  0.0439
  C  C123  1  0.474500  0.807500  0.478170  1.0  -0.0867
  C  C124  1  0.492300  0.780300  0.405200  1.0  -0.0779
  C  C125  1  0.527400  0.849500  0.339300  1.0  -0.0788
  C  C126  1  0.541200  0.941700  0.349300  1.0  -0.0946
  C  C127  1  0.860800  0.427300  0.134620  1.0  0.7097
  C  C128  1  0.932100  0.465200  0.064690  1.0  -0.105
  C  C129  1  0.027400  0.478300  0.075470  1.0  0.0415
  C  C130  1  0.096500  0.514100  0.009440  1.0  0.0436
  C  C131  1  0.192500  0.525500  0.021830  1.0  -0.0858
  C  C132  1  0.219700  0.507700  0.094800  1.0  -0.078
  C  C133  1  0.150500  0.472600  0.160700  1.0  -0.0835
  C  C134  1  0.058300  0.458800  0.150700  1.0  -0.1007
  C  C135  1  0.572700  0.433500  0.134620  1.0  0.7093
  C  C136  1  0.534800  0.466900  0.064690  1.0  -0.1051
  C  C137  1  0.521700  0.549100  0.075470  1.0  0.0422
  C  C138  1  0.485900  0.582400  0.009440  1.0  0.0435
  C  C139  1  0.474500  0.667000  0.021830  1.0  -0.0853
  C  C140  1  0.492300  0.712000  0.094800  1.0  -0.0771
  C  C141  1  0.527400  0.677900  0.160700  1.0  -0.0813
  C  C142  1  0.541200  0.599500  0.150700  1.0  -0.0968
  C  C143  1  0.566500  0.139200  0.134620  1.0  0.7111
  C  C144  1  0.533100  0.067900  0.064690  1.0  -0.1049
  C  C145  1  0.450900  0.972600  0.075470  1.0  0.0425
  C  C146  1  0.417600  0.903500  0.009440  1.0  0.0439
  C  C147  1  0.333000  0.807500  0.021830  1.0  -0.0864
  C  C148  1  0.288000  0.780300  0.094800  1.0  -0.0776
  C  C149  1  0.322100  0.849500  0.160700  1.0  -0.0803
  C  C150  1  0.400500  0.941700  0.150700  1.0  -0.0954
  O  O151  1  0.360170  0.507690  0.674650  1.0  -0.6177
  O  O152  1  0.481350  0.664420  0.647340  1.0  -0.5957
  O  O153  1  0.147520  0.639830  0.674650  1.0  -0.6192
  O  O154  1  0.183070  0.518650  0.647340  1.0  -0.5959
  O  O155  1  0.492310  0.852480  0.674650  1.0  -0.6168
  O  O156  1  0.335580  0.816930  0.647340  1.0  -0.595
  O  O157  1  0.147520  0.507690  0.825350  1.0  -0.618
  O  O158  1  0.183070  0.664420  0.852660  1.0  -0.5976
  O  O159  1  0.492310  0.639830  0.825350  1.0  -0.6188
  O  O160  1  0.335580  0.518650  0.852660  1.0  -0.5962
  O  O161  1  0.360170  0.852480  0.825350  1.0  -0.6179
  O  O162  1  0.481350  0.816930  0.852660  1.0  -0.5948
  O  O163  1  0.639830  0.492310  0.325350  1.0  -0.6174
  O  O164  1  0.518650  0.335580  0.352660  1.0  -0.5965
  O  O165  1  0.852480  0.360170  0.325350  1.0  -0.6187
  O  O166  1  0.816930  0.481350  0.352660  1.0  -0.595
  O  O167  1  0.507690  0.147520  0.325350  1.0  -0.6179
  O  O168  1  0.664420  0.183070  0.352660  1.0  -0.5946
  O  O169  1  0.852480  0.492310  0.174650  1.0  -0.6174
  O  O170  1  0.816930  0.335580  0.147340  1.0  -0.5974
  O  O171  1  0.507690  0.360170  0.174650  1.0  -0.618
  O  O172  1  0.664420  0.481350  0.147340  1.0  -0.5956
  O  O173  1  0.639830  0.147520  0.174650  1.0  -0.6172
  O  O174  1  0.518650  0.183070  0.147340  1.0  -0.595
  O  O175  1  0.333333  0.666667  0.750000  1.0  -0.806
  O  O176  1  0.666667  0.333333  0.250000  1.0  -0.806
