# generated using pymatgen
data_Zn2H24C34(NO3)3
_symmetry_space_group_name_H-M   'P 1'
_cell_length_a   13.86060000
_cell_length_b   16.91420000
_cell_length_c   18.15880000
_cell_angle_alpha   112.89500000
_cell_angle_beta   96.84000000
_cell_angle_gamma   101.84000000
_symmetry_Int_Tables_number   1
_chemical_formula_structural   Zn2H24C34(NO3)3
_chemical_formula_sum   'Zn8 H96 C136 N12 O36'
_cell_volume   3743.76307811
_cell_formula_units_Z   4
loop_
 _symmetry_equiv_pos_site_id
 _symmetry_equiv_pos_as_xyz
  1  'x, y, z'
loop_
 _atom_site_type_symbol
 _atom_site_label
 _atom_site_symmetry_multiplicity
 _atom_site_fract_x
 _atom_site_fract_y
 _atom_site_fract_z
 _atom_site_occupancy
 _atom_site_charge
  Zn  Zn1  1  0.161130  0.346620  0.851790  1.0  0.8785
  Zn  Zn2  1  0.821460  0.149010  0.153180  1.0  0.8862
  Zn  Zn3  1  0.141190  0.927690  0.598500  1.0  1.0149
  Zn  Zn4  1  0.149960  0.413670  0.603650  1.0  1.0289
  Zn  Zn5  1  0.838870  0.653380  0.148210  1.0  0.8765
  Zn  Zn6  1  0.178540  0.850990  0.846820  1.0  0.8868
  Zn  Zn7  1  0.858810  0.072310  0.401500  1.0  1.0155
  Zn  Zn8  1  0.850040  0.586330  0.396350  1.0  1.0283
  H  H9  1  0.819100  0.385500  0.844900  1.0  0.1247
  H  H10  1  0.637500  0.327900  0.632200  1.0  0.1352
  H  H11  1  0.774500  0.331500  0.571500  1.0  0.1076
  H  H12  1  0.463200  0.374300  0.795100  1.0  0.1271
  H  H13  1  0.610900  0.192400  0.698500  1.0  0.1109
  H  H14  1  0.461600  0.081300  0.654500  1.0  0.1029
  H  H15  1  0.514500  0.144300  0.206400  1.0  0.1258
  H  H16  1  0.371200  0.334800  0.255300  1.0  0.1171
  H  H17  1  0.524300  0.441600  0.300000  1.0  0.103
  H  H18  1  0.152100  0.121900  0.147200  1.0  0.1181
  H  H19  1  0.363700  0.197900  0.350000  1.0  0.1294
  H  H20  1  0.238600  0.177800  0.419800  1.0  0.102
  H  H21  1  0.208500  0.242500  0.948300  1.0  0.0898
  H  H22  1  0.197700  0.239700  0.071500  1.0  0.1202
  H  H23  1  0.040300  0.417800  0.111600  1.0  0.1149
  H  H24  1  0.055200  0.418300  0.987400  1.0  0.078
  H  H25  1  0.267400  0.417800  0.483800  1.0  0.0778
  H  H26  1  0.257000  0.416500  0.355900  1.0  0.1094
  H  H27  1  0.970600  0.397600  0.337900  1.0  0.1247
  H  H28  1  0.985300  0.399600  0.465500  1.0  0.0738
  H  H29  1  0.161200  0.306200  0.205300  1.0  0.0918
  H  H30  1  0.044000  0.286300  0.180100  1.0  0.1019
  H  H31  1  0.172500  0.457200  0.257200  1.0  0.0796
  H  H32  1  0.054100  0.432200  0.239000  1.0  0.092
  H  H33  1  0.214200  0.501400  0.812400  1.0  0.0731
  H  H34  1  0.323600  0.640100  0.861100  1.0  0.0949
  H  H35  1  0.425100  0.611600  0.060500  1.0  0.1179
  H  H36  1  0.321000  0.470100  0.001800  1.0  0.0749
  H  H37  1  0.775700  0.996700  0.196500  1.0  0.0737
  H  H38  1  0.670700  0.855800  0.149500  1.0  0.1137
  H  H39  1  0.555800  0.885200  0.951800  1.0  0.1163
  H  H40  1  0.653900  0.028300  0.011100  1.0  0.0775
  H  H41  1  0.439700  0.772700  0.068300  1.0  0.0968
  H  H42  1  0.415400  0.782000  0.985000  1.0  0.0915
  H  H43  1  0.571000  0.715100  0.027400  1.0  0.095
  H  H44  1  0.546700  0.724400  0.944200  1.0  0.0991
  H  H45  1  0.784100  0.255300  0.059900  1.0  0.0761
  H  H46  1  0.796900  0.261000  0.938400  1.0  0.1307
  H  H47  1  0.946300  0.075200  0.893900  1.0  0.1185
  H  H48  1  0.922600  0.070100  0.015700  1.0  0.077
  H  H49  1  0.721500  0.057100  0.505600  1.0  0.0975
  H  H50  1  0.718900  0.059500  0.632300  1.0  0.1152
  H  H51  1  0.018300  0.111000  0.679800  1.0  0.1247
  H  H52  1  0.015500  0.109000  0.553400  1.0  0.0783
  H  H53  1  0.829600  0.192900  0.802900  1.0  0.093
  H  H54  1  0.946100  0.205500  0.824700  1.0  0.1036
  H  H55  1  0.805200  0.040100  0.749800  1.0  0.0842
  H  H56  1  0.922800  0.056700  0.765800  1.0  0.0879
  H  H57  1  0.180900  0.614500  0.155100  1.0  0.1245
  H  H58  1  0.362500  0.672100  0.367800  1.0  0.1344
  H  H59  1  0.225500  0.668500  0.428500  1.0  0.1071
  H  H60  1  0.536800  0.625700  0.204900  1.0  0.1267
  H  H61  1  0.389100  0.807600  0.301500  1.0  0.1115
  H  H62  1  0.538400  0.918700  0.345500  1.0  0.1031
  H  H63  1  0.485500  0.855700  0.793600  1.0  0.1252
  H  H64  1  0.628800  0.665200  0.744700  1.0  0.1173
  H  H65  1  0.475700  0.558400  0.700000  1.0  0.1025
  H  H66  1  0.847900  0.878100  0.852800  1.0  0.1178
  H  H67  1  0.636300  0.802100  0.650000  1.0  0.1298
  H  H68  1  0.761400  0.822200  0.580200  1.0  0.1022
  H  H69  1  0.791500  0.757500  0.051700  1.0  0.0898
  H  H70  1  0.802300  0.760300  0.928500  1.0  0.1195
  H  H71  1  0.959700  0.582200  0.888400  1.0  0.1154
  H  H72  1  0.944800  0.581700  0.012600  1.0  0.0782
  H  H73  1  0.732600  0.582200  0.516200  1.0  0.0778
  H  H74  1  0.743000  0.583500  0.644100  1.0  0.1075
  H  H75  1  0.029400  0.602400  0.662100  1.0  0.1258
  H  H76  1  0.014700  0.600400  0.534500  1.0  0.0736
  H  H77  1  0.838800  0.693800  0.794700  1.0  0.0903
  H  H78  1  0.956000  0.713700  0.819900  1.0  0.1019
  H  H79  1  0.827500  0.542800  0.742800  1.0  0.0799
  H  H80  1  0.945900  0.567800  0.761000  1.0  0.0926
  H  H81  1  0.785800  0.498600  0.187600  1.0  0.0727
  H  H82  1  0.676400  0.359900  0.138900  1.0  0.0943
  H  H83  1  0.574900  0.388400  0.939500  1.0  0.1177
  H  H84  1  0.679000  0.529900  0.998200  1.0  0.0748
  H  H85  1  0.224300  0.003300  0.803500  1.0  0.0739
  H  H86  1  0.329300  0.144200  0.850500  1.0  0.1137
  H  H87  1  0.444200  0.114800  0.048200  1.0  0.1165
  H  H88  1  0.346100  0.971700  0.988900  1.0  0.0776
  H  H89  1  0.560300  0.227300  0.931700  1.0  0.0974
  H  H90  1  0.584600  0.218000  0.015000  1.0  0.0929
  H  H91  1  0.429000  0.284900  0.972600  1.0  0.0947
  H  H92  1  0.453300  0.275600  0.055800  1.0  0.0984
  H  H93  1  0.215900  0.744700  0.940100  1.0  0.0764
  H  H94  1  0.203100  0.739000  0.061600  1.0  0.1304
  H  H95  1  0.053700  0.924800  0.106100  1.0  0.1168
  H  H96  1  0.077400  0.929900  0.984300  1.0  0.0768
  H  H97  1  0.278500  0.942900  0.494400  1.0  0.0983
  H  H98  1  0.281100  0.940500  0.367700  1.0  0.1161
  H  H99  1  0.981700  0.889000  0.320200  1.0  0.1254
  H  H100  1  0.984500  0.891000  0.446600  1.0  0.0785
  H  H101  1  0.170400  0.807100  0.197100  1.0  0.0927
  H  H102  1  0.053900  0.794500  0.175300  1.0  0.1042
  H  H103  1  0.194800  0.959900  0.250200  1.0  0.0838
  H  H104  1  0.077200  0.943300  0.234200  1.0  0.086
  C  C105  1  0.881800  0.357100  0.670300  1.0  -0.1464
  C  C106  1  0.894300  0.373200  0.752800  1.0  -0.0336
  C  C107  1  0.810800  0.373900  0.789700  1.0  -0.2285
  C  C108  1  0.717200  0.357400  0.743700  1.0  0.2864
  C  C109  1  0.702100  0.340200  0.662500  1.0  -0.262
  C  C110  1  0.784100  0.341400  0.626300  1.0  -0.0207
  C  C111  1  0.967600  0.364700  0.629300  1.0  0.6778
  C  C112  1  0.993700  0.386200  0.805600  1.0  0.6617
  C  C113  1  0.370900  0.160500  0.700200  1.0  -0.1369
  C  C114  1  0.373300  0.248100  0.741400  1.0  -0.0102
  C  C115  1  0.462900  0.315100  0.767100  1.0  -0.2109
  C  C116  1  0.551200  0.294400  0.751600  1.0  0.3008
  C  C117  1  0.551200  0.206600  0.709300  1.0  -0.27
  C  C118  1  0.462000  0.140400  0.683500  1.0  -0.0393
  C  C119  1  0.273600  0.087600  0.668500  1.0  0.6628
  C  C120  1  0.281700  0.277700  0.765200  1.0  0.668
  C  C121  1  0.613600  0.357500  0.281100  1.0  -0.155
  C  C122  1  0.609400  0.269200  0.253100  1.0  -0.0035
  C  C123  1  0.516500  0.204300  0.225600  1.0  -0.1641
  C  C124  1  0.428800  0.229000  0.227000  1.0  0.2829
  C  C125  1  0.431100  0.318000  0.254700  1.0  -0.2482
  C  C126  1  0.522700  0.381700  0.281400  1.0  -0.0191
  C  C127  1  0.711300  0.428300  0.319100  1.0  0.6799
  C  C128  1  0.701300  0.234000  0.243100  1.0  0.6617
  C  C129  1  0.117500  0.141700  0.327500  1.0  -0.1604
  C  C130  1  0.092900  0.126200  0.245200  1.0  -0.004
  C  C131  1  0.169100  0.134300  0.202400  1.0  -0.234
  C  C132  1  0.269300  0.160500  0.241900  1.0  0.2845
  C  C133  1  0.295900  0.178600  0.323300  1.0  -0.2294
  C  C134  1  0.220500  0.167600  0.365200  1.0  -0.0113
  C  C135  1  0.039600  0.124700  0.373400  1.0  0.6712
  C  C136  1  0.988200  0.107400  0.198200  1.0  0.659
  C  C137  1  0.174700  0.278900  0.981800  1.0  0.1693
  C  C138  1  0.168000  0.276800  0.055600  1.0  -0.2145
  C  C139  1  0.117400  0.329100  0.106600  1.0  0.1485
  C  C140  1  0.075500  0.381700  0.079400  1.0  -0.2182
  C  C141  1  0.084700  0.381800  0.004400  1.0  0.1882
  C  C142  1  0.205300  0.414800  0.455400  1.0  0.1771
  C  C143  1  0.199400  0.413900  0.377400  1.0  -0.2067
  C  C144  1  0.114300  0.409400  0.334600  1.0  0.2049
  C  C145  1  0.033400  0.402900  0.367000  1.0  -0.1964
  C  C146  1  0.043200  0.404200  0.444500  1.0  0.1976
  C  C147  1  0.107800  0.328300  0.187800  1.0  -0.1648
  C  C148  1  0.112300  0.413100  0.252800  1.0  -0.1581
  C  C149  1  0.259600  0.523200  0.862300  1.0  0.19
  C  C150  1  0.324800  0.607600  0.892200  1.0  -0.1846
  C  C151  1  0.388800  0.643400  0.964000  1.0  0.1352
  C  C152  1  0.384600  0.589500  0.008300  1.0  -0.2348
  C  C153  1  0.320700  0.505400  0.973200  1.0  0.1737
  C  C154  1  0.727200  0.974600  0.148100  1.0  0.1939
  C  C155  1  0.665600  0.888800  0.119200  1.0  -0.1938
  C  C156  1  0.598800  0.853100  0.048000  1.0  0.1239
  C  C157  1  0.597400  0.907900  0.003600  1.0  -0.2215
  C  C158  1  0.657400  0.992400  0.038700  1.0  0.1686
  C  C159  1  0.443400  0.748800  0.011000  1.0  -0.1647
  C  C160  1  0.543200  0.748400  0.001500  1.0  -0.1712
  C  C161  1  0.815700  0.217300  0.025400  1.0  0.179
  C  C162  1  0.823700  0.221500  0.952800  1.0  -0.2229
  C  C163  1  0.871800  0.166600  0.900200  1.0  0.1531
  C  C164  1  0.911000  0.111300  0.925800  1.0  -0.2231
  C  C165  1  0.897700  0.109500  0.000100  1.0  0.1797
  C  C166  1  0.781700  0.066700  0.540600  1.0  0.1569
  C  C167  1  0.780200  0.068300  0.616600  1.0  -0.1417
  C  C168  1  0.867600  0.082700  0.669800  1.0  0.1488
  C  C169  1  0.956900  0.098900  0.645000  1.0  -0.2109
  C  C170  1  0.954600  0.097000  0.568900  1.0  0.1951
  C  C171  1  0.880300  0.167100  0.818600  1.0  -0.1698
  C  C172  1  0.868200  0.080300  0.753000  1.0  -0.1737
  C  C173  1  0.118200  0.642900  0.329700  1.0  -0.1458
  C  C174  1  0.105700  0.626800  0.247200  1.0  -0.0342
  C  C175  1  0.189200  0.626100  0.210300  1.0  -0.2248
  C  C176  1  0.282800  0.642600  0.256300  1.0  0.2867
  C  C177  1  0.297900  0.659800  0.337500  1.0  -0.2639
  C  C178  1  0.215900  0.658600  0.373700  1.0  -0.0206
  C  C179  1  0.032400  0.635300  0.370700  1.0  0.6783
  C  C180  1  0.006300  0.613800  0.194400  1.0  0.6608
  C  C181  1  0.629100  0.839500  0.299800  1.0  -0.1273
  C  C182  1  0.626700  0.751900  0.258600  1.0  -0.0191
  C  C183  1  0.537100  0.684900  0.232900  1.0  -0.213
  C  C184  1  0.448800  0.705600  0.248400  1.0  0.302
  C  C185  1  0.448800  0.793400  0.290700  1.0  -0.2734
  C  C186  1  0.538000  0.859600  0.316500  1.0  -0.0467
  C  C187  1  0.726400  0.912400  0.331500  1.0  0.6635
  C  C188  1  0.718300  0.722300  0.234800  1.0  0.6668
  C  C189  1  0.386400  0.642500  0.718900  1.0  -0.1564
  C  C190  1  0.390600  0.730800  0.746900  1.0  -0.0072
  C  C191  1  0.483500  0.795700  0.774400  1.0  -0.1377
  C  C192  1  0.571200  0.771000  0.773000  1.0  0.2834
  C  C193  1  0.568900  0.682000  0.745300  1.0  -0.2462
  C  C194  1  0.477300  0.618300  0.718600  1.0  -0.0184
  C  C195  1  0.288700  0.571700  0.680900  1.0  0.6788
  C  C196  1  0.298700  0.766000  0.756900  1.0  0.6617
  C  C197  1  0.882500  0.858300  0.672500  1.0  -0.1593
  C  C198  1  0.907100  0.873800  0.754800  1.0  -0.0036
  C  C199  1  0.830900  0.865700  0.797600  1.0  -0.2337
  C  C200  1  0.730700  0.839500  0.758100  1.0  0.2829
  C  C201  1  0.704100  0.821400  0.676700  1.0  -0.2296
  C  C202  1  0.779500  0.832400  0.634800  1.0  -0.0117
  C  C203  1  0.960400  0.875300  0.626600  1.0  0.671
  C  C204  1  0.011800  0.892600  0.801800  1.0  0.6598
  C  C205  1  0.825300  0.721100  0.018200  1.0  0.1694
  C  C206  1  0.832000  0.723200  0.944400  1.0  -0.212
  C  C207  1  0.882600  0.670900  0.893400  1.0  0.1478
  C  C208  1  0.924500  0.618300  0.920600  1.0  -0.2169
  C  C209  1  0.915300  0.618200  0.995600  1.0  0.1891
  C  C210  1  0.794700  0.585200  0.544600  1.0  0.1782
  C  C211  1  0.800600  0.586100  0.622600  1.0  -0.2097
  C  C212  1  0.885700  0.590600  0.665400  1.0  0.2042
  C  C213  1  0.966600  0.597100  0.633000  1.0  -0.198
  C  C214  1  0.956800  0.595800  0.555500  1.0  0.1976
  C  C215  1  0.892200  0.671700  0.812200  1.0  -0.1641
  C  C216  1  0.887700  0.586900  0.747200  1.0  -0.159
  C  C217  1  0.740400  0.476800  0.137700  1.0  0.1898
  C  C218  1  0.675200  0.392400  0.107800  1.0  -0.183
  C  C219  1  0.611200  0.356600  0.036000  1.0  0.1352
  C  C220  1  0.615400  0.410500  0.991700  1.0  -0.2341
  C  C221  1  0.679300  0.494600  0.026800  1.0  0.1741
  C  C222  1  0.272800  0.025400  0.851900  1.0  0.1935
  C  C223  1  0.334400  0.111200  0.880800  1.0  -0.1941
  C  C224  1  0.401200  0.146900  0.952000  1.0  0.1245
  C  C225  1  0.402600  0.092100  0.996400  1.0  -0.2216
  C  C226  1  0.342600  0.007600  0.961300  1.0  0.1684
  C  C227  1  0.556600  0.251200  0.989000  1.0  -0.1656
  C  C228  1  0.456800  0.251600  0.998500  1.0  -0.1692
  C  C229  1  0.184300  0.782700  0.974600  1.0  0.1785
  C  C230  1  0.176300  0.778500  0.047200  1.0  -0.2246
  C  C231  1  0.128200  0.833400  0.099800  1.0  0.1546
  C  C232  1  0.089000  0.888700  0.074200  1.0  -0.2239
  C  C233  1  0.102300  0.890500  0.999900  1.0  0.1786
  C  C234  1  0.218300  0.933300  0.459400  1.0  0.1565
  C  C235  1  0.219800  0.931700  0.383400  1.0  -0.1576
  C  C236  1  0.132400  0.917300  0.330200  1.0  0.15
  C  C237  1  0.043100  0.901100  0.355000  1.0  -0.209
  C  C238  1  0.045400  0.903000  0.431100  1.0  0.1955
  C  C239  1  0.119700  0.832900  0.181400  1.0  -0.171
  C  C240  1  0.131800  0.919700  0.247000  1.0  -0.1742
  N  N241  1  0.133700  0.332200  0.956000  1.0  -0.3505
  N  N242  1  0.128600  0.411500  0.490400  1.0  -0.3622
  N  N243  1  0.258900  0.471800  0.901600  1.0  -0.3289
  N  N244  1  0.721100  0.026500  0.110900  1.0  -0.3305
  N  N245  1  0.850800  0.161700  0.049400  1.0  -0.3606
  N  N246  1  0.869500  0.078800  0.516100  1.0  -0.3684
  N  N247  1  0.866300  0.667800  0.044000  1.0  -0.3483
  N  N248  1  0.871400  0.588500  0.509600  1.0  -0.364
  N  N249  1  0.741100  0.528200  0.098400  1.0  -0.3289
  N  N250  1  0.278900  0.973500  0.889100  1.0  -0.3307
  N  N251  1  0.149200  0.838300  0.950600  1.0  -0.3616
  N  N252  1  0.130500  0.921200  0.483900  1.0  -0.3678
  O  O253  1  0.051600  0.419900  0.673400  1.0  -0.6068
  O  O254  1  0.955300  0.321300  0.555100  1.0  -0.5906
  O  O255  1  0.034700  0.323500  0.779500  1.0  -0.5842
  O  O256  1  0.026100  0.452600  0.871000  1.0  -0.5778
  O  O257  1  0.278700  0.008400  0.656200  1.0  -0.6203
  O  O258  1  0.193200  0.104100  0.655300  1.0  -0.5833
  O  O259  1  0.242000  0.317800  0.731100  1.0  -0.5915
  O  O260  1  0.255300  0.269100  0.826600  1.0  -0.6065
  O  O261  1  0.638200  0.364000  0.784200  1.0  -0.2738
  O  O262  1  0.710800  0.509000  0.341000  1.0  -0.63
  O  O263  1  0.790900  0.408200  0.330200  1.0  -0.5912
  O  O264  1  0.736400  0.231300  0.181900  1.0  -0.6098
  O  O265  1  0.728000  0.198600  0.287100  1.0  -0.5855
  O  O266  1  0.954000  0.071200  0.330600  1.0  -0.6047
  O  O267  1  0.058600  0.160000  0.448200  1.0  -0.5883
  O  O268  1  0.944900  0.169200  0.226500  1.0  -0.5962
  O  O269  1  0.953700  0.039600  0.134400  1.0  -0.5708
  O  O270  1  0.338100  0.162800  0.193300  1.0  -0.279
  O  O271  1  0.948400  0.580100  0.326600  1.0  -0.6075
  O  O272  1  0.044700  0.678700  0.444900  1.0  -0.588
  O  O273  1  0.965300  0.676500  0.220500  1.0  -0.5836
  O  O274  1  0.973900  0.547400  0.129000  1.0  -0.5774
  O  O275  1  0.721300  0.991600  0.343800  1.0  -0.6302
  O  O276  1  0.806800  0.895900  0.344700  1.0  -0.5842
  O  O277  1  0.758000  0.682200  0.268900  1.0  -0.5912
  O  O278  1  0.744700  0.730900  0.173400  1.0  -0.6063
  O  O279  1  0.361800  0.636000  0.215800  1.0  -0.2745
  O  O280  1  0.289200  0.491000  0.659000  1.0  -0.63
  O  O281  1  0.209100  0.591800  0.669800  1.0  -0.5915
  O  O282  1  0.263600  0.768700  0.818100  1.0  -0.6095
  O  O283  1  0.272000  0.801400  0.712900  1.0  -0.5865
  O  O284  1  0.046000  0.928800  0.669400  1.0  -0.605
  O  O285  1  0.941400  0.840000  0.551800  1.0  -0.5881
  O  O286  1  0.055100  0.830800  0.773500  1.0  -0.5954
  O  O287  1  0.046300  0.960400  0.865600  1.0  -0.5704
  O  O288  1  0.661900  0.837200  0.806700  1.0  -0.2789
